data_PCOD9314052
_publ_section_title
;
Structure prediction by ZEFSAII (Michael W. Deem and Ramdas Pophale) SiO2 
 PCOD9314052
Probable space group: P 21 21 21
;
_chemical_formula_sum "Si O2"
_cell_formula_units_Z 24
_cell_length_a 7.404667
_cell_length_b 9.143687
_cell_length_c 16.129082
_cell_angle_alpha 90.000000
_cell_angle_beta 90.000000
_cell_angle_gamma 90.000000
_cell_volume 1092.034939
_symmetry_space_group_name_H-M "P 21 21 21"
_symmetry_group_IT_number 19
_symmetry_cell_setting 'orthorhombic'
loop_
_space_group_symop_operation_xyz
x,y,z
1/2-x,-y,1/2+z
1/2+x,1/2-y,-z
-x,1/2+y,1/2-z
loop_
_atom_site_type_symbol
_atom_site_label
_atom_site_fract_x
_atom_site_fract_y
_atom_site_fract_z
Si Si1 0.145511 0.820066 0.475301
Si Si2 0.892362 0.094275 0.155468
Si Si3 0.029980 0.786920 0.096904
Si Si4 0.165543 0.399543 0.689125
Si Si5 0.807861 0.798640 0.373951
Si Si6 0.669020 0.602824 0.080722
O O1 0.158512 0.659956 0.433937
O O2 0.177894 0.805397 0.572507
O O3 0.949167 0.865568 0.441968
O O4 0.289189 0.932360 0.437364
O O5 0.724870 0.115397 0.216021
O O6 0.059547 0.200090 0.182225
O O7 0.968456 0.932451 0.145862
O O8 0.859193 0.680341 0.094909
O O9 0.200174 0.706463 0.138132
O O10 0.080291 0.833519 0.003094
O O11 0.210180 0.568116 0.668009
O O12 0.963982 0.372777 0.657791
#
# Coordination Sequence:
#
# PCOD9314052 Si02
#       6
#     4   4   4   4   4   4
#     4  10  21  42  66  95 124 173 226 260 319 395
#     4  10  24  40  66  96 135 176 215 271 334 381
#     4  12  23  43  66 100 130 171 224 267 331 388
#     4  12  24  42  66  97 140 171 212 278 333 379
#     4  10  20  40  68  91 131 170 221 266 316 396
#     4  12  24  41  68  95 130 173 222 274 319 393
#
# _framework density 21.977318
#
# number of rings (size 3 to 8) (size 9 to 14) (size 15 to 20)
#    1.000    0.000    5.000    3.000    0.000    1.333 
#    0.000    1.667    0.000    0.000    0.000    0.000 
#    0.000    0.000    0.000    0.000    0.000    0.000 
#
# Total GULP energy -134022.461484 kJ/mol
# GULP energy per Si atom -5584.269229 kJ/mol
# Density = 2.192730 g / cm^3
# Si number density = 21.977318 Si / 1000 Ang^3
#
#
#
# Elastic Constant Matrix: (Units=GPa)
#
#
# Indices 1 2 3 4 5 6 
#
# 1 68.3949 13.0575 -6.4250 0.0000 0.0000 0.0000
# 2 13.0575 94.5293 -11.4556 0.0000 0.0000 0.0000
# 3 -6.4250 -11.4556 10.0451 0.0000 0.0000 0.0000
# 4 0.0000 0.0000 0.0000 19.0188 0.0000 0.0000
# 5 0.0000 0.0000 0.0000 0.0000 25.7169 0.0000
# 6 0.0000 0.0000 0.0000 0.0000 0.0000 25.9268
#
#
#
# Elastic Compliance Matrix: (Units=1/GPa)
#
#
# Indices 1 2 3 4 5 6 
#
# 1 0.015654 -0.001101 0.008757 0.000000 0.000000 0.000000
# 2 -0.001101 0.012353 0.013383 0.000000 0.000000 0.000000
# 3 0.008757 0.013383 0.120415 0.000000 0.000000 0.000000
# 4 0.000000 0.000000 0.000000 0.052579 0.000000 0.000000
# 5 0.000000 0.000000 0.000000 0.000000 0.038885 0.000000
# 6 0.000000 0.000000 0.000000 0.000000 0.000000 0.038570
#
#
# Mechanical properties :
#
#
# Convention : Reuss Voigt Hill
#
# Bulk Modulus (GPa) = 5.24939 18.14701 11.69820
# Shear Modulus (GPa) = 16.67345 25.98532 21.32939
#
# Velocity S-wave (km/s) = 2.75738 3.44229 3.11869
# Velocity P-wave (km/s) = 3.53995 4.90655 4.27817
#
# Compressibility (1/GPa) = 0.19049827
#
# Stress axis : x y z
#
# Youngs Moduli (GPa) = 63.88237 80.95420 8.30463
#
# Poissons Ratio (x) = 0.08914 -0.07272
# Poissons Ratio (y) = 0.07034 -0.11114
# Poissons Ratio (z) = -0.55940 -1.08341
#
# Static dielectric constant tensor:
#      x y z
#    x 1.816150 0.000000 0.000000 
#    y 0.000000 1.789690 0.000000 
#    z 0.000000 0.000000 1.817480 
# 
# From -- ./inp_files/6549.got.cif
#   From: 2010.05.17/outbox.cif.g08.bks.cpg/sg19_4_cif.got.tgz:6549.got - 2010.06.03 22:46:19.
