data_PCOD9314965
_publ_section_title
;
Structure prediction by ZEFSAII (Michael W. Deem and Ramdas Pophale) SiO2 
 PCOD9314965
Probable space group: P 21 21 21
;
_chemical_formula_sum "Si O2"
_cell_formula_units_Z 32
_cell_length_a 5.477979
_cell_length_b 16.503185
_cell_length_c 14.059543
_cell_angle_alpha 90.000000
_cell_angle_beta 90.000000
_cell_angle_gamma 90.000000
_cell_volume 1271.040343
_symmetry_space_group_name_H-M "P 21 21 21"
_symmetry_group_IT_number 19
_symmetry_cell_setting 'orthorhombic'
loop_
_space_group_symop_operation_xyz
x,y,z
1/2-x,-y,1/2+z
1/2+x,1/2-y,-z
-x,1/2+y,1/2-z
loop_
_atom_site_type_symbol
_atom_site_label
_atom_site_fract_x
_atom_site_fract_y
_atom_site_fract_z
Si Si1 0.675362 0.864659 0.702110
Si Si2 0.269876 0.325361 0.393150
Si Si3 0.326630 0.216346 0.134978
Si Si4 0.885709 0.878599 0.292098
Si Si5 0.910468 0.005022 0.581705
Si Si6 0.232114 0.881978 0.470620
Si Si7 0.605299 0.996709 0.400266
Si Si8 0.434172 0.664065 0.105591
O O1 0.403261 0.834685 0.678345
O O2 0.734938 0.949515 0.647665
O O3 0.724516 0.853984 0.815565
O O4 0.900957 0.810439 0.662269
O O5 0.064633 0.353136 0.316324
O O6 0.452766 0.403243 0.382513
O O7 0.161445 0.317436 0.499180
O O8 0.398948 0.240669 0.368540
O O9 0.281543 0.305676 0.171054
O O10 0.292539 0.203268 0.022077
O O11 0.737497 0.961444 0.308714
O O12 0.101104 0.883378 0.368680
O O13 0.793309 0.024441 0.479487
O O14 0.123972 0.944906 0.549186
O O15 0.491016 0.918792 0.449802
O O16 0.433584 0.075180 0.388929
#
# Coordination Sequence:
#
# PCOD9314965 Si02
#       8
#     4   4   4   4   4   4   4   4
#     4  11  23  48  73 109 147 198 244 313 376 460
#     4  11  25  47  67 105 147 202 265 317 378 459
#     4  11  25  43  77 109 149 186 249 306 393 454
#     4  11  25  43  69 109 148 191 249 318 387 462
#     4   9  21  44  72 103 147 186 251 313 393 452
#     4  10  23  41  74 104 141 193 237 319 386 467
#     4  10  22  46  66 109 142 190 252 316 394 463
#     4  11  26  44  74 100 153 202 267 314 379 455
#
# _framework density 25.176227000000001
#
# number of rings (size 3 to 8) (size 9 to 14) (size 15 to 20)
#    0.000    1.500    2.500    0.750    7.000    0.000 
#    6.750    0.000    0.000    0.000    0.000    0.000 
#    0.000    0.000    0.000    0.000    0.000    0.000 
#
# Total GULP energy -178475.167982 kJ/mol
# GULP energy per Si atom -5577.348999 kJ/mol
# Density = 2.511892 g / cm^3
# Si number density = 25.176227 Si / 1000 Ang^3
#
#
#
# Elastic Constant Matrix: (Units=GPa)
#
#
# Indices 1 2 3 4 5 6 
#
# 1 35.3932 -0.3306 27.9916 0.0000 0.0000 0.0000
# 2 -0.3306 58.8932 13.0432 0.0000 0.0000 0.0000
# 3 27.9916 13.0432 148.6000 0.0000 0.0000 0.0000
# 4 0.0000 0.0000 0.0000 33.2562 0.0000 0.0000
# 5 0.0000 0.0000 0.0000 0.0000 27.7282 0.0000
# 6 0.0000 0.0000 0.0000 0.0000 0.0000 16.5301
#
#
#
# Elastic Compliance Matrix: (Units=1/GPa)
#
#
# Indices 1 2 3 4 5 6 
#
# 1 0.033349 0.001610 -0.006423 0.000000 0.000000 0.000000
# 2 0.001610 0.017394 -0.001830 0.000000 0.000000 0.000000
# 3 -0.006423 -0.001830 0.008100 0.000000 0.000000 0.000000
# 4 0.000000 0.000000 0.000000 0.030070 0.000000 0.000000
# 5 0.000000 0.000000 0.000000 0.000000 0.036064 0.000000
# 6 0.000000 0.000000 0.000000 0.000000 0.000000 0.060496
#
#
# Mechanical properties :
#
#
# Convention : Reuss Voigt Hill
#
# Bulk Modulus (GPa) = 21.95081 36.03275 28.99178
# Shear Modulus (GPa) = 23.37046 28.98171 26.17608
#
# Velocity S-wave (km/s) = 3.05007 3.39655 3.22796
# Velocity P-wave (km/s) = 4.59801 5.45209 5.04316
#
# Compressibility (1/GPa) = 0.04555641
#
# Stress axis : x y z
#
# Youngs Moduli (GPa) = 29.98586 57.49041 123.45633
#
# Poissons Ratio (x) = -0.09255 0.79299
# Poissons Ratio (y) = -0.04827 0.22592
# Poissons Ratio (z) = 0.19261 0.10521
#
# Static dielectric constant tensor:
#      x y z
#    x 1.979090 0.000000 0.000000 
#    y 0.000000 2.139860 0.000000 
#    z 0.000000 0.000000 2.071820 
# 
# From -- ./inp_files/5765.got.cif
#   From: 2010.05.17/outbox.cif.g08.bks.cpg/sg19_3_cif.got.tgz:5765.got - 2010.06.03 22:46:19.
