data_PCOD9314967
_publ_section_title
;
Structure prediction by ZEFSAII (Michael W. Deem and Ramdas Pophale) SiO2 
 PCOD9314967
Probable space group: P 21 21 21
;
_chemical_formula_sum "Si O2"
_cell_formula_units_Z 20
_cell_length_a 13.987574
_cell_length_b 4.746840
_cell_length_c 10.124461
_cell_angle_alpha 90.000000
_cell_angle_beta 90.000000
_cell_angle_gamma 90.000000
_cell_volume 672.231567
_symmetry_space_group_name_H-M "P 21 21 21"
_symmetry_group_IT_number 19
_symmetry_cell_setting 'orthorhombic'
loop_
_space_group_symop_operation_xyz
x,y,z
1/2-x,-y,1/2+z
1/2+x,1/2-y,-z
-x,1/2+y,1/2-z
loop_
_atom_site_type_symbol
_atom_site_label
_atom_site_fract_x
_atom_site_fract_y
_atom_site_fract_z
Si Si1 0.782646 0.686904 0.936488
Si Si2 0.737483 0.337050 0.171085
Si Si3 0.349614 0.588900 0.694888
Si Si4 0.971415 0.617848 0.665660
Si Si5 0.476307 0.752982 0.927161
O O1 0.731581 0.565908 0.061231
O O2 0.892592 0.643534 0.972835
O O3 0.742487 0.505137 0.811004
O O4 0.745865 0.992723 0.892842
O O5 0.816599 0.099816 0.173511
O O6 0.630733 0.226329 0.176835
O O7 0.423312 0.777090 0.783376
O O8 0.427098 0.424548 0.600373
O O9 0.962988 0.329605 0.750472
O O10 0.994541 0.526383 0.514473
#
# Coordination Sequence:
#
# PCOD9314967 Si02
#       5
#     4   4   4   4   4
#     4  10  23  44  69 105 151 204 254 326 382 475
#     4  10  22  46  69 109 152 192 265 313 401 455
#     4  10  25  43  70 107 149 207 251 332 394 475
#     4  12  26  46  79 112 154 202 264 328 389 471
#     4  12  24  47  71 111 156 207 264 325 406 472
#
# _framework density 29.751649
#
# number of rings (size 3 to 8) (size 9 to 14) (size 15 to 20)
#    1.200    0.000    4.000    1.200    2.800    4.800 
#    3.600    0.000    0.000    0.000    0.000    0.000 
#    0.000    0.000    0.000    0.000    0.000    0.000 
#
# Total GULP energy -111394.520617 kJ/mol
# GULP energy per Si atom -5569.726031 kJ/mol
# Density = 2.968393 g / cm^3
# Si number density = 29.751649 Si / 1000 Ang^3
#
#
#
# Elastic Constant Matrix: (Units=GPa)
#
#
# Indices 1 2 3 4 5 6 
#
# 1 303.6052 120.5816 22.4978 0.0000 0.0000 0.0000
# 2 120.5816 164.6281 16.8772 0.0000 0.0000 0.0000
# 3 22.4978 16.8772 160.2478 0.0000 0.0000 0.0000
# 4 0.0000 0.0000 0.0000 59.9920 0.0000 0.0000
# 5 0.0000 0.0000 0.0000 0.0000 61.9849 0.0000
# 6 0.0000 0.0000 0.0000 0.0000 0.0000-1114.7641
#
#
#
# Elastic Compliance Matrix: (Units=1/GPa)
#
#
# Indices 1 2 3 4 5 6 
#
# 1 0.004659 -0.003382 -0.000298 0.000000 0.000000 0.000000
# 2 -0.003382 0.008596 -0.000430 0.000000 0.000000 0.000000
# 3 -0.000298 -0.000430 0.006327 0.000000 0.000000 0.000000
# 4 0.000000 0.000000 0.000000 0.016669 0.000000 0.000000
# 5 0.000000 0.000000 0.000000 0.000000 0.016133 0.000000
# 6 0.000000 0.000000 0.000000 0.000000 0.000000 -0.000897
#
#
# Mechanical properties :
#
#
# Convention : Reuss Voigt Hill
#
# Bulk Modulus (GPa) = 88.01744 105.37712 96.69728
# Shear Modulus (GPa) = 78.74679 -167.32247 -44.28784
#
# Velocity S-wave (km/s) = 5.15029 -7.50745 -3.86240
# Velocity P-wave (km/s) = 8.06323 6.29709 3.56106
#
# Compressibility (1/GPa) = 0.01136138
#
# Stress axis : x y z
#
# Youngs Moduli (GPa) = 214.63738 116.33954 158.04034
#
# Poissons Ratio (x) = 0.39345 0.04708
# Poissons Ratio (y) = 0.72589 0.06803
# Poissons Ratio (z) = 0.06394 0.05008
#
# Static dielectric constant tensor:
#      x y z
#    x 0.271220 0.000000 0.000000 
#    y 0.000000 3.652550 0.000000 
#    z 0.000000 0.000000 2.634060 
# 
# From -- ./inp_files/5145.got.cif
#   From: 2010.05.17/outbox.cif.g08.bks.cpg/sg19_3_cif.got.tgz:5145.got - 2010.06.03 22:46:19.
