data_PCOD9314758
_publ_section_title
;
Structure prediction by ZEFSAII (Michael W. Deem and Ramdas Pophale) SiO2 
 PCOD9314758
Probable space group: P 21 21 21
;
_chemical_formula_sum "Si O2"
_cell_formula_units_Z 32
_cell_length_a 15.558757
_cell_length_b 5.667484
_cell_length_c 15.303829
_cell_angle_alpha 90.000000
_cell_angle_beta 90.000000
_cell_angle_gamma 90.000000
_cell_volume 1349.476435
_symmetry_space_group_name_H-M "P 21 21 21"
_symmetry_group_IT_number 19
_symmetry_cell_setting 'orthorhombic'
loop_
_space_group_symop_operation_xyz
x,y,z
1/2-x,-y,1/2+z
1/2+x,1/2-y,-z
-x,1/2+y,1/2-z
loop_
_atom_site_type_symbol
_atom_site_label
_atom_site_fract_x
_atom_site_fract_y
_atom_site_fract_z
Si Si1 0.267324 0.275037 0.020708
Si Si2 0.454302 0.360525 0.761596
Si Si3 0.122586 0.350153 0.418948
Si Si4 0.872759 0.631015 0.778330
Si Si5 0.385615 0.649130 0.407176
Si Si6 0.218170 0.741770 0.835062
Si Si7 0.218195 0.568149 0.180994
Si Si8 0.557167 0.493468 0.451304
O O1 0.222664 0.362945 0.109672
O O2 0.349029 0.111045 0.039065
O O3 0.313756 0.502943 0.979846
O O4 0.191204 0.203624 0.953540
O O5 0.495419 0.099301 0.771391
O O6 0.420877 0.464250 0.853774
O O7 0.375520 0.327213 0.694089
O O8 0.190065 0.168432 0.372040
O O9 0.055152 0.209777 0.476830
O O10 0.901185 0.775475 0.692936
O O11 0.833271 0.402101 0.731995
O O12 0.944921 0.596820 0.851039
O O13 0.794498 0.748318 0.832272
O O14 0.347676 0.381636 0.402154
O O15 0.474505 0.659579 0.458946
O O16 0.255653 0.530786 0.775738
#
# Coordination Sequence:
#
# PCOD9314758 Si02
#       8
#     4   4   4   4   4   4   4   4
#     4  11  23  45  64 100 142 184 236 312 369 443
#     4  11  28  46  74 109 150 199 255 315 375 453
#     4  10  24  44  67  97 139 184 240 303 376 437
#     4  11  22  41  67  97 134 188 233 297 367 449
#     4  10  26  40  63 101 140 177 237 304 364 452
#     4   9  20  43  65  91 133 181 226 290 365 437
#     4  10  22  41  68  97 138 185 246 288 374 441
#     4  12  25  40  74 100 140 190 243 301 378 452
#
# _framework density 23.712899
#
# number of rings (size 3 to 8) (size 9 to 14) (size 15 to 20)
#    0.000    1.500    2.500    1.500    8.750    1.000 
#    0.000    0.000    0.000    0.000    0.000    0.000 
#    0.000    0.000    0.000    0.000    0.000    0.000 
#
# Total GULP energy -178503.667027 kJ/mol
# GULP energy per Si atom -5578.239595 kJ/mol
# Density = 2.365893 g / cm^3
# Si number density = 23.712899 Si / 1000 Ang^3
#
#
#
# Elastic Constant Matrix: (Units=GPa)
#
#
# Indices 1 2 3 4 5 6 
#
# 1 90.4479 16.7815 29.1559 0.0000 0.0000 0.0000
# 2 16.7815 33.1708 -7.1094 0.0000 0.0000 0.0000
# 3 29.1559 -7.1094 63.0194 0.0000 0.0000 0.0000
# 4 0.0000 0.0000 0.0000 34.8209 0.0000 0.0000
# 5 0.0000 0.0000 0.0000 0.0000 22.7348 0.0000
# 6 0.0000 0.0000 0.0000 0.0000 0.0000 32.7123
#
#
#
# Elastic Compliance Matrix: (Units=1/GPa)
#
#
# Indices 1 2 3 4 5 6 
#
# 1 0.015501 -0.009611 -0.008256 0.000000 0.000000 0.000000
# 2 -0.009611 0.036854 0.008604 0.000000 0.000000 0.000000
# 3 -0.008256 0.008604 0.020658 0.000000 0.000000 0.000000
# 4 0.000000 0.000000 0.000000 0.028718 0.000000 0.000000
# 5 0.000000 0.000000 0.000000 0.000000 0.043985 0.000000
# 6 0.000000 0.000000 0.000000 0.000000 0.000000 0.030570
#
#
# Mechanical properties :
#
#
# Convention : Reuss Voigt Hill
#
# Bulk Modulus (GPa) = 18.35298 29.36601 23.85950
# Shear Modulus (GPa) = 23.47712 27.90763 25.69237
#
# Velocity S-wave (km/s) = 3.14993 3.43431 3.29519
# Velocity P-wave (km/s) = 4.58103 5.30442 4.95594
#
# Compressibility (1/GPa) = 0.05448705
#
# Stress axis : x y z
#
# Youngs Moduli (GPa) = 64.51391 27.13440 48.40678
#
# Poissons Ratio (x) = 0.26080 0.39963
# Poissons Ratio (y) = 0.62006 -0.41650
# Poissons Ratio (z) = 0.53260 -0.23347
#
# Static dielectric constant tensor:
#      x y z
#    x 1.947500 0.000000 0.000000 
#    y 0.000000 1.942350 0.000000 
#    z 0.000000 0.000000 1.962500 
# 
# From -- ./inp_files/6817.got.cif
#   From: 2010.05.17/outbox.cif.g08.bks.cpg/sg19_4_cif.got.tgz:6817.got - 2010.06.03 22:46:19.
