data_PCOD9314867
_publ_section_title
;
Structure prediction by ZEFSAII (Michael W. Deem and Ramdas Pophale) SiO2 
 PCOD9314867
Probable space group: P 21 21 21
;
_chemical_formula_sum "Si O2"
_cell_formula_units_Z 32
_cell_length_a 12.177480
_cell_length_b 9.242333
_cell_length_c 13.235423
_cell_angle_alpha 90.000000
_cell_angle_beta 90.000000
_cell_angle_gamma 90.000000
_cell_volume 1489.624693
_symmetry_space_group_name_H-M "P 21 21 21"
_symmetry_group_IT_number 19
_symmetry_cell_setting 'orthorhombic'
loop_
_space_group_symop_operation_xyz
x,y,z
1/2-x,-y,1/2+z
1/2+x,1/2-y,-z
-x,1/2+y,1/2-z
loop_
_atom_site_type_symbol
_atom_site_label
_atom_site_fract_x
_atom_site_fract_y
_atom_site_fract_z
Si Si1 0.880737 0.494864 0.774033
Si Si2 0.017477 0.243961 0.856001
Si Si3 0.868881 0.010771 0.942423
Si Si4 0.496505 0.840083 0.869848
Si Si5 0.183166 0.197357 0.540805
Si Si6 0.405537 0.078245 0.551678
Si Si7 0.637970 0.100394 0.958079
Si Si8 0.837266 0.657947 0.305150
O O1 0.904602 0.624051 0.695865
O O2 0.857988 0.577160 0.879909
O O3 0.772998 0.398922 0.752434
O O4 0.980758 0.381191 0.787718
O O5 0.907858 0.148703 0.877653
O O6 0.069603 0.310241 0.958251
O O7 0.759572 0.063786 0.001113
O O8 0.827029 0.853694 0.904270
O O9 0.984017 0.968156 0.995760
O O10 0.562741 0.690704 0.860254
O O11 0.441140 0.877095 0.764636
O O12 0.569597 0.959952 0.924627
O O13 0.397306 0.805848 0.946237
O O14 0.305520 0.163857 0.499909
O O15 0.351105 0.936480 0.594679
O O16 0.658340 0.182506 0.851223
#
# Coordination Sequence:
#
# PCOD9314867 Si02
#       8
#     4   4   4   4   4   4   4   4
#     4  11  25  44  66 102 134 180 232 289 342 412
#     4  12  25  46  71  99 140 186 231 290 351 413
#     4  11  23  43  70  98 136 181 230 282 340 418
#     4  11  23  42  70  98 133 182 225 284 348 413
#     4  10  22  44  70  97 133 180 231 287 344 409
#     4  10  22  43  65  97 136 175 227 286 339 408
#     4  12  24  46  71 104 139 183 232 286 349 420
#     4  11  24  42  67 101 137 173 232 284 345 417
#
# _framework density 21.481921
#
# number of rings (size 3 to 8) (size 9 to 14) (size 15 to 20)
#    0.000    1.000    5.000    1.500    1.750    1.000 
#    9.000    0.000    0.000    0.000    0.000    0.000 
#    0.000    0.000    0.000    0.000    0.000    0.000 
#
# Total GULP energy -178257.461337 kJ/mol
# GULP energy per Si atom -5570.545667 kJ/mol
# Density = 2.143303 g / cm^3
# Si number density = 21.481921 Si / 1000 Ang^3
#
#
#
# Elastic Constant Matrix: (Units=GPa)
#
#
# Indices 1 2 3 4 5 6 
#
# 1 104.6919 21.1387 2.4597 0.0000 0.0000 0.0000
# 2 21.1387 101.9636 8.9324 0.0000 0.0000 0.0000
# 3 2.4597 8.9324 23.7807 0.0000 0.0000 0.0000
# 4 0.0000 0.0000 0.0000 28.9491 0.0000 0.0000
# 5 0.0000 0.0000 0.0000 0.0000 25.1703 0.0000
# 6 0.0000 0.0000 0.0000 0.0000 0.0000 34.0940
#
#
#
# Elastic Compliance Matrix: (Units=1/GPa)
#
#
# Indices 1 2 3 4 5 6 
#
# 1 0.009971 -0.002044 -0.000264 0.000000 0.000000 0.000000
# 2 -0.002044 0.010560 -0.003755 0.000000 0.000000 0.000000
# 3 -0.000264 -0.003755 0.043489 0.000000 0.000000 0.000000
# 4 0.000000 0.000000 0.000000 0.034543 0.000000 0.000000
# 5 0.000000 0.000000 0.000000 0.000000 0.039729 0.000000
# 6 0.000000 0.000000 0.000000 0.000000 0.000000 0.029331
#
#
# Mechanical properties :
#
#
# Convention : Reuss Voigt Hill
#
# Bulk Modulus (GPa) = 19.26999 32.83308 26.05154
# Shear Modulus (GPa) = 25.37476 30.83638 28.10557
#
# Velocity S-wave (km/s) = 3.44061 3.79285 3.62102
# Velocity P-wave (km/s) = 4.97730 5.87352 5.44388
#
# Compressibility (1/GPa) = 0.05189415
#
# Stress axis : x y z
#
# Youngs Moduli (GPa) = 100.29346 94.69568 22.99454
#
# Poissons Ratio (x) = 0.19356 0.00606
# Poissons Ratio (y) = 0.20500 0.08635
# Poissons Ratio (z) = 0.02643 0.35559
#
# Static dielectric constant tensor:
#      x y z
#    x 1.818740 0.000000 0.000000 
#    y 0.000000 1.793960 0.000000 
#    z 0.000000 0.000000 1.789680 
# 
# From -- ./inp_files/5955.got.cif
#   From: 2010.05.17/outbox.cif.g08.bks.cpg/sg19_3_cif.got.tgz:5955.got - 2010.06.03 22:46:19.
