data_PCOD9314258
_publ_section_title
;
Structure prediction by ZEFSAII (Michael W. Deem and Ramdas Pophale) SiO2 
 PCOD9314258
Probable space group: P 21 21 21
;
_chemical_formula_sum "Si O2"
_cell_formula_units_Z 28
_cell_length_a 6.646059
_cell_length_b 7.938520
_cell_length_c 22.441474
_cell_angle_alpha 90.000000
_cell_angle_beta 90.000000
_cell_angle_gamma 90.000000
_cell_volume 1184.009302
_symmetry_space_group_name_H-M "P 21 21 21"
_symmetry_group_IT_number 19
_symmetry_cell_setting 'orthorhombic'
loop_
_space_group_symop_operation_xyz
x,y,z
1/2-x,-y,1/2+z
1/2+x,1/2-y,-z
-x,1/2+y,1/2-z
loop_
_atom_site_type_symbol
_atom_site_label
_atom_site_fract_x
_atom_site_fract_y
_atom_site_fract_z
Si Si1 0.646731 0.814435 0.332415
Si Si2 0.566698 0.083752 0.605738
Si Si3 0.322590 0.826797 0.229066
Si Si4 0.985098 0.610454 0.279641
Si Si5 0.292702 0.136023 0.048409
Si Si6 0.673180 0.996905 0.001865
Si Si7 0.232332 0.325569 0.614894
O O1 0.497259 0.801701 0.276636
O O2 0.870219 0.764990 0.310913
O O3 0.600924 0.696807 0.389703
O O4 0.656415 0.002104 0.356572
O O5 0.465777 0.264591 0.615959
O O6 0.591700 0.999842 0.669711
O O7 0.400155 0.970774 0.569804
O O8 0.759329 0.071335 0.565508
O O9 0.370940 0.814236 0.158401
O O10 0.156654 0.680597 0.237977
O O11 0.199715 0.996996 0.243184
O O12 0.240476 0.311097 0.014742
O O13 0.433396 0.021292 0.006943
O O14 0.778522 0.871125 0.954967
#
# Coordination Sequence:
#
# PCOD9314258 Si02
#       7
#     4   4   4   4   4   4   4
#     4  10  21  41  63  90 123 162 211 260 315 379
#     4  10  22  41  59  91 131 159 211 261 306 380
#     4  11  21  41  62  91 126 163 206 265 320 377
#     4  10  22  38  64  89 123 162 208 259 314 379
#     4  10  21  38  63  91 120 165 211 247 309 378
#     4  11  21  40  62  90 125 168 203 260 316 368
#     4  10  24  39  61  96 124 161 216 260 310 385
#
# _framework density 23.64846
#
# number of rings (size 3 to 8) (size 9 to 14) (size 15 to 20)
#    0.000    1.714    1.429    2.571    2.000    0.000 
#    2.571   11.429    0.000    0.000    0.000    0.000 
#    0.000    0.000    0.000    0.000    0.000    0.000 
#
# Total GULP energy -156219.686701 kJ/mol
# GULP energy per Si atom -5579.274525 kJ/mol
# Density = 2.359464 g / cm^3
# Si number density = 23.648460 Si / 1000 Ang^3
#
#
#
# Elastic Constant Matrix: (Units=GPa)
#
#
# Indices 1 2 3 4 5 6 
#
# 1 25.6603 11.9644 25.6873 0.0000 0.0000 0.0000
# 2 11.9644 69.0426 4.8876 0.0000 0.0000 0.0000
# 3 25.6873 4.8876 78.6745 0.0000 0.0000 0.0000
# 4 0.0000 0.0000 0.0000 23.0875 0.0000 0.0000
# 5 0.0000 0.0000 0.0000 0.0000 37.4930 0.0000
# 6 0.0000 0.0000 0.0000 0.0000 0.0000 27.7428
#
#
#
# Elastic Compliance Matrix: (Units=1/GPa)
#
#
# Indices 1 2 3 4 5 6 
#
# 1 0.063656 -0.009602 -0.020187 0.000000 0.000000 0.000000
# 2 -0.009602 0.015996 0.002141 0.000000 0.000000 0.000000
# 3 -0.020187 0.002141 0.019169 0.000000 0.000000 0.000000
# 4 0.000000 0.000000 0.000000 0.043314 0.000000 0.000000
# 5 0.000000 0.000000 0.000000 0.000000 0.026672 0.000000
# 6 0.000000 0.000000 0.000000 0.000000 0.000000 0.036045
#
#
# Mechanical properties :
#
#
# Convention : Reuss Voigt Hill
#
# Bulk Modulus (GPa) = 22.97518 28.71736 25.84627
# Shear Modulus (GPa) = 18.20455 26.38718 22.29587
#
# Velocity S-wave (km/s) = 2.77753 3.34400 3.07384
# Velocity P-wave (km/s) = 4.47467 5.20380 4.85295
#
# Compressibility (1/GPa) = 0.04352524
#
# Stress axis : x y z
#
# Youngs Moduli (GPa) = 15.70933 62.51503 52.16811
#
# Poissons Ratio (x) = 0.60027 1.05314
# Poissons Ratio (y) = 0.15084 -0.11171
# Poissons Ratio (z) = 0.31713 -0.13386
#
# Static dielectric constant tensor:
#      x y z
#    x 1.875700 0.000000 0.000000 
#    y 0.000000 1.962210 0.000000 
#    z 0.000000 0.000000 1.934460 
# 
# From -- ./inp_files/558.got.cif
#   From: 2010.05.17/outbox.cif.g08.bks.cpg/sg19_1_cif.got.tgz:558.got - 2010.06.03 22:46:19.
