data_PCOD9314481
_publ_section_title
;
Structure prediction by ZEFSAII (Michael W. Deem and Ramdas Pophale) SiO2 
 PCOD9314481
Probable space group: P 21 21 21
;
_chemical_formula_sum "Si O2"
_cell_formula_units_Z 20
_cell_length_a 8.165914
_cell_length_b 15.664607
_cell_length_c 6.911079
_cell_angle_alpha 90.000000
_cell_angle_beta 90.000000
_cell_angle_gamma 90.000000
_cell_volume 884.036431
_symmetry_space_group_name_H-M "P 21 21 21"
_symmetry_group_IT_number 19
_symmetry_cell_setting 'orthorhombic'
loop_
_space_group_symop_operation_xyz
x,y,z
1/2-x,-y,1/2+z
1/2+x,1/2-y,-z
-x,1/2+y,1/2-z
loop_
_atom_site_type_symbol
_atom_site_label
_atom_site_fract_x
_atom_site_fract_y
_atom_site_fract_z
Si Si1 0.378410 0.470725 0.945347
Si Si2 0.470843 0.568127 0.611795
Si Si3 0.593300 0.396013 0.633648
Si Si4 0.482329 0.846501 0.288446
Si Si5 0.307580 0.200487 0.066919
O O1 0.424905 0.559140 0.839608
O O2 0.437592 0.402948 0.780395
O O3 0.189827 0.463261 0.998197
O O4 0.482694 0.441693 0.130080
O O5 0.613347 0.496635 0.585571
O O6 0.536046 0.655741 0.531325
O O7 0.551279 0.348134 0.437814
O O8 0.738890 0.354668 0.753600
O O9 0.330184 0.806036 0.402506
O O10 0.640562 0.791854 0.351254
#
# Coordination Sequence:
#
# PCOD9314481 Si02
#       5
#     4   4   4   4   4
#     4   9  21  41  66  99 131 175 221 277 330 395
#     4  10  21  42  66  96 132 173 223 271 331 396
#     4   9  24  41  68  96 131 173 226 272 340 395
#     4  11  23  44  66  97 138 173 224 280 334 402
#     4  11  25  42  68  98 134 178 224 278 335 394
#
# _framework density 22.623501999999998
#
# number of rings (size 3 to 8) (size 9 to 14) (size 15 to 20)
#    1.200    0.800    0.000    2.400    2.800    4.800 
#    3.600    0.000    0.000    0.000    0.000    0.000 
#    0.000    0.000    0.000    0.000    0.000    0.000 
#
# Total GULP energy -111575.154724 kJ/mol
# GULP energy per Si atom -5578.757736 kJ/mol
# Density = 2.257201 g / cm^3
# Si number density = 22.623502 Si / 1000 Ang^3
#
#
#
# Elastic Constant Matrix: (Units=GPa)
#
#
# Indices 1 2 3 4 5 6 
#
# 1 70.5598 2.8648 26.3630 0.0000 0.0000 0.0000
# 2 2.8648 35.4382 2.3971 0.0000 0.0000 0.0000
# 3 26.3630 2.3971 97.6374 0.0000 0.0000 0.0000
# 4 0.0000 0.0000 0.0000 16.6283 0.0000 0.0000
# 5 0.0000 0.0000 0.0000 0.0000 35.3508 0.0000
# 6 0.0000 0.0000 0.0000 0.0000 0.0000 30.4918
#
#
#
# Elastic Compliance Matrix: (Units=1/GPa)
#
#
# Indices 1 2 3 4 5 6 
#
# 1 0.015797 -0.000990 -0.004241 0.000000 0.000000 0.000000
# 2 -0.000990 0.028327 -0.000428 0.000000 0.000000 0.000000
# 3 -0.004241 -0.000428 0.011398 0.000000 0.000000 0.000000
# 4 0.000000 0.000000 0.000000 0.060138 0.000000 0.000000
# 5 0.000000 0.000000 0.000000 0.000000 0.028288 0.000000
# 6 0.000000 0.000000 0.000000 0.000000 0.000000 0.032796
#
#
# Mechanical properties :
#
#
# Convention : Reuss Voigt Hill
#
# Bulk Modulus (GPa) = 22.62277 29.65391 26.13834
# Shear Modulus (GPa) = 24.65518 27.96153 26.30835
#
# Velocity S-wave (km/s) = 3.30480 3.51942 3.41380
# Velocity P-wave (km/s) = 4.95819 5.44529 5.20744
#
# Compressibility (1/GPa) = 0.04420324
#
# Stress axis : x y z
#
# Youngs Moduli (GPa) = 63.30249 35.30181 87.73762
#
# Poissons Ratio (x) = 0.03495 0.37210
# Poissons Ratio (y) = 0.06268 0.03756
# Poissons Ratio (z) = 0.26847 0.01511
#
# Static dielectric constant tensor:
#      x y z
#    x 1.837400 0.000000 0.000000 
#    y 0.000000 1.906830 0.000000 
#    z 0.000000 0.000000 1.830490 
# 
# From -- ./inp_files/2880.got.cif
#   From: 2010.05.17/outbox.cif.g08.bks.cpg/sg19_2_cif.got.tgz:2880.got - 2010.06.03 22:46:19.
