data_PCOD9314159
_publ_section_title
;
Structure prediction by ZEFSAII (Michael W. Deem and Ramdas Pophale) SiO2 
 PCOD9314159
Probable space group: P 21 21 21
;
_chemical_formula_sum "Si O2"
_cell_formula_units_Z 32
_cell_length_a 19.383248
_cell_length_b 5.090593
_cell_length_c 12.266363
_cell_angle_alpha 90.000000
_cell_angle_beta 90.000000
_cell_angle_gamma 90.000000
_cell_volume 1210.349349
_symmetry_space_group_name_H-M "P 21 21 21"
_symmetry_group_IT_number 19
_symmetry_cell_setting 'orthorhombic'
loop_
_space_group_symop_operation_xyz
x,y,z
1/2-x,-y,1/2+z
1/2+x,1/2-y,-z
-x,1/2+y,1/2-z
loop_
_atom_site_type_symbol
_atom_site_label
_atom_site_fract_x
_atom_site_fract_y
_atom_site_fract_z
Si Si1 0.173245 0.101478 0.428721
Si Si2 0.247173 0.194911 0.091773
Si Si3 0.481275 0.129190 0.597741
Si Si4 0.796927 0.257294 0.254343
Si Si5 0.412412 0.627006 0.703950
Si Si6 0.434995 0.735418 0.108290
Si Si7 0.699058 0.994017 0.095882
Si Si8 0.619235 0.748177 0.267272
O O1 0.121847 0.234458 0.512593
O O2 0.238224 0.289551 0.415377
O O3 0.197494 0.849369 0.496177
O O4 0.154733 0.959390 0.314987
O O5 0.192427 0.361634 0.020699
O O6 0.302056 0.273088 0.184964
O O7 0.218746 0.917749 0.136342
O O8 0.436091 0.879201 0.634612
O O9 0.548367 0.120527 0.678694
O O10 0.442407 0.385835 0.636231
O O11 0.500571 0.170836 0.471242
O O12 0.834758 0.979040 0.271018
O O13 0.726334 0.209260 0.185841
O O14 0.423696 0.483486 0.181470
O O15 0.418616 0.985454 0.187930
O O16 0.634762 0.829188 0.142322
#
# Coordination Sequence:
#
# PCOD9314159 Si02
#       8
#     4   4   4   4   4   4   4   4
#     4  10  21  33  57  83 123 172 219 260 314 378
#     4  10  22  36  53  87 126 174 216 269 306 388
#     4  10  22  39  56  84 125 161 223 271 325 382
#     4  11  23  36  58  85 130 176 224 260 331 386
#     4  10  23  36  58  87 121 173 213 274 324 386
#     4  11  22  37  59  85 118 172 216 266 316 381
#     4  11  21  37  56  85 129 172 221 269 309 381
#     4  11  22  36  57  86 120 168 222 255 313 378
#
# _framework density 26.438648000000001
#
# number of rings (size 3 to 8) (size 9 to 14) (size 15 to 20)
#    0.000    1.500    2.500    3.000   12.250    0.000 
#    0.000    0.000    0.000    0.000    0.000    0.000 
#    3.750    0.000    0.250    0.000    1.250    0.625 
#
# Total GULP energy -178709.957025 kJ/mol
# GULP energy per Si atom -5584.686157 kJ/mol
# Density = 2.637847 g / cm^3
# Si number density = 26.438648 Si / 1000 Ang^3
#
#
#
# Elastic Constant Matrix: (Units=GPa)
#
#
# Indices 1 2 3 4 5 6 
#
# 1 81.3591 26.9391 55.9111 0.0000 0.0000 0.0000
# 2 26.9391 157.4713 43.0330 0.0000 0.0000 0.0000
# 3 55.9111 43.0330 81.4440 0.0000 0.0000 0.0000
# 4 0.0000 0.0000 0.0000 43.6515 0.0000 0.0000
# 5 0.0000 0.0000 0.0000 0.0000 54.9314 0.0000
# 6 0.0000 0.0000 0.0000 0.0000 0.0000 30.4997
#
#
#
# Elastic Compliance Matrix: (Units=1/GPa)
#
#
# Indices 1 2 3 4 5 6 
#
# 1 0.023296 0.000450 -0.016230 0.000000 0.000000 0.000000
# 2 0.000450 0.007431 -0.004235 0.000000 0.000000 0.000000
# 3 -0.016230 -0.004235 0.025658 0.000000 0.000000 0.000000
# 4 0.000000 0.000000 0.000000 0.022909 0.000000 0.000000
# 5 0.000000 0.000000 0.000000 0.000000 0.018205 0.000000
# 6 0.000000 0.000000 0.000000 0.000000 0.000000 0.032787
#
#
# Mechanical properties :
#
#
# Convention : Reuss Voigt Hill
#
# Bulk Modulus (GPa) = 61.14751 63.56007 62.35379
# Shear Modulus (GPa) = 28.44662 38.77593 33.61128
#
# Velocity S-wave (km/s) = 3.28372 3.83383 3.56939
# Velocity P-wave (km/s) = 6.12825 6.60987 6.37361
#
# Compressibility (1/GPa) = 0.01635390
#
# Stress axis : x y z
#
# Youngs Moduli (GPa) = 42.92592 134.57609 38.97378
#
# Poissons Ratio (x) = -0.06057 0.63256
# Poissons Ratio (y) = -0.01932 0.16506
# Poissons Ratio (z) = 0.69671 0.56995
#
# Static dielectric constant tensor:
#      x y z
#    x 2.241360 0.000000 0.000000 
#    y 0.000000 2.090350 0.000000 
#    z 0.000000 0.000000 2.165240 
# 
# From -- ./inp_files/5507.got.cif
#   From: 2010.05.17/outbox.cif.g08.bks.cpg/sg19_3_cif.got.tgz:5507.got - 2010.06.03 22:46:19.
