data_PCOD9314398
_publ_section_title
;
Structure prediction by ZEFSAII (Michael W. Deem and Ramdas Pophale) SiO2 
 PCOD9314398
Probable space group: P 21 21 21
;
_chemical_formula_sum "Si O2"
_cell_formula_units_Z 24
_cell_length_a 7.771006
_cell_length_b 10.918438
_cell_length_c 11.283444
_cell_angle_alpha 90.000000
_cell_angle_beta 90.000000
_cell_angle_gamma 90.000000
_cell_volume 957.369162
_symmetry_space_group_name_H-M "P 21 21 21"
_symmetry_group_IT_number 19
_symmetry_cell_setting 'orthorhombic'
loop_
_space_group_symop_operation_xyz
x,y,z
1/2-x,-y,1/2+z
1/2+x,1/2-y,-z
-x,1/2+y,1/2-z
loop_
_atom_site_type_symbol
_atom_site_label
_atom_site_fract_x
_atom_site_fract_y
_atom_site_fract_z
Si Si1 0.702440 0.386699 0.079315
Si Si2 0.966900 0.029389 0.434718
Si Si3 0.136151 0.754839 0.226227
Si Si4 0.130474 0.678466 0.871240
Si Si5 0.209454 0.290515 0.126153
Si Si6 0.500892 0.098808 0.516145
O O1 0.706592 0.290363 0.188025
O O2 0.848894 0.485865 0.113183
O O3 0.769168 0.310770 0.965625
O O4 0.539231 0.463530 0.032509
O O5 0.878132 0.129490 0.348517
O O6 0.996216 0.084401 0.564728
O O7 0.846058 0.912470 0.441421
O O8 0.112201 0.863453 0.130693
O O9 0.967540 0.748967 0.309555
O O10 0.165800 0.676483 0.733530
O O11 0.310995 0.639188 0.936219
O O12 0.061801 0.809218 0.913628
#
# Coordination Sequence:
#
# PCOD9314398 Si02
#       6
#     4   4   4   4   4   4
#     4  11  23  39  70 102 124 175 243 277 331 415
#     4  10  23  45  66  91 139 180 224 282 345 420
#     4   9  22  42  67  92 133 186 213 270 362 399
#     4  10  22  43  65  96 134 184 219 275 361 394
#     4  10  23  37  67  94 131 173 226 284 333 410
#     4  10  21  40  69  95 133 180 225 276 342 422
#
# _framework density 25.0687
#
# number of rings (size 3 to 8) (size 9 to 14) (size 15 to 20)
#    0.000    2.000    0.000    3.000   11.667    1.333 
#    3.000    8.333    0.000    0.000    0.000    0.000 
#    0.000    0.000    0.000    0.000    0.000    0.000 
#
# Total GULP energy -134171.549740 kJ/mol
# GULP energy per Si atom -5590.481239 kJ/mol
# Density = 2.501164 g / cm^3
# Si number density = 25.068700 Si / 1000 Ang^3
#
#
#
# Elastic Constant Matrix: (Units=GPa)
#
#
# Indices 1 2 3 4 5 6 
#
# 1 97.2441 24.2880 11.0846 0.0000 0.0000 0.0000
# 2 24.2880 95.1991 39.7068 0.0000 0.0000 0.0000
# 3 11.0846 39.7068 96.4590 0.0000 0.0000 0.0000
# 4 0.0000 0.0000 0.0000 34.7279 0.0000 0.0000
# 5 0.0000 0.0000 0.0000 0.0000 38.7917 0.0000
# 6 0.0000 0.0000 0.0000 0.0000 0.0000 27.2313
#
#
#
# Elastic Compliance Matrix: (Units=1/GPa)
#
#
# Indices 1 2 3 4 5 6 
#
# 1 0.010985 -0.002748 -0.000131 0.000000 0.000000 0.000000
# 2 -0.002748 0.013369 -0.005188 0.000000 0.000000 0.000000
# 3 -0.000131 -0.005188 0.012518 0.000000 0.000000 0.000000
# 4 0.000000 0.000000 0.000000 0.028795 0.000000 0.000000
# 5 0.000000 0.000000 0.000000 0.000000 0.025779 0.000000
# 6 0.000000 0.000000 0.000000 0.000000 0.000000 0.036722
#
#
# Mechanical properties :
#
#
# Convention : Reuss Voigt Hill
#
# Bulk Modulus (GPa) = 48.22004 48.78457 48.50231
# Shear Modulus (GPa) = 33.06585 34.40504 33.73544
#
# Velocity S-wave (km/s) = 3.63576 3.70865 3.67239
# Velocity P-wave (km/s) = 6.07469 6.15154 6.11323
#
# Compressibility (1/GPa) = 0.02073826
#
# Stress axis : x y z
#
# Youngs Moduli (GPa) = 91.03610 74.79979 79.88761
#
# Poissons Ratio (x) = 0.20553 0.01048
# Poissons Ratio (y) = 0.25015 0.41442
# Poissons Ratio (z) = 0.01194 0.38803
#
# Static dielectric constant tensor:
#      x y z
#    x 2.082830 0.000000 0.000000 
#    y 0.000000 1.978590 0.000000 
#    z 0.000000 0.000000 1.951950 
# 
# From -- ./inp_files/4562.got.cif
#   From: 2010.05.17/outbox.cif.g08.bks.cpg/sg19_3_cif.got.tgz:4562.got - 2010.06.03 22:46:19.
