data_PCOD9314073
_publ_section_title
;
Structure prediction by ZEFSAII (Michael W. Deem and Ramdas Pophale) SiO2 
 PCOD9314073
Probable space group: P 21 21 21
;
_chemical_formula_sum "Si O2"
_cell_formula_units_Z 32
_cell_length_a 13.490880
_cell_length_b 12.218779
_cell_length_c 7.810013
_cell_angle_alpha 90.000000
_cell_angle_beta 90.000000
_cell_angle_gamma 90.000000
_cell_volume 1287.418797
_symmetry_space_group_name_H-M "P 21 21 21"
_symmetry_group_IT_number 19
_symmetry_cell_setting 'orthorhombic'
loop_
_space_group_symop_operation_xyz
x,y,z
1/2-x,-y,1/2+z
1/2+x,1/2-y,-z
-x,1/2+y,1/2-z
loop_
_atom_site_type_symbol
_atom_site_label
_atom_site_fract_x
_atom_site_fract_y
_atom_site_fract_z
Si Si1 0.529750 0.910961 0.533462
Si Si2 0.497825 0.169094 0.073322
Si Si3 0.819515 0.646166 0.943435
Si Si4 0.473966 0.433848 0.571702
Si Si5 0.786777 0.841225 0.728683
Si Si6 0.830318 0.522330 0.575674
Si Si7 0.775404 0.286402 0.894565
Si Si8 0.186057 0.584162 0.775563
O O1 0.489143 0.786797 0.513776
O O2 0.552972 0.921176 0.731677
O O3 0.443491 0.994890 0.477362
O O4 0.613420 0.923041 0.389722
O O5 0.497451 0.061080 0.958043
O O6 0.594725 0.157895 0.189400
O O7 0.387485 0.177351 0.150590
O O8 0.781127 0.766352 0.895335
O O9 0.826894 0.581422 0.760143
O O10 0.928757 0.636903 0.023713
O O11 0.740591 0.581411 0.058222
O O12 0.385248 0.407140 0.440093
O O13 0.729988 0.775755 0.579320
O O14 0.759307 0.968301 0.724575
O O15 0.789342 0.608208 0.433896
O O16 0.746764 0.189924 0.764342
#
# Coordination Sequence:
#
# PCOD9314073 Si02
#       8
#     4   4   4   4   4   4   4   4
#     4  11  22  41  68  98 133 174 227 283 338 398
#     4  10  20  41  64  93 134 172 218 284 341 388
#     4  11  20  39  63  98 136 168 223 278 343 398
#     4  11  22  39  68  98 126 179 230 273 338 415
#     4  10  22  42  70  94 137 181 225 283 340 410
#     4  11  21  37  66 100 134 173 217 284 342 394
#     4  10  20  41  68  93 132 183 213 278 350 389
#     4  10  23  46  69  92 138 182 225 279 338 408
#
# _framework density 24.855936
#
# number of rings (size 3 to 8) (size 9 to 14) (size 15 to 20)
#    0.000    1.500    5.000    1.500    1.750    1.000 
#    9.000    3.750    5.500    0.000    0.000    0.000 
#    0.000    0.000    0.000    0.000    0.000    0.000 
#
# Total GULP energy -179128.164690 kJ/mol
# GULP energy per Si atom -5597.755147 kJ/mol
# Density = 2.479936 g / cm^3
# Si number density = 24.855936 Si / 1000 Ang^3
#
#
#
# Elastic Constant Matrix: (Units=GPa)
#
#
# Indices 1 2 3 4 5 6 
#
# 1 104.4319 -2.3312 26.9433 0.0000 0.0000 0.0000
# 2 -2.3312 74.9689 -3.2385 0.0000 0.0000 0.0000
# 3 26.9433 -3.2385 154.3440 0.0000 0.0000 0.0000
# 4 0.0000 0.0000 0.0000 30.2806 0.0000 0.0000
# 5 0.0000 0.0000 0.0000 0.0000 31.2394 0.0000
# 6 0.0000 0.0000 0.0000 0.0000 0.0000 32.3813
#
#
#
# Elastic Compliance Matrix: (Units=1/GPa)
#
#
# Indices 1 2 3 4 5 6 
#
# 1 0.010031 0.000237 -0.001746 0.000000 0.000000 0.000000
# 2 0.000237 0.013357 0.000239 0.000000 0.000000 0.000000
# 3 -0.001746 0.000239 0.006789 0.000000 0.000000 0.000000
# 4 0.000000 0.000000 0.000000 0.033024 0.000000 0.000000
# 5 0.000000 0.000000 0.000000 0.000000 0.032011 0.000000
# 6 0.000000 0.000000 0.000000 0.000000 0.000000 0.030882
#
#
# Mechanical properties :
#
#
# Convention : Reuss Voigt Hill
#
# Bulk Modulus (GPa) = 36.18548 41.83244 39.00896
# Shear Modulus (GPa) = 36.27199 39.60500 37.93850
#
# Velocity S-wave (km/s) = 3.82421 3.99605 3.91107
# Velocity P-wave (km/s) = 5.83859 6.17719 6.01028
#
# Compressibility (1/GPa) = 0.02763539
#
# Stress axis : x y z
#
# Youngs Moduli (GPa) = 99.68684 74.86966 147.29987
#
# Poissons Ratio (x) = -0.01771 0.25721
# Poissons Ratio (y) = -0.02358 -0.03520
# Poissons Ratio (z) = 0.17407 -0.01789
#
# Static dielectric constant tensor:
#      x y z
#    x 1.984250 0.000000 0.000000 
#    y 0.000000 2.021610 0.000000 
#    z 0.000000 0.000000 1.974950 
# 
# From -- ./inp_files/3981.got.cif
#   From: 2010.05.17/outbox.cif.g08.bks.cpg/sg19_2_cif.got.tgz:3981.got - 2010.06.03 22:46:19.
