data_PCOD9314817
_publ_section_title
;
Structure prediction by ZEFSAII (Michael W. Deem and Ramdas Pophale) SiO2 
 PCOD9314817
Probable space group: P 21 21 21
;
_chemical_formula_sum "Si O2"
_cell_formula_units_Z 32
_cell_length_a 9.094819
_cell_length_b 10.015423
_cell_length_c 15.034246
_cell_angle_alpha 90.000000
_cell_angle_beta 90.000000
_cell_angle_gamma 90.000000
_cell_volume 1369.446306
_symmetry_space_group_name_H-M "P 21 21 21"
_symmetry_group_IT_number 19
_symmetry_cell_setting 'orthorhombic'
loop_
_space_group_symop_operation_xyz
x,y,z
1/2-x,-y,1/2+z
1/2+x,1/2-y,-z
-x,1/2+y,1/2-z
loop_
_atom_site_type_symbol
_atom_site_label
_atom_site_fract_x
_atom_site_fract_y
_atom_site_fract_z
Si Si1 0.645959 0.113405 0.943816
Si Si2 0.338870 0.588833 0.354212
Si Si3 0.223832 0.699631 0.813868
Si Si4 0.438977 0.098564 0.417302
Si Si5 0.334920 0.154404 0.136391
Si Si6 0.001868 0.774282 0.089359
Si Si7 0.847265 0.498240 0.026857
Si Si8 0.246657 0.375233 0.674140
O O1 0.734772 0.245428 0.920521
O O2 0.468557 0.114049 0.949065
O O3 0.684188 0.011084 0.864836
O O4 0.700168 0.068864 0.042450
O O5 0.356763 0.442097 0.308524
O O6 0.489131 0.672835 0.359096
O O7 0.234949 0.651619 0.279143
O O8 0.150236 0.765462 0.900002
O O9 0.210065 0.810241 0.736844
O O10 0.395589 0.680071 0.831572
O O11 0.501673 0.112123 0.515608
O O12 0.575057 0.106328 0.350667
O O13 0.307159 0.991159 0.420541
O O14 0.320769 0.018598 0.079193
O O15 0.164646 0.737699 0.121170
O O16 0.930001 0.637159 0.049744
#
# Coordination Sequence:
#
# PCOD9314817 Si02
#       8
#     4   4   4   4   4   4   4   4
#     4  10  22  43  65  89 141 180 224 290 349 412
#     4  11  23  43  69 102 136 187 239 287 354 429
#     4  11  22  43  70  97 140 184 233 290 349 419
#     4  11  20  39  69  98 131 178 237 286 346 414
#     4  11  22  43  68  99 141 184 230 295 349 417
#     4  10  22  42  67 101 140 184 230 298 351 416
#     4   9  22  41  65  97 134 182 228 280 353 419
#     4  11  21  40  67 101 135 177 239 290 343 424
#
# _framework density 23.367108999999999
#
# number of rings (size 3 to 8) (size 9 to 14) (size 15 to 20)
#    0.000    1.500    2.500    4.500    0.000    2.000 
#    9.000    0.000    0.000    0.000    0.000    0.000 
#    0.000    0.000    0.000    0.000    0.000    0.000 
#
# Total GULP energy -178250.773715 kJ/mol
# GULP energy per Si atom -5570.336679 kJ/mol
# Density = 2.331392 g / cm^3
# Si number density = 23.367109 Si / 1000 Ang^3
#
#
#
# Elastic Constant Matrix: (Units=GPa)
#
#
# Indices 1 2 3 4 5 6 
#
# 1 126.0780 37.4695 45.0837 0.0000 0.0000 0.0000
# 2 37.4695 36.5581 2.2223 0.0000 0.0000 0.0000
# 3 45.0837 2.2223 90.0380 0.0000 0.0000 0.0000
# 4 0.0000 0.0000 0.0000 33.2761 0.0000 0.0000
# 5 0.0000 0.0000 0.0000 0.0000 37.7653 0.0000
# 6 0.0000 0.0000 0.0000 0.0000 0.0000 30.1543
#
#
#
# Elastic Compliance Matrix: (Units=1/GPa)
#
#
# Indices 1 2 3 4 5 6 
#
# 1 0.014860 -0.014801 -0.007076 0.000000 0.000000 0.000000
# 2 -0.014801 0.042136 0.006371 0.000000 0.000000 0.000000
# 3 -0.007076 0.006371 0.014492 0.000000 0.000000 0.000000
# 4 0.000000 0.000000 0.000000 0.030052 0.000000 0.000000
# 5 0.000000 0.000000 0.000000 0.000000 0.026479 0.000000
# 6 0.000000 0.000000 0.000000 0.000000 0.000000 0.033163
#
#
# Mechanical properties :
#
#
# Convention : Reuss Voigt Hill
#
# Bulk Modulus (GPa) = 24.70477 46.91390 35.80934
# Shear Modulus (GPa) = 24.30895 31.43240 27.87067
#
# Velocity S-wave (km/s) = 3.22888 3.67162 3.45734
# Velocity P-wave (km/s) = 4.94937 6.17210 5.59424
#
# Compressibility (1/GPa) = 0.04047801
#
# Stress axis : x y z
#
# Youngs Moduli (GPa) = 67.29290 23.73257 69.00335
#
# Poissons Ratio (x) = 0.35126 0.48824
# Poissons Ratio (y) = 0.99599 -0.43962
# Poissons Ratio (z) = 0.47614 -0.15120
#
# Static dielectric constant tensor:
#      x y z
#    x 1.918800 0.000000 0.000000 
#    y 0.000000 1.920760 0.000000 
#    z 0.000000 0.000000 1.957120 
# 
# From -- ./inp_files/5913.got.cif
#   From: 2010.05.17/outbox.cif.g08.bks.cpg/sg19_3_cif.got.tgz:5913.got - 2010.06.03 22:46:19.
