data_PCOD9314273
_publ_section_title
;
Structure prediction by ZEFSAII (Michael W. Deem and Ramdas Pophale) SiO2 
 PCOD9314273
Probable space group: P 21 21 21
;
_chemical_formula_sum "Si O2"
_cell_formula_units_Z 32
_cell_length_a 5.613601
_cell_length_b 15.398233
_cell_length_c 14.598814
_cell_angle_alpha 90.000000
_cell_angle_beta 90.000000
_cell_angle_gamma 90.000000
_cell_volume 1261.914711
_symmetry_space_group_name_H-M "P 21 21 21"
_symmetry_group_IT_number 19
_symmetry_cell_setting 'orthorhombic'
loop_
_space_group_symop_operation_xyz
x,y,z
1/2-x,-y,1/2+z
1/2+x,1/2-y,-z
-x,1/2+y,1/2-z
loop_
_atom_site_type_symbol
_atom_site_label
_atom_site_fract_x
_atom_site_fract_y
_atom_site_fract_z
Si Si1 0.223004 0.637729 0.621683
Si Si2 0.162075 0.968891 0.713657
Si Si3 0.838440 0.170303 0.338526
Si Si4 0.833100 0.234114 0.697118
Si Si5 0.649643 0.515595 0.077812
Si Si6 0.278519 0.602473 0.969453
Si Si7 0.657687 0.013945 0.737740
Si Si8 0.542249 0.080932 0.039672
O O1 0.133465 0.705671 0.696018
O O2 0.409403 0.584269 0.685009
O O3 0.343230 0.656320 0.522864
O O4 0.032995 0.563478 0.596854
O O5 0.202705 0.948089 0.820639
O O6 0.413177 0.008104 0.680898
O O7 0.076192 0.899546 0.637623
O O8 0.936320 0.033440 0.715527
O O9 0.590767 0.224527 0.329754
O O10 0.870386 0.140413 0.444449
O O11 0.806950 0.082235 0.279838
O O12 0.077846 0.215726 0.302864
O O13 0.763124 0.163322 0.617453
O O14 0.537434 0.592357 0.016616
O O15 0.850175 0.468549 0.021127
O O16 0.221125 0.501044 0.946906
#
# Coordination Sequence:
#
# PCOD9314273 Si02
#       8
#     4   4   4   4   4   4   4   4
#     4  10  23  43  61 100 133 179 220 294 329 400
#     4  11  22  38  65 104 124 174 232 288 325 393
#     4  12  25  46  66 101 141 191 216 272 351 431
#     4  12  29  40  69 103 147 171 224 282 349 407
#     4  10  21  38  66  95 137 171 230 275 334 404
#     4  11  23  41  63 103 142 188 214 267 346 432
#     4  11  22  45  70  92 138 182 233 267 340 415
#     4  11  23  37  74  98 138 178 235 291 338 402
#
# _framework density 25.358291000000001
#
# number of rings (size 3 to 8) (size 9 to 14) (size 15 to 20)
#    0.000    1.000    5.000    3.000   10.500    0.000 
#    0.000    0.000    0.000    3.000    0.000    0.000 
#    0.000    0.000    0.000    0.000    0.000    0.000 
#
# Total GULP energy -178198.632703 kJ/mol
# GULP energy per Si atom -5568.707272 kJ/mol
# Density = 2.530057 g / cm^3
# Si number density = 25.358291 Si / 1000 Ang^3
#
#
#
# Elastic Constant Matrix: (Units=GPa)
#
#
# Indices 1 2 3 4 5 6 
#
# 1 122.8614 24.1353 40.3172 0.0000 0.0000 0.0000
# 2 24.1353 61.4598 7.4294 0.0000 0.0000 0.0000
# 3 40.3172 7.4294 119.0702 0.0000 0.0000 0.0000
# 4 0.0000 0.0000 0.0000 30.0881 0.0000 0.0000
# 5 0.0000 0.0000 0.0000 0.0000 45.2155 0.0000
# 6 0.0000 0.0000 0.0000 0.0000 0.0000 28.1726
#
#
#
# Elastic Compliance Matrix: (Units=1/GPa)
#
#
# Indices 1 2 3 4 5 6 
#
# 1 0.009848 -0.003490 -0.003117 0.000000 0.000000 0.000000
# 2 -0.003490 0.017632 0.000082 0.000000 0.000000 0.000000
# 3 -0.003117 0.000082 0.009449 0.000000 0.000000 0.000000
# 4 0.000000 0.000000 0.000000 0.033236 0.000000 0.000000
# 5 0.000000 0.000000 0.000000 0.000000 0.022116 0.000000
# 6 0.000000 0.000000 0.000000 0.000000 0.000000 0.035496
#
#
# Mechanical properties :
#
#
# Convention : Reuss Voigt Hill
#
# Bulk Modulus (GPa) = 41.88096 49.68392 45.78244
# Shear Modulus (GPa) = 33.60551 36.12920 34.86735
#
# Velocity S-wave (km/s) = 3.64432 3.77868 3.71211
# Velocity P-wave (km/s) = 5.85317 6.21878 6.03874
#
# Compressibility (1/GPa) = 0.02387720
#
# Stress axis : x y z
#
# Youngs Moduli (GPa) = 101.54706 56.71634 105.83582
#
# Poissons Ratio (x) = 0.19796 0.32985
# Poissons Ratio (y) = 0.35444 -0.00865
# Poissons Ratio (z) = 0.31648 -0.00464
#
# Static dielectric constant tensor:
#      x y z
#    x 2.088670 0.000000 0.000000 
#    y 0.000000 2.056190 0.000000 
#    z 0.000000 0.000000 2.258880 
# 
# From -- ./inp_files/5751.got.cif
#   From: 2010.05.17/outbox.cif.g08.bks.cpg/sg19_3_cif.got.tgz:5751.got - 2010.06.03 22:46:19.
