data_PCOD9314708
_publ_section_title
;
Structure prediction by ZEFSAII (Michael W. Deem and Ramdas Pophale) SiO2 
 PCOD9314708
Probable space group: P 21 21 21
;
_chemical_formula_sum "Si O2"
_cell_formula_units_Z 32
_cell_length_a 11.334631
_cell_length_b 9.305317
_cell_length_c 14.633705
_cell_angle_alpha 90.000000
_cell_angle_beta 90.000000
_cell_angle_gamma 90.000000
_cell_volume 1543.451029
_symmetry_space_group_name_H-M "P 21 21 21"
_symmetry_group_IT_number 19
_symmetry_cell_setting 'orthorhombic'
loop_
_space_group_symop_operation_xyz
x,y,z
1/2-x,-y,1/2+z
1/2+x,1/2-y,-z
-x,1/2+y,1/2-z
loop_
_atom_site_type_symbol
_atom_site_label
_atom_site_fract_x
_atom_site_fract_y
_atom_site_fract_z
Si Si1 0.985253 0.394831 0.574608
Si Si2 0.429595 0.797396 0.351066
Si Si3 0.249847 0.166986 0.313192
Si Si4 0.829562 0.684935 0.841968
Si Si5 0.928822 0.904831 0.117602
Si Si6 0.152757 0.865034 0.617183
Si Si7 0.387735 0.120649 0.769871
Si Si8 0.823947 0.206647 0.073274
O O1 0.980411 0.565290 0.595166
O O2 0.871157 0.336594 0.629293
O O3 0.104735 0.315251 0.608292
O O4 0.983472 0.369228 0.466197
O O5 0.411018 0.845403 0.246863
O O6 0.517548 0.664487 0.357210
O O7 0.304648 0.745216 0.388311
O O8 0.160247 0.278266 0.357188
O O9 0.276779 0.192186 0.205771
O O10 0.187544 0.011566 0.310190
O O11 0.823560 0.534451 0.896228
O O12 0.700212 0.708481 0.798339
O O13 0.005021 0.933645 0.208574
O O14 0.854015 0.040150 0.081940
O O15 0.174465 0.775303 0.526344
O O16 0.416718 0.216783 0.857575
#
# Coordination Sequence:
#
# PCOD9314708 Si02
#       8
#     4   4   4   4   4   4   4   4
#     4  12  24  42  69  99 140 175 234 287 350 418
#     4  11  21  43  65  96 134 172 229 291 337 408
#     4  11  25  45  69 101 136 184 231 290 360 408
#     4  10  22  40  69  99 126 181 226 284 348 408
#     4  12  28  43  68 104 145 182 232 293 351 430
#     4  11  23  41  71  95 132 176 226 290 339 419
#     4  10  24  47  69  93 141 184 225 292 349 415
#     4  11  25  43  68 101 132 188 235 275 354 422
#
# _framework density 20.732759999999999
#
# number of rings (size 3 to 8) (size 9 to 14) (size 15 to 20)
#    0.000    1.000    6.250    0.750    8.750    3.000 
#    0.000    1.250    0.000    0.000    0.000    0.000 
#    0.000    0.000    0.000    0.000    0.000    0.000 
#
# Total GULP energy -178663.886153 kJ/mol
# GULP energy per Si atom -5583.246442 kJ/mol
# Density = 2.068557 g / cm^3
# Si number density = 20.732760 Si / 1000 Ang^3
#
#
#
# Elastic Constant Matrix: (Units=GPa)
#
#
# Indices 1 2 3 4 5 6 
#
# 1 39.9569 24.9480 9.7598 0.0000 0.0000 0.0000
# 2 24.9480 47.0259 25.4753 0.0000 0.0000 0.0000
# 3 9.7598 25.4753 76.8681 0.0000 0.0000 0.0000
# 4 0.0000 0.0000 0.0000 25.2506 0.0000 0.0000
# 5 0.0000 0.0000 0.0000 0.0000 27.1868 0.0000
# 6 0.0000 0.0000 0.0000 0.0000 0.0000 25.4555
#
#
#
# Elastic Compliance Matrix: (Units=1/GPa)
#
#
# Indices 1 2 3 4 5 6 
#
# 1 0.037739 -0.021238 0.002247 0.000000 0.000000 0.000000
# 2 -0.021238 0.037870 -0.009854 0.000000 0.000000 0.000000
# 3 0.002247 -0.009854 0.015990 0.000000 0.000000 0.000000
# 4 0.000000 0.000000 0.000000 0.039603 0.000000 0.000000
# 5 0.000000 0.000000 0.000000 0.000000 0.036783 0.000000
# 6 0.000000 0.000000 0.000000 0.000000 0.000000 0.039284
#
#
# Mechanical properties :
#
#
# Convention : Reuss Voigt Hill
#
# Bulk Modulus (GPa) = 29.49153 31.57968 30.53561
# Shear Modulus (GPa) = 18.09872 22.48977 20.29425
#
# Velocity S-wave (km/s) = 2.95778 3.29712 3.13205
# Velocity P-wave (km/s) = 5.09118 5.45523 5.27635
#
# Compressibility (1/GPa) = 0.03390804
#
# Stress axis : x y z
#
# Youngs Moduli (GPa) = 26.49797 26.40579 62.53976
#
# Poissons Ratio (x) = 0.56082 -0.14053
# Poissons Ratio (y) = 0.56277 0.61628
# Poissons Ratio (z) = -0.05954 0.26021
#
# Static dielectric constant tensor:
#      x y z
#    x 1.748780 0.000000 0.000000 
#    y 0.000000 1.732960 0.000000 
#    z 0.000000 0.000000 1.792320 
# 
# From -- ./inp_files/6117.got.cif
#   From: 2010.05.17/outbox.cif.g08.bks.cpg/sg19_4_cif.got.tgz:6117.got - 2010.06.03 22:46:19.
