data_PCOD9314391
_publ_section_title
;
Structure prediction by ZEFSAII (Michael W. Deem and Ramdas Pophale) SiO2 
 PCOD9314391
Probable space group: P 21 21 21
;
_chemical_formula_sum "Si O2"
_cell_formula_units_Z 24
_cell_length_a 10.102588
_cell_length_b 5.891322
_cell_length_c 18.065041
_cell_angle_alpha 90.000000
_cell_angle_beta 90.000000
_cell_angle_gamma 90.000000
_cell_volume 1075.187865
_symmetry_space_group_name_H-M "P 21 21 21"
_symmetry_group_IT_number 19
_symmetry_cell_setting 'orthorhombic'
loop_
_space_group_symop_operation_xyz
x,y,z
1/2-x,-y,1/2+z
1/2+x,1/2-y,-z
-x,1/2+y,1/2-z
loop_
_atom_site_type_symbol
_atom_site_label
_atom_site_fract_x
_atom_site_fract_y
_atom_site_fract_z
Si Si1 0.328826 0.622860 0.321524
Si Si2 0.522796 0.929139 0.712343
Si Si3 0.046520 0.530426 0.669146
Si Si4 0.525901 0.850850 0.056688
Si Si5 0.167382 0.765906 0.534240
Si Si6 0.937938 0.531159 0.450853
O O1 0.395886 0.506423 0.249889
O O2 0.398726 0.868104 0.326058
O O3 0.370736 0.495281 0.395906
O O4 0.174313 0.620136 0.309030
O O5 0.479734 0.680321 0.746934
O O6 0.441370 0.972936 0.637075
O O7 0.039515 0.307178 0.619678
O O8 0.133974 0.700183 0.619294
O O9 0.408362 0.997608 0.022160
O O10 0.591708 0.703722 0.992204
O O11 0.322861 0.795356 0.524697
O O12 0.082082 0.600151 0.482438
#
# Coordination Sequence:
#
# PCOD9314391 Si02
#       6
#     4   4   4   4   4   4
#     4  11  23  42  73 103 150 188 268 302 389 446
#     4  12  32  50  77 111 157 209 251 320 393 461
#     4  10  21  40  68 103 136 190 242 318 365 453
#     4  10  24  40  70 102 138 196 242 320 371 441
#     4  10  25  44  68 102 139 191 249 313 382 444
#     4  11  27  46  74 103 150 190 262 307 388 459
#
# _framework density 22.321680000000001
#
# number of rings (size 3 to 8) (size 9 to 14) (size 15 to 20)
#    0.000    1.333    1.667    1.000   16.333    1.333 
#    0.000    0.000    0.000    0.000    0.000    0.000 
#    0.000    0.000    0.000    0.000    0.000    0.000 
#
# Total GULP energy -134022.844374 kJ/mol
# GULP energy per Si atom -5584.285182 kJ/mol
# Density = 2.227088 g / cm^3
# Si number density = 22.321680 Si / 1000 Ang^3
#
#
#
# Elastic Constant Matrix: (Units=GPa)
#
#
# Indices 1 2 3 4 5 6 
#
# 1 77.7319 -5.9198 5.0450 0.0000 0.0000 0.0000
# 2 -5.9198 59.3494 27.4674 0.0000 0.0000 0.0000
# 3 5.0450 27.4674 107.5571 0.0000 0.0000 0.0000
# 4 0.0000 0.0000 0.0000 28.2456 0.0000 0.0000
# 5 0.0000 0.0000 0.0000 0.0000 12.3931 0.0000
# 6 0.0000 0.0000 0.0000 0.0000 0.0000 22.0584
#
#
#
# Elastic Compliance Matrix: (Units=1/GPa)
#
#
# Indices 1 2 3 4 5 6 
#
# 1 0.013071 0.001800 -0.001073 0.000000 0.000000 0.000000
# 2 0.001800 0.019356 -0.005027 0.000000 0.000000 0.000000
# 3 -0.001073 -0.005027 0.010632 0.000000 0.000000 0.000000
# 4 0.000000 0.000000 0.000000 0.035404 0.000000 0.000000
# 5 0.000000 0.000000 0.000000 0.000000 0.080690 0.000000
# 6 0.000000 0.000000 0.000000 0.000000 0.000000 0.045334
#
#
# Mechanical properties :
#
#
# Convention : Reuss Voigt Hill
#
# Bulk Modulus (GPa) = 29.02011 33.09151 31.05581
# Shear Modulus (GPa) = 22.26447 27.07580 24.67014
#
# Velocity S-wave (km/s) = 3.16165 3.48657 3.32808
# Velocity P-wave (km/s) = 5.13392 5.57362 5.35828
#
# Compressibility (1/GPa) = 0.03445887
#
# Stress axis : x y z
#
# Youngs Moduli (GPa) = 76.50250 51.66442 94.05930
#
# Poissons Ratio (x) = -0.09301 0.10092
# Poissons Ratio (y) = -0.13773 0.47287
# Poissons Ratio (z) = 0.08208 0.25974
#
# Static dielectric constant tensor:
#      x y z
#    x 1.794220 0.000000 0.000000 
#    y 0.000000 1.878930 0.000000 
#    z 0.000000 0.000000 1.813070 
# 
# From -- ./inp_files/415.got.cif
#   From: 2010.05.17/outbox.cif.g08.bks.cpg/sg19_1_cif.got.tgz:415.got - 2010.06.03 22:46:19.
