data_PCOD9314140
_publ_section_title
;
Structure prediction by ZEFSAII (Michael W. Deem and Ramdas Pophale) SiO2 
 PCOD9314140
Probable space group: P 21 21 21
;
_chemical_formula_sum "Si O2"
_cell_formula_units_Z 32
_cell_length_a 5.928250
_cell_length_b 14.736852
_cell_length_c 16.658844
_cell_angle_alpha 90.000000
_cell_angle_beta 90.000000
_cell_angle_gamma 90.000000
_cell_volume 1455.378964
_symmetry_space_group_name_H-M "P 21 21 21"
_symmetry_group_IT_number 19
_symmetry_cell_setting 'orthorhombic'
loop_
_space_group_symop_operation_xyz
x,y,z
1/2-x,-y,1/2+z
1/2+x,1/2-y,-z
-x,1/2+y,1/2-z
loop_
_atom_site_type_symbol
_atom_site_label
_atom_site_fract_x
_atom_site_fract_y
_atom_site_fract_z
Si Si1 0.212103 0.183543 0.683494
Si Si2 0.462428 0.641111 0.951427
Si Si3 0.450030 0.443606 0.870877
Si Si4 0.452370 0.625355 0.683418
Si Si5 0.853228 0.289382 0.612060
Si Si6 0.404165 0.761935 0.541517
Si Si7 0.318996 0.945238 0.804515
Si Si8 0.423748 0.484556 0.278791
O O1 0.346138 0.191018 0.600979
O O2 0.377869 0.181282 0.759193
O O3 0.018680 0.258055 0.682957
O O4 0.100342 0.083933 0.682117
O O5 0.465083 0.538347 0.919304
O O6 0.238870 0.696796 0.927707
O O7 0.521246 0.653356 0.043791
O O8 0.539831 0.360981 0.922655
O O9 0.577948 0.440212 0.784909
O O10 0.189909 0.446539 0.840850
O O11 0.372450 0.688605 0.612504
O O12 0.578934 0.534178 0.653821
O O13 0.259168 0.583493 0.740067
O O14 0.657543 0.352703 0.647642
O O15 0.153388 0.763436 0.498809
O O16 0.054321 0.963617 0.791111
#
# Coordination Sequence:
#
# PCOD9314140 Si02
#       8
#     4   4   4   4   4   4   4   4
#     4  11  21  41  69 100 142 181 241 298 362 442
#     4  12  24  45  64 107 143 187 227 307 371 440
#     4  11  25  46  73 104 142 192 244 298 373 438
#     4  10  24  47  72 102 144 185 255 308 361 441
#     4  12  26  40  69 106 145 183 237 295 381 439
#     4  12  33  52  75 112 152 205 251 312 384 448
#     4  10  25  42  75 106 136 192 247 304 364 447
#     4  10  20  43  73 101 132 187 246 306 354 425
#
# _framework density 21.987401999999999
#
# number of rings (size 3 to 8) (size 9 to 14) (size 15 to 20)
#    0.000    1.000    6.250    0.000   12.250    1.000 
#    2.250    0.000    0.000    0.000    0.000    0.000 
#    0.000    0.000    0.000    0.000    0.000    0.000 
#
# Total GULP energy -178549.264984 kJ/mol
# GULP energy per Si atom -5579.664531 kJ/mol
# Density = 2.193736 g / cm^3
# Si number density = 21.987402 Si / 1000 Ang^3
#
#
#
# Elastic Constant Matrix: (Units=GPa)
#
#
# Indices 1 2 3 4 5 6 
#
# 1 58.4483 -3.3433 12.0657 0.0000 0.0000 0.0000
# 2 -3.3433 99.6042 25.9016 0.0000 0.0000 0.0000
# 3 12.0657 25.9016 53.5677 0.0000 0.0000 0.0000
# 4 0.0000 0.0000 0.0000 40.8022 0.0000 0.0000
# 5 0.0000 0.0000 0.0000 0.0000 23.6895 0.0000
# 6 0.0000 0.0000 0.0000 0.0000 0.0000 16.7460
#
#
#
# Elastic Compliance Matrix: (Units=1/GPa)
#
#
# Indices 1 2 3 4 5 6 
#
# 1 0.018260 0.001924 -0.005044 0.000000 0.000000 0.000000
# 2 0.001924 0.011687 -0.006084 0.000000 0.000000 0.000000
# 3 -0.005044 -0.006084 0.022746 0.000000 0.000000 0.000000
# 4 0.000000 0.000000 0.000000 0.024508 0.000000 0.000000
# 5 0.000000 0.000000 0.000000 0.000000 0.042213 0.000000
# 6 0.000000 0.000000 0.000000 0.000000 0.000000 0.059716
#
#
# Mechanical properties :
#
#
# Convention : Reuss Voigt Hill
#
# Bulk Modulus (GPa) = 29.16632 31.20760 30.18696
# Shear Modulus (GPa) = 23.92745 28.04730 25.98737
#
# Velocity S-wave (km/s) = 3.30242 3.57544 3.44164
# Velocity P-wave (km/s) = 5.27590 5.59189 5.43619
#
# Compressibility (1/GPa) = 0.03428613
#
# Stress axis : x y z
#
# Youngs Moduli (GPa) = 54.76339 85.56870 43.96393
#
# Poissons Ratio (x) = -0.16467 0.22173
# Poissons Ratio (y) = -0.10539 0.26749
# Poissons Ratio (z) = 0.27620 0.52062
#
# Static dielectric constant tensor:
#      x y z
#    x 1.915940 0.000000 0.000000 
#    y 0.000000 1.817960 0.000000 
#    z 0.000000 0.000000 1.782450 
# 
# From -- ./inp_files/6458.got.cif
#   From: 2010.05.17/outbox.cif.g08.bks.cpg/sg19_4_cif.got.tgz:6458.got - 2010.06.03 22:46:19.
