data_PCOD9314669
_publ_section_title
;
Structure prediction by ZEFSAII (Michael W. Deem and Ramdas Pophale) SiO2 
 PCOD9314669
Probable space group: P 21 21 21
;
_chemical_formula_sum "Si O2"
_cell_formula_units_Z 24
_cell_length_a 23.807968
_cell_length_b 7.313175
_cell_length_c 5.663301
_cell_angle_alpha 90.000000
_cell_angle_beta 90.000000
_cell_angle_gamma 90.000000
_cell_volume 986.047737
_symmetry_space_group_name_H-M "P 21 21 21"
_symmetry_group_IT_number 19
_symmetry_cell_setting 'orthorhombic'
loop_
_space_group_symop_operation_xyz
x,y,z
1/2-x,-y,1/2+z
1/2+x,1/2-y,-z
-x,1/2+y,1/2-z
loop_
_atom_site_type_symbol
_atom_site_label
_atom_site_fract_x
_atom_site_fract_y
_atom_site_fract_z
Si Si1 0.600052 0.247535 0.125328
Si Si2 0.879740 0.351335 0.850232
Si Si3 0.714680 0.181920 0.276583
Si Si4 0.253423 0.274185 0.220369
Si Si5 0.511039 0.731932 0.109045
Si Si6 0.060477 0.036855 0.262059
O O1 0.614930 0.446461 0.236400
O O2 0.650055 0.128082 0.229466
O O3 0.539125 0.189402 0.212243
O O4 0.594612 0.291979 0.847982
O O5 0.818579 0.278929 0.793656
O O6 0.930499 0.233750 0.740690
O O7 0.896780 0.391948 0.121504
O O8 0.725625 0.279463 0.528205
O O9 0.751337 0.996450 0.283643
O O10 0.728792 0.288527 0.033096
O O11 0.484100 0.888275 0.948250
O O12 0.525227 0.561827 0.940685
#
# Coordination Sequence:
#
# PCOD9314669 Si02
#       6
#     4   4   4   4   4   4
#     4  10  23  40  63  94 128 168 217 266 325 390
#     4  10  23  40  63  94 128 168 217 266 325 390
#     4  10  24  44  66  95 129 172 221 270 327 390
#     4  10  24  44  66  95 129 172 221 270 327 390
#     4  10  22  40  62  96 130 162 220 264 328 394
#     4  10  22  40  64  96 128 172 212 270 330 398
#
# _framework density 24.339590000000001
#
# number of rings (size 3 to 8) (size 9 to 14) (size 15 to 20)
#    0.000    2.000    0.000    1.000    9.333    8.000 
#    3.000    0.000    0.000    0.000    0.000    0.000 
#    0.000    0.000    0.000    0.000    0.000    0.000 
#
# Total GULP energy -134038.257840 kJ/mol
# GULP energy per Si atom -5584.927410 kJ/mol
# Density = 2.428419 g / cm^3
# Si number density = 24.339590 Si / 1000 Ang^3
#
#
#
# Elastic Constant Matrix: (Units=GPa)
#
#
# Indices 1 2 3 4 5 6 
#
# 1 145.2867 -0.9353 68.8729 0.0000 0.0000 0.0000
# 2 -0.9353 46.5996 11.7354 0.0000 0.0000 0.0000
# 3 68.8729 11.7354 172.7398 0.0000 0.0000 0.0000
# 4 0.0000 0.0000 0.0000 19.0925 0.0000 0.0000
# 5 0.0000 0.0000 0.0000 0.0000 31.1113 0.0000
# 6 0.0000 0.0000 0.0000 0.0000 0.0000 32.8044
#
#
#
# Elastic Compliance Matrix: (Units=1/GPa)
#
#
# Indices 1 2 3 4 5 6 
#
# 1 0.008537 0.001046 -0.003475 0.000000 0.000000 0.000000
# 2 0.001046 0.021961 -0.001909 0.000000 0.000000 0.000000
# 3 -0.003475 -0.001909 0.007304 0.000000 0.000000 0.000000
# 4 0.000000 0.000000 0.000000 0.052376 0.000000 0.000000
# 5 0.000000 0.000000 0.000000 0.000000 0.032143 0.000000
# 6 0.000000 0.000000 0.000000 0.000000 0.000000 0.030484
#
#
# Mechanical properties :
#
#
# Convention : Reuss Voigt Hill
#
# Bulk Modulus (GPa) = 34.33227 58.21913 46.27570
# Shear Modulus (GPa) = 29.20742 35.59853 32.40298
#
# Velocity S-wave (km/s) = 3.46785 3.82851 3.65264
# Velocity P-wave (km/s) = 5.49280 6.59658 6.06983
#
# Compressibility (1/GPa) = 0.02912712
#
# Stress axis : x y z
#
# Youngs Moduli (GPa) = 117.13823 45.53484 136.90736
#
# Poissons Ratio (x) = -0.04765 0.47573
# Poissons Ratio (y) = -0.12258 0.26138
# Poissons Ratio (z) = 0.40704 0.08694
#
# Static dielectric constant tensor:
#      x y z
#    x 1.943250 0.000000 0.000000 
#    y 0.000000 1.996850 0.000000 
#    z 0.000000 0.000000 2.042700 
# 
# From -- ./inp_files/2111.got.cif
#   From: 2010.05.17/outbox.cif.g08.bks.cpg/sg19_2_cif.got.tgz:2111.got - 2010.06.03 22:46:19.
