data_PCOD9314720
_publ_section_title
;
Structure prediction by ZEFSAII (Michael W. Deem and Ramdas Pophale) SiO2 
 PCOD9314720
Probable space group: P 21 21 21
;
_chemical_formula_sum "Si O2"
_cell_formula_units_Z 28
_cell_length_a 10.691674
_cell_length_b 21.574272
_cell_length_c 5.143109
_cell_angle_alpha 90.000000
_cell_angle_beta 90.000000
_cell_angle_gamma 90.000000
_cell_volume 1186.335664
_symmetry_space_group_name_H-M "P 21 21 21"
_symmetry_group_IT_number 19
_symmetry_cell_setting 'orthorhombic'
loop_
_space_group_symop_operation_xyz
x,y,z
1/2-x,-y,1/2+z
1/2+x,1/2-y,-z
-x,1/2+y,1/2-z
loop_
_atom_site_type_symbol
_atom_site_label
_atom_site_fract_x
_atom_site_fract_y
_atom_site_fract_z
Si Si1 0.071195 0.048573 0.474745
Si Si2 0.640646 0.878884 0.111925
Si Si3 0.067987 0.121877 0.966115
Si Si4 0.892746 0.247376 0.369238
Si Si5 0.237794 0.794337 0.630107
Si Si6 0.934222 0.866493 0.138552
Si Si7 0.563556 0.587375 0.360599
O O1 0.920272 0.057643 0.507051
O O2 0.123507 0.096581 0.691653
O O3 0.096923 0.072005 0.187835
O O4 0.107710 0.980202 0.554883
O O5 0.576471 0.822158 0.955020
O O6 0.579342 0.875563 0.398357
O O7 0.787015 0.870735 0.093656
O O8 0.122580 0.188423 0.044776
O O9 0.790488 0.268084 0.587312
O O10 0.004431 0.297882 0.389379
O O11 0.828457 0.253466 0.089565
O O12 0.170361 0.861100 0.621023
O O13 0.962710 0.890187 0.427354
O O14 0.005664 0.908797 0.926702
#
# Coordination Sequence:
#
# PCOD9314720 Si02
#       7
#     4   4   4   4   4   4   4
#     4  10  23  39  62  94 125 162 211 255 318 366
#     4  10  26  39  63  93 127 160 217 251 323 367
#     4  10  23  39  59  96 121 163 203 263 311 371
#     4  10  23  40  62  92 119 170 202 264 311 382
#     4  10  22  41  63  90 127 163 213 255 322 369
#     4  10  23  40  64  89 124 163 211 255 311 373
#     4  10  22  42  63  92 123 167 211 253 312 378
#
# _framework density 23.60209
#
# number of rings (size 3 to 8) (size 9 to 14) (size 15 to 20)
#    0.857    1.143    0.000    1.714    6.000    2.286 
#    2.571    0.000    0.000    0.000    0.000    0.000 
#    0.000    0.000    0.000    0.000    0.000    0.000 
#
# Total GULP energy -156483.084759 kJ/mol
# GULP energy per Si atom -5588.681599 kJ/mol
# Density = 2.354837 g / cm^3
# Si number density = 23.602090 Si / 1000 Ang^3
#
#
#
# Elastic Constant Matrix: (Units=GPa)
#
#
# Indices 1 2 3 4 5 6 
#
# 1 53.2071 -13.8595 10.7698 0.0000 0.0000 0.0000
# 2 -13.8595 69.3516 12.7635 0.0000 0.0000 0.0000
# 3 10.7698 12.7635 50.8024 0.0000 0.0000 0.0000
# 4 0.0000 0.0000 0.0000 30.0747 0.0000 0.0000
# 5 0.0000 0.0000 0.0000 0.0000 21.8260 0.0000
# 6 0.0000 0.0000 0.0000 0.0000 0.0000 16.9821
#
#
#
# Elastic Compliance Matrix: (Units=1/GPa)
#
#
# Indices 1 2 3 4 5 6 
#
# 1 0.021379 0.005354 -0.005877 0.000000 0.000000 0.000000
# 2 0.005354 0.016459 -0.005270 0.000000 0.000000 0.000000
# 3 -0.005877 -0.005270 0.022254 0.000000 0.000000 0.000000
# 4 0.000000 0.000000 0.000000 0.033251 0.000000 0.000000
# 5 0.000000 0.000000 0.000000 0.000000 0.045817 0.000000
# 6 0.000000 0.000000 0.000000 0.000000 0.000000 0.058886
#
#
# Mechanical properties :
#
#
# Convention : Reuss Voigt Hill
#
# Bulk Modulus (GPa) = 20.61636 21.41210 21.01423
# Shear Modulus (GPa) = 22.14345 24.68905 23.41625
#
# Velocity S-wave (km/s) = 3.06633 3.23778 3.15322
# Velocity P-wave (km/s) = 4.61415 4.80307 4.70956
#
# Compressibility (1/GPa) = 0.04850517
#
# Stress axis : x y z
#
# Youngs Moduli (GPa) = 46.77540 60.75634 44.93549
#
# Poissons Ratio (x) = -0.32529 0.26410
# Poissons Ratio (y) = -0.25044 0.23682
# Poissons Ratio (z) = 0.27491 0.32020
#
# Static dielectric constant tensor:
#      x y z
#    x 1.960240 0.000000 0.000000 
#    y 0.000000 1.883150 0.000000 
#    z 0.000000 0.000000 1.881760 
# 
# From -- ./inp_files/1103.got.cif
#   From: 2010.05.17/outbox.cif.g08.bks.cpg/sg19_1_cif.got.tgz:1103.got - 2010.06.03 22:46:19.
