data_PCOD9314400
_publ_section_title
;
Structure prediction by ZEFSAII (Michael W. Deem and Ramdas Pophale) SiO2 
 PCOD9314400
Probable space group: P 21 21 21
;
_chemical_formula_sum "Si O2"
_cell_formula_units_Z 32
_cell_length_a 10.144770
_cell_length_b 5.396410
_cell_length_c 21.602290
_cell_angle_alpha 90.000000
_cell_angle_beta 90.000000
_cell_angle_gamma 90.000000
_cell_volume 1182.624674
_symmetry_space_group_name_H-M "P 21 21 21"
_symmetry_group_IT_number 19
_symmetry_cell_setting 'orthorhombic'
loop_
_space_group_symop_operation_xyz
x,y,z
1/2-x,-y,1/2+z
1/2+x,1/2-y,-z
-x,1/2+y,1/2-z
loop_
_atom_site_type_symbol
_atom_site_label
_atom_site_fract_x
_atom_site_fract_y
_atom_site_fract_z
Si Si1 0.096191 0.226012 0.410418
Si Si2 0.426308 0.158189 0.328492
Si Si3 0.649500 0.101754 0.716070
Si Si4 0.129665 0.434243 0.576422
Si Si5 0.700595 0.780847 0.540661
Si Si6 0.826864 0.701146 0.751327
Si Si7 0.708270 0.292465 0.838068
Si Si8 0.351563 0.049591 0.539684
O O1 0.063402 0.293126 0.339507
O O2 0.198757 0.452101 0.426281
O O3 0.975864 0.271300 0.457571
O O4 0.138266 0.942561 0.419600
O O5 0.300243 0.316724 0.306494
O O6 0.496084 0.175611 0.394548
O O7 0.542936 0.171655 0.278118
O O8 0.368445 0.886672 0.317202
O O9 0.614947 0.226412 0.781192
O O10 0.687230 0.828283 0.738193
O O11 0.208002 0.563152 0.634146
O O12 0.125506 0.647354 0.523905
O O13 0.221393 0.217130 0.548689
O O14 0.830754 0.646669 0.514685
O O15 0.801715 0.494141 0.804852
O O16 0.635041 0.394085 0.897475
#
# Coordination Sequence:
#
# PCOD9314400 Si02
#       8
#     4   4   4   4   4   4   4   4
#     4  12  30  53  75 111 152 191 255 319 381 445
#     4  11  20  35  65 106 140 189 229 303 360 439
#     4  11  25  42  67 107 154 192 242 314 372 451
#     4  11  22  46  75 108 140 196 253 304 373 454
#     4  11  28  53  74 108 143 197 254 314 375 446
#     4  11  19  37  61 102 155 183 234 295 364 440
#     4  10  21  40  70 108 145 193 246 292 375 446
#     4  11  25  52  81 104 149 199 253 313 376 457
#
# _framework density 27.05846
#
# number of rings (size 3 to 8) (size 9 to 14) (size 15 to 20)
#    0.000    1.000    5.000    0.750    7.000    1.000 
#    9.000    0.000    0.000    0.000    0.000    0.000 
#    0.000    0.000    0.000    0.000    0.000    0.000 
#
# Total GULP energy -178670.475312 kJ/mol
# GULP energy per Si atom -5583.452353 kJ/mol
# Density = 2.699687 g / cm^3
# Si number density = 27.058460 Si / 1000 Ang^3
#
#
#
# Elastic Constant Matrix: (Units=GPa)
#
#
# Indices 1 2 3 4 5 6 
#
# 1 81.4154 11.6065 -1.7799 0.0000 0.0000 0.0000
# 2 11.6065 91.8182 22.2086 0.0000 0.0000 0.0000
# 3 -1.7799 22.2086 111.5720 0.0000 0.0000 0.0000
# 4 0.0000 0.0000 0.0000 46.1155 0.0000 0.0000
# 5 0.0000 0.0000 0.0000 0.0000 38.2041 0.0000
# 6 0.0000 0.0000 0.0000 0.0000 0.0000 18.5464
#
#
#
# Elastic Compliance Matrix: (Units=1/GPa)
#
#
# Indices 1 2 3 4 5 6 
#
# 1 0.012539 -0.001716 0.000542 0.000000 0.000000 0.000000
# 2 -0.001716 0.011677 -0.002352 0.000000 0.000000 0.000000
# 3 0.000542 -0.002352 0.009440 0.000000 0.000000 0.000000
# 4 0.000000 0.000000 0.000000 0.021685 0.000000 0.000000
# 5 0.000000 0.000000 0.000000 0.000000 0.026175 0.000000
# 6 0.000000 0.000000 0.000000 0.000000 0.000000 0.053919
#
#
# Mechanical properties :
#
#
# Convention : Reuss Voigt Hill
#
# Bulk Modulus (GPa) = 37.58922 38.76399 38.17660
# Shear Modulus (GPa) = 33.03506 37.42455 35.22981
#
# Velocity S-wave (km/s) = 3.49790 3.72304 3.61222
# Velocity P-wave (km/s) = 5.49870 5.73049 5.61579
#
# Compressibility (1/GPa) = 0.02660337
#
# Stress axis : x y z
#
# Youngs Moduli (GPa) = 79.75008 85.63972 105.93707
#
# Poissons Ratio (x) = 0.14696 -0.05738
# Poissons Ratio (y) = 0.13685 0.24913
# Poissons Ratio (z) = -0.04319 0.20140
#
# Static dielectric constant tensor:
#      x y z
#    x 2.167930 0.000000 0.000000 
#    y 0.000000 2.271110 0.000000 
#    z 0.000000 0.000000 2.127910 
# 
# From -- ./inp_files/7409.got.cif
#   From: 2010.05.17/outbox.cif.g08.bks.cpg/sg19_4_cif.got.tgz:7409.got - 2010.06.03 22:46:19.
