data_PCOD9314606
_publ_section_title
;
Structure prediction by ZEFSAII (Michael W. Deem and Ramdas Pophale) SiO2 
 PCOD9314606
Probable space group: P 21 21 21
;
_chemical_formula_sum "Si O2"
_cell_formula_units_Z 32
_cell_length_a 19.153720
_cell_length_b 5.275435
_cell_length_c 10.950846
_cell_angle_alpha 90.000000
_cell_angle_beta 90.000000
_cell_angle_gamma 90.000000
_cell_volume 1106.519527
_symmetry_space_group_name_H-M "P 21 21 21"
_symmetry_group_IT_number 19
_symmetry_cell_setting 'orthorhombic'
loop_
_space_group_symop_operation_xyz
x,y,z
1/2-x,-y,1/2+z
1/2+x,1/2-y,-z
-x,1/2+y,1/2-z
loop_
_atom_site_type_symbol
_atom_site_label
_atom_site_fract_x
_atom_site_fract_y
_atom_site_fract_z
Si Si1 0.790424 0.002864 0.344791
Si Si2 0.150585 0.284698 0.729726
Si Si3 0.907401 0.927594 0.007036
Si Si4 0.963542 0.093846 0.696427
Si Si5 0.664901 0.396794 0.013091
Si Si6 0.520525 0.551156 0.553725
Si Si7 0.902191 0.371014 0.274284
Si Si8 0.710231 0.318103 0.626925
O O1 0.801771 0.871795 0.474492
O O2 0.764849 0.775479 0.257925
O O3 0.731062 0.203322 0.307643
O O4 0.866932 0.104143 0.308882
O O5 0.108760 0.232335 0.606227
O O6 0.116075 0.558213 0.760164
O O7 0.135856 0.127378 0.850507
O O8 0.960131 0.746599 0.076574
O O9 0.937757 0.206479 0.992555
O O10 0.831957 0.917577 0.069002
O O11 0.964882 0.009576 0.553963
O O12 0.005821 0.868080 0.768098
O O13 0.612879 0.476747 0.902294
O O14 0.730592 0.581727 0.037405
O O15 0.527409 0.645864 0.694564
O O16 0.849483 0.483548 0.168846
#
# Coordination Sequence:
#
# PCOD9314606 Si02
#       8
#     4   4   4   4   4   4   4   4
#     4  11  24  42  61  99 140 185 230 282 372 437
#     4  12  26  41  69 101 140 188 227 308 357 428
#     4  11  23  39  71  98 135 173 234 284 363 414
#     4  12  25  48  72 106 139 180 247 305 364 424
#     4  11  26  41  61 101 147 183 244 287 368 449
#     4  11  22  45  73 100 129 185 235 299 348 432
#     4  10  22  42  66  89 139 184 228 287 355 440
#     4  10  22  38  61  96 135 182 225 284 347 442
#
# _framework density 28.919509999999999
#
# number of rings (size 3 to 8) (size 9 to 14) (size 15 to 20)
#    0.000    1.000    5.000    0.750    8.750    1.000 
#    0.000    0.000    2.750    0.000    0.000    0.000 
#    0.000    0.000    0.000    0.000    0.000    0.000 
#
# Total GULP energy -178403.546040 kJ/mol
# GULP energy per Si atom -5575.110814 kJ/mol
# Density = 2.885369 g / cm^3
# Si number density = 28.919510 Si / 1000 Ang^3
#
#
#
# Elastic Constant Matrix: (Units=GPa)
#
#
# Indices 1 2 3 4 5 6 
#
# 1 48.8084 18.3445 29.7772 0.0000 0.0000 0.0000
# 2 18.3445 135.3946 31.6900 0.0000 0.0000 0.0000
# 3 29.7772 31.6900 192.5418 0.0000 0.0000 0.0000
# 4 0.0000 0.0000 0.0000 53.0061 0.0000 0.0000
# 5 0.0000 0.0000 0.0000 0.0000 45.5668 0.0000
# 6 0.0000 0.0000 0.0000 0.0000 0.0000 40.1592
#
#
#
# Elastic Compliance Matrix: (Units=1/GPa)
#
#
# Indices 1 2 3 4 5 6 
#
# 1 0.023356 -0.002412 -0.003215 0.000000 0.000000 0.000000
# 2 -0.002412 0.007931 -0.000932 0.000000 0.000000 0.000000
# 3 -0.003215 -0.000932 0.005844 0.000000 0.000000 0.000000
# 4 0.000000 0.000000 0.000000 0.018866 0.000000 0.000000
# 5 0.000000 0.000000 0.000000 0.000000 0.021946 0.000000
# 6 0.000000 0.000000 0.000000 0.000000 0.000000 0.024901
#
#
# Mechanical properties :
#
#
# Convention : Reuss Voigt Hill
#
# Bulk Modulus (GPa) = 41.64473 59.59646 50.62059
# Shear Modulus (GPa) = 40.33329 47.54197 43.93763
#
# Velocity S-wave (km/s) = 3.73858 4.05895 3.90206
# Velocity P-wave (km/s) = 5.75043 6.52834 6.15170
#
# Compressibility (1/GPa) = 0.02401264
#
# Stress axis : x y z
#
# Youngs Moduli (GPa) = 42.81489 126.09025 171.10526
#
# Poissons Ratio (x) = 0.30413 0.55013
# Poissons Ratio (y) = 0.10327 0.15952
# Poissons Ratio (z) = 0.13766 0.11755
#
# Static dielectric constant tensor:
#      x y z
#    x 2.398870 0.000000 0.000000 
#    y 0.000000 2.242780 0.000000 
#    z 0.000000 0.000000 2.386150 
# 
# From -- ./inp_files/5572.got.cif
#   From: 2010.05.17/outbox.cif.g08.bks.cpg/sg19_3_cif.got.tgz:5572.got - 2010.06.03 22:46:19.
