data_PCOD9314556
_publ_section_title
;
Structure prediction by ZEFSAII (Michael W. Deem and Ramdas Pophale) SiO2 
 PCOD9314556
Probable space group: P 21 21 21
;
_chemical_formula_sum "Si O2"
_cell_formula_units_Z 20
_cell_length_a 8.555624
_cell_length_b 9.313302
_cell_length_c 10.020437
_cell_angle_alpha 90.000000
_cell_angle_beta 90.000000
_cell_angle_gamma 90.000000
_cell_volume 798.439544
_symmetry_space_group_name_H-M "P 21 21 21"
_symmetry_group_IT_number 19
_symmetry_cell_setting 'orthorhombic'
loop_
_space_group_symop_operation_xyz
x,y,z
1/2-x,-y,1/2+z
1/2+x,1/2-y,-z
-x,1/2+y,1/2-z
loop_
_atom_site_type_symbol
_atom_site_label
_atom_site_fract_x
_atom_site_fract_y
_atom_site_fract_z
Si Si1 0.756491 0.050825 0.618464
Si Si2 0.418596 0.052190 0.090156
Si Si3 0.448762 0.776801 0.756768
Si Si4 0.182377 0.645668 0.605345
Si Si5 0.693445 0.566411 0.697165
O O1 0.663109 0.933680 0.533719
O O2 0.927384 0.037179 0.551317
O O3 0.657400 0.198317 0.628065
O O4 0.808014 0.032226 0.773295
O O5 0.437176 0.222058 0.125552
O O6 0.341756 0.979224 0.218787
O O7 0.303084 0.058304 0.962254
O O8 0.352371 0.721640 0.626689
O O9 0.619859 0.713007 0.749614
O O10 0.434715 0.945035 0.766270
#
# Coordination Sequence:
#
# PCOD9314556 Si02
#       5
#     4   4   4   4   4
#     4  10  21  45  65  92 137 176 227 280 339 405
#     4  11  24  44  66 105 130 178 230 287 330 416
#     4   9  23  43  65  94 136 176 222 273 340 404
#     4   9  22  42  65  93 135 173 223 272 346 393
#     4  11  24  46  67 100 140 177 232 278 349 402
#
# _framework density 25.048857000000002
#
# number of rings (size 3 to 8) (size 9 to 14) (size 15 to 20)
#    1.200    0.800    2.000    0.000    2.800    4.800 
#    7.200    0.000    0.000    0.000    0.000    0.000 
#    0.000    0.000    0.000    0.000    0.000    0.000 
#
# Total GULP energy -111520.179739 kJ/mol
# GULP energy per Si atom -5576.008987 kJ/mol
# Density = 2.499184 g / cm^3
# Si number density = 25.048857 Si / 1000 Ang^3
#
#
#
# Elastic Constant Matrix: (Units=GPa)
#
#
# Indices 1 2 3 4 5 6 
#
# 1 49.5730 -9.5473 4.7317 0.0000 0.0000 0.0000
# 2 -9.5473 60.6368 8.5651 0.0000 0.0000 0.0000
# 3 4.7317 8.5651 92.9686 0.0000 0.0000 0.0000
# 4 0.0000 0.0000 0.0000 48.6597 0.0000 0.0000
# 5 0.0000 0.0000 0.0000 0.0000 33.7242 0.0000
# 6 0.0000 0.0000 0.0000 0.0000 0.0000 29.3498
#
#
#
# Elastic Compliance Matrix: (Units=1/GPa)
#
#
# Indices 1 2 3 4 5 6 
#
# 1 0.020979 0.003500 -0.001390 0.000000 0.000000 0.000000
# 2 0.003500 0.017293 -0.001771 0.000000 0.000000 0.000000
# 3 -0.001390 -0.001771 0.010990 0.000000 0.000000 0.000000
# 4 0.000000 0.000000 0.000000 0.020551 0.000000 0.000000
# 5 0.000000 0.000000 0.000000 0.000000 0.029652 0.000000
# 6 0.000000 0.000000 0.000000 0.000000 0.000000 0.034072
#
#
# Mechanical properties :
#
#
# Convention : Reuss Voigt Hill
#
# Bulk Modulus (GPa) = 20.02475 23.40859 21.71667
# Shear Modulus (GPa) = 33.44328 35.64201 34.54264
#
# Velocity S-wave (km/s) = 3.65790 3.77623 3.71753
# Velocity P-wave (km/s) = 5.08448 5.32716 5.20723
#
# Compressibility (1/GPa) = 0.04993821
#
# Stress axis : x y z
#
# Youngs Moduli (GPa) = 47.66687 57.82744 90.98972
#
# Poissons Ratio (x) = -0.20237 0.12649
# Poissons Ratio (y) = -0.16681 0.16117
# Poissons Ratio (z) = 0.06626 0.10243
#
# Static dielectric constant tensor:
#      x y z
#    x 2.022090 0.000000 0.000000 
#    y 0.000000 1.968040 0.000000 
#    z 0.000000 0.000000 1.971230 
# 
# From -- ./inp_files/4885.got.cif
#   From: 2010.05.17/outbox.cif.g08.bks.cpg/sg19_3_cif.got.tgz:4885.got - 2010.06.03 22:46:19.
