data_PCOD9314670
_publ_section_title
;
Structure prediction by ZEFSAII (Michael W. Deem and Ramdas Pophale) SiO2 
 PCOD9314670
Probable space group: P 21 21 21
;
_chemical_formula_sum "Si O2"
_cell_formula_units_Z 32
_cell_length_a 7.326449
_cell_length_b 14.999385
_cell_length_c 12.006985
_cell_angle_alpha 90.000000
_cell_angle_beta 90.000000
_cell_angle_gamma 90.000000
_cell_volume 1319.474348
_symmetry_space_group_name_H-M "P 21 21 21"
_symmetry_group_IT_number 19
_symmetry_cell_setting 'orthorhombic'
loop_
_space_group_symop_operation_xyz
x,y,z
1/2-x,-y,1/2+z
1/2+x,1/2-y,-z
-x,1/2+y,1/2-z
loop_
_atom_site_type_symbol
_atom_site_label
_atom_site_fract_x
_atom_site_fract_y
_atom_site_fract_z
Si Si1 0.869908 0.839993 0.086540
Si Si2 0.533124 0.975926 0.635004
Si Si3 0.002364 0.102714 0.667521
Si Si4 0.041134 0.413502 0.864236
Si Si5 0.878638 0.798718 0.841898
Si Si6 0.499428 0.372020 0.082715
Si Si7 0.026032 0.186339 0.266728
Si Si8 0.605155 0.709625 0.551563
O O1 0.664907 0.877265 0.085274
O O2 0.857959 0.746029 0.149763
O O3 0.978771 0.918315 0.150865
O O4 0.944978 0.828510 0.962864
O O5 0.746814 0.944547 0.644291
O O6 0.488282 0.950205 0.507723
O O7 0.425058 0.910629 0.718570
O O8 0.120041 0.191665 0.661907
O O9 0.935899 0.098360 0.796216
O O10 0.074212 0.004653 0.641837
O O11 0.016491 0.344933 0.761278
O O12 0.996007 0.364732 0.979102
O O13 0.668049 0.824883 0.827238
O O14 0.700001 0.327887 0.088508
O O15 0.374972 0.293848 0.031645
O O16 0.994638 0.247946 0.157576
#
# Coordination Sequence:
#
# PCOD9314670 Si02
#       8
#     4   4   4   4   4   4   4   4
#     4  11  24  40  65  93 128 180 213 262 330 394
#     4   9  22  40  63  95 124 162 225 263 319 390
#     4  11  23  40  64  96 128 172 216 258 332 391
#     4  10  22  41  66  94 126 168 211 273 321 388
#     4  11  21  44  61  92 133 166 213 270 325 388
#     4  11  21  38  66  92 123 167 208 277 315 384
#     4  10  22  40  63  92 130 164 215 272 320 385
#     4  11  21  39  64  92 126 161 217 269 328 372
#
# _framework density 24.252082999999999
#
# number of rings (size 3 to 8) (size 9 to 14) (size 15 to 20)
#    0.000    1.500    2.500    3.000    5.250    1.000 
#    6.750    1.250    0.000    0.000    0.000    0.000 
#    0.000    0.000    0.000    0.000    0.000    0.000 
#
# Total GULP energy -178937.404417 kJ/mol
# GULP energy per Si atom -5591.793888 kJ/mol
# Density = 2.419688 g / cm^3
# Si number density = 24.252083 Si / 1000 Ang^3
#
#
#
# Elastic Constant Matrix: (Units=GPa)
#
#
# Indices 1 2 3 4 5 6 
#
# 1 42.4640 24.3708 -0.1764 0.0000 0.0000 0.0000
# 2 24.3708 118.2241 30.5504 0.0000 0.0000 0.0000
# 3 -0.1764 30.5504 96.1946 0.0000 0.0000 0.0000
# 4 0.0000 0.0000 0.0000 22.3024 0.0000 0.0000
# 5 0.0000 0.0000 0.0000 0.0000 24.9548 0.0000
# 6 0.0000 0.0000 0.0000 0.0000 0.0000 33.8216
#
#
#
# Elastic Compliance Matrix: (Units=1/GPa)
#
#
# Indices 1 2 3 4 5 6 
#
# 1 0.027052 -0.006089 0.001983 0.000000 0.000000 0.000000
# 2 -0.006089 0.010585 -0.003373 0.000000 0.000000 0.000000
# 3 0.001983 -0.003373 0.011470 0.000000 0.000000 0.000000
# 4 0.000000 0.000000 0.000000 0.044838 0.000000 0.000000
# 5 0.000000 0.000000 0.000000 0.000000 0.040072 0.000000
# 6 0.000000 0.000000 0.000000 0.000000 0.000000 0.029567
#
#
# Mechanical properties :
#
#
# Convention : Reuss Voigt Hill
#
# Bulk Modulus (GPa) = 29.28190 40.70802 34.99496
# Shear Modulus (GPa) = 26.32599 29.69162 28.00880
#
# Velocity S-wave (km/s) = 3.29829 3.50278 3.40207
# Velocity P-wave (km/s) = 5.15802 5.76031 5.46746
#
# Compressibility (1/GPa) = 0.03415079
#
# Stress axis : x y z
#
# Youngs Moduli (GPa) = 36.96551 94.47043 87.18059
#
# Poissons Ratio (x) = 0.57524 -0.17292
# Poissons Ratio (y) = 0.22509 0.29406
# Poissons Ratio (z) = -0.07332 0.31864
#
# Static dielectric constant tensor:
#      x y z
#    x 2.006170 0.000000 0.000000 
#    y 0.000000 1.964350 0.000000 
#    z 0.000000 0.000000 1.882570 
# 
# From -- ./inp_files/3654.got.cif
#   From: 2010.05.17/outbox.cif.g08.bks.cpg/sg19_2_cif.got.tgz:3654.got - 2010.06.03 22:46:19.
