data_PCOD9314848
_publ_section_title
;
Structure prediction by ZEFSAII (Michael W. Deem and Ramdas Pophale) SiO2 
 PCOD9314848
Probable space group: P 21 21 21
;
_chemical_formula_sum "Si O2"
_cell_formula_units_Z 24
_cell_length_a 9.839912
_cell_length_b 6.888065
_cell_length_c 14.087121
_cell_angle_alpha 90.000000
_cell_angle_beta 90.000000
_cell_angle_gamma 90.000000
_cell_volume 954.796231
_symmetry_space_group_name_H-M "P 21 21 21"
_symmetry_group_IT_number 19
_symmetry_cell_setting 'orthorhombic'
loop_
_space_group_symop_operation_xyz
x,y,z
1/2-x,-y,1/2+z
1/2+x,1/2-y,-z
-x,1/2+y,1/2-z
loop_
_atom_site_type_symbol
_atom_site_label
_atom_site_fract_x
_atom_site_fract_y
_atom_site_fract_z
Si Si1 0.512809 0.402206 0.626655
Si Si2 0.071806 0.645895 0.332675
Si Si3 0.515834 0.395728 0.414219
Si Si4 0.306546 0.150081 0.299303
Si Si5 0.705411 0.453272 0.898680
Si Si6 0.155802 0.246502 0.899215
O O1 0.423490 0.359937 0.719163
O O2 0.532232 0.637614 0.631921
O O3 0.467878 0.348426 0.521149
O O4 0.664281 0.320881 0.645649
O O5 0.219551 0.612097 0.374053
O O6 0.949732 0.508325 0.366623
O O7 0.569436 0.773863 0.160974
O O8 0.678976 0.382556 0.408844
O O9 0.476732 0.622133 0.401329
O O10 0.262936 0.172233 0.190062
O O11 0.345472 0.925818 0.322432
O O12 0.689899 0.348387 0.999385
#
# Coordination Sequence:
#
# PCOD9314848 Si02
#       6
#     4   4   4   4   4   4
#     4  10  22  46  67 102 132 186 232 277 345 419
#     4  10  22  42  72  96 135 180 235 280 341 420
#     4  12  25  45  70 103 141 178 231 288 357 402
#     4  10  26  44  65 104 142 179 233 281 343 423
#     4  11  22  46  68  99 142 178 230 287 345 415
#     4  11  23  47  72 100 138 185 227 289 349 409
#
# _framework density 25.136253
#
# number of rings (size 3 to 8) (size 9 to 14) (size 15 to 20)
#    0.000    1.333    5.000    0.000    7.000    4.000 
#    3.000    0.000    0.000    0.000    0.000    0.000 
#    0.000    0.000    0.000    0.000    0.000    0.000 
#
# Total GULP energy -134328.628214 kJ/mol
# GULP energy per Si atom -5597.026176 kJ/mol
# Density = 2.507904 g / cm^3
# Si number density = 25.136253 Si / 1000 Ang^3
#
#
#
# Elastic Constant Matrix: (Units=GPa)
#
#
# Indices 1 2 3 4 5 6 
#
# 1 130.9898 10.7284 32.8904 0.0000 0.0000 0.0000
# 2 10.7284 60.3140 1.6588 0.0000 0.0000 0.0000
# 3 32.8904 1.6588 74.7786 0.0000 0.0000 0.0000
# 4 0.0000 0.0000 0.0000 31.2973 0.0000 0.0000
# 5 0.0000 0.0000 0.0000 0.0000 37.5626 0.0000
# 6 0.0000 0.0000 0.0000 0.0000 0.0000 30.0329
#
#
#
# Elastic Compliance Matrix: (Units=1/GPa)
#
#
# Indices 1 2 3 4 5 6 
#
# 1 0.008706 -0.001444 -0.003797 0.000000 0.000000 0.000000
# 2 -0.001444 0.016830 0.000262 0.000000 0.000000 0.000000
# 3 -0.003797 0.000262 0.015037 0.000000 0.000000 0.000000
# 4 0.000000 0.000000 0.000000 0.031952 0.000000 0.000000
# 5 0.000000 0.000000 0.000000 0.000000 0.026622 0.000000
# 6 0.000000 0.000000 0.000000 0.000000 0.000000 0.033297
#
#
# Mechanical properties :
#
#
# Convention : Reuss Voigt Hill
#
# Bulk Modulus (GPa) = 32.66507 39.62642 36.14574
# Shear Modulus (GPa) = 32.76396 34.49887 33.63142
#
# Velocity S-wave (km/s) = 3.61426 3.70871 3.66179
# Velocity P-wave (km/s) = 5.51729 5.84280 5.68238
#
# Compressibility (1/GPa) = 0.03061374
#
# Stress axis : x y z
#
# Youngs Moduli (GPa) = 114.86474 59.41921 66.50204
#
# Poissons Ratio (x) = 0.08581 0.25252
# Poissons Ratio (y) = 0.16588 -0.01741
# Poissons Ratio (z) = 0.43616 -0.01556
#
# Static dielectric constant tensor:
#      x y z
#    x 1.962880 0.000000 0.000000 
#    y 0.000000 2.044160 0.000000 
#    z 0.000000 0.000000 1.942070 
# 
# From -- ./inp_files/3393.got.cif
#   From: 2010.05.17/outbox.cif.g08.bks.cpg/sg19_2_cif.got.tgz:3393.got - 2010.06.03 22:46:19.
