data_PCOD9314549
_publ_section_title
;
Structure prediction by ZEFSAII (Michael W. Deem and Ramdas Pophale) SiO2 
 PCOD9314549
Probable space group: P 21 21 21
;
_chemical_formula_sum "Si O2"
_cell_formula_units_Z 32
_cell_length_a 18.243201
_cell_length_b 6.798237
_cell_length_c 10.806239
_cell_angle_alpha 90.000000
_cell_angle_beta 90.000000
_cell_angle_gamma 90.000000
_cell_volume 1340.207094
_symmetry_space_group_name_H-M "P 21 21 21"
_symmetry_group_IT_number 19
_symmetry_cell_setting 'orthorhombic'
loop_
_space_group_symop_operation_xyz
x,y,z
1/2-x,-y,1/2+z
1/2+x,1/2-y,-z
-x,1/2+y,1/2-z
loop_
_atom_site_type_symbol
_atom_site_label
_atom_site_fract_x
_atom_site_fract_y
_atom_site_fract_z
Si Si1 0.180633 0.585378 0.684900
Si Si2 0.910228 0.768707 0.444477
Si Si3 0.040120 0.530315 0.848831
Si Si4 0.888335 0.453662 0.239207
Si Si5 0.193757 0.648077 0.092304
Si Si6 0.210285 0.262504 0.358452
Si Si7 0.459396 0.026143 0.402099
Si Si8 0.598562 0.894754 0.562553
O O1 0.114948 0.511876 0.771289
O O2 0.233870 0.400347 0.670536
O O3 0.237374 0.741852 0.739003
O O4 0.147583 0.661945 0.556504
O O5 0.921648 0.639874 0.318113
O O6 0.891810 0.598127 0.544884
O O7 0.968406 0.881172 0.537378
O O8 0.853825 0.946563 0.420175
O O9 0.978871 0.523665 0.740891
O O10 0.048445 0.743199 0.906645
O O11 0.850097 0.319662 0.342325
O O12 0.835025 0.563476 0.143518
O O13 0.924040 0.281990 0.154553
O O14 0.229845 0.704998 0.963432
O O15 0.150396 0.441420 0.369806
O O16 0.526935 0.986799 0.497163
#
# Coordination Sequence:
#
# PCOD9314549 Si02
#       8
#     4   4   4   4   4   4   4   4
#     4  10  21  44  70 103 151 182 230 318 366 444
#     4  12  24  43  72 103 146 191 240 303 366 440
#     4  11  23  46  74 111 145 191 254 316 374 436
#     4  12  25  44  69 106 144 199 240 293 380 451
#     4  11  24  44  67 106 150 186 242 299 377 450
#     4  11  23  42  70 103 144 187 237 307 371 445
#     4  11  25  48  77 102 147 196 252 315 376 441
#     4  10  25  47  67 104 149 190 245 307 374 447
#
# _framework density 23.876906999999999
#
# number of rings (size 3 to 8) (size 9 to 14) (size 15 to 20)
#    0.000    1.000    5.000    0.750    1.750    2.000 
#    4.500    0.000    0.000    0.000    0.000    0.000 
#    0.000    0.000    0.000    0.000    0.000    0.000 
#
# Total GULP energy -178326.455411 kJ/mol
# GULP energy per Si atom -5572.701732 kJ/mol
# Density = 2.382256 g / cm^3
# Si number density = 23.876907 Si / 1000 Ang^3
#
#
#
# Elastic Constant Matrix: (Units=GPa)
#
#
# Indices 1 2 3 4 5 6 
#
# 1 71.1542 37.8397 53.0453 0.0000 0.0000 0.0000
# 2 37.8397 140.4620 72.1602 0.0000 0.0000 0.0000
# 3 53.0453 72.1602 124.7705 0.0000 0.0000 0.0000
# 4 0.0000 0.0000 0.0000 36.3148 0.0000 0.0000
# 5 0.0000 0.0000 0.0000 0.0000 28.4329 0.0000
# 6 0.0000 0.0000 0.0000 0.0000 0.0000 23.7617
#
#
#
# Elastic Compliance Matrix: (Units=1/GPa)
#
#
# Indices 1 2 3 4 5 6 
#
# 1 0.020797 -0.001509 -0.007969 0.000000 0.000000 0.000000
# 2 -0.001509 0.010238 -0.005280 0.000000 0.000000 0.000000
# 3 -0.007969 -0.005280 0.014456 0.000000 0.000000 0.000000
# 4 0.000000 0.000000 0.000000 0.027537 0.000000 0.000000
# 5 0.000000 0.000000 0.000000 0.000000 0.035171 0.000000
# 6 0.000000 0.000000 0.000000 0.000000 0.000000 0.042085
#
#
# Mechanical properties :
#
#
# Convention : Reuss Voigt Hill
#
# Bulk Modulus (GPa) = 62.59230 73.60856 68.10043
# Shear Modulus (GPa) = 27.00875 29.25797 28.13336
#
# Velocity S-wave (km/s) = 3.36693 3.50432 3.43631
# Velocity P-wave (km/s) = 6.43323 6.87524 6.65791
#
# Compressibility (1/GPa) = 0.01597640
#
# Stress axis : x y z
#
# Youngs Moduli (GPa) = 48.08299 97.67339 69.17344
#
# Poissons Ratio (x) = 0.14735 0.55127
# Poissons Ratio (y) = 0.07254 0.36523
# Poissons Ratio (z) = 0.38319 0.51570
#
# Static dielectric constant tensor:
#      x y z
#    x 1.975860 0.000000 0.000000 
#    y 0.000000 1.949720 0.000000 
#    z 0.000000 0.000000 2.003720 
# 
# From -- ./inp_files/5505.got.cif
#   From: 2010.05.17/outbox.cif.g08.bks.cpg/sg19_3_cif.got.tgz:5505.got - 2010.06.03 22:46:19.
