data_PCOD9314698
_publ_section_title
;
Structure prediction by ZEFSAII (Michael W. Deem and Ramdas Pophale) SiO2 
 PCOD9314698
Probable space group: P 21 21 21
;
_chemical_formula_sum "Si O2"
_cell_formula_units_Z 32
_cell_length_a 20.171091
_cell_length_b 12.929139
_cell_length_c 5.201178
_cell_angle_alpha 90.000000
_cell_angle_beta 90.000000
_cell_angle_gamma 90.000000
_cell_volume 1356.440381
_symmetry_space_group_name_H-M "P 21 21 21"
_symmetry_group_IT_number 19
_symmetry_cell_setting 'orthorhombic'
loop_
_space_group_symop_operation_xyz
x,y,z
1/2-x,-y,1/2+z
1/2+x,1/2-y,-z
-x,1/2+y,1/2-z
loop_
_atom_site_type_symbol
_atom_site_label
_atom_site_fract_x
_atom_site_fract_y
_atom_site_fract_z
Si Si1 0.938129 0.643980 0.376633
Si Si2 0.363258 0.001582 0.029742
Si Si3 0.823128 0.694192 0.765934
Si Si4 0.107447 0.698876 0.841833
Si Si5 0.052252 0.520968 0.179488
Si Si6 0.096677 0.343237 0.419741
Si Si7 0.819814 0.268552 0.133594
Si Si8 0.520274 0.607252 0.291164
O O1 0.895671 0.567358 0.194764
O O2 0.892337 0.678085 0.614419
O O3 0.943450 0.752251 0.224348
O O4 0.010604 0.591019 0.380849
O O5 0.341030 0.113658 0.935852
O O6 0.418079 0.028576 0.252178
O O7 0.308350 0.922074 0.133607
O O8 0.759340 0.732522 0.618402
O O9 0.840784 0.781321 0.973634
O O10 0.151107 0.693119 0.584731
O O11 0.051541 0.781196 0.756286
O O12 0.073658 0.596791 0.952884
O O13 0.150612 0.742051 0.084776
O O14 0.112224 0.447342 0.263806
O O15 0.001348 0.434101 0.070328
O O16 0.046651 0.389988 0.630550
#
# Coordination Sequence:
#
# PCOD9314698 Si02
#       8
#     4   4   4   4   4   4   4   4
#     4  10  22  40  68 104 145 185 239 306 376 444
#     4   9  23  38  68 107 139 192 234 300 376 448
#     4  11  25  43  70 106 148 197 250 301 370 444
#     4  11  27  48  73 110 146 201 244 308 376 447
#     4  11  24  44  76 107 149 193 242 313 389 449
#     4  11  23  41  71 103 146 187 242 305 373 443
#     4  11  28  46  73 104 157 197 251 303 361 448
#     4  10  22  42  69 109 146 182 240 308 377 449
#
# _framework density 23.591158
#
# number of rings (size 3 to 8) (size 9 to 14) (size 15 to 20)
#    0.000    1.500    1.250    1.500   15.750    2.000 
#    0.000    0.000    5.500    0.000    0.000    0.000 
#    0.000    0.000    0.000    0.000    0.000    0.000 
#
# Total GULP energy -178575.131226 kJ/mol
# GULP energy per Si atom -5580.472851 kJ/mol
# Density = 2.353746 g / cm^3
# Si number density = 23.591158 Si / 1000 Ang^3
#
#
#
# Elastic Constant Matrix: (Units=GPa)
#
#
# Indices 1 2 3 4 5 6 
#
# 1 62.3520 57.3410 13.5583 0.0000 0.0000 0.0000
# 2 57.3410 117.5976 46.4096 0.0000 0.0000 0.0000
# 3 13.5583 46.4096 64.1586 0.0000 0.0000 0.0000
# 4 0.0000 0.0000 0.0000 46.1393 0.0000 0.0000
# 5 0.0000 0.0000 0.0000 0.0000 27.0332 0.0000
# 6 0.0000 0.0000 0.0000 0.0000 0.0000 15.4892
#
#
#
# Elastic Compliance Matrix: (Units=1/GPa)
#
#
# Indices 1 2 3 4 5 6 
#
# 1 0.030677 -0.017354 0.006070 0.000000 0.000000 0.000000
# 2 -0.017354 0.021718 -0.012043 0.000000 0.000000 0.000000
# 3 0.006070 -0.012043 0.023015 0.000000 0.000000 0.000000
# 4 0.000000 0.000000 0.000000 0.021673 0.000000 0.000000
# 5 0.000000 0.000000 0.000000 0.000000 0.036992 0.000000
# 6 0.000000 0.000000 0.000000 0.000000 0.000000 0.064561
#
#
# Mechanical properties :
#
#
# Convention : Reuss Voigt Hill
#
# Bulk Modulus (GPa) = 34.77363 53.19177 43.98270
# Shear Modulus (GPa) = 19.61750 26.18563 22.90156
#
# Velocity S-wave (km/s) = 2.88681 3.33525 3.11910
# Velocity P-wave (km/s) = 5.08760 6.11785 5.62636
#
# Compressibility (1/GPa) = 0.02875742
#
# Stress axis : x y z
#
# Youngs Moduli (GPa) = 32.59737 46.04480 43.45059
#
# Poissons Ratio (x) = 0.79906 -0.26376
# Poissons Ratio (y) = 0.56569 0.52326
# Poissons Ratio (z) = -0.19787 0.55450
#
# Static dielectric constant tensor:
#      x y z
#    x 1.924380 0.000000 0.000000 
#    y 0.000000 1.905980 0.000000 
#    z 0.000000 0.000000 2.011790 
# 
# From -- ./inp_files/2011.got.cif
#   From: 2010.05.17/outbox.cif.g08.bks.cpg/sg19_2_cif.got.tgz:2011.got - 2010.06.03 22:46:19.
