data_PCOD9314711
_publ_section_title
;
Structure prediction by ZEFSAII (Michael W. Deem and Ramdas Pophale) SiO2 
 PCOD9314711
Probable space group: P 21 21 21
;
_chemical_formula_sum "Si O2"
_cell_formula_units_Z 28
_cell_length_a 10.037242
_cell_length_b 12.836054
_cell_length_c 7.595808
_cell_angle_alpha 90.000000
_cell_angle_beta 90.000000
_cell_angle_gamma 90.000000
_cell_volume 978.633119
_symmetry_space_group_name_H-M "P 21 21 21"
_symmetry_group_IT_number 19
_symmetry_cell_setting 'orthorhombic'
loop_
_space_group_symop_operation_xyz
x,y,z
1/2-x,-y,1/2+z
1/2+x,1/2-y,-z
-x,1/2+y,1/2-z
loop_
_atom_site_type_symbol
_atom_site_label
_atom_site_fract_x
_atom_site_fract_y
_atom_site_fract_z
Si Si1 0.027069 0.642265 0.322975
Si Si2 0.672336 0.434914 0.125756
Si Si3 0.238529 0.480027 0.975071
Si Si4 0.784405 0.169601 0.730938
Si Si5 0.928481 0.332552 0.995132
Si Si6 0.614229 0.321972 0.491738
Si Si7 0.519032 0.114310 0.349533
O O1 0.172709 0.593249 0.343983
O O2 0.035134 0.767477 0.332386
O O3 0.930539 0.615920 0.486637
O O4 0.954518 0.611472 0.144850
O O5 0.661724 0.381538 0.317194
O O6 0.619307 0.552337 0.132779
O O7 0.816913 0.414325 0.048370
O O8 0.196665 0.405368 0.138019
O O9 0.364936 0.549284 0.056568
O O10 0.154473 0.573820 0.884203
O O11 0.859611 0.242272 0.872843
O O12 0.719566 0.250153 0.596432
O O13 0.038768 0.377452 0.862030
O O14 0.516529 0.230692 0.421587
#
# Coordination Sequence:
#
# PCOD9314711 Si02
#       7
#     4   4   4   4   4   4   4
#     4  10  22  45  66 101 138 181 227 288 338 409
#     4  11  24  47  67 101 142 179 235 285 342 419
#     4   9  22  42  63 105 138 178 241 280 346 408
#     4  10  22  40  70 100 136 183 230 287 341 410
#     4  11  23  43  70  97 142 178 228 286 349 404
#     4  11  23  45  72  98 141 186 230 283 352 402
#     4  10  24  44  68 100 139 181 229 283 346 416
#
# _framework density 28.611332999999998
#
# number of rings (size 3 to 8) (size 9 to 14) (size 15 to 20)
#    0.000    1.714    2.857    0.000    0.000   10.286 
#   10.286    0.000    0.000    0.000    0.000    0.000 
#    0.000    0.000    0.000    0.000    0.000    0.000 
#
# Total GULP energy -156781.166635 kJ/mol
# GULP energy per Si atom -5599.327380 kJ/mol
# Density = 2.854621 g / cm^3
# Si number density = 28.611333 Si / 1000 Ang^3
#
#
#
# Elastic Constant Matrix: (Units=GPa)
#
#
# Indices 1 2 3 4 5 6 
#
# 1 40.3271 24.4477 21.5493 0.0000 0.0000 0.0000
# 2 24.4477 144.9333 27.3020 0.0000 0.0000 0.0000
# 3 21.5493 27.3020 160.8576 0.0000 0.0000 0.0000
# 4 0.0000 0.0000 0.0000 54.6239 0.0000 0.0000
# 5 0.0000 0.0000 0.0000 0.0000 63.5863 0.0000
# 6 0.0000 0.0000 0.0000 0.0000 0.0000 50.8676
#
#
#
# Elastic Compliance Matrix: (Units=1/GPa)
#
#
# Indices 1 2 3 4 5 6 
#
# 1 0.029104 -0.004313 -0.003167 0.000000 0.000000 0.000000
# 2 -0.004313 0.007767 -0.000740 0.000000 0.000000 0.000000
# 3 -0.003167 -0.000740 0.006767 0.000000 0.000000 0.000000
# 4 0.000000 0.000000 0.000000 0.018307 0.000000 0.000000
# 5 0.000000 0.000000 0.000000 0.000000 0.015727 0.000000
# 6 0.000000 0.000000 0.000000 0.000000 0.000000 0.019659
#
#
# Mechanical properties :
#
#
# Convention : Reuss Voigt Hill
#
# Bulk Modulus (GPa) = 36.76870 54.74623 45.75746
# Shear Modulus (GPa) = 40.70470 52.00351 46.35411
#
# Velocity S-wave (km/s) = 3.77593 4.26794 4.02945
# Velocity P-wave (km/s) = 5.64705 6.59265 6.13809
#
# Compressibility (1/GPa) = 0.02719705
#
# Stress axis : x y z
#
# Youngs Moduli (GPa) = 34.35944 128.75482 147.78440
#
# Poissons Ratio (x) = 0.55529 0.46802
# Poissons Ratio (y) = 0.14818 0.10943
# Poissons Ratio (z) = 0.10881 0.09534
#
# Static dielectric constant tensor:
#      x y z
#    x 2.339070 0.000000 0.000000 
#    y 0.000000 2.232060 0.000000 
#    z 0.000000 0.000000 2.244350 
# 
# From -- ./inp_files/1487.got.cif
#   From: 2010.05.17/outbox.cif.g08.bks.cpg/sg19_1_cif.got.tgz:1487.got - 2010.06.03 22:46:19.
