data_PCOD9314595
_publ_section_title
;
Structure prediction by ZEFSAII (Michael W. Deem and Ramdas Pophale) SiO2 
 PCOD9314595
Probable space group: P 21 21 21
;
_chemical_formula_sum "Si O2"
_cell_formula_units_Z 28
_cell_length_a 5.003446
_cell_length_b 11.403802
_cell_length_c 19.054975
_cell_angle_alpha 90.000000
_cell_angle_beta 90.000000
_cell_angle_gamma 90.000000
_cell_volume 1087.244623
_symmetry_space_group_name_H-M "P 21 21 21"
_symmetry_group_IT_number 19
_symmetry_cell_setting 'orthorhombic'
loop_
_space_group_symop_operation_xyz
x,y,z
1/2-x,-y,1/2+z
1/2+x,1/2-y,-z
-x,1/2+y,1/2-z
loop_
_atom_site_type_symbol
_atom_site_label
_atom_site_fract_x
_atom_site_fract_y
_atom_site_fract_z
Si Si1 0.590091 0.757595 0.212664
Si Si2 0.994270 0.129476 0.088062
Si Si3 0.961387 0.486351 0.678105
Si Si4 0.510438 0.770798 0.377683
Si Si5 0.240547 0.212696 0.586233
Si Si6 0.235112 0.406978 0.481380
Si Si7 0.038164 0.477052 0.270539
O O1 0.672074 0.640804 0.170208
O O2 0.551869 0.735238 0.295437
O O3 0.336711 0.795660 0.166698
O O4 0.806202 0.859097 0.210392
O O5 0.012132 0.054293 0.160416
O O6 0.869838 0.037861 0.032318
O O7 0.780412 0.231204 0.099798
O O8 0.275189 0.195357 0.078275
O O9 0.730673 0.543292 0.726980
O O10 0.028678 0.588016 0.622787
O O11 0.235767 0.462984 0.720643
O O12 0.211780 0.345868 0.557339
O O13 0.030175 0.124068 0.547450
O O14 0.530012 0.171307 0.563782
#
# Coordination Sequence:
#
# PCOD9314595 Si02
#       7
#     4   4   4   4   4   4   4
#     4  11  22  38  60  82 123 153 189 246 300 346
#     4  12  20  39  57  82 118 154 191 237 289 359
#     4  11  24  38  52  85 123 149 197 236 287 361
#     4  11  24  35  56  86 116 156 193 231 294 364
#     4  10  22  37  58  91 115 151 195 247 299 348
#     4  10  22  38  59  86 119 149 198 243 296 356
#     4  11  22  35  56  86 114 156 189 232 301 348
#
# _framework density 25.753177999999998
#
# number of rings (size 3 to 8) (size 9 to 14) (size 15 to 20)
#    0.000    1.143    4.286    2.571    4.000    2.286 
#    0.000    0.000    0.000    1.714    0.000    0.000 
#    0.000    0.000    0.000    0.000    0.000    0.000 
#
# Total GULP energy -156653.205094 kJ/mol
# GULP energy per Si atom -5594.757325 kJ/mol
# Density = 2.569456 g / cm^3
# Si number density = 25.753178 Si / 1000 Ang^3
#
#
#
# Elastic Constant Matrix: (Units=GPa)
#
#
# Indices 1 2 3 4 5 6 
#
# 1 76.8578 -21.0782 8.4976 0.0000 0.0000 0.0000
# 2 -21.0782 108.8215 -3.7547 0.0000 0.0000 0.0000
# 3 8.4976 -3.7547 71.5333 0.0000 0.0000 0.0000
# 4 0.0000 0.0000 0.0000 29.9417 0.0000 0.0000
# 5 0.0000 0.0000 0.0000 0.0000 13.6400 0.0000
# 6 0.0000 0.0000 0.0000 0.0000 0.0000 5.3188
#
#
#
# Elastic Compliance Matrix: (Units=1/GPa)
#
#
# Indices 1 2 3 4 5 6 
#
# 1 0.013903 0.002641 -0.001513 0.000000 0.000000 0.000000
# 2 0.002641 0.009708 0.000196 0.000000 0.000000 0.000000
# 3 -0.001513 0.000196 0.014170 0.000000 0.000000 0.000000
# 4 0.000000 0.000000 0.000000 0.033398 0.000000 0.000000
# 5 0.000000 0.000000 0.000000 0.000000 0.073314 0.000000
# 6 0.000000 0.000000 0.000000 0.000000 0.000000 0.188012
#
#
# Mechanical properties :
#
#
# Convention : Reuss Voigt Hill
#
# Bulk Modulus (GPa) = 24.73607 24.94911 24.84259
# Shear Modulus (GPa) = 14.56316 28.01661 21.28989
#
# Velocity S-wave (km/s) = 2.38058 3.30190 2.87834
# Velocity P-wave (km/s) = 4.14513 4.92397 4.55124
#
# Compressibility (1/GPa) = 0.04042680
#
# Stress axis : x y z
#
# Youngs Moduli (GPa) = 71.92947 103.01207 70.57406
#
# Poissons Ratio (x) = -0.27202 0.10677
# Poissons Ratio (y) = -0.18994 -0.01382
# Poissons Ratio (z) = 0.10882 -0.02017
#
# Static dielectric constant tensor:
#      x y z
#    x 1.967640 0.000000 0.000000 
#    y 0.000000 2.144650 0.000000 
#    z 0.000000 0.000000 2.063680 
# 
# From -- ./inp_files/6883.got.cif
#   From: 2010.05.17/outbox.cif.g08.bks.cpg/sg19_4_cif.got.tgz:6883.got - 2010.06.03 22:46:19.
