data_PCOD9314021
_publ_section_title
;
Structure prediction by ZEFSAII (Michael W. Deem and Ramdas Pophale) SiO2 
 PCOD9314021
Probable space group: P 21 21 21
;
_chemical_formula_sum "Si O2"
_cell_formula_units_Z 32
_cell_length_a 16.562642
_cell_length_b 14.381132
_cell_length_c 5.064197
_cell_angle_alpha 90.000000
_cell_angle_beta 90.000000
_cell_angle_gamma 90.000000
_cell_volume 1206.238758
_symmetry_space_group_name_H-M "P 21 21 21"
_symmetry_group_IT_number 19
_symmetry_cell_setting 'orthorhombic'
loop_
_space_group_symop_operation_xyz
x,y,z
1/2-x,-y,1/2+z
1/2+x,1/2-y,-z
-x,1/2+y,1/2-z
loop_
_atom_site_type_symbol
_atom_site_label
_atom_site_fract_x
_atom_site_fract_y
_atom_site_fract_z
Si Si1 0.757477 0.051070 0.499150
Si Si2 0.583240 0.743413 0.795816
Si Si3 0.352516 0.085277 0.295399
Si Si4 0.053512 0.070222 0.060014
Si Si5 0.234639 0.275393 0.851902
Si Si6 0.570135 0.916464 0.147389
Si Si7 0.684452 0.326218 0.652055
Si Si8 0.993436 0.414160 0.084265
O O1 0.719230 0.130387 0.314103
O O2 0.833864 0.085284 0.673870
O O3 0.792458 0.989357 0.249276
O O4 0.609683 0.670865 0.030745
O O5 0.668037 0.760397 0.641569
O O6 0.560930 0.843677 0.909335
O O7 0.505795 0.692793 0.663283
O O8 0.375031 0.985215 0.410403
O O9 0.258612 0.104949 0.281339
O O10 0.401075 0.083917 0.022337
O O11 0.100574 0.127105 0.279663
O O12 0.991519 0.120197 0.865988
O O13 0.002953 0.983501 0.172777
O O14 0.199514 0.259387 0.142476
O O15 0.195510 0.201249 0.651281
O O16 0.547086 0.025796 0.114231
#
# Coordination Sequence:
#
# PCOD9314021 Si02
#       8
#     4   4   4   4   4   4   4   4
#     4  11  25  48  76  99 127 182 238 301 353 402
#     4   9  19  40  63  89 128 178 223 274 341 410
#     4   9  20  35  60  90 127 174 225 266 325 406
#     4  10  24  37  61  96 137 176 221 277 350 412
#     4  10  22  41  65  99 131 175 230 283 338 414
#     4  10  24  43  67  96 136 177 230 284 353 424
#     4  11  22  38  65  96 139 174 222 278 332 415
#     4  10  20  40  61  97 127 174 223 273 336 419
#
# _framework density 26.528745000000001
#
# number of rings (size 3 to 8) (size 9 to 14) (size 15 to 20)
#    0.000    2.000    1.250    0.750    7.000    1.000 
#    2.250    5.000    0.000    0.000    0.000    0.000 
#    0.000    0.000    0.000    0.000    0.000    0.000 
#
# Total GULP energy -178645.258787 kJ/mol
# GULP energy per Si atom -5582.664337 kJ/mol
# Density = 2.646836 g / cm^3
# Si number density = 26.528745 Si / 1000 Ang^3
#
#
#
# Elastic Constant Matrix: (Units=GPa)
#
#
# Indices 1 2 3 4 5 6 
#
# 1 82.9340 23.4349 8.0663 0.0000 0.0000 0.0000
# 2 23.4349 97.1141 20.6243 0.0000 0.0000 0.0000
# 3 8.0663 20.6243 91.6859 0.0000 0.0000 0.0000
# 4 0.0000 0.0000 0.0000 45.2552 0.0000 0.0000
# 5 0.0000 0.0000 0.0000 0.0000 26.2011 0.0000
# 6 0.0000 0.0000 0.0000 0.0000 0.0000 26.6126
#
#
#
# Elastic Compliance Matrix: (Units=1/GPa)
#
#
# Indices 1 2 3 4 5 6 
#
# 1 0.012958 -0.003030 -0.000459 0.000000 0.000000 0.000000
# 2 -0.003030 0.011522 -0.002325 0.000000 0.000000 0.000000
# 3 -0.000459 -0.002325 0.011470 0.000000 0.000000 0.000000
# 4 0.000000 0.000000 0.000000 0.022097 0.000000 0.000000
# 5 0.000000 0.000000 0.000000 0.000000 0.038166 0.000000
# 6 0.000000 0.000000 0.000000 0.000000 0.000000 0.037576
#
#
# Mechanical properties :
#
#
# Convention : Reuss Voigt Hill
#
# Bulk Modulus (GPa) = 41.11206 41.77611 41.44408
# Shear Modulus (GPa) = 32.56797 34.25436 33.41116
#
# Velocity S-wave (km/s) = 3.50758 3.59725 3.55270
# Velocity P-wave (km/s) = 5.65111 5.74763 5.69957
#
# Compressibility (1/GPa) = 0.02432376
#
# Stress axis : x y z
#
# Youngs Moduli (GPa) = 77.16951 86.78981 87.18240
#
# Poissons Ratio (x) = 0.26294 0.03998
# Poissons Ratio (y) = 0.23380 0.20272
# Poissons Ratio (z) = 0.03539 0.20181
#
# Static dielectric constant tensor:
#      x y z
#    x 2.055960 0.000000 0.000000 
#    y 0.000000 2.216480 0.000000 
#    z 0.000000 0.000000 2.139560 
# 
# From -- ./inp_files/1800.got.cif
#   From: 2010.05.17/outbox.cif.g08.bks.cpg/sg19_1_cif.got.tgz:1800.got - 2010.06.03 22:46:19.
