data_PCOD9314263
_publ_section_title
;
Structure prediction by ZEFSAII (Michael W. Deem and Ramdas Pophale) SiO2 
 PCOD9314263
Probable space group: P 21 21 21
;
_chemical_formula_sum "Si O2"
_cell_formula_units_Z 32
_cell_length_a 17.552864
_cell_length_b 5.856605
_cell_length_c 12.871994
_cell_angle_alpha 90.000000
_cell_angle_beta 90.000000
_cell_angle_gamma 90.000000
_cell_volume 1323.243443
_symmetry_space_group_name_H-M "P 21 21 21"
_symmetry_group_IT_number 19
_symmetry_cell_setting 'orthorhombic'
loop_
_space_group_symop_operation_xyz
x,y,z
1/2-x,-y,1/2+z
1/2+x,1/2-y,-z
-x,1/2+y,1/2-z
loop_
_atom_site_type_symbol
_atom_site_label
_atom_site_fract_x
_atom_site_fract_y
_atom_site_fract_z
Si Si1 0.539716 0.032365 0.008707
Si Si2 0.789136 0.106921 0.499386
Si Si3 0.463895 0.700069 0.720813
Si Si4 0.729028 0.292997 0.121834
Si Si5 0.301214 0.814893 0.808687
Si Si6 0.936897 0.773827 0.885033
Si Si7 0.076054 0.077700 0.831171
Si Si8 0.294529 0.492719 0.181844
O O1 0.619785 0.893767 0.008874
O O2 0.544080 0.198966 0.108611
O O3 0.464410 0.873187 0.016701
O O4 0.540196 0.179824 0.904198
O O5 0.764869 0.838662 0.515212
O O6 0.731718 0.223463 0.581055
O O7 0.764469 0.149540 0.382161
O O8 0.498780 0.450229 0.753750
O O9 0.380753 0.713253 0.773790
O O10 0.801575 0.415908 0.168443
O O11 0.657926 0.464432 0.117249
O O12 0.698373 0.107905 0.204451
O O13 0.241684 0.746769 0.717071
O O14 0.912590 0.609211 0.791291
O O15 0.873080 0.971826 0.881118
O O16 0.015955 0.881984 0.848408
#
# Coordination Sequence:
#
# PCOD9314263 Si02
#       8
#     4   4   4   4   4   4   4   4
#     4  11  24  46  71 103 149 205 248 310 399 458
#     4  10  22  43  68 101 137 189 248 309 378 448
#     4  12  32  54  79 108 155 215 266 319 378 464
#     4   9  22  40  67  99 134 185 231 303 382 442
#     4  11  24  46  71 102 150 186 255 320 371 460
#     4  11  22  37  68 105 147 183 238 311 387 462
#     4  10  21  38  65 106 143 183 234 309 384 469
#     4  10  23  40  65 102 141 184 242 305 375 443
#
# _framework density 24.183004
#
# number of rings (size 3 to 8) (size 9 to 14) (size 15 to 20)
#    0.000    1.500    2.500    1.500    8.750    1.000 
#    0.000    0.000    0.000    0.000    0.000    0.000 
#    0.000    0.000    0.000    0.000    0.000    0.000 
#
# Total GULP energy -178335.496822 kJ/mol
# GULP energy per Si atom -5572.984276 kJ/mol
# Density = 2.412796 g / cm^3
# Si number density = 24.183004 Si / 1000 Ang^3
#
#
#
# Elastic Constant Matrix: (Units=GPa)
#
#
# Indices 1 2 3 4 5 6 
#
# 1 75.2879 39.8740 17.1427 0.0000 0.0000 0.0000
# 2 39.8740 59.6226 3.9365 0.0000 0.0000 0.0000
# 3 17.1427 3.9365 66.0088 0.0000 0.0000 0.0000
# 4 0.0000 0.0000 0.0000 22.6106 0.0000 0.0000
# 5 0.0000 0.0000 0.0000 0.0000 27.1028 0.0000
# 6 0.0000 0.0000 0.0000 0.0000 0.0000 32.4401
#
#
#
# Elastic Compliance Matrix: (Units=1/GPa)
#
#
# Indices 1 2 3 4 5 6 
#
# 1 0.022017 -0.014404 -0.004859 0.000000 0.000000 0.000000
# 2 -0.014404 0.026261 0.002175 0.000000 0.000000 0.000000
# 3 -0.004859 0.002175 0.016282 0.000000 0.000000 0.000000
# 4 0.000000 0.000000 0.000000 0.044227 0.000000 0.000000
# 5 0.000000 0.000000 0.000000 0.000000 0.036897 0.000000
# 6 0.000000 0.000000 0.000000 0.000000 0.000000 0.030826
#
#
# Mechanical properties :
#
#
# Convention : Reuss Voigt Hill
#
# Bulk Modulus (GPa) = 32.91193 35.86951 34.39072
# Shear Modulus (GPa) = 22.64348 25.76178 24.20263
#
# Velocity S-wave (km/s) = 3.06328 3.26741 3.16699
# Velocity P-wave (km/s) = 5.11377 5.39438 5.25595
#
# Compressibility (1/GPa) = 0.03038412
#
# Stress axis : x y z
#
# Youngs Moduli (GPa) = 45.41908 38.07869 61.41863
#
# Poissons Ratio (x) = 0.54847 0.29843
# Poissons Ratio (y) = 0.65420 -0.13356
# Poissons Ratio (z) = 0.22069 -0.08280
#
# Static dielectric constant tensor:
#      x y z
#    x 1.952660 0.000000 0.000000 
#    y 0.000000 2.105880 0.000000 
#    z 0.000000 0.000000 1.910020 
# 
# From -- ./inp_files/6318.got.cif
#   From: 2010.05.17/outbox.cif.g08.bks.cpg/sg19_4_cif.got.tgz:6318.got - 2010.06.03 22:46:19.
