data_PCOD9314820
_publ_section_title
;
Structure prediction by ZEFSAII (Michael W. Deem and Ramdas Pophale) SiO2 
 PCOD9314820
Probable space group: P 21 21 21
;
_chemical_formula_sum "Si O2"
_cell_formula_units_Z 28
_cell_length_a 13.202900
_cell_length_b 11.805644
_cell_length_c 8.564550
_cell_angle_alpha 90.000000
_cell_angle_beta 90.000000
_cell_angle_gamma 90.000000
_cell_volume 1334.945593
_symmetry_space_group_name_H-M "P 21 21 21"
_symmetry_group_IT_number 19
_symmetry_cell_setting 'orthorhombic'
loop_
_space_group_symop_operation_xyz
x,y,z
1/2-x,-y,1/2+z
1/2+x,1/2-y,-z
-x,1/2+y,1/2-z
loop_
_atom_site_type_symbol
_atom_site_label
_atom_site_fract_x
_atom_site_fract_y
_atom_site_fract_z
Si Si1 0.899713 0.009468 0.942561
Si Si2 0.502336 0.688882 0.863828
Si Si3 0.680114 0.731278 0.066523
Si Si4 0.284728 0.484155 0.380778
Si Si5 0.622044 0.381634 0.500659
Si Si6 0.975701 0.917020 0.472942
Si Si7 0.490565 0.783307 0.289404
O O1 0.975238 0.107474 0.888425
O O2 0.830773 0.987965 0.788321
O O3 0.818076 0.046660 0.072960
O O4 0.960148 0.902056 0.008917
O O5 0.486714 0.632555 0.697995
O O6 0.617332 0.719081 0.907047
O O7 0.442459 0.806225 0.878361
O O8 0.590596 0.740366 0.195047
O O9 0.737554 0.850097 0.096813
O O10 0.763236 0.632761 0.057271
O O11 0.375590 0.508157 0.501721
O O12 0.573283 0.505335 0.492034
O O13 0.594586 0.321965 0.334673
O O14 0.961635 0.816124 0.595366
#
# Coordination Sequence:
#
# PCOD9314820 Si02
#       7
#     4   4   4   4   4   4   4
#     4  11  22  42  69  98 132 173 219 289 325 394
#     4  11  24  42  64  96 137 168 219 282 329 390
#     4  10  22  42  67  93 130 179 216 271 336 391
#     4  11  21  38  69  98 121 176 229 268 331 386
#     4  11  23  45  68  93 138 174 220 278 333 391
#     4  12  25  42  67  99 135 176 221 271 339 397
#     4  10  25  45  66  97 137 172 228 273 335 391
#
# _framework density 20.974639
#
# number of rings (size 3 to 8) (size 9 to 14) (size 15 to 20)
#    0.000    1.143    5.714    2.571    4.000    2.286 
#    0.000    0.000    0.000    0.000    0.000    0.000 
#    0.000    0.000    0.000    0.000    0.000    0.000 
#
# Total GULP energy -156330.600365 kJ/mol
# GULP energy per Si atom -5583.235727 kJ/mol
# Density = 2.092690 g / cm^3
# Si number density = 20.974639 Si / 1000 Ang^3
#
#
#
# Elastic Constant Matrix: (Units=GPa)
#
#
# Indices 1 2 3 4 5 6 
#
# 1 31.7774 -18.4360 -11.0192 0.0000 0.0000 0.0000
# 2 -18.4360 41.3411 41.3129 0.0000 0.0000 0.0000
# 3 -11.0192 41.3129 83.7903 0.0000 0.0000 0.0000
# 4 0.0000 0.0000 0.0000 32.7527 0.0000 0.0000
# 5 0.0000 0.0000 0.0000 0.0000 21.1507 0.0000
# 6 0.0000 0.0000 0.0000 0.0000 0.0000 20.3908
#
#
#
# Elastic Compliance Matrix: (Units=1/GPa)
#
#
# Indices 1 2 3 4 5 6 
#
# 1 0.044911 0.027846 -0.007823 0.000000 0.000000 0.000000
# 2 0.027846 0.064949 -0.028361 0.000000 0.000000 0.000000
# 3 -0.007823 -0.028361 0.024889 0.000000 0.000000 0.000000
# 4 0.000000 0.000000 0.000000 0.030532 0.000000 0.000000
# 5 0.000000 0.000000 0.000000 0.000000 0.047280 0.000000
# 6 0.000000 0.000000 0.000000 0.000000 0.000000 0.049042
#
#
# Mechanical properties :
#
#
# Convention : Reuss Voigt Hill
#
# Bulk Modulus (GPa) = 8.46937 20.06937 14.26937
# Shear Modulus (GPa) = 15.74126 24.52891 20.13508
#
# Velocity S-wave (km/s) = 2.74248 3.42344 3.10170
# Velocity P-wave (km/s) = 3.75166 5.02153 4.43231
#
# Compressibility (1/GPa) = 0.11807258
#
# Stress axis : x y z
#
# Youngs Moduli (GPa) = 22.26614 15.39677 40.17810
#
# Poissons Ratio (x) = -0.42874 0.31433
# Poissons Ratio (y) = -0.62002 1.13949
# Poissons Ratio (z) = 0.17420 0.43667
#
# Static dielectric constant tensor:
#      x y z
#    x 1.776840 0.000000 0.000000 
#    y 0.000000 1.759140 0.000000 
#    z 0.000000 0.000000 1.775560 
# 
# From -- ./inp_files/3906.got.cif
#   From: 2010.05.17/outbox.cif.g08.bks.cpg/sg19_2_cif.got.tgz:3906.got - 2010.06.03 22:46:19.
