data_PCOD9314238
_publ_section_title
;
Structure prediction by ZEFSAII (Michael W. Deem and Ramdas Pophale) SiO2 
 PCOD9314238
Probable space group: P 21 21 21
;
_chemical_formula_sum "Si O2"
_cell_formula_units_Z 32
_cell_length_a 11.892154
_cell_length_b 8.343309
_cell_length_c 15.646716
_cell_angle_alpha 90.000000
_cell_angle_beta 90.000000
_cell_angle_gamma 90.000000
_cell_volume 1552.465839
_symmetry_space_group_name_H-M "P 21 21 21"
_symmetry_group_IT_number 19
_symmetry_cell_setting 'orthorhombic'
loop_
_space_group_symop_operation_xyz
x,y,z
1/2-x,-y,1/2+z
1/2+x,1/2-y,-z
-x,1/2+y,1/2-z
loop_
_atom_site_type_symbol
_atom_site_label
_atom_site_fract_x
_atom_site_fract_y
_atom_site_fract_z
Si Si1 0.999613 0.556262 0.668452
Si Si2 0.307048 0.245718 0.903382
Si Si3 0.715436 0.607375 0.903797
Si Si4 0.499613 0.943733 0.668453
Si Si5 0.215435 0.892623 0.903798
Si Si6 0.192952 0.754281 0.596619
Si Si7 0.838707 0.789868 0.241445
Si Si8 0.661293 0.210135 0.258554
O O1 0.911054 0.455093 0.612604
O O2 0.925351 0.646088 0.738990
O O3 0.068694 0.688995 0.615611
O O4 0.089453 0.438818 0.710409
O O5 0.431306 0.311001 0.884390
O O6 0.226125 0.316424 0.830373
O O7 0.291681 0.053760 0.895879
O O8 0.273933 0.289437 0.000001
O O9 0.588948 0.544903 0.887394
O O10 0.791683 0.446239 0.895878
O O11 0.752802 0.730415 0.831080
O O12 0.727478 0.670679 0.999999
O O13 0.425353 0.853908 0.738992
O O14 0.589454 0.061177 0.710408
O O15 0.252803 0.769584 0.831081
O O16 0.273876 0.683575 0.669628
#
# Coordination Sequence:
#
# PCOD9314238 Si02
#       8
#     4   4   4   4   4   4   4   4
#     4  11  21  38  61  85 116 156 192 238 291 344
#     4  10  21  38  60  84 113 152 196 240 289 345
#     4  10  22  39  58  84 118 153 193 240 288 343
#     4  11  21  38  61  85 116 156 192 238 291 344
#     4  10  22  39  58  84 118 153 193 240 288 343
#     4  10  21  38  60  84 113 152 196 240 289 345
#     4  11  22  39  59  87 119 153 193 240 288 344
#     4  11  22  39  59  87 119 153 193 240 288 344
#
# _framework density 20.612369999999999
#
# number of rings (size 3 to 8) (size 9 to 14) (size 15 to 20)
#    0.000    1.500    0.000    7.500    0.000    3.000 
#    0.000    1.250    0.000    0.000    0.000    0.000 
#    0.000    0.000    0.000    0.000    0.000    0.000 
#
# Total GULP energy -178846.645858 kJ/mol
# GULP energy per Si atom -5588.957683 kJ/mol
# Density = 2.056546 g / cm^3
# Si number density = 20.612370 Si / 1000 Ang^3
#
#
#
# Elastic Constant Matrix: (Units=GPa)
#
#
# Indices 1 2 3 4 5 6 
#
# 1 94.1268 31.1233 51.1469 0.0000 0.0000 0.0000
# 2 31.1233 24.0659 36.0547 0.0000 0.0000 0.0000
# 3 51.1469 36.0547 153.9017 0.0000 0.0000 0.0000
# 4 0.0000 0.0000 0.0000 10.2417 0.0000 0.0000
# 5 0.0000 0.0000 0.0000 0.0000 14.5225 0.0000
# 6 0.0000 0.0000 0.0000 0.0000 0.0000 43.7673
#
#
#
# Elastic Compliance Matrix: (Units=1/GPa)
#
#
# Indices 1 2 3 4 5 6 
#
# 1 0.018632 -0.022833 -0.000843 0.000000 0.000000 0.000000
# 2 -0.022833 0.092004 -0.013966 0.000000 0.000000 0.000000
# 3 -0.000843 -0.013966 0.010050 0.000000 0.000000 0.000000
# 4 0.000000 0.000000 0.000000 0.097640 0.000000 0.000000
# 5 0.000000 0.000000 0.000000 0.000000 0.068859 0.000000
# 6 0.000000 0.000000 0.000000 0.000000 0.000000 0.022848
#
#
# Mechanical properties :
#
#
# Convention : Reuss Voigt Hill
#
# Bulk Modulus (GPa) = 22.02517 56.52712 39.27614
# Shear Modulus (GPa) = 12.48598 23.95761 18.22179
#
# Velocity S-wave (km/s) = 2.46387 3.41294 2.97648
# Velocity P-wave (km/s) = 4.33622 6.55853 5.55955
#
# Compressibility (1/GPa) = 0.04540261
#
# Stress axis : x y z
#
# Youngs Moduli (GPa) = 53.67199 10.86907 99.50675
#
# Poissons Ratio (x) = 0.24817 0.08388
# Poissons Ratio (y) = 1.22548 1.38969
# Poissons Ratio (z) = 0.04524 0.15180
#
# Static dielectric constant tensor:
#      x y z
#    x 1.734270 0.000000 0.000000 
#    y 0.000000 1.747530 0.000000 
#    z 0.000000 0.000000 1.724650 
# 
# From -- ./inp_files/6097.got.cif
#   From: 2010.05.17/outbox.cif.g08.bks.cpg/sg19_4_cif.got.tgz:6097.got - 2010.06.03 22:46:19.
