data_PCOD9314493
_publ_section_title
;
Structure prediction by ZEFSAII (Michael W. Deem and Ramdas Pophale) SiO2 
 PCOD9314493
Probable space group: P 21 21 21
;
_chemical_formula_sum "Si O2"
_cell_formula_units_Z 32
_cell_length_a 13.023708
_cell_length_b 11.794798
_cell_length_c 8.877512
_cell_angle_alpha 90.000000
_cell_angle_beta 90.000000
_cell_angle_gamma 90.000000
_cell_volume 1363.692418
_symmetry_space_group_name_H-M "P 21 21 21"
_symmetry_group_IT_number 19
_symmetry_cell_setting 'orthorhombic'
loop_
_space_group_symop_operation_xyz
x,y,z
1/2-x,-y,1/2+z
1/2+x,1/2-y,-z
-x,1/2+y,1/2-z
loop_
_atom_site_type_symbol
_atom_site_label
_atom_site_fract_x
_atom_site_fract_y
_atom_site_fract_z
Si Si1 0.871935 0.530807 0.222359
Si Si2 0.260958 0.775480 0.926227
Si Si3 0.398701 0.808850 0.180482
Si Si4 0.690829 0.847274 0.456544
Si Si5 0.762049 0.020522 0.657725
Si Si6 0.200925 0.108669 0.964356
Si Si7 0.484549 0.494433 0.478773
Si Si8 0.933645 0.320604 0.773438
O O1 0.844185 0.535634 0.397626
O O2 0.847020 0.659578 0.170608
O O3 0.791160 0.456613 0.125009
O O4 0.982660 0.496221 0.153746
O O5 0.290451 0.804894 0.096406
O O6 0.269185 0.641355 0.911985
O O7 0.154327 0.817764 0.853087
O O8 0.383230 0.870066 0.337635
O O9 0.483127 0.871211 0.079184
O O10 0.452517 0.689258 0.207417
O O11 0.724165 0.941043 0.331149
O O12 0.761590 0.734373 0.480991
O O13 0.592438 0.787313 0.380429
O O14 0.687551 0.917224 0.611938
O O15 0.869550 0.986300 0.576183
O O16 0.562349 0.573236 0.383054
#
# Coordination Sequence:
#
# PCOD9314493 Si02
#       8
#     4   4   4   4   4   4   4   4
#     4  11  21  42  71  98 139 180 234 305 357 412
#     4  10  21  42  69 103 136 190 238 293 358 435
#     4  11  24  38  75 105 136 194 239 292 372 425
#     4  11  24  45  68  99 142 186 239 293 357 433
#     4  11  24  45  70  99 146 195 234 297 363 435
#     4  12  23  43  69 105 139 185 241 299 363 424
#     4  11  22  42  70 101 139 186 244 300 353 437
#     4  11  21  45  70 102 147 184 245 301 359 435
#
# _framework density 23.465700999999999
#
# number of rings (size 3 to 8) (size 9 to 14) (size 15 to 20)
#    0.000    1.000    6.250    3.000    3.500    0.000 
#    2.250    0.000   11.000    0.000    0.000    0.000 
#    0.000    0.000    0.000    0.000    0.000    0.000 
#
# Total GULP energy -178443.833389 kJ/mol
# GULP energy per Si atom -5576.369793 kJ/mol
# Density = 2.341229 g / cm^3
# Si number density = 23.465701 Si / 1000 Ang^3
#
#
#
# Elastic Constant Matrix: (Units=GPa)
#
#
# Indices 1 2 3 4 5 6 
#
# 1 44.3510 -3.2422 -1.4518 0.0000 0.0000 0.0000
# 2 -3.2422 68.0455 2.6602 0.0000 0.0000 0.0000
# 3 -1.4518 2.6602 56.1773 0.0000 0.0000 0.0000
# 4 0.0000 0.0000 0.0000 42.1221 0.0000 0.0000
# 5 0.0000 0.0000 0.0000 0.0000 18.9054 0.0000
# 6 0.0000 0.0000 0.0000 0.0000 0.0000 24.4739
#
#
#
# Elastic Compliance Matrix: (Units=1/GPa)
#
#
# Indices 1 2 3 4 5 6 
#
# 1 0.022642 0.001058 0.000535 0.000000 0.000000 0.000000
# 2 0.001058 0.014773 -0.000672 0.000000 0.000000 0.000000
# 3 0.000535 -0.000672 0.017846 0.000000 0.000000 0.000000
# 4 0.000000 0.000000 0.000000 0.023740 0.000000 0.000000
# 5 0.000000 0.000000 0.000000 0.000000 0.052895 0.000000
# 6 0.000000 0.000000 0.000000 0.000000 0.000000 0.040860
#
#
# Mechanical properties :
#
#
# Convention : Reuss Voigt Hill
#
# Bulk Modulus (GPa) = 17.51221 18.27846 17.89533
# Shear Modulus (GPa) = 26.32276 28.47412 27.39844
#
# Velocity S-wave (km/s) = 3.35289 3.48722 3.42072
# Velocity P-wave (km/s) = 4.74007 4.90108 4.82125
#
# Compressibility (1/GPa) = 0.05710302
#
# Stress axis : x y z
#
# Youngs Moduli (GPa) = 44.16519 67.69222 56.03355
#
# Poissons Ratio (x) = -0.07161 -0.02998
# Poissons Ratio (y) = -0.04672 0.03767
# Poissons Ratio (z) = -0.02363 0.04550
#
# Static dielectric constant tensor:
#      x y z
#    x 1.899780 0.000000 0.000000 
#    y 0.000000 1.921370 0.000000 
#    z 0.000000 0.000000 1.959540 
# 
# From -- ./inp_files/3930.got.cif
#   From: 2010.05.17/outbox.cif.g08.bks.cpg/sg19_2_cif.got.tgz:3930.got - 2010.06.03 22:46:19.
