data_PCOD9314380
_publ_section_title
;
Structure prediction by ZEFSAII (Michael W. Deem and Ramdas Pophale) SiO2 
 PCOD9314380
Probable space group: P 21 21 21
;
_chemical_formula_sum "Si O2"
_cell_formula_units_Z 32
_cell_length_a 12.548002
_cell_length_b 11.045292
_cell_length_c 8.802415
_cell_angle_alpha 90.000000
_cell_angle_beta 90.000000
_cell_angle_gamma 90.000000
_cell_volume 1219.982556
_symmetry_space_group_name_H-M "P 21 21 21"
_symmetry_group_IT_number 19
_symmetry_cell_setting 'orthorhombic'
loop_
_space_group_symop_operation_xyz
x,y,z
1/2-x,-y,1/2+z
1/2+x,1/2-y,-z
-x,1/2+y,1/2-z
loop_
_atom_site_type_symbol
_atom_site_label
_atom_site_fract_x
_atom_site_fract_y
_atom_site_fract_z
Si Si1 0.845239 0.930451 0.082903
Si Si2 0.381723 0.812187 0.772590
Si Si3 0.350137 0.966375 0.339383
Si Si4 0.849199 0.941091 0.718312
Si Si5 0.517528 0.267312 0.051523
Si Si6 0.901456 0.430973 0.379398
Si Si7 0.033398 0.050203 0.542835
Si Si8 0.643272 0.671194 0.599392
O O1 0.814028 0.801710 0.164454
O O2 0.768188 0.034160 0.150951
O O3 0.839318 0.930490 0.899650
O O4 0.970903 0.946016 0.123618
O O5 0.438875 0.765885 0.620991
O O6 0.348909 0.949634 0.710890
O O7 0.450458 0.844043 0.923112
O O8 0.457223 0.899531 0.390643
O O9 0.355420 0.081218 0.449887
O O10 0.367901 0.962869 0.161201
O O11 0.259542 0.881495 0.407606
O O12 0.916060 0.822130 0.660983
O O13 0.923255 0.041770 0.632678
O O14 0.389644 0.262442 0.030907
O O15 0.870639 0.315017 0.278785
O O16 0.053120 0.928303 0.446888
#
# Coordination Sequence:
#
# PCOD9314380 Si02
#       8
#     4   4   4   4   4   4   4   4
#     4  12  23  44  70  99 136 182 228 285 351 405
#     4  10  22  41  65  94 136 178 218 275 332 408
#     4  11  21  40  63  96 126 171 228 272 336 394
#     4  11  25  42  72  98 137 181 227 288 349 403
#     4  10  22  41  62  95 134 170 223 273 329 408
#     4  10  22  41  65  92 135 172 223 278 335 408
#     4  10  22  43  63  98 135 165 227 281 326 409
#     4  10  21  40  66  86 127 179 208 276 340 399
#
# _framework density 26.229884999999999
#
# number of rings (size 3 to 8) (size 9 to 14) (size 15 to 20)
#    0.000    1.500    2.500    2.250    3.500    2.000 
#    6.750    1.250    0.000    0.000    0.000    0.000 
#    0.000    0.000    0.000    0.000    0.000    0.000 
#
# Total GULP energy -178230.190987 kJ/mol
# GULP energy per Si atom -5569.693468 kJ/mol
# Density = 2.617018 g / cm^3
# Si number density = 26.229885 Si / 1000 Ang^3
#
#
#
# Elastic Constant Matrix: (Units=GPa)
#
#
# Indices 1 2 3 4 5 6 
#
# 1 60.6800 -3.5994 5.6347 0.0000 0.0000 0.0000
# 2 -3.5994 45.6670 13.8757 0.0000 0.0000 0.0000
# 3 5.6347 13.8757 174.4742 0.0000 0.0000 0.0000
# 4 0.0000 0.0000 0.0000 30.8032 0.0000 0.0000
# 5 0.0000 0.0000 0.0000 0.0000 32.8176 0.0000
# 6 0.0000 0.0000 0.0000 0.0000 0.0000 34.8933
#
#
#
# Elastic Compliance Matrix: (Units=1/GPa)
#
#
# Indices 1 2 3 4 5 6 
#
# 1 0.016631 0.001510 -0.000657 0.000000 0.000000 0.000000
# 2 0.001510 0.022577 -0.001844 0.000000 0.000000 0.000000
# 3 -0.000657 -0.001844 0.005899 0.000000 0.000000 0.000000
# 4 0.000000 0.000000 0.000000 0.032464 0.000000 0.000000
# 5 0.000000 0.000000 0.000000 0.000000 0.030471 0.000000
# 6 0.000000 0.000000 0.000000 0.000000 0.000000 0.028659
#
#
# Mechanical properties :
#
#
# Convention : Reuss Voigt Hill
#
# Bulk Modulus (GPa) = 23.18844 34.73813 28.96329
# Shear Modulus (GPa) = 32.66723 37.36348 35.01536
#
# Velocity S-wave (km/s) = 3.53288 3.77830 3.65765
# Velocity P-wave (km/s) = 5.04988 5.68388 5.37624
#
# Compressibility (1/GPa) = 0.04312493
#
# Stress axis : x y z
#
# Youngs Moduli (GPa) = 60.13036 44.29268 169.50855
#
# Poissons Ratio (x) = -0.06690 0.11140
# Poissons Ratio (y) = -0.09083 0.31263
# Poissons Ratio (z) = 0.03952 0.08169
#
# Static dielectric constant tensor:
#      x y z
#    x 2.233970 0.000000 0.000000 
#    y 0.000000 2.404380 0.000000 
#    z 0.000000 0.000000 2.264310 
# 
# From -- ./inp_files/3637.got.cif
#   From: 2010.05.17/outbox.cif.g08.bks.cpg/sg19_2_cif.got.tgz:3637.got - 2010.06.03 22:46:19.
