data_PCOD9314625
_publ_section_title
;
Structure prediction by ZEFSAII (Michael W. Deem and Ramdas Pophale) SiO2 
 PCOD9314625
Probable space group: P 21 21 21
;
_chemical_formula_sum "Si O2"
_cell_formula_units_Z 20
_cell_length_a 7.799430
_cell_length_b 8.649994
_cell_length_c 12.078256
_cell_angle_alpha 90.000000
_cell_angle_beta 90.000000
_cell_angle_gamma 90.000000
_cell_volume 814.859815
_symmetry_space_group_name_H-M "P 21 21 21"
_symmetry_group_IT_number 19
_symmetry_cell_setting 'orthorhombic'
loop_
_space_group_symop_operation_xyz
x,y,z
1/2-x,-y,1/2+z
1/2+x,1/2-y,-z
-x,1/2+y,1/2-z
loop_
_atom_site_type_symbol
_atom_site_label
_atom_site_fract_x
_atom_site_fract_y
_atom_site_fract_z
Si Si1 0.947670 0.511453 0.971036
Si Si2 0.733911 0.205445 0.547360
Si Si3 0.186163 0.914841 0.746450
Si Si4 0.980019 0.075367 0.103857
Si Si5 0.799069 0.681897 0.606612
O O1 0.930927 0.401661 0.863519
O O2 0.129729 0.583431 0.997509
O O3 0.822935 0.661000 0.963184
O O4 0.868578 0.420624 0.072703
O O5 0.816135 0.289034 0.655671
O O6 0.569556 0.101801 0.578652
O O7 0.380025 0.913994 0.700084
O O8 0.129042 0.081542 0.793384
O O9 0.799026 0.158940 0.129114
O O10 0.075124 0.155152 0.998172
#
# Coordination Sequence:
#
# PCOD9314625 Si02
#       5
#     4   4   4   4   4
#     4  10  22  40  60  87 120 156 199 244 295 353
#     4  11  22  40  64  87 119 162 199 244 297 354
#     4  10  22  39  59  87 120 156 200 244 294 355
#     4  11  22  39  61  88 119 157 199 246 299 353
#     4  10  22  40  60  89 122 155 197 248 297 353
#
# _framework density 24.544098999999999
#
# number of rings (size 3 to 8) (size 9 to 14) (size 15 to 20)
#    0.000    1.600    0.000    6.000    0.000    6.400 
#    0.000   10.000    0.000    0.000    0.000    0.000 
#    0.000    0.000    0.000    0.000    0.000    0.000 
#
# Total GULP energy -111698.453019 kJ/mol
# GULP energy per Si atom -5584.922651 kJ/mol
# Density = 2.448824 g / cm^3
# Si number density = 24.544099 Si / 1000 Ang^3
#
#
#
# Elastic Constant Matrix: (Units=GPa)
#
#
# Indices 1 2 3 4 5 6 
#
# 1 80.6920 -10.9052 -21.0211 0.0000 0.0000 0.0000
# 2 -10.9052 52.1354 -22.0790 0.0000 0.0000 0.0000
# 3 -21.0211 -22.0790 65.0774 0.0000 0.0000 0.0000
# 4 0.0000 0.0000 0.0000 38.5739 0.0000 0.0000
# 5 0.0000 0.0000 0.0000 0.0000 23.3416 0.0000
# 6 0.0000 0.0000 0.0000 0.0000 0.0000 49.4054
#
#
#
# Elastic Compliance Matrix: (Units=1/GPa)
#
#
# Indices 1 2 3 4 5 6 
#
# 1 0.015012 0.006065 0.006907 0.000000 0.000000 0.000000
# 2 0.006065 0.024849 0.010390 0.000000 0.000000 0.000000
# 3 0.006907 0.010390 0.021122 0.000000 0.000000 0.000000
# 4 0.000000 0.000000 0.000000 0.025924 0.000000 0.000000
# 5 0.000000 0.000000 0.000000 0.000000 0.042842 0.000000
# 6 0.000000 0.000000 0.000000 0.000000 0.000000 0.020241
#
#
# Mechanical properties :
#
#
# Convention : Reuss Voigt Hill
#
# Bulk Modulus (GPa) = 9.28447 9.98823 9.63635
# Shear Modulus (GPa) = 35.92741 39.05818 37.49279
#
# Velocity S-wave (km/s) = 3.83010 3.99350 3.91265
# Velocity P-wave (km/s) = 4.83224 5.03412 4.93421
#
# Compressibility (1/GPa) = 0.10770669
#
# Stress axis : x y z
#
# Youngs Moduli (GPa) = 66.61449 40.24231 47.34327
#
# Poissons Ratio (x) = -0.24407 -0.32699
# Poissons Ratio (y) = -0.40402 -0.49189
# Poissons Ratio (z) = -0.46009 -0.41811
#
# Static dielectric constant tensor:
#      x y z
#    x 1.994460 0.000000 0.000000 
#    y 0.000000 2.089990 0.000000 
#    z 0.000000 0.000000 1.913730 
# 
# From -- ./inp_files/2582.got.cif
#   From: 2010.05.17/outbox.cif.g08.bks.cpg/sg19_2_cif.got.tgz:2582.got - 2010.06.03 22:46:19.
