data_PCOD9314667
_publ_section_title
;
Structure prediction by ZEFSAII (Michael W. Deem and Ramdas Pophale) SiO2 
 PCOD9314667
Probable space group: P 21 21 21
;
_chemical_formula_sum "Si O2"
_cell_formula_units_Z 32
_cell_length_a 19.632411
_cell_length_b 5.479599
_cell_length_c 14.045062
_cell_angle_alpha 90.000000
_cell_angle_beta 90.000000
_cell_angle_gamma 90.000000
_cell_volume 1510.936024
_symmetry_space_group_name_H-M "P 21 21 21"
_symmetry_group_IT_number 19
_symmetry_cell_setting 'orthorhombic'
loop_
_space_group_symop_operation_xyz
x,y,z
1/2-x,-y,1/2+z
1/2+x,1/2-y,-z
-x,1/2+y,1/2-z
loop_
_atom_site_type_symbol
_atom_site_label
_atom_site_fract_x
_atom_site_fract_y
_atom_site_fract_z
Si Si1 0.265474 0.403583 0.030122
Si Si2 0.038261 0.634533 0.228311
Si Si3 0.538315 0.093070 0.959951
Si Si4 0.774865 0.010254 0.752802
Si Si5 0.139415 0.636347 0.913366
Si Si6 0.890784 0.240125 0.093040
Si Si7 0.153514 0.024614 0.065455
Si Si8 0.302965 0.020447 0.771723
O O1 0.279212 0.516796 0.133632
O O2 0.206754 0.540419 0.970645
O O3 0.227743 0.144978 0.047658
O O4 0.335844 0.381839 0.974739
O O5 0.045801 0.629544 0.114745
O O6 0.094969 0.590272 0.309454
O O7 0.009208 0.897661 0.256235
O O8 0.462241 0.197151 0.957301
O O9 0.593676 0.280817 0.918628
O O10 0.571348 0.008212 0.058226
O O11 0.842021 0.094913 0.695750
O O12 0.727341 0.249841 0.737288
O O13 0.749130 0.748108 0.712739
O O14 0.133688 0.894713 0.966432
O O15 0.853916 0.475775 0.139016
O O16 0.162275 0.908609 0.170408
#
# Coordination Sequence:
#
# PCOD9314667 Si02
#       8
#     4   4   4   4   4   4   4   4
#     4  10  22  42  62  95 125 163 217 264 311 373
#     4  10  24  41  59  95 132 168 199 254 320 381
#     4  10  25  38  62  91 134 169 208 254 324 387
#     4  11  24  42  66  95 124 168 214 269 306 374
#     4  11  21  40  65  87 125 171 211 255 326 372
#     4  11  23  40  65  96 133 165 212 260 323 375
#     4  10  22  40  62  92 129 166 204 260 321 384
#     4  11  23  39  65  97 128 158 209 264 323 372
#
# _framework density 21.178925
#
# number of rings (size 3 to 8) (size 9 to 14) (size 15 to 20)
#    0.000    1.500    2.500    1.500   15.750    0.000 
#    4.500    0.000    2.750    0.000    0.000    0.000 
#    0.000    0.000    0.000    0.000    0.000    0.000 
#
# Total GULP energy -178357.987210 kJ/mol
# GULP energy per Si atom -5573.687100 kJ/mol
# Density = 2.113072 g / cm^3
# Si number density = 21.178925 Si / 1000 Ang^3
#
#
#
# Elastic Constant Matrix: (Units=GPa)
#
#
# Indices 1 2 3 4 5 6 
#
# 1 97.8605 1.6371 26.5082 0.0000 0.0000 0.0000
# 2 1.6371 37.3929 -2.9018 0.0000 0.0000 0.0000
# 3 26.5082 -2.9018 57.2936 0.0000 0.0000 0.0000
# 4 0.0000 0.0000 0.0000 19.8905 0.0000 0.0000
# 5 0.0000 0.0000 0.0000 0.0000 42.8283 0.0000
# 6 0.0000 0.0000 0.0000 0.0000 0.0000 16.6891
#
#
#
# Elastic Compliance Matrix: (Units=1/GPa)
#
#
# Indices 1 2 3 4 5 6 
#
# 1 0.011715 -0.000937 -0.005468 0.000000 0.000000 0.000000
# 2 -0.000937 0.026924 0.001797 0.000000 0.000000 0.000000
# 3 -0.005468 0.001797 0.020075 0.000000 0.000000 0.000000
# 4 0.000000 0.000000 0.000000 0.050275 0.000000 0.000000
# 5 0.000000 0.000000 0.000000 0.000000 0.023349 0.000000
# 6 0.000000 0.000000 0.000000 0.000000 0.000000 0.059919
#
#
# Mechanical properties :
#
#
# Convention : Reuss Voigt Hill
#
# Bulk Modulus (GPa) = 20.20282 27.00380 23.60331
# Shear Modulus (GPa) = 22.93867 27.03515 24.98691
#
# Velocity S-wave (km/s) = 3.29460 3.57671 3.43855
# Velocity P-wave (km/s) = 4.90228 5.46215 5.18977
#
# Compressibility (1/GPa) = 0.04949804
#
# Stress axis : x y z
#
# Youngs Moduli (GPa) = 85.35752 37.14220 49.81361
#
# Poissons Ratio (x) = 0.03481 0.27238
# Poissons Ratio (y) = 0.08000 -0.08953
# Poissons Ratio (z) = 0.46673 -0.06675
#
# Static dielectric constant tensor:
#      x y z
#    x 1.813860 0.000000 0.000000 
#    y 0.000000 1.856030 0.000000 
#    z 0.000000 0.000000 1.788870 
# 
# From -- ./inp_files/6340.got.cif
#   From: 2010.05.17/outbox.cif.g08.bks.cpg/sg19_4_cif.got.tgz:6340.got - 2010.06.03 22:46:19.
