data_PCOD9314859
_publ_section_title
;
Structure prediction by ZEFSAII (Michael W. Deem and Ramdas Pophale) SiO2 
 PCOD9314859
Probable space group: P 21 21 21
;
_chemical_formula_sum "Si O2"
_cell_formula_units_Z 32
_cell_length_a 9.695469
_cell_length_b 18.415326
_cell_length_c 8.459107
_cell_angle_alpha 90.000000
_cell_angle_beta 90.000000
_cell_angle_gamma 90.000000
_cell_volume 1510.333140
_symmetry_space_group_name_H-M "P 21 21 21"
_symmetry_group_IT_number 19
_symmetry_cell_setting 'orthorhombic'
loop_
_space_group_symop_operation_xyz
x,y,z
1/2-x,-y,1/2+z
1/2+x,1/2-y,-z
-x,1/2+y,1/2-z
loop_
_atom_site_type_symbol
_atom_site_label
_atom_site_fract_x
_atom_site_fract_y
_atom_site_fract_z
Si Si1 0.940151 0.809203 0.468880
Si Si2 0.874983 0.579202 0.673182
Si Si3 0.131725 0.968522 0.114154
Si Si4 0.915817 0.305373 0.470720
Si Si5 0.162670 0.576966 0.840056
Si Si6 0.915417 0.974229 0.371711
Si Si7 0.223947 0.770223 0.358800
Si Si8 0.302197 0.729184 0.862964
O O1 0.956750 0.894970 0.440353
O O2 0.833323 0.792587 0.607740
O O3 0.864713 0.777245 0.312313
O O4 0.090288 0.772277 0.473343
O O5 0.782356 0.549127 0.817629
O O6 0.867762 0.522653 0.530787
O O7 0.807007 0.654826 0.621606
O O8 0.030146 0.589582 0.730635
O O9 0.066457 0.890770 0.063543
O O10 0.039274 0.998443 0.257818
O O11 0.838901 0.272317 0.316773
O O12 0.809554 0.291662 0.611556
O O13 0.064623 0.267642 0.477654
O O14 0.281337 0.538188 0.737420
O O15 0.222846 0.654040 0.894000
O O16 0.118827 0.528589 0.988249
#
# Coordination Sequence:
#
# PCOD9314859 Si02
#       8
#     4   4   4   4   4   4   4   4
#     4  10  22  43  64  89 129 163 208 264 312 374
#     4  11  24  40  68  94 126 170 214 259 323 379
#     4  11  22  46  63  92 133 165 210 271 313 379
#     4  10  22  43  64  89 129 163 208 264 312 374
#     4  11  24  40  68  94 126 170 214 259 323 379
#     4  11  22  46  63  92 133 165 210 271 313 379
#     4  10  23  42  62  92 126 165 209 259 315 374
#     4  10  23  42  62  92 126 165 209 259 315 374
#
# _framework density 21.187377000000001
#
# number of rings (size 3 to 8) (size 9 to 14) (size 15 to 20)
#    0.000    1.500    5.000    1.500    7.000    2.000 
#    4.500    0.000    0.000    0.000    0.000    0.000 
#    0.000    0.000    0.000    0.000    0.000    0.000 
#
# Total GULP energy -178931.237831 kJ/mol
# GULP energy per Si atom -5591.601182 kJ/mol
# Density = 2.113915 g / cm^3
# Si number density = 21.187377 Si / 1000 Ang^3
#
#
#
# Elastic Constant Matrix: (Units=GPa)
#
#
# Indices 1 2 3 4 5 6 
#
# 1 76.8425 1.9686 3.3301 0.0000 0.0000 0.0000
# 2 1.9686 25.7854 21.6241 0.0000 0.0000 0.0000
# 3 3.3301 21.6241 25.8919 0.0000 0.0000 0.0000
# 4 0.0000 0.0000 0.0000 31.1881 0.0000 0.0000
# 5 0.0000 0.0000 0.0000 0.0000 38.0238 0.0000
# 6 0.0000 0.0000 0.0000 0.0000 0.0000 3.7284
#
#
#
# Elastic Compliance Matrix: (Units=1/GPa)
#
#
# Indices 1 2 3 4 5 6 
#
# 1 0.013101 0.001378 -0.002836 0.000000 0.000000 0.000000
# 2 0.001378 0.129584 -0.108401 0.000000 0.000000 0.000000
# 3 -0.002836 -0.108401 0.129520 0.000000 0.000000 0.000000
# 4 0.000000 0.000000 0.000000 0.032064 0.000000 0.000000
# 5 0.000000 0.000000 0.000000 0.000000 0.026299 0.000000
# 6 0.000000 0.000000 0.000000 0.000000 0.000000 0.268215
#
#
# Mechanical properties :
#
#
# Convention : Reuss Voigt Hill
#
# Bulk Modulus (GPa) = 19.05248 20.26283 19.65766
# Shear Modulus (GPa) = 5.98089 21.36118 13.67103
#
# Velocity S-wave (km/s) = 1.68196 3.17867 2.54292
# Velocity P-wave (km/s) = 3.57545 4.80170 4.23321
#
# Compressibility (1/GPa) = 0.05248660
#
# Stress axis : x y z
#
# Youngs Moduli (GPa) = 76.32875 7.71702 7.72081
#
# Poissons Ratio (x) = -0.01063 0.02190
# Poissons Ratio (y) = -0.10518 0.83695
# Poissons Ratio (z) = 0.21646 0.83654
#
# Static dielectric constant tensor:
#      x y z
#    x 1.763240 0.000000 0.000000 
#    y 0.000000 1.738280 0.000000 
#    z 0.000000 0.000000 1.793610 
# 
# From -- ./inp_files/3120.got.cif
#   From: 2010.05.17/outbox.cif.g08.bks.cpg/sg19_2_cif.got.tgz:3120.got - 2010.06.03 22:46:19.
