data_PCOD9314422
_publ_section_title
;
Structure prediction by ZEFSAII (Michael W. Deem and Ramdas Pophale) SiO2 
 PCOD9314422
Probable space group: P 21 21 21
;
_chemical_formula_sum "Si O2"
_cell_formula_units_Z 28
_cell_length_a 6.786095
_cell_length_b 7.718277
_cell_length_c 21.676027
_cell_angle_alpha 90.000000
_cell_angle_beta 90.000000
_cell_angle_gamma 90.000000
_cell_volume 1135.324420
_symmetry_space_group_name_H-M "P 21 21 21"
_symmetry_group_IT_number 19
_symmetry_cell_setting 'orthorhombic'
loop_
_space_group_symop_operation_xyz
x,y,z
1/2-x,-y,1/2+z
1/2+x,1/2-y,-z
-x,1/2+y,1/2-z
loop_
_atom_site_type_symbol
_atom_site_label
_atom_site_fract_x
_atom_site_fract_y
_atom_site_fract_z
Si Si1 0.654965 0.851533 0.328022
Si Si2 0.582503 0.091732 0.611880
Si Si3 0.321610 0.859421 0.226936
Si Si4 0.046830 0.528131 0.250259
Si Si5 0.259614 0.139808 0.052812
Si Si6 0.646962 0.994342 0.009284
Si Si7 0.230664 0.305439 0.607866
O O1 0.505284 0.834358 0.271404
O O2 0.871112 0.889845 0.299666
O O3 0.652669 0.712988 0.382527
O O4 0.616779 0.032577 0.362863
O O5 0.604998 0.027120 0.680946
O O6 0.469114 0.274849 0.616009
O O7 0.432149 0.969164 0.572597
O O8 0.781387 0.072777 0.575140
O O9 0.172064 0.699227 0.237657
O O10 0.349880 0.847367 0.152983
O O11 0.190561 0.024222 0.247530
O O12 0.210994 0.311677 0.012605
O O13 0.411830 0.018434 0.015846
O O14 0.755800 0.859872 0.963402
#
# Coordination Sequence:
#
# PCOD9314422 Si02
#       7
#     4   4   4   4   4   4   4
#     4  10  22  43  66  95 136 175 228 285 347 419
#     4  11  23  41  65  97 134 175 222 280 341 406
#     4  10  21  41  64  95 132 176 217 281 344 411
#     4  10  22  40  64 100 132 170 224 280 346 410
#     4  11  23  42  69  99 134 182 240 275 340 429
#     4  11  23  44  64  97 136 183 228 281 338 408
#     4   9  24  41  60  99 134 167 229 278 332 415
#
# _framework density 24.662555000000001
#
# number of rings (size 3 to 8) (size 9 to 14) (size 15 to 20)
#    0.000    1.714    1.429    1.714    2.000    9.143 
#    2.571    2.857    0.000    0.000    0.000    0.000 
#    0.000    0.000    0.000    0.000    0.000    0.000 
#
# Total GULP energy -156110.742573 kJ/mol
# GULP energy per Si atom -5575.383663 kJ/mol
# Density = 2.460642 g / cm^3
# Si number density = 24.662555 Si / 1000 Ang^3
#
#
#
# Elastic Constant Matrix: (Units=GPa)
#
#
# Indices 1 2 3 4 5 6 
#
# 1 63.1927 16.8242 28.5504 0.0000 0.0000 0.0000
# 2 16.8242 102.8029 0.9579 0.0000 0.0000 0.0000
# 3 28.5504 0.9579 104.3024 0.0000 0.0000 0.0000
# 4 0.0000 0.0000 0.0000 23.1152 0.0000 0.0000
# 5 0.0000 0.0000 0.0000 0.0000 44.4289 0.0000
# 6 0.0000 0.0000 0.0000 0.0000 0.0000 27.6211
#
#
#
# Elastic Compliance Matrix: (Units=1/GPa)
#
#
# Indices 1 2 3 4 5 6 
#
# 1 0.018972 -0.003057 -0.005165 0.000000 0.000000 0.000000
# 2 -0.003057 0.010221 0.000743 0.000000 0.000000 0.000000
# 3 -0.005165 0.000743 0.010995 0.000000 0.000000 0.000000
# 4 0.000000 0.000000 0.000000 0.043262 0.000000 0.000000
# 5 0.000000 0.000000 0.000000 0.000000 0.022508 0.000000
# 6 0.000000 0.000000 0.000000 0.000000 0.000000 0.036204
#
#
# Mechanical properties :
#
#
# Convention : Reuss Voigt Hill
#
# Bulk Modulus (GPa) = 39.63654 40.32923 39.98289
# Shear Modulus (GPa) = 30.20627 33.96407 32.08517
#
# Velocity S-wave (km/s) = 3.50349 3.71503 3.61081
# Velocity P-wave (km/s) = 5.69845 5.89829 5.79923
#
# Compressibility (1/GPa) = 0.02522925
#
# Stress axis : x y z
#
# Youngs Moduli (GPa) = 52.70923 97.84082 90.95449
#
# Poissons Ratio (x) = 0.29907 0.46979
# Poissons Ratio (y) = 0.16112 -0.06757
# Poissons Ratio (z) = 0.27225 -0.07268
#
# Static dielectric constant tensor:
#      x y z
#    x 1.955650 0.000000 0.000000 
#    y 0.000000 2.133250 0.000000 
#    z 0.000000 0.000000 1.976870 
# 
# From -- ./inp_files/7264.got.cif
#   From: 2010.05.17/outbox.cif.g08.bks.cpg/sg19_4_cif.got.tgz:7264.got - 2010.06.03 22:46:19.
