data_PCOD9314206
_publ_section_title
;
Structure prediction by ZEFSAII (Michael W. Deem and Ramdas Pophale) SiO2 
 PCOD9314206
Probable space group: P 21 21 21
;
_chemical_formula_sum "Si O2"
_cell_formula_units_Z 28
_cell_length_a 20.614081
_cell_length_b 7.534815
_cell_length_c 8.730034
_cell_angle_alpha 90.000000
_cell_angle_beta 90.000000
_cell_angle_gamma 90.000000
_cell_volume 1355.977574
_symmetry_space_group_name_H-M "P 21 21 21"
_symmetry_group_IT_number 19
_symmetry_cell_setting 'orthorhombic'
loop_
_space_group_symop_operation_xyz
x,y,z
1/2-x,-y,1/2+z
1/2+x,1/2-y,-z
-x,1/2+y,1/2-z
loop_
_atom_site_type_symbol
_atom_site_label
_atom_site_fract_x
_atom_site_fract_y
_atom_site_fract_z
Si Si1 0.065013 0.986717 0.734322
Si Si2 0.347274 0.728943 0.409977
Si Si3 0.795774 0.508752 0.344955
Si Si4 0.173660 0.480545 0.514044
Si Si5 0.584082 0.907933 0.208821
Si Si6 0.664198 0.443752 0.496612
Si Si7 0.720069 0.864898 0.788790
O O1 0.080463 0.801807 0.817979
O O2 0.102280 0.148384 0.815685
O O3 0.096450 0.981972 0.564305
O O4 0.989014 0.022386 0.727229
O O5 0.378945 0.533324 0.413286
O O6 0.281150 0.709950 0.311887
O O7 0.333188 0.841750 0.561289
O O8 0.719744 0.527157 0.386937
O O9 0.813822 0.517254 0.167900
O O10 0.808631 0.300802 0.382648
O O11 0.122537 0.563089 0.631082
O O12 0.162769 0.269447 0.510283
O O13 0.174744 0.553780 0.341911
O O14 0.244774 0.499763 0.594819
#
# Coordination Sequence:
#
# PCOD9314206 Si02
#       7
#     4   4   4   4   4   4   4
#     4  12  21  44  71  91 128 170 233 272 336 387
#     4  11  23  41  60 101 125 166 225 262 329 401
#     4  11  21  37  62  92 134 168 212 263 341 387
#     4  10  22  37  59 100 130 164 226 261 336 397
#     4  11  23  40  73  92 123 176 223 278 319 411
#     4  11  21  38  65  94 132 178 206 282 328 397
#     4  10  21  37  60  96 134 170 211 270 337 392
#
# _framework density 20.64931
#
# number of rings (size 3 to 8) (size 9 to 14) (size 15 to 20)
#    0.000    1.143    7.143    0.857    2.000    5.714 
#    0.000    0.000    6.286    0.000    0.000    0.000 
#    0.000    0.000    0.000    0.000    0.000    0.000 
#
# Total GULP energy -156332.983121 kJ/mol
# GULP energy per Si atom -5583.320826 kJ/mol
# Density = 2.060231 g / cm^3
# Si number density = 20.649310 Si / 1000 Ang^3
#
#
#
# Elastic Constant Matrix: (Units=GPa)
#
#
# Indices 1 2 3 4 5 6 
#
# 1 75.3906 33.0898 8.8956 0.0000 0.0000 0.0000
# 2 33.0898 108.5383 15.2393 0.0000 0.0000 0.0000
# 3 8.8956 15.2393 37.3508 0.0000 0.0000 0.0000
# 4 0.0000 0.0000 0.0000 41.7525 0.0000 0.0000
# 5 0.0000 0.0000 0.0000 0.0000 20.1549 0.0000
# 6 0.0000 0.0000 0.0000 0.0000 0.0000 32.6799
#
#
#
# Elastic Compliance Matrix: (Units=1/GPa)
#
#
# Indices 1 2 3 4 5 6 
#
# 1 0.015435 -0.004444 -0.001863 0.000000 0.000000 0.000000
# 2 -0.004444 0.011053 -0.003451 0.000000 0.000000 0.000000
# 3 -0.001863 -0.003451 0.028625 0.000000 0.000000 0.000000
# 4 0.000000 0.000000 0.000000 0.023951 0.000000 0.000000
# 5 0.000000 0.000000 0.000000 0.000000 0.049616 0.000000
# 6 0.000000 0.000000 0.000000 0.000000 0.000000 0.030600
#
#
# Mechanical properties :
#
#
# Convention : Reuss Voigt Hill
#
# Bulk Modulus (GPa) = 28.09275 37.30325 32.69800
# Shear Modulus (GPa) = 26.22470 29.85444 28.03957
#
# Velocity S-wave (km/s) = 3.56758 3.80647 3.68896
# Velocity P-wave (km/s) = 5.53212 6.11746 5.83214
#
# Compressibility (1/GPa) = 0.03559637
#
# Stress axis : x y z
#
# Youngs Moduli (GPa) = 64.78969 90.47554 34.93454
#
# Poissons Ratio (x) = 0.40207 0.06508
# Poissons Ratio (y) = 0.28792 0.12057
# Poissons Ratio (z) = 0.12069 0.31225
#
# Static dielectric constant tensor:
#      x y z
#    x 1.716270 0.000000 0.000000 
#    y 0.000000 1.819620 0.000000 
#    z 0.000000 0.000000 1.769020 
# 
# From -- ./inp_files/4300.got.cif
#   From: 2010.05.17/outbox.cif.g08.bks.cpg/sg19_3_cif.got.tgz:4300.got - 2010.06.03 22:46:19.
