data_PCOD9314129
_publ_section_title
;
Structure prediction by ZEFSAII (Michael W. Deem and Ramdas Pophale) SiO2 
 PCOD9314129
Probable space group: P 21 21 21
;
_chemical_formula_sum "Si O2"
_cell_formula_units_Z 32
_cell_length_a 15.903349
_cell_length_b 7.859136
_cell_length_c 10.595734
_cell_angle_alpha 90.000000
_cell_angle_beta 90.000000
_cell_angle_gamma 90.000000
_cell_volume 1324.324583
_symmetry_space_group_name_H-M "P 21 21 21"
_symmetry_group_IT_number 19
_symmetry_cell_setting 'orthorhombic'
loop_
_space_group_symop_operation_xyz
x,y,z
1/2-x,-y,1/2+z
1/2+x,1/2-y,-z
-x,1/2+y,1/2-z
loop_
_atom_site_type_symbol
_atom_site_label
_atom_site_fract_x
_atom_site_fract_y
_atom_site_fract_z
Si Si1 0.544273 0.736154 0.004133
Si Si2 0.415742 0.432686 0.744401
Si Si3 0.934301 0.897208 0.635548
Si Si4 0.239901 0.333956 0.735675
Si Si5 0.141625 0.200227 0.541450
Si Si6 0.391008 0.080718 0.259907
Si Si7 0.792077 0.552600 0.216000
Si Si8 0.936432 0.709140 0.383363
O O1 0.444099 0.706270 0.005108
O O2 0.590319 0.594236 0.089050
O O3 0.556559 0.915058 0.078063
O O4 0.574915 0.785897 0.863988
O O5 0.317493 0.451237 0.771178
O O6 0.475539 0.382685 0.858541
O O7 0.445207 0.609428 0.686594
O O8 0.849337 0.896107 0.714454
O O9 0.920629 0.762661 0.525150
O O10 0.021000 0.845996 0.705608
O O11 0.220098 0.313442 0.586819
O O12 0.268357 0.146923 0.783451
O O13 0.170309 0.094495 0.420706
O O14 0.119700 0.081398 0.664038
O O15 0.295549 0.150539 0.253941
O O16 0.861843 0.604330 0.318071
#
# Coordination Sequence:
#
# PCOD9314129 Si02
#       8
#     4   4   4   4   4   4   4   4
#     4  10  20  43  66  91 136 174 220 289 337 407
#     4  11  24  43  69  92 137 177 229 281 344 408
#     4  10  24  41  65  99 139 172 227 279 346 408
#     4  11  24  41  66  97 132 174 224 282 340 419
#     4  10  21  42  65  97 130 171 224 283 333 416
#     4  10  22  40  70  95 128 181 221 282 348 401
#     4  11  24  42  70  94 137 176 230 276 348 405
#     4  11  25  46  65 101 133 183 225 288 342 416
#
# _framework density 24.163259
#
# number of rings (size 3 to 8) (size 9 to 14) (size 15 to 20)
#    0.000    1.500    2.500    1.500    8.750    0.000 
#    4.500    1.250    0.000    0.000    0.000    0.000 
#    0.000    0.000    0.000    0.000    0.000    0.000 
#
# Total GULP energy -178747.310765 kJ/mol
# GULP energy per Si atom -5585.853461 kJ/mol
# Density = 2.410826 g / cm^3
# Si number density = 24.163259 Si / 1000 Ang^3
#
#
#
# Elastic Constant Matrix: (Units=GPa)
#
#
# Indices 1 2 3 4 5 6 
#
# 1 149.6242 18.7370 13.4233 0.0000 0.0000 0.0000
# 2 18.7370 84.6467 16.8142 0.0000 0.0000 0.0000
# 3 13.4233 16.8142 37.7814 0.0000 0.0000 0.0000
# 4 0.0000 0.0000 0.0000 27.0342 0.0000 0.0000
# 5 0.0000 0.0000 0.0000 0.0000 17.8946 0.0000
# 6 0.0000 0.0000 0.0000 0.0000 0.0000 13.2432
#
#
#
# Elastic Compliance Matrix: (Units=1/GPa)
#
#
# Indices 1 2 3 4 5 6 
#
# 1 0.007006 -0.001159 -0.001973 0.000000 0.000000 0.000000
# 2 -0.001159 0.013151 -0.005441 0.000000 0.000000 0.000000
# 3 -0.001973 -0.005441 0.029591 0.000000 0.000000 0.000000
# 4 0.000000 0.000000 0.000000 0.036990 0.000000 0.000000
# 5 0.000000 0.000000 0.000000 0.000000 0.055883 0.000000
# 6 0.000000 0.000000 0.000000 0.000000 0.000000 0.075510
#
#
# Mechanical properties :
#
#
# Convention : Reuss Voigt Hill
#
# Bulk Modulus (GPa) = 30.67386 41.11127 35.89257
# Shear Modulus (GPa) = 20.31335 26.50627 23.40981
#
# Velocity S-wave (km/s) = 2.90258 3.31564 3.11596
# Velocity P-wave (km/s) = 4.89441 5.63106 5.27561
#
# Compressibility (1/GPa) = 0.03260104
#
# Stress axis : x y z
#
# Youngs Moduli (GPa) = 142.74395 76.03917 33.79448
#
# Poissons Ratio (x) = 0.08811 0.06669
# Poissons Ratio (y) = 0.16540 0.18388
# Poissons Ratio (z) = 0.28168 0.41373
#
# Static dielectric constant tensor:
#      x y z
#    x 1.922480 0.000000 0.000000 
#    y 0.000000 1.978520 0.000000 
#    z 0.000000 0.000000 1.939480 
# 
# From -- ./inp_files/5244.got.cif
#   From: 2010.05.17/outbox.cif.g08.bks.cpg/sg19_3_cif.got.tgz:5244.got - 2010.06.03 22:46:19.
