data_PCOD9314601
_publ_section_title
;
Structure prediction by ZEFSAII (Michael W. Deem and Ramdas Pophale) SiO2 
 PCOD9314601
Probable space group: P 21 21 21
;
_chemical_formula_sum "Si O2"
_cell_formula_units_Z 28
_cell_length_a 24.925241
_cell_length_b 9.619368
_cell_length_c 5.057626
_cell_angle_alpha 90.000000
_cell_angle_beta 90.000000
_cell_angle_gamma 90.000000
_cell_volume 1212.642030
_symmetry_space_group_name_H-M "P 21 21 21"
_symmetry_group_IT_number 19
_symmetry_cell_setting 'orthorhombic'
loop_
_space_group_symop_operation_xyz
x,y,z
1/2-x,-y,1/2+z
1/2+x,1/2-y,-z
-x,1/2+y,1/2-z
loop_
_atom_site_type_symbol
_atom_site_label
_atom_site_fract_x
_atom_site_fract_y
_atom_site_fract_z
Si Si1 0.491192 0.405899 0.937079
Si Si2 0.298161 0.633488 0.852717
Si Si3 0.868613 0.663231 0.802200
Si Si4 0.180526 0.540648 0.838019
Si Si5 0.607095 0.500224 0.782203
Si Si6 0.520029 0.172727 0.260945
Si Si7 0.584012 0.797799 0.946895
O O1 0.543958 0.465484 0.801402
O O2 0.437238 0.404007 0.773286
O O3 0.506056 0.243679 0.982886
O O4 0.483155 0.509485 0.186394
O O5 0.323292 0.759683 0.022408
O O6 0.233746 0.633428 0.876773
O O7 0.316380 0.506505 0.036700
O O8 0.314946 0.588742 0.552221
O O9 0.865515 0.603230 0.501898
O O10 0.921414 0.762994 0.821670
O O11 0.878474 0.528337 0.981207
O O12 0.125851 0.620567 0.878095
O O13 0.614306 0.660964 0.845146
O O14 0.470403 0.239779 0.421404
#
# Coordination Sequence:
#
# PCOD9314601 Si02
#       7
#     4   4   4   4   4   4   4
#     4  10  22  38  57  87 125 168 206 254 314 373
#     4  10  22  43  66  92 124 158 214 263 313 373
#     4  11  21  42  59  87 125 165 203 254 313 372
#     4  10  23  40  66  97 120 159 212 268 311 372
#     4  10  24  38  58  89 125 159 208 254 300 388
#     4  10  23  35  58  89 122 167 209 252 312 386
#     4  11  23  38  60  87 127 164 206 261 319 366
#
# _framework density 23.090076
#
# number of rings (size 3 to 8) (size 9 to 14) (size 15 to 20)
#    0.000    1.714    1.429    1.714   10.000    0.000 
#    0.000    1.429    0.000    0.000    0.000    0.000 
#    0.000    0.000    0.000    0.000    0.000    0.000 
#
# Total GULP energy -156195.121649 kJ/mol
# GULP energy per Si atom -5578.397202 kJ/mol
# Density = 2.303752 g / cm^3
# Si number density = 23.090076 Si / 1000 Ang^3
#
#
#
# Elastic Constant Matrix: (Units=GPa)
#
#
# Indices 1 2 3 4 5 6 
#
# 1 42.5258 4.9705 11.6931 0.0000 0.0000 0.0000
# 2 4.9705 47.7549 1.8508 0.0000 0.0000 0.0000
# 3 11.6931 1.8508 61.6484 0.0000 0.0000 0.0000
# 4 0.0000 0.0000 0.0000 27.9951 0.0000 0.0000
# 5 0.0000 0.0000 0.0000 0.0000 23.9990 0.0000
# 6 0.0000 0.0000 0.0000 0.0000 0.0000 19.8309
#
#
#
# Elastic Compliance Matrix: (Units=1/GPa)
#
#
# Indices 1 2 3 4 5 6 
#
# 1 0.025087 -0.002430 -0.004685 0.000000 0.000000 0.000000
# 2 -0.002430 0.021200 -0.000176 0.000000 0.000000 0.000000
# 3 -0.004685 -0.000176 0.017115 0.000000 0.000000 0.000000
# 4 0.000000 0.000000 0.000000 0.035721 0.000000 0.000000
# 5 0.000000 0.000000 0.000000 0.000000 0.041668 0.000000
# 6 0.000000 0.000000 0.000000 0.000000 0.000000 0.050426
#
#
# Mechanical properties :
#
#
# Convention : Reuss Voigt Hill
#
# Bulk Modulus (GPa) = 20.48299 20.99530 20.73914
# Shear Modulus (GPa) = 22.51514 23.25931 22.88723
#
# Velocity S-wave (km/s) = 3.12605 3.17729 3.15177
# Velocity P-wave (km/s) = 4.68185 4.75108 4.71659
#
# Compressibility (1/GPa) = 0.04882101
#
# Stress axis : x y z
#
# Youngs Moduli (GPa) = 39.86061 47.16991 58.42821
#
# Poissons Ratio (x) = 0.11460 0.27376
# Poissons Ratio (y) = 0.09684 0.01026
# Poissons Ratio (z) = 0.18677 0.00828
#
# Static dielectric constant tensor:
#      x y z
#    x 1.862890 0.000000 0.000000 
#    y 0.000000 1.891390 0.000000 
#    z 0.000000 0.000000 1.950430 
# 
# From -- ./inp_files/561.got.cif
#   From: 2010.05.17/outbox.cif.g08.bks.cpg/sg19_1_cif.got.tgz:561.got - 2010.06.03 22:46:19.
