data_PCOD9314541
_publ_section_title
;
Structure prediction by ZEFSAII (Michael W. Deem and Ramdas Pophale) SiO2 
 PCOD9314541
Probable space group: P 21 21 21
;
_chemical_formula_sum "Si O2"
_cell_formula_units_Z 24
_cell_length_a 5.110628
_cell_length_b 18.213494
_cell_length_c 12.418504
_cell_angle_alpha 90.000000
_cell_angle_beta 90.000000
_cell_angle_gamma 90.000000
_cell_volume 1155.944063
_symmetry_space_group_name_H-M "P 21 21 21"
_symmetry_group_IT_number 19
_symmetry_cell_setting 'orthorhombic'
loop_
_space_group_symop_operation_xyz
x,y,z
1/2-x,-y,1/2+z
1/2+x,1/2-y,-z
-x,1/2+y,1/2-z
loop_
_atom_site_type_symbol
_atom_site_label
_atom_site_fract_x
_atom_site_fract_y
_atom_site_fract_z
Si Si1 0.594691 0.083839 0.900658
Si Si2 0.745242 0.708285 0.656956
Si Si3 0.436047 0.153429 0.523312
Si Si4 0.551729 0.843769 0.554952
Si Si5 0.910357 0.513961 0.526790
Si Si6 0.064941 0.718294 0.865904
O O1 0.450154 0.140098 0.821637
O O2 0.666010 0.135964 0.003178
O O3 0.876212 0.045242 0.886369
O O4 0.380895 0.022881 0.928928
O O5 0.589216 0.784689 0.647329
O O6 0.973724 0.713709 0.743613
O O7 0.880668 0.691549 0.541550
O O8 0.475824 0.067474 0.507032
O O9 0.459932 0.199349 0.412547
O O10 0.149496 0.170266 0.569546
O O11 0.652191 0.188325 0.602173
O O12 0.435686 0.925578 0.569683
#
# Coordination Sequence:
#
# PCOD9314541 Si02
#       6
#     4   4   4   4   4   4
#     4   9  19  31  57  87 105 154 171 228 291 343
#     4  11  19  36  57  88 122 150 192 235 284 362
#     4  10  21  44  57  83 111 154 205 247 268 338
#     4   9  19  32  57  86 119 145 182 230 299 336
#     4   9  18  35  60  77 116 147 184 232 296 324
#     4  10  24  36  64  81 109 158 202 238 288 321
#
# _framework density 20.762252
#
# number of rings (size 3 to 8) (size 9 to 14) (size 15 to 20)
#    1.000    1.333    1.667    1.000    2.333    0.000 
#    0.000    5.000    0.000    0.000    0.000    0.000 
#    0.000    0.000    0.000    0.000    0.000    0.000 
#
# Total GULP energy -133644.542478 kJ/mol
# GULP energy per Si atom -5568.522603 kJ/mol
# Density = 2.071500 g / cm^3
# Si number density = 20.762252 Si / 1000 Ang^3
#
#
#
# Elastic Constant Matrix: (Units=GPa)
#
#
# Indices 1 2 3 4 5 6 
#
# 1 77.6116 -6.2451 -7.3674 0.0000 0.0000 0.0000
# 2 -6.2451 140.7313 9.0694 0.0000 0.0000 0.0000
# 3 -7.3674 9.0694 14.9191 0.0000 0.0000 0.0000
# 4 0.0000 0.0000 0.0000 6.0685 0.0000 0.0000
# 5 0.0000 0.0000 0.0000 0.0000 23.3874 0.0000
# 6 0.0000 0.0000 0.0000 0.0000 0.0000 23.8612
#
#
#
# Elastic Compliance Matrix: (Units=1/GPa)
#
#
# Indices 1 2 3 4 5 6 
#
# 1 0.013523 0.000177 0.006570 0.000000 0.000000 0.000000
# 2 0.000177 0.007398 -0.004410 0.000000 0.000000 0.000000
# 3 0.006570 -0.004410 0.072954 0.000000 0.000000 0.000000
# 4 0.000000 0.000000 0.000000 0.164784 0.000000 0.000000
# 5 0.000000 0.000000 0.000000 0.000000 0.042758 0.000000
# 6 0.000000 0.000000 0.000000 0.000000 0.000000 0.041909
#
#
# Mechanical properties :
#
#
# Convention : Reuss Voigt Hill
#
# Bulk Modulus (GPa) = 10.14730 24.90843 17.52786
# Shear Modulus (GPa) = 13.45893 26.51710 19.98801
#
# Velocity S-wave (km/s) = 2.54882 3.57764 3.10612
# Velocity P-wave (km/s) = 3.68238 5.39343 4.61785
#
# Compressibility (1/GPa) = 0.09854837
#
# Stress axis : x y z
#
# Youngs Moduli (GPa) = 73.95034 135.17574 13.70731
#
# Poissons Ratio (x) = -0.02388 -0.09006
# Poissons Ratio (y) = -0.01306 0.06045
# Poissons Ratio (z) = -0.48588 0.59612
#
# Static dielectric constant tensor:
#      x y z
#    x 1.773100 0.000000 0.000000 
#    y 0.000000 1.760970 0.000000 
#    z 0.000000 0.000000 1.767710 
# 
# From -- ./inp_files/4464.got.cif
#   From: 2010.05.17/outbox.cif.g08.bks.cpg/sg19_3_cif.got.tgz:4464.got - 2010.06.03 22:46:19.
