data_PCOD9314801
_publ_section_title
;
Structure prediction by ZEFSAII (Michael W. Deem and Ramdas Pophale) SiO2 
 PCOD9314801
Probable space group: P 21 21 21
;
_chemical_formula_sum "Si O2"
_cell_formula_units_Z 20
_cell_length_a 7.521660
_cell_length_b 11.082783
_cell_length_c 8.674845
_cell_angle_alpha 90.000000
_cell_angle_beta 90.000000
_cell_angle_gamma 90.000000
_cell_volume 723.143108
_symmetry_space_group_name_H-M "P 21 21 21"
_symmetry_group_IT_number 19
_symmetry_cell_setting 'orthorhombic'
loop_
_space_group_symop_operation_xyz
x,y,z
1/2-x,-y,1/2+z
1/2+x,1/2-y,-z
-x,1/2+y,1/2-z
loop_
_atom_site_type_symbol
_atom_site_label
_atom_site_fract_x
_atom_site_fract_y
_atom_site_fract_z
Si Si1 0.177087 0.245429 0.159646
Si Si2 0.629177 0.471443 0.023320
Si Si3 0.963728 0.642593 0.017038
Si Si4 0.703893 0.032588 0.662339
Si Si5 0.952114 0.848660 0.765823
O O1 0.067369 0.197005 0.310760
O O2 0.183853 0.388390 0.181768
O O3 0.379531 0.204351 0.180524
O O4 0.126244 0.170523 0.008201
O O5 0.820331 0.534312 0.010318
O O6 0.496211 0.526030 0.897127
O O7 0.535597 0.522779 0.174521
O O8 0.914404 0.750273 0.898294
O O9 0.155372 0.597503 0.953921
O O10 0.778016 0.898175 0.684703
#
# Coordination Sequence:
#
# PCOD9314801 Si02
#       5
#     4   4   4   4   4
#     4  10  22  42  65  91 128 162 215 256 314 369
#     4  11  23  38  66  94 124 165 211 259 309 373
#     4  10  22  44  64  92 120 170 212 264 302 380
#     4  11  23  38  66  94 124 165 211 259 309 373
#     4  10  22  42  65  91 128 162 215 256 314 369
#
# _framework density 27.657041
#
# number of rings (size 3 to 8) (size 9 to 14) (size 15 to 20)
#    0.000    1.600    4.000    0.000    5.600    0.000 
#    0.000    8.000    0.000    0.000    0.000    0.000 
#    0.000    0.000    0.000    0.000    0.000    0.000 
#
# Total GULP energy -111953.268319 kJ/mol
# GULP energy per Si atom -5597.663416 kJ/mol
# Density = 2.759409 g / cm^3
# Si number density = 27.657041 Si / 1000 Ang^3
#
#
#
# Elastic Constant Matrix: (Units=GPa)
#
#
# Indices 1 2 3 4 5 6 
#
# 1 108.3959 28.6361 17.6371 0.0000 0.0000 0.0000
# 2 28.6361 109.3344 31.1918 0.0000 0.0000 0.0000
# 3 17.6371 31.1918 57.5833 0.0000 0.0000 0.0000
# 4 0.0000 0.0000 0.0000 61.3475 0.0000 0.0000
# 5 0.0000 0.0000 0.0000 0.0000 42.4457 0.0000
# 6 0.0000 0.0000 0.0000 0.0000 0.0000 53.5876
#
#
#
# Elastic Compliance Matrix: (Units=1/GPa)
#
#
# Indices 1 2 3 4 5 6 
#
# 1 0.010095 -0.002084 -0.001963 0.000000 0.000000 0.000000
# 2 -0.002084 0.011248 -0.005455 0.000000 0.000000 0.000000
# 3 -0.001963 -0.005455 0.020922 0.000000 0.000000 0.000000
# 4 0.000000 0.000000 0.000000 0.016301 0.000000 0.000000
# 5 0.000000 0.000000 0.000000 0.000000 0.023559 0.000000
# 6 0.000000 0.000000 0.000000 0.000000 0.000000 0.018661
#
#
# Mechanical properties :
#
#
# Convention : Reuss Voigt Hill
#
# Bulk Modulus (GPa) = 42.98862 47.80488 45.39675
# Shear Modulus (GPa) = 39.20193 44.66607 41.93400
#
# Velocity S-wave (km/s) = 3.76896 4.02306 3.89808
# Velocity P-wave (km/s) = 5.87514 6.23718 6.05887
#
# Compressibility (1/GPa) = 0.02326197
#
# Stress axis : x y z
#
# Youngs Moduli (GPa) = 99.05463 88.90285 47.79629
#
# Poissons Ratio (x) = 0.18528 0.09384
# Poissons Ratio (y) = 0.20643 0.26071
# Poissons Ratio (z) = 0.19447 0.48493
#
# Static dielectric constant tensor:
#      x y z
#    x 2.096960 0.000000 0.000000 
#    y 0.000000 2.143700 0.000000 
#    z 0.000000 0.000000 2.391190 
# 
# From -- ./inp_files/2583.got.cif
#   From: 2010.05.17/outbox.cif.g08.bks.cpg/sg19_2_cif.got.tgz:2583.got - 2010.06.03 22:46:19.
