data_PCOD9314300
_publ_section_title
;
Structure prediction by ZEFSAII (Michael W. Deem and Ramdas Pophale) SiO2 
 PCOD9314300
Probable space group: P 21 21 21
;
_chemical_formula_sum "Si O2"
_cell_formula_units_Z 28
_cell_length_a 21.240064
_cell_length_b 10.197586
_cell_length_c 4.972288
_cell_angle_alpha 90.000000
_cell_angle_beta 90.000000
_cell_angle_gamma 90.000000
_cell_volume 1076.984550
_symmetry_space_group_name_H-M "P 21 21 21"
_symmetry_group_IT_number 19
_symmetry_cell_setting 'orthorhombic'
loop_
_space_group_symop_operation_xyz
x,y,z
1/2-x,-y,1/2+z
1/2+x,1/2-y,-z
-x,1/2+y,1/2-z
loop_
_atom_site_type_symbol
_atom_site_label
_atom_site_fract_x
_atom_site_fract_y
_atom_site_fract_z
Si Si1 0.399740 0.548116 0.265042
Si Si2 0.526878 0.542405 0.915166
Si Si3 0.962208 0.165658 0.473448
Si Si4 0.917949 0.676604 0.709629
Si Si5 0.269421 0.170565 0.875869
Si Si6 0.814710 0.614553 0.121701
Si Si7 0.288984 0.463947 0.909176
O O1 0.400881 0.414158 0.435263
O O2 0.397046 0.685996 0.421886
O O3 0.346261 0.540564 0.041720
O O4 0.466704 0.553651 0.112382
O O5 0.545851 0.691388 0.842038
O O6 0.500385 0.444985 0.689746
O O7 0.583839 0.460148 0.049934
O O8 0.007916 0.191026 0.726799
O O9 0.878837 0.664560 0.986299
O O10 0.211524 0.152260 0.086174
O O11 0.301710 0.309246 0.917695
O O12 0.312634 0.043193 0.906200
O O13 0.239050 0.167478 0.581186
O O14 0.231063 0.489884 0.114624
#
# Coordination Sequence:
#
# PCOD9314300 Si02
#       7
#     4   4   4   4   4   4   4
#     4  10  23  41  63  88 130 163 212 269 319 387
#     4  10  22  40  63  93 126 166 214 264 329 387
#     4  10  22  40  61  93 125 161 211 266 320 390
#     4  10  21  39  63  88 119 169 210 256 325 379
#     4  10  22  42  62  95 131 164 219 262 324 377
#     4  10  22  41  67  92 130 168 212 273 315 389
#     4  12  26  43  67  97 131 175 220 266 328 393
#
# _framework density 25.998515999999999
#
# number of rings (size 3 to 8) (size 9 to 14) (size 15 to 20)
#    0.000    1.714    0.000    3.429    6.000    1.143 
#    0.000    0.000    0.000    0.000    0.000    0.000 
#    0.000    0.000    0.000    0.000    0.000    0.000 
#
# Total GULP energy -156685.746036 kJ/mol
# GULP energy per Si atom -5595.919501 kJ/mol
# Density = 2.593934 g / cm^3
# Si number density = 25.998516 Si / 1000 Ang^3
#
#
#
# Elastic Constant Matrix: (Units=GPa)
#
#
# Indices 1 2 3 4 5 6 
#
# 1 70.9785 36.2966 3.3373 0.0000 0.0000 0.0000
# 2 36.2966 219.3648 28.1522 0.0000 0.0000 0.0000
# 3 3.3373 28.1522 62.8343 0.0000 0.0000 0.0000
# 4 0.0000 0.0000 0.0000 30.2414 0.0000 0.0000
# 5 0.0000 0.0000 0.0000 0.0000 28.1910 0.0000
# 6 0.0000 0.0000 0.0000 0.0000 0.0000 34.6282
#
#
#
# Elastic Compliance Matrix: (Units=1/GPa)
#
#
# Indices 1 2 3 4 5 6 
#
# 1 0.015398 -0.002592 0.000343 0.000000 0.000000 0.000000
# 2 -0.002592 0.005273 -0.002225 0.000000 0.000000 0.000000
# 3 0.000343 -0.002225 0.016893 0.000000 0.000000 0.000000
# 4 0.000000 0.000000 0.000000 0.033067 0.000000 0.000000
# 5 0.000000 0.000000 0.000000 0.000000 0.035472 0.000000
# 6 0.000000 0.000000 0.000000 0.000000 0.000000 0.028878
#
#
# Mechanical properties :
#
#
# Convention : Reuss Voigt Hill
#
# Bulk Modulus (GPa) = 34.94312 54.30553 44.62432
# Shear Modulus (GPa) = 32.58005 37.63822 35.10914
#
# Velocity S-wave (km/s) = 3.54383 3.80900 3.67880
# Velocity P-wave (km/s) = 5.49678 6.34649 5.93685
#
# Compressibility (1/GPa) = 0.02861794
#
# Stress axis : x y z
#
# Youngs Moduli (GPa) = 64.94328 189.64535 59.19450
#
# Poissons Ratio (x) = 0.49154 -0.02033
# Poissons Ratio (y) = 0.16832 0.13170
# Poissons Ratio (z) = -0.02230 0.42193
#
# Static dielectric constant tensor:
#      x y z
#    x 2.038130 0.000000 0.000000 
#    y 0.000000 2.080030 0.000000 
#    z 0.000000 0.000000 2.082970 
# 
# From -- ./inp_files/547.got.cif
#   From: 2010.05.17/outbox.cif.g08.bks.cpg/sg19_1_cif.got.tgz:547.got - 2010.06.03 22:46:19.
