data_PCOD9314365
_publ_section_title
;
Structure prediction by ZEFSAII (Michael W. Deem and Ramdas Pophale) SiO2 
 PCOD9314365
Probable space group: P 21 21 21
;
_chemical_formula_sum "Si O2"
_cell_formula_units_Z 24
_cell_length_a 10.637510
_cell_length_b 5.139530
_cell_length_c 21.019791
_cell_angle_alpha 90.000000
_cell_angle_beta 90.000000
_cell_angle_gamma 90.000000
_cell_volume 1149.189847
_symmetry_space_group_name_H-M "P 21 21 21"
_symmetry_group_IT_number 19
_symmetry_cell_setting 'orthorhombic'
loop_
_space_group_symop_operation_xyz
x,y,z
1/2-x,-y,1/2+z
1/2+x,1/2-y,-z
-x,1/2+y,1/2-z
loop_
_atom_site_type_symbol
_atom_site_label
_atom_site_fract_x
_atom_site_fract_y
_atom_site_fract_z
Si Si1 0.135895 0.904441 0.414855
Si Si2 0.350024 0.903399 0.310059
Si Si3 0.536620 0.903146 0.130693
Si Si4 0.750679 0.094555 0.525301
Si Si5 0.229707 0.974316 0.667068
Si Si6 0.350056 0.466244 0.615857
O O1 0.158785 0.626740 0.447382
O O2 0.993657 0.957523 0.396008
O O3 0.224234 0.918326 0.352571
O O4 0.188354 0.127609 0.461426
O O5 0.444183 0.118039 0.339517
O O6 0.406752 0.617919 0.320955
O O7 0.318108 0.970955 0.238092
O O8 0.620959 0.919944 0.067237
O O9 0.608519 0.472352 0.377356
O O10 0.783450 0.045668 0.452674
O O11 0.334042 0.186300 0.648361
O O12 0.281961 0.686634 0.657467
#
# Coordination Sequence:
#
# PCOD9314365 Si02
#       6
#     4   4   4   4   4   4
#     4  10  23  44  61  89 120 167 206 245 317 363
#     4  10  21  41  67  88 128 163 205 254 303 364
#     4  10  21  40  64  92 118 169 206 254 303 352
#     4  10  23  40  63  82 121 164 205 257 299 367
#     4  12  24  39  62 100 124 159 207 254 309 360
#     4  12  26  38  61  93 125 162 201 258 307 368
#
# _framework density 20.884277999999998
#
# number of rings (size 3 to 8) (size 9 to 14) (size 15 to 20)
#    0.000    1.333    0.000    5.000    4.667    1.333 
#    0.000    0.000    0.000    0.000    0.000    0.000 
#    0.000    0.000    0.000    0.000    0.000    0.000 
#
# Total GULP energy -134354.409907 kJ/mol
# GULP energy per Si atom -5598.100413 kJ/mol
# Density = 2.083674 g / cm^3
# Si number density = 20.884278 Si / 1000 Ang^3
#
#
#
# Elastic Constant Matrix: (Units=GPa)
#
#
# Indices 1 2 3 4 5 6 
#
# 1 70.4633 -28.9362 -10.0427 0.0000 0.0000 0.0000
# 2 -28.9362 35.4319 16.2048 0.0000 0.0000 0.0000
# 3 -10.0427 16.2048 57.0944 0.0000 0.0000 0.0000
# 4 0.0000 0.0000 0.0000 22.0964 0.0000 0.0000
# 5 0.0000 0.0000 0.0000 0.0000 7.5605 0.0000
# 6 0.0000 0.0000 0.0000 0.0000 0.0000 20.0306
#
#
#
# Elastic Compliance Matrix: (Units=1/GPa)
#
#
# Indices 1 2 3 4 5 6 
#
# 1 0.021447 0.018145 -0.001378 0.000000 0.000000 0.000000
# 2 0.018145 0.047785 -0.010371 0.000000 0.000000 0.000000
# 3 -0.001378 -0.010371 0.020216 0.000000 0.000000 0.000000
# 4 0.000000 0.000000 0.000000 0.045256 0.000000 0.000000
# 5 0.000000 0.000000 0.000000 0.000000 0.132267 0.000000
# 6 0.000000 0.000000 0.000000 0.000000 0.000000 0.049924
#
#
# Mechanical properties :
#
#
# Convention : Reuss Voigt Hill
#
# Bulk Modulus (GPa) = 9.78082 13.04902 11.41492
# Shear Modulus (GPa) = 14.78497 22.32174 18.55335
#
# Velocity S-wave (km/s) = 2.66361 3.27284 2.98382
# Velocity P-wave (km/s) = 3.76209 4.53253 4.16516
#
# Compressibility (1/GPa) = 0.10224095
#
# Stress axis : x y z
#
# Youngs Moduli (GPa) = 46.62699 20.92715 49.46566
#
# Poissons Ratio (x) = -0.37972 0.06814
# Poissons Ratio (y) = -0.84605 0.51300
# Poissons Ratio (z) = 0.06423 0.21703
#
# Static dielectric constant tensor:
#      x y z
#    x 1.731050 0.000000 0.000000 
#    y 0.000000 1.719240 0.000000 
#    z 0.000000 0.000000 1.722920 
# 
# From -- ./inp_files/7107.got.cif
#   From: 2010.05.17/outbox.cif.g08.bks.cpg/sg19_4_cif.got.tgz:7107.got - 2010.06.03 22:46:19.
