data_PCOD9314085
_publ_section_title
;
Structure prediction by ZEFSAII (Michael W. Deem and Ramdas Pophale) SiO2 
 PCOD9314085
Probable space group: P 21 21 21
;
_chemical_formula_sum "Si O2"
_cell_formula_units_Z 20
_cell_length_a 6.786492
_cell_length_b 11.856746
_cell_length_c 10.263399
_cell_angle_alpha 90.000000
_cell_angle_beta 90.000000
_cell_angle_gamma 90.000000
_cell_volume 825.851707
_symmetry_space_group_name_H-M "P 21 21 21"
_symmetry_group_IT_number 19
_symmetry_cell_setting 'orthorhombic'
loop_
_space_group_symop_operation_xyz
x,y,z
1/2-x,-y,1/2+z
1/2+x,1/2-y,-z
-x,1/2+y,1/2-z
loop_
_atom_site_type_symbol
_atom_site_label
_atom_site_fract_x
_atom_site_fract_y
_atom_site_fract_z
Si Si1 0.708208 0.129587 0.262455
Si Si2 0.133449 0.087719 0.572506
Si Si3 0.391658 0.312298 0.223382
Si Si4 0.506938 0.206582 0.607452
Si Si5 0.714522 0.043977 0.986859
O O1 0.506050 0.193899 0.226504
O O2 0.871798 0.223824 0.291669
O O3 0.703592 0.055353 0.393687
O O4 0.772955 0.058715 0.136809
O O5 0.367348 0.101666 0.569089
O O6 0.049618 0.096723 0.719733
O O7 0.057186 0.205562 0.507632
O O8 0.019353 0.988476 0.497333
O O9 0.293226 0.345919 0.087320
O O10 0.211566 0.316704 0.323917
#
# Coordination Sequence:
#
# PCOD9314085 Si02
#       5
#     4   4   4   4   4
#     4  10  25  45  70 103 147 187 245 310 368 450
#     4  10  20  41  66  98 137 188 244 293 354 455
#     4  11  23  43  70 101 148 187 243 313 364 434
#     4  10  21  41  68  99 137 191 236 298 372 426
#     4  11  23  46  70 107 145 189 250 302 372 449
#
# _framework density 24.217424000000001
#
# number of rings (size 3 to 8) (size 9 to 14) (size 15 to 20)
#    0.000    1.600    4.000    0.000    2.800    0.000 
#    7.200    6.000    0.000    0.000    0.000    0.000 
#    0.000    0.000    0.000    0.000    0.000    0.000 
#
# Total GULP energy -111670.586122 kJ/mol
# GULP energy per Si atom -5583.529306 kJ/mol
# Density = 2.416230 g / cm^3
# Si number density = 24.217424 Si / 1000 Ang^3
#
#
#
# Elastic Constant Matrix: (Units=GPa)
#
#
# Indices 1 2 3 4 5 6 
#
# 1 150.0192 47.5996 48.7050 0.0000 0.0000 0.0000
# 2 47.5996 83.0678 44.1017 0.0000 0.0000 0.0000
# 3 48.7050 44.1017 127.1687 0.0000 0.0000 0.0000
# 4 0.0000 0.0000 0.0000 46.5209 0.0000 0.0000
# 5 0.0000 0.0000 0.0000 0.0000 25.7336 0.0000
# 6 0.0000 0.0000 0.0000 0.0000 0.0000 42.2308
#
#
#
# Elastic Compliance Matrix: (Units=1/GPa)
#
#
# Indices 1 2 3 4 5 6 
#
# 1 0.008514 -0.003858 -0.001923 0.000000 0.000000 0.000000
# 2 -0.003858 0.016503 -0.004246 0.000000 0.000000 0.000000
# 3 -0.001923 -0.004246 0.010072 0.000000 0.000000 0.000000
# 4 0.000000 0.000000 0.000000 0.021496 0.000000 0.000000
# 5 0.000000 0.000000 0.000000 0.000000 0.038860 0.000000
# 6 0.000000 0.000000 0.000000 0.000000 0.000000 0.023679
#
#
# Mechanical properties :
#
#
# Convention : Reuss Voigt Hill
#
# Bulk Modulus (GPa) = 66.50418 71.22980 68.86699
# Shear Modulus (GPa) = 34.67651 37.55369 36.11510
#
# Velocity S-wave (km/s) = 3.78813 3.94215 3.86591
# Velocity P-wave (km/s) = 6.83038 7.08500 6.95886
#
# Compressibility (1/GPa) = 0.01503665
#
# Stress axis : x y z
#
# Youngs Moduli (GPa) = 117.45089 60.59477 99.28064
#
# Poissons Ratio (x) = 0.23377 0.19092
# Poissons Ratio (y) = 0.45311 0.42151
# Poissons Ratio (z) = 0.22586 0.25727
#
# Static dielectric constant tensor:
#      x y z
#    x 1.906770 0.000000 0.000000 
#    y 0.000000 2.044800 0.000000 
#    z 0.000000 0.000000 1.963840 
# 
# From -- ./inp_files/4420.got.cif
#   From: 2010.05.17/outbox.cif.g08.bks.cpg/sg19_3_cif.got.tgz:4420.got - 2010.06.03 22:46:19.
