data_PCOD9314588
_publ_section_title
;
Structure prediction by ZEFSAII (Michael W. Deem and Ramdas Pophale) SiO2 
 PCOD9314588
Probable space group: P 21 21 21
;
_chemical_formula_sum "Si O2"
_cell_formula_units_Z 28
_cell_length_a 10.086209
_cell_length_b 6.686063
_cell_length_c 21.724351
_cell_angle_alpha 90.000000
_cell_angle_beta 90.000000
_cell_angle_gamma 90.000000
_cell_volume 1465.025684
_symmetry_space_group_name_H-M "P 21 21 21"
_symmetry_group_IT_number 19
_symmetry_cell_setting 'orthorhombic'
loop_
_space_group_symop_operation_xyz
x,y,z
1/2-x,-y,1/2+z
1/2+x,1/2-y,-z
-x,1/2+y,1/2-z
loop_
_atom_site_type_symbol
_atom_site_label
_atom_site_fract_x
_atom_site_fract_y
_atom_site_fract_z
Si Si1 0.651669 0.759417 0.903135
Si Si2 0.761951 0.412968 0.983240
Si Si3 0.880564 0.495275 0.676368
Si Si4 0.623323 0.314011 0.305351
Si Si5 0.689935 0.004682 0.026686
Si Si6 0.981731 0.355514 0.893009
Si Si7 0.650929 0.303542 0.593885
O O1 0.673862 0.546625 0.937604
O O2 0.756911 0.770742 0.847629
O O3 0.500107 0.795986 0.883878
O O4 0.681571 0.908474 0.959764
O O5 0.868936 0.300015 0.941411
O O6 0.831068 0.551657 0.034501
O O7 0.685981 0.240593 0.018090
O O8 0.837771 0.622019 0.736499
O O9 0.757993 0.380397 0.643854
O O10 0.999071 0.339584 0.693076
O O11 0.941807 0.663233 0.631385
O O12 0.580370 0.522884 0.336660
O O13 0.809826 0.912380 0.065594
O O14 0.564415 0.971960 0.070821
#
# Coordination Sequence:
#
# PCOD9314588 Si02
#       7
#     4   4   4   4   4   4   4
#     4  10  24  41  60  96 135 164 204 267 327 378
#     4  10  22  36  62  93 131 166 200 251 324 389
#     4  12  23  42  68  89 120 170 226 266 307 382
#     4  11  24  44  65  90 124 172 222 263 310 381
#     4  11  21  36  63  95 129 163 200 256 322 382
#     4  11  21  38  64  93 120 165 214 258 312 378
#     4  11  23  37  62  96 131 160 206 265 320 378
#
# _framework density 19.112292
#
# number of rings (size 3 to 8) (size 9 to 14) (size 15 to 20)
#    0.000    1.143    5.714    0.857    2.000    0.000 
#    0.000    2.857    0.000    0.000    0.000    0.000 
#    0.000    0.000    0.000    0.000    0.000    0.000 
#
# Total GULP energy -156101.442171 kJ/mol
# GULP energy per Si atom -5575.051506 kJ/mol
# Density = 1.906879 g / cm^3
# Si number density = 19.112292 Si / 1000 Ang^3
#
#
#
# Elastic Constant Matrix: (Units=GPa)
#
#
# Indices 1 2 3 4 5 6 
#
# 1 122.2110 24.1822 53.1730 0.0000 0.0000 0.0000
# 2 24.1822 54.9509 25.2229 0.0000 0.0000 0.0000
# 3 53.1730 25.2229 114.5378 0.0000 0.0000 0.0000
# 4 0.0000 0.0000 0.0000 27.1912 0.0000 0.0000
# 5 0.0000 0.0000 0.0000 0.0000 26.2503 0.0000
# 6 0.0000 0.0000 0.0000 0.0000 0.0000 17.7841
#
#
#
# Elastic Compliance Matrix: (Units=1/GPa)
#
#
# Indices 1 2 3 4 5 6 
#
# 1 0.010596 -0.002675 -0.004330 0.000000 0.000000 0.000000
# 2 -0.002675 0.020920 -0.003365 0.000000 0.000000 0.000000
# 3 -0.004330 -0.003365 0.011482 0.000000 0.000000 0.000000
# 4 0.000000 0.000000 0.000000 0.036777 0.000000 0.000000
# 5 0.000000 0.000000 0.000000 0.000000 0.038095 0.000000
# 6 0.000000 0.000000 0.000000 0.000000 0.000000 0.056230
#
#
# Mechanical properties :
#
#
# Convention : Reuss Voigt Hill
#
# Bulk Modulus (GPa) = 44.92900 55.20622 50.06761
# Shear Modulus (GPa) = 24.72086 26.85323 25.78704
#
# Velocity S-wave (km/s) = 3.60036 3.75243 3.67718
# Velocity P-wave (km/s) = 6.39081 6.90813 6.65450
#
# Compressibility (1/GPa) = 0.02225734
#
# Stress axis : x y z
#
# Youngs Moduli (GPa) = 94.37658 47.80124 87.09436
#
# Poissons Ratio (x) = 0.12789 0.37710
# Poissons Ratio (y) = 0.25250 0.29306
# Poissons Ratio (z) = 0.40863 0.16084
#
# Static dielectric constant tensor:
#      x y z
#    x 1.713450 0.000000 0.000000 
#    y 0.000000 1.692230 0.000000 
#    z 0.000000 0.000000 1.663190 
# 
# From -- ./inp_files/7117.got.cif
#   From: 2010.05.17/outbox.cif.g08.bks.cpg/sg19_4_cif.got.tgz:7117.got - 2010.06.03 22:46:19.
