data_PCOD9314567
_publ_section_title
;
Structure prediction by ZEFSAII (Michael W. Deem and Ramdas Pophale) SiO2 
 PCOD9314567
Probable space group: P 21 21 21
;
_chemical_formula_sum "Si O2"
_cell_formula_units_Z 28
_cell_length_a 17.001264
_cell_length_b 11.659215
_cell_length_c 5.587297
_cell_angle_alpha 90.000000
_cell_angle_beta 90.000000
_cell_angle_gamma 90.000000
_cell_volume 1107.521790
_symmetry_space_group_name_H-M "P 21 21 21"
_symmetry_group_IT_number 19
_symmetry_cell_setting 'orthorhombic'
loop_
_space_group_symop_operation_xyz
x,y,z
1/2-x,-y,1/2+z
1/2+x,1/2-y,-z
-x,1/2+y,1/2-z
loop_
_atom_site_type_symbol
_atom_site_label
_atom_site_fract_x
_atom_site_fract_y
_atom_site_fract_z
Si Si1 0.628732 0.558861 0.386065
Si Si2 0.944948 0.085031 0.015050
Si Si3 0.418792 0.853298 0.828908
Si Si4 0.755668 0.708672 0.196907
Si Si5 0.975861 0.285299 0.650717
Si Si6 0.338128 0.246250 0.709130
Si Si7 0.789545 0.040766 0.842263
O O1 0.619680 0.430179 0.464610
O O2 0.706105 0.591270 0.234434
O O3 0.543460 0.593902 0.273756
O O4 0.643316 0.641803 0.614187
O O5 0.878462 0.140083 0.188974
O O6 0.019785 0.064935 0.187186
O O7 0.979170 0.186665 0.849171
O O8 0.883110 0.008994 0.863473
O O9 0.342011 0.809674 0.695649
O O10 0.462075 0.744254 0.946709
O O11 0.721919 0.820412 0.332863
O O12 0.747142 0.742624 0.914538
O O13 0.892521 0.269576 0.522833
O O14 0.756231 0.001988 0.581255
#
# Coordination Sequence:
#
# PCOD9314567 Si02
#       7
#     4   4   4   4   4   4   4
#     4  10  22  43  73  96 148 198 236 304 405 434
#     4  10  21  46  67  98 148 183 239 320 372 436
#     4  11  26  42  70 112 142 190 261 300 388 470
#     4  11  24  45  69 107 147 189 251 322 367 481
#     4   9  20  44  69  91 141 186 232 308 375 441
#     4   9  17  40  72  87 138 192 228 297 389 422
#     4  12  26  48  80 109 144 210 261 315 388 456
#
# _framework density 25.281669999999998
#
# number of rings (size 3 to 8) (size 9 to 14) (size 15 to 20)
#    0.000    1.714    4.286    0.857    4.000    3.429 
#   10.286    0.000    0.000    0.000    0.000    0.000 
#    0.000    0.000    0.000    0.000    0.000    0.000 
#
# Total GULP energy -155964.734563 kJ/mol
# GULP energy per Si atom -5570.169092 kJ/mol
# Density = 2.522413 g / cm^3
# Si number density = 25.281670 Si / 1000 Ang^3
#
#
#
# Elastic Constant Matrix: (Units=GPa)
#
#
# Indices 1 2 3 4 5 6 
#
# 1 151.2213 17.7954 27.2255 0.0000 0.0000 0.0000
# 2 17.7954 36.1089 -7.3744 0.0000 0.0000 0.0000
# 3 27.2255 -7.3744 62.6334 0.0000 0.0000 0.0000
# 4 0.0000 0.0000 0.0000 25.1115 0.0000 0.0000
# 5 0.0000 0.0000 0.0000 0.0000 35.3668 0.0000
# 6 0.0000 0.0000 0.0000 0.0000 0.0000 30.2727
#
#
#
# Elastic Compliance Matrix: (Units=1/GPa)
#
#
# Indices 1 2 3 4 5 6 
#
# 1 0.007882 -0.004697 -0.003979 0.000000 0.000000 0.000000
# 2 -0.004697 0.031175 0.005712 0.000000 0.000000 0.000000
# 3 -0.003979 0.005712 0.018368 0.000000 0.000000 0.000000
# 4 0.000000 0.000000 0.000000 0.039822 0.000000 0.000000
# 5 0.000000 0.000000 0.000000 0.000000 0.028275 0.000000
# 6 0.000000 0.000000 0.000000 0.000000 0.000000 0.033033
#
#
# Mechanical properties :
#
#
# Convention : Reuss Voigt Hill
#
# Bulk Modulus (GPa) = 19.41836 36.13962 27.77899
# Shear Modulus (GPa) = 27.52548 32.30467 29.91507
#
# Velocity S-wave (km/s) = 3.30320 3.57850 3.44360
# Velocity P-wave (km/s) = 4.71653 5.60357 5.17908
#
# Compressibility (1/GPa) = 0.05149767
#
# Stress axis : x y z
#
# Youngs Moduli (GPa) = 126.87187 32.07655 54.44202
#
# Poissons Ratio (x) = 0.15067 0.21663
# Poissons Ratio (y) = 0.59593 -0.31099
# Poissons Ratio (z) = 0.50485 -0.18323
#
# Static dielectric constant tensor:
#      x y z
#    x 2.089470 0.000000 0.000000 
#    y 0.000000 2.097350 0.000000 
#    z 0.000000 0.000000 2.150530 
# 
# From -- ./inp_files/1746.got.cif
#   From: 2010.05.17/outbox.cif.g08.bks.cpg/sg19_1_cif.got.tgz:1746.got - 2010.06.03 22:46:19.
