data_PCOD9314516
_publ_section_title
;
Structure prediction by ZEFSAII (Michael W. Deem and Ramdas Pophale) SiO2 
 PCOD9314516
Probable space group: P 21 21 21
;
_chemical_formula_sum "Si O2"
_cell_formula_units_Z 32
_cell_length_a 12.503165
_cell_length_b 10.706854
_cell_length_c 11.385362
_cell_angle_alpha 90.000000
_cell_angle_beta 90.000000
_cell_angle_gamma 90.000000
_cell_volume 1524.153426
_symmetry_space_group_name_H-M "P 21 21 21"
_symmetry_group_IT_number 19
_symmetry_cell_setting 'orthorhombic'
loop_
_space_group_symop_operation_xyz
x,y,z
1/2-x,-y,1/2+z
1/2+x,1/2-y,-z
-x,1/2+y,1/2-z
loop_
_atom_site_type_symbol
_atom_site_label
_atom_site_fract_x
_atom_site_fract_y
_atom_site_fract_z
Si Si1 0.071017 0.341083 0.037686
Si Si2 0.470196 0.580505 0.088297
Si Si3 0.430410 0.318382 0.824048
Si Si4 0.857969 0.659108 0.957520
Si Si5 0.931648 0.399612 0.837703
Si Si6 0.626979 0.616898 0.873095
Si Si7 0.066568 0.031747 0.320622
Si Si8 0.816739 0.157217 0.941022
O O1 0.191347 0.370856 0.071667
O O2 0.035789 0.211759 0.097025
O O3 0.976046 0.424661 0.093604
O O4 0.043697 0.356293 0.900768
O O5 0.405731 0.710920 0.086442
O O6 0.547825 0.585975 0.200246
O O7 0.391695 0.460178 0.094071
O O8 0.539389 0.579416 0.968921
O O9 0.412427 0.224351 0.716013
O O10 0.460543 0.442267 0.755266
O O11 0.337344 0.322022 0.919177
O O12 0.899079 0.536395 0.886858
O O13 0.731419 0.659197 0.941426
O O14 0.891573 0.638137 0.093335
O O15 0.852902 0.285249 0.875470
O O16 0.651951 0.510059 0.776124
#
# Coordination Sequence:
#
# PCOD9314516 Si02
#       8
#     4   4   4   4   4   4   4   4
#     4   9  23  40  66  92 130 174 218 272 329 394
#     4  12  25  44  65 104 136 169 229 280 326 395
#     4  10  21  43  65  95 135 168 223 277 321 398
#     4  11  26  42  71  99 131 181 223 272 343 391
#     4  10  25  46  61 101 141 172 218 285 325 399
#     4  11  25  42  69  98 134 178 221 278 336 397
#     4  10  21  45  63  96 137 167 223 280 321 393
#     4  11  24  42  72  99 128 187 223 260 351 397
#
# _framework density 20.995260999999999
#
# number of rings (size 3 to 8) (size 9 to 14) (size 15 to 20)
#    0.000    1.500    2.500    1.500    7.000    0.000 
#    0.000    0.000    0.000    0.000    0.000    0.000 
#    0.000    0.000    0.000    0.000    0.000    0.000 
#
# Total GULP energy -178288.552086 kJ/mol
# GULP energy per Si atom -5571.517253 kJ/mol
# Density = 2.094748 g / cm^3
# Si number density = 20.995261 Si / 1000 Ang^3
#
#
#
# Elastic Constant Matrix: (Units=GPa)
#
#
# Indices 1 2 3 4 5 6 
#
# 1 80.7405 10.1543 27.4443 0.0000 0.0000 0.0000
# 2 10.1543 92.9404 32.2475 0.0000 0.0000 0.0000
# 3 27.4443 32.2475 70.9676 0.0000 0.0000 0.0000
# 4 0.0000 0.0000 0.0000 22.5620 0.0000 0.0000
# 5 0.0000 0.0000 0.0000 0.0000 14.4286 0.0000
# 6 0.0000 0.0000 0.0000 0.0000 0.0000 6.4153
#
#
#
# Elastic Compliance Matrix: (Units=1/GPa)
#
#
# Indices 1 2 3 4 5 6 
#
# 1 0.014274 0.000422 -0.005712 0.000000 0.000000 0.000000
# 2 0.000422 0.012786 -0.005973 0.000000 0.000000 0.000000
# 3 -0.005712 -0.005973 0.019014 0.000000 0.000000 0.000000
# 4 0.000000 0.000000 0.000000 0.044322 0.000000 0.000000
# 5 0.000000 0.000000 0.000000 0.000000 0.069307 0.000000
# 6 0.000000 0.000000 0.000000 0.000000 0.000000 0.155878
#
#
# Mechanical properties :
#
#
# Convention : Reuss Voigt Hill
#
# Bulk Modulus (GPa) = 42.46588 42.70452 42.58520
# Shear Modulus (GPa) = 14.45271 20.33466 17.39369
#
# Velocity S-wave (km/s) = 2.62655 3.11551 2.88142
# Velocity P-wave (km/s) = 5.42850 5.77287 5.60333
#
# Compressibility (1/GPa) = 0.02354832
#
# Stress axis : x y z
#
# Youngs Moduli (GPa) = 70.05877 78.21073 52.59281
#
# Poissons Ratio (x) = -0.03303 0.30040
# Poissons Ratio (y) = -0.02959 0.31415
# Poissons Ratio (z) = 0.40016 0.46717
#
# Static dielectric constant tensor:
#      x y z
#    x 1.725360 0.000000 0.000000 
#    y 0.000000 1.911620 0.000000 
#    z 0.000000 0.000000 1.788830 
# 
# From -- ./inp_files/5067.got.cif
#   From: 2010.05.17/outbox.cif.g08.bks.cpg/sg19_3_cif.got.tgz:5067.got - 2010.06.03 22:46:19.
