data_PCOD9314959
_publ_section_title
;
Structure prediction by ZEFSAII (Michael W. Deem and Ramdas Pophale) SiO2 
 PCOD9314959
Probable space group: P 21 21 21
;
_chemical_formula_sum "Si O2"
_cell_formula_units_Z 24
_cell_length_a 7.913416
_cell_length_b 16.653085
_cell_length_c 7.715093
_cell_angle_alpha 90.000000
_cell_angle_beta 90.000000
_cell_angle_gamma 90.000000
_cell_volume 1016.716475
_symmetry_space_group_name_H-M "P 21 21 21"
_symmetry_group_IT_number 19
_symmetry_cell_setting 'orthorhombic'
loop_
_space_group_symop_operation_xyz
x,y,z
1/2-x,-y,1/2+z
1/2+x,1/2-y,-z
-x,1/2+y,1/2-z
loop_
_atom_site_type_symbol
_atom_site_label
_atom_site_fract_x
_atom_site_fract_y
_atom_site_fract_z
Si Si1 0.261646 0.522918 0.677803
Si Si2 0.598125 0.573304 0.878857
Si Si3 0.380202 0.662175 0.447676
Si Si4 0.431786 0.731577 0.799903
Si Si5 0.912074 0.464867 0.777765
Si Si6 0.699105 0.838967 0.907404
O O1 0.426566 0.537491 0.795390
O O2 0.261384 0.594669 0.538270
O O3 0.283833 0.434360 0.600313
O O4 0.081318 0.518888 0.771406
O O5 0.582160 0.665954 0.825097
O O6 0.753709 0.519917 0.817920
O O7 0.600783 0.570374 0.085540
O O8 0.396563 0.729469 0.594933
O O9 0.548981 0.609508 0.406774
O O10 0.305475 0.688024 0.263816
O O11 0.507133 0.812852 0.874792
O O12 0.279291 0.698799 0.919144
#
# Coordination Sequence:
#
# PCOD9314959 Si02
#       6
#     4   4   4   4   4   4
#     4  10  22  45  72  99 134 184 235 290 346 399
#     4  11  22  41  68 102 138 177 232 289 341 411
#     4  10  23  45  71  98 141 176 235 285 338 416
#     4  11  25  46  66 103 139 181 228 273 358 419
#     4  11  21  39  69 102 136 174 233 289 334 406
#     4  11  25  46  68  98 144 180 225 290 341 419
#
# _framework density 23.605402999999999
#
# number of rings (size 3 to 8) (size 9 to 14) (size 15 to 20)
#    0.000    1.333    3.333    4.000    4.667    4.000 
#    9.000    0.000    0.000    0.000    0.000    0.000 
#    0.000    0.000    0.000    0.000    0.000    0.000 
#
# Total GULP energy -134207.589332 kJ/mol
# GULP energy per Si atom -5591.982889 kJ/mol
# Density = 2.355168 g / cm^3
# Si number density = 23.605403 Si / 1000 Ang^3
#
#
#
# Elastic Constant Matrix: (Units=GPa)
#
#
# Indices 1 2 3 4 5 6 
#
# 1 77.2032 18.7735 6.9246 0.0000 0.0000 0.0000
# 2 18.7735 25.1065 -11.1067 0.0000 0.0000 0.0000
# 3 6.9246 -11.1067 114.2604 0.0000 0.0000 0.0000
# 4 0.0000 0.0000 0.0000 17.6647 0.0000 0.0000
# 5 0.0000 0.0000 0.0000 0.0000 38.2493 0.0000
# 6 0.0000 0.0000 0.0000 0.0000 0.0000 38.8139
#
#
#
# Elastic Compliance Matrix: (Units=1/GPa)
#
#
# Indices 1 2 3 4 5 6 
#
# 1 0.016382 -0.013259 -0.002282 0.000000 0.000000 0.000000
# 2 -0.013259 0.052351 0.005892 0.000000 0.000000 0.000000
# 3 -0.002282 0.005892 0.009463 0.000000 0.000000 0.000000
# 4 0.000000 0.000000 0.000000 0.056610 0.000000 0.000000
# 5 0.000000 0.000000 0.000000 0.000000 0.026144 0.000000
# 6 0.000000 0.000000 0.000000 0.000000 0.000000 0.025764
#
#
# Mechanical properties :
#
#
# Convention : Reuss Voigt Hill
#
# Bulk Modulus (GPa) = 16.97799 27.30589 22.14194
# Shear Modulus (GPa) = 22.15885 32.41082 27.28484
#
# Velocity S-wave (km/s) = 3.06718 3.70946 3.40350
# Velocity P-wave (km/s) = 4.44426 5.47170 4.98452
#
# Compressibility (1/GPa) = 0.05889977
#
# Stress axis : x y z
#
# Youngs Moduli (GPa) = 61.04411 19.10175 105.67499
#
# Poissons Ratio (x) = 0.25327 0.24111
# Poissons Ratio (y) = 0.80937 -0.62267
# Poissons Ratio (z) = 0.13928 -0.11255
#
# Static dielectric constant tensor:
#      x y z
#    x 1.932850 0.000000 0.000000 
#    y 0.000000 1.913320 0.000000 
#    z 0.000000 0.000000 1.966830 
# 
# From -- ./inp_files/2906.got.cif
#   From: 2010.05.17/outbox.cif.g08.bks.cpg/sg19_2_cif.got.tgz:2906.got - 2010.06.03 22:46:19.
