data_PCOD9314225
_publ_section_title
;
Structure prediction by ZEFSAII (Michael W. Deem and Ramdas Pophale) SiO2 
 PCOD9314225
Probable space group: P 21 21 21
;
_chemical_formula_sum "Si O2"
_cell_formula_units_Z 24
_cell_length_a 9.562661
_cell_length_b 16.206068
_cell_length_c 5.466016
_cell_angle_alpha 90.000000
_cell_angle_beta 90.000000
_cell_angle_gamma 90.000000
_cell_volume 847.085632
_symmetry_space_group_name_H-M "P 21 21 21"
_symmetry_group_IT_number 19
_symmetry_cell_setting 'orthorhombic'
loop_
_space_group_symop_operation_xyz
x,y,z
1/2-x,-y,1/2+z
1/2+x,1/2-y,-z
-x,1/2+y,1/2-z
loop_
_atom_site_type_symbol
_atom_site_label
_atom_site_fract_x
_atom_site_fract_y
_atom_site_fract_z
Si Si1 0.930812 0.518042 0.772249
Si Si2 0.511273 0.506255 0.761573
Si Si3 0.128518 0.156258 0.065281
Si Si4 0.229846 0.592196 0.894087
Si Si5 0.846454 0.795673 0.747049
Si Si6 0.352123 0.226439 0.404543
O O1 0.891707 0.477225 0.028089
O O2 0.867004 0.604667 0.688513
O O3 0.924218 0.467040 0.522365
O O4 0.519978 0.405219 0.793314
O O5 0.407637 0.460885 0.342542
O O6 0.361561 0.550338 0.762479
O O7 0.263162 0.165018 0.236765
O O8 0.094743 0.251228 0.995305
O O9 0.283358 0.616086 0.170412
O O10 0.182264 0.681830 0.793979
O O11 0.983754 0.787315 0.916088
O O12 0.717778 0.738118 0.831198
#
# Coordination Sequence:
#
# PCOD9314225 Si02
#       6
#     4   4   4   4   4   4
#     4  10  21  38  66  96 135 168 225 279 342 394
#     4  10  22  39  68 100 133 179 221 291 334 405
#     4  10  21  37  65  91 137 178 218 273 350 394
#     4  10  22  39  66 101 135 174 236 278 341 403
#     4  10  22  40  65  95 139 178 231 279 336 407
#     4  10  22  39  64  97 135 181 225 286 331 409
#
# _framework density 28.332438
#
# number of rings (size 3 to 8) (size 9 to 14) (size 15 to 20)
#    2.000    0.000    1.667    2.000    0.000    5.333 
#    0.000    0.000    3.667    0.000    0.000    0.000 
#    0.000    0.000    0.000    0.000    0.000    0.000 
#
# Total GULP energy -133694.485456 kJ/mol
# GULP energy per Si atom -5570.603561 kJ/mol
# Density = 2.826795 g / cm^3
# Si number density = 28.332438 Si / 1000 Ang^3
#
#
#
# Elastic Constant Matrix: (Units=GPa)
#
#
# Indices 1 2 3 4 5 6 
#
# 1 142.2070 48.6378 2.8725 0.0000 0.0000 0.0000
# 2 48.6378 105.0086 33.4322 0.0000 0.0000 0.0000
# 3 2.8725 33.4322 139.3382 0.0000 0.0000 0.0000
# 4 0.0000 0.0000 0.0000 48.5445 0.0000 0.0000
# 5 0.0000 0.0000 0.0000 0.0000 29.2469 0.0000
# 6 0.0000 0.0000 0.0000 0.0000 0.0000 49.9785
#
#
#
# Elastic Compliance Matrix: (Units=1/GPa)
#
#
# Indices 1 2 3 4 5 6 
#
# 1 0.008443 -0.004174 0.000827 0.000000 0.000000 0.000000
# 2 -0.004174 0.012374 -0.002883 0.000000 0.000000 0.000000
# 3 0.000827 -0.002883 0.007851 0.000000 0.000000 0.000000
# 4 0.000000 0.000000 0.000000 0.020600 0.000000 0.000000
# 5 0.000000 0.000000 0.000000 0.000000 0.034192 0.000000
# 6 0.000000 0.000000 0.000000 0.000000 0.000000 0.020009
#
#
# Mechanical properties :
#
#
# Convention : Reuss Voigt Hill
#
# Bulk Modulus (GPa) = 61.69226 61.82652 61.75939
# Shear Modulus (GPa) = 41.20968 45.66139 43.43553
#
# Velocity S-wave (km/s) = 3.81794 4.01887 3.91969
# Velocity P-wave (km/s) = 6.42318 6.58819 6.50621
#
# Compressibility (1/GPa) = 0.01620949
#
# Stress axis : x y z
#
# Youngs Moduli (GPa) = 118.44288 80.81322 127.36497
#
# Poissons Ratio (x) = 0.33732 -0.10539
# Poissons Ratio (y) = 0.49438 0.36719
# Poissons Ratio (z) = -0.09800 0.23298
#
# Static dielectric constant tensor:
#      x y z
#    x 2.100830 0.000000 0.000000 
#    y 0.000000 2.194550 0.000000 
#    z 0.000000 0.000000 2.461710 
# 
# From -- ./inp_files/984.got.cif
#   From: 2010.05.17/outbox.cif.g08.bks.cpg/sg19_1_cif.got.tgz:984.got - 2010.06.03 22:46:19.
