data_PCOD9314850
_publ_section_title
;
Structure prediction by ZEFSAII (Michael W. Deem and Ramdas Pophale) SiO2 
 PCOD9314850
Probable space group: P 21 21 21
;
_chemical_formula_sum "Si O2"
_cell_formula_units_Z 28
_cell_length_a 26.831164
_cell_length_b 8.158295
_cell_length_c 5.316485
_cell_angle_alpha 90.000000
_cell_angle_beta 90.000000
_cell_angle_gamma 90.000000
_cell_volume 1163.760231
_symmetry_space_group_name_H-M "P 21 21 21"
_symmetry_group_IT_number 19
_symmetry_cell_setting 'orthorhombic'
loop_
_space_group_symop_operation_xyz
x,y,z
1/2-x,-y,1/2+z
1/2+x,1/2-y,-z
-x,1/2+y,1/2-z
loop_
_atom_site_type_symbol
_atom_site_label
_atom_site_fract_x
_atom_site_fract_y
_atom_site_fract_z
Si Si1 0.624907 0.939593 0.842556
Si Si2 0.936604 0.739315 0.346126
Si Si3 0.761134 0.602844 0.210380
Si Si4 0.133281 0.042331 0.457133
Si Si5 0.972388 0.214524 0.454095
Si Si6 0.040867 0.025548 0.752624
Si Si7 0.827394 0.188637 0.863137
O O1 0.575295 0.830117 0.788624
O O2 0.648593 0.873853 0.102828
O O3 0.661004 0.928314 0.600723
O O4 0.603026 0.119861 0.890557
O O5 0.904500 0.576675 0.270080
O O6 0.973903 0.659345 0.543077
O O7 0.976307 0.798093 0.138367
O O8 0.764022 0.489314 0.465770
O O9 0.816332 0.636854 0.107935
O O10 0.729168 0.759814 0.293613
O O11 0.095231 0.095160 0.673641
O O12 0.150862 0.861984 0.533092
O O13 0.952707 0.342279 0.658567
O O14 0.996253 0.044561 0.554512
#
# Coordination Sequence:
#
# PCOD9314850 Si02
#       7
#     4   4   4   4   4   4   4
#     4  12  26  43  67  99 143 180 230 289 350 433
#     4  11  26  40  65  99 141 194 234 289 360 427
#     4  10  22  42  73 105 134 172 235 300 351 421
#     4  10  23  42  70  99 133 179 238 294 351 425
#     4  11  24  40  67  96 143 187 242 293 351 432
#     4  11  23  41  65  99 137 191 239 292 356 422
#     4  11  24  44  69 103 131 179 232 293 359 412
#
# _framework density 24.059937999999999
#
# number of rings (size 3 to 8) (size 9 to 14) (size 15 to 20)
#    0.000    1.143    1.429    4.286   12.000    2.286 
#    0.000    1.429    0.000    0.000    0.000    0.000 
#    0.000    0.000    0.000    0.000    0.000    0.000 
#
# Total GULP energy -156013.531510 kJ/mol
# GULP energy per Si atom -5571.911840 kJ/mol
# Density = 2.400518 g / cm^3
# Si number density = 24.059938 Si / 1000 Ang^3
#
#
#
# Elastic Constant Matrix: (Units=GPa)
#
#
# Indices 1 2 3 4 5 6 
#
# 1 88.7245 -4.9860 26.1124 0.0000 0.0000 0.0000
# 2 -4.9860 42.6636 9.0245 0.0000 0.0000 0.0000
# 3 26.1124 9.0245 79.1933 0.0000 0.0000 0.0000
# 4 0.0000 0.0000 0.0000 13.3127 0.0000 0.0000
# 5 0.0000 0.0000 0.0000 0.0000 37.9625 0.0000
# 6 0.0000 0.0000 0.0000 0.0000 0.0000 33.7128
#
#
#
# Elastic Compliance Matrix: (Units=1/GPa)
#
#
# Indices 1 2 3 4 5 6 
#
# 1 0.012724 0.002433 -0.004473 0.000000 0.000000 0.000000
# 2 0.002433 0.024483 -0.003592 0.000000 0.000000 0.000000
# 3 -0.004473 -0.003592 0.014511 0.000000 0.000000 0.000000
# 4 0.000000 0.000000 0.000000 0.075116 0.000000 0.000000
# 5 0.000000 0.000000 0.000000 0.000000 0.026342 0.000000
# 6 0.000000 0.000000 0.000000 0.000000 0.000000 0.029662
#
#
# Mechanical properties :
#
#
# Convention : Reuss Voigt Hill
#
# Bulk Modulus (GPa) = 24.71881 30.09813 27.40847
# Shear Modulus (GPa) = 24.08620 29.02631 26.55626
#
# Velocity S-wave (km/s) = 3.16744 3.47712 3.32588
# Velocity P-wave (km/s) = 4.86549 5.35325 5.11519
#
# Compressibility (1/GPa) = 0.04045502
#
# Stress axis : x y z
#
# Youngs Moduli (GPa) = 78.59198 40.84402 68.91094
#
# Poissons Ratio (x) = -0.09938 0.30822
# Poissons Ratio (y) = -0.19122 0.24755
# Poissons Ratio (z) = 0.35152 0.14672
#
# Static dielectric constant tensor:
#      x y z
#    x 1.862920 0.000000 0.000000 
#    y 0.000000 1.902130 0.000000 
#    z 0.000000 0.000000 2.232510 
# 
# From -- ./inp_files/600.got.cif
#   From: 2010.05.17/outbox.cif.g08.bks.cpg/sg19_1_cif.got.tgz:600.got - 2010.06.03 22:46:19.
