data_PCOD9314672
_publ_section_title
;
Structure prediction by ZEFSAII (Michael W. Deem and Ramdas Pophale) SiO2 
 PCOD9314672
Probable space group: P 21 21 21
;
_chemical_formula_sum "Si O2"
_cell_formula_units_Z 28
_cell_length_a 23.689298
_cell_length_b 8.440472
_cell_length_c 5.491527
_cell_angle_alpha 90.000000
_cell_angle_beta 90.000000
_cell_angle_gamma 90.000000
_cell_volume 1098.024544
_symmetry_space_group_name_H-M "P 21 21 21"
_symmetry_group_IT_number 19
_symmetry_cell_setting 'orthorhombic'
loop_
_space_group_symop_operation_xyz
x,y,z
1/2-x,-y,1/2+z
1/2+x,1/2-y,-z
-x,1/2+y,1/2-z
loop_
_atom_site_type_symbol
_atom_site_label
_atom_site_fract_x
_atom_site_fract_y
_atom_site_fract_z
Si Si1 0.671821 0.410707 0.072534
Si Si2 0.206494 0.836133 0.609890
Si Si3 0.765422 0.909380 0.096698
Si Si4 0.874964 0.900215 0.393924
Si Si5 0.530585 0.928797 0.645583
Si Si6 0.891484 0.156425 0.769637
Si Si7 0.579369 0.607896 0.879508
O O1 0.737020 0.363648 0.036229
O O2 0.635558 0.252640 0.057518
O O3 0.642150 0.529831 0.875812
O O4 0.674594 0.503969 0.323859
O O5 0.233079 0.756329 0.856694
O O6 0.157242 0.712541 0.542940
O O7 0.831161 0.884108 0.169146
O O8 0.745323 0.019647 0.329018
O O9 0.937264 0.938173 0.302809
O O10 0.862160 0.054067 0.558520
O O11 0.558452 0.945005 0.380835
O O12 0.554173 0.755697 0.725248
O O13 0.465111 0.966113 0.648767
O O14 0.918800 0.310584 0.646148
#
# Coordination Sequence:
#
# PCOD9314672 Si02
#       7
#     4   4   4   4   4   4   4
#     4  10  23  42  61  94 143 179 236 291 363 430
#     4  10  22  40  63  97 138 187 232 301 358 437
#     4  11  22  39  69 100 141 187 245 296 363 427
#     4  10  22  41  65 102 134 179 239 291 354 441
#     4  11  23  43  73  93 140 178 237 294 369 429
#     4  10  22  43  67  98 129 178 236 292 360 437
#     4  10  24  42  64  98 129 176 229 297 355 439
#
# _framework density 25.500342
#
# number of rings (size 3 to 8) (size 9 to 14) (size 15 to 20)
#    0.000    1.714    1.429    1.714    2.000    5.714 
#    2.571    1.429    0.000    0.000    0.000    0.000 
#    0.000    0.000    0.000    0.000    0.000    0.000 
#
# Total GULP energy -156267.856283 kJ/mol
# GULP energy per Si atom -5580.994867 kJ/mol
# Density = 2.544230 g / cm^3
# Si number density = 25.500342 Si / 1000 Ang^3
#
#
#
# Elastic Constant Matrix: (Units=GPa)
#
#
# Indices 1 2 3 4 5 6 
#
# 1 108.7856 13.8090 10.7324 0.0000 0.0000 0.0000
# 2 13.8090 81.7272 8.4625 0.0000 0.0000 0.0000
# 3 10.7324 8.4625 63.2682 0.0000 0.0000 0.0000
# 4 0.0000 0.0000 0.0000 31.5738 0.0000 0.0000
# 5 0.0000 0.0000 0.0000 0.0000 20.6786 0.0000
# 6 0.0000 0.0000 0.0000 0.0000 0.0000 46.7533
#
#
#
# Elastic Compliance Matrix: (Units=1/GPa)
#
#
# Indices 1 2 3 4 5 6 
#
# 1 0.009518 -0.001461 -0.001419 0.000000 0.000000 0.000000
# 2 -0.001461 0.012632 -0.001442 0.000000 0.000000 0.000000
# 3 -0.001419 -0.001442 0.016239 0.000000 0.000000 0.000000
# 4 0.000000 0.000000 0.000000 0.031672 0.000000 0.000000
# 5 0.000000 0.000000 0.000000 0.000000 0.048359 0.000000
# 6 0.000000 0.000000 0.000000 0.000000 0.000000 0.021389
#
#
# Mechanical properties :
#
#
# Convention : Reuss Voigt Hill
#
# Bulk Modulus (GPa) = 33.61904 35.53209 34.57556
# Shear Modulus (GPa) = 31.57196 34.51959 33.04577
#
# Velocity S-wave (km/s) = 3.52248 3.68325 3.60376
# Velocity P-wave (km/s) = 5.45493 5.66150 5.55917
#
# Compressibility (1/GPa) = 0.02974505
#
# Stress axis : x y z
#
# Youngs Moduli (GPa) = 105.06539 79.16392 61.57901
#
# Poissons Ratio (x) = 0.11568 0.08739
# Poissons Ratio (y) = 0.15353 0.08878
# Poissons Ratio (z) = 0.14910 0.11413
#
# Static dielectric constant tensor:
#      x y z
#    x 2.001720 0.000000 0.000000 
#    y 0.000000 2.074700 0.000000 
#    z 0.000000 0.000000 2.064410 
# 
# From -- ./inp_files/2117.got.cif
#   From: 2010.05.17/outbox.cif.g08.bks.cpg/sg19_2_cif.got.tgz:2117.got - 2010.06.03 22:46:19.
