data_PCOD9314188
_publ_section_title
;
Structure prediction by ZEFSAII (Michael W. Deem and Ramdas Pophale) SiO2 
 PCOD9314188
Probable space group: P 21 21 21
;
_chemical_formula_sum "Si O2"
_cell_formula_units_Z 32
_cell_length_a 11.234380
_cell_length_b 9.105876
_cell_length_c 11.924839
_cell_angle_alpha 90.000000
_cell_angle_beta 90.000000
_cell_angle_gamma 90.000000
_cell_volume 1219.897569
_symmetry_space_group_name_H-M "P 21 21 21"
_symmetry_group_IT_number 19
_symmetry_cell_setting 'orthorhombic'
loop_
_space_group_symop_operation_xyz
x,y,z
1/2-x,-y,1/2+z
1/2+x,1/2-y,-z
-x,1/2+y,1/2-z
loop_
_atom_site_type_symbol
_atom_site_label
_atom_site_fract_x
_atom_site_fract_y
_atom_site_fract_z
Si Si1 0.424744 0.795636 0.030900
Si Si2 0.334131 0.298496 0.282858
Si Si3 0.590455 0.844677 0.450917
Si Si4 0.429966 0.031716 0.579726
Si Si5 0.635587 0.591414 0.588760
Si Si6 0.186073 0.033678 0.722301
Si Si7 0.913625 0.917934 0.286475
Si Si8 0.783907 0.065570 0.489697
O O1 0.411589 0.871081 0.154656
O O2 0.526902 0.683979 0.981252
O O3 0.310055 0.690839 0.035333
O O4 0.394789 0.923129 0.940724
O O5 0.192843 0.317521 0.256766
O O6 0.352608 0.383741 0.399512
O O7 0.357633 0.124600 0.270417
O O8 0.396171 0.378493 0.179159
O O9 0.623611 0.676899 0.472503
O O10 0.465062 0.903681 0.493785
O O11 0.699922 0.926092 0.512834
O O12 0.298816 0.024307 0.632993
O O13 0.521398 0.009662 0.682084
O O14 0.749265 0.604500 0.668273
O O15 0.524335 0.661418 0.655366
O O16 0.859770 0.024494 0.381015
#
# Coordination Sequence:
#
# PCOD9314188 Si02
#       8
#     4   4   4   4   4   4   4   4
#     4  11  22  39  58  99 132 169 216 290 345 406
#     4  11  19  41  61  93 130 175 213 276 344 409
#     4  10  21  36  62  89 129 166 214 270 334 404
#     4  10  22  41  63  98 130 168 231 278 334 407
#     4  11  22  37  64  98 127 164 231 279 336 403
#     4  11  23  37  69  94 136 172 222 290 344 395
#     4  10  21  37  66  92 125 170 219 275 331 395
#     4  10  22  38  63  89 133 172 214 270 344 403
#
# _framework density 26.23171
#
# number of rings (size 3 to 8) (size 9 to 14) (size 15 to 20)
#    0.000    1.500    5.000    0.750    3.500    3.000 
#    0.000    0.000    5.500    0.000    3.250    0.000 
#    0.000    0.000    0.000    0.000    0.000    0.000 
#
# Total GULP energy -178898.051161 kJ/mol
# GULP energy per Si atom -5590.564099 kJ/mol
# Density = 2.617201 g / cm^3
# Si number density = 26.231710 Si / 1000 Ang^3
#
#
#
# Elastic Constant Matrix: (Units=GPa)
#
#
# Indices 1 2 3 4 5 6 
#
# 1 84.2102 6.4189 36.5159 0.0000 0.0000 0.0000
# 2 6.4189 110.2192 36.3206 0.0000 0.0000 0.0000
# 3 36.5159 36.3206 128.3030 0.0000 0.0000 0.0000
# 4 0.0000 0.0000 0.0000 41.2251 0.0000 0.0000
# 5 0.0000 0.0000 0.0000 0.0000 51.9986 0.0000
# 6 0.0000 0.0000 0.0000 0.0000 0.0000 23.5300
#
#
#
# Elastic Compliance Matrix: (Units=1/GPa)
#
#
# Indices 1 2 3 4 5 6 
#
# 1 0.013575 0.000532 -0.004014 0.000000 0.000000 0.000000
# 2 0.000532 0.010027 -0.002990 0.000000 0.000000 0.000000
# 3 -0.004014 -0.002990 0.009783 0.000000 0.000000 0.000000
# 4 0.000000 0.000000 0.000000 0.024257 0.000000 0.000000
# 5 0.000000 0.000000 0.000000 0.000000 0.019231 0.000000
# 6 0.000000 0.000000 0.000000 0.000000 0.000000 0.042499
#
#
# Mechanical properties :
#
#
# Convention : Reuss Voigt Hill
#
# Bulk Modulus (GPa) = 48.92077 53.47147 51.19612
# Shear Modulus (GPa) = 35.93751 39.58254 37.76003
#
# Velocity S-wave (km/s) = 3.70537 3.88874 3.79816
# Velocity P-wave (km/s) = 6.08246 6.37116 6.22848
#
# Compressibility (1/GPa) = 0.02044122
#
# Stress axis : x y z
#
# Youngs Moduli (GPa) = 73.66387 99.72945 102.21859
#
# Poissons Ratio (x) = -0.05308 0.41033
# Poissons Ratio (y) = -0.03921 0.30563
# Poissons Ratio (z) = 0.29571 0.29819
#
# Static dielectric constant tensor:
#      x y z
#    x 2.118280 0.000000 0.000000 
#    y 0.000000 2.063910 0.000000 
#    z 0.000000 0.000000 2.119020 
# 
# From -- ./inp_files/5264.got.cif
#   From: 2010.05.17/outbox.cif.g08.bks.cpg/sg19_3_cif.got.tgz:5264.got - 2010.06.03 22:46:19.
