data_PCOD9314947
_publ_section_title
;
Structure prediction by ZEFSAII (Michael W. Deem and Ramdas Pophale) SiO2 
 PCOD9314947
Probable space group: P 21 21 21
;
_chemical_formula_sum "Si O2"
_cell_formula_units_Z 32
_cell_length_a 10.835781
_cell_length_b 20.391755
_cell_length_c 5.620771
_cell_angle_alpha 90.000000
_cell_angle_beta 90.000000
_cell_angle_gamma 90.000000
_cell_volume 1241.968884
_symmetry_space_group_name_H-M "P 21 21 21"
_symmetry_group_IT_number 19
_symmetry_cell_setting 'orthorhombic'
loop_
_space_group_symop_operation_xyz
x,y,z
1/2-x,-y,1/2+z
1/2+x,1/2-y,-z
-x,1/2+y,1/2-z
loop_
_atom_site_type_symbol
_atom_site_label
_atom_site_fract_x
_atom_site_fract_y
_atom_site_fract_z
Si Si1 0.410553 0.688700 0.166065
Si Si2 0.425818 0.055563 0.842279
Si Si3 0.148648 0.646692 0.381215
Si Si4 0.658783 0.654405 0.023474
Si Si5 0.755688 0.217857 0.714184
Si Si6 0.197925 0.067146 0.138577
Si Si7 0.905168 0.692515 0.517853
Si Si8 0.321822 0.493909 0.690289
O O1 0.286612 0.661543 0.287427
O O2 0.537079 0.649770 0.192715
O O3 0.435441 0.761948 0.259503
O O4 0.369400 0.689872 0.893488
O O5 0.385047 0.123219 0.721590
O O6 0.332992 0.044180 0.058685
O O7 0.384178 0.996478 0.667930
O O8 0.570211 0.045086 0.873921
O O9 0.167245 0.659799 0.665839
O O10 0.122929 0.576581 0.266536
O O11 0.025214 0.689831 0.346894
O O12 0.687694 0.732147 0.019975
O O13 0.772075 0.612473 0.130758
O O14 0.713630 0.270492 0.910430
O O15 0.134018 0.117343 0.953629
O O16 0.245380 0.486607 0.441643
#
# Coordination Sequence:
#
# PCOD9314947 Si02
#       8
#     4   4   4   4   4   4   4   4
#     4  11  24  41  68 101 139 187 237 302 381 448
#     4  12  25  44  74 101 148 192 256 314 374 456
#     4  11  24  44  70 102 145 191 240 307 374 455
#     4  11  24  43  66 104 140 187 243 308 384 446
#     4  10  24  42  69 103 139 183 243 303 383 442
#     4  11  24  44  68 103 138 187 242 313 376 445
#     4  10  22  45  65  99 142 180 241 303 375 453
#     4  12  31  53  76 113 153 209 258 310 383 459
#
# _framework density 25.765540999999999
#
# number of rings (size 3 to 8) (size 9 to 14) (size 15 to 20)
#    0.000    1.000    3.750    1.500    8.750    1.000 
#    0.000    0.000    0.000    0.000    0.000    0.000 
#    0.000    0.000    0.000    0.000    0.000    0.000 
#
# Total GULP energy -178585.885392 kJ/mol
# GULP energy per Si atom -5580.808919 kJ/mol
# Density = 2.570690 g / cm^3
# Si number density = 25.765541 Si / 1000 Ang^3
#
#
#
# Elastic Constant Matrix: (Units=GPa)
#
#
# Indices 1 2 3 4 5 6 
#
# 1 114.9200 8.5845 13.5546 0.0000 0.0000 0.0000
# 2 8.5845 31.3455 5.2579 0.0000 0.0000 0.0000
# 3 13.5546 5.2579 39.2503 0.0000 0.0000 0.0000
# 4 0.0000 0.0000 0.0000 16.8050 0.0000 0.0000
# 5 0.0000 0.0000 0.0000 0.0000 48.5042 0.0000
# 6 0.0000 0.0000 0.0000 0.0000 0.0000 44.6592
#
#
#
# Elastic Compliance Matrix: (Units=1/GPa)
#
#
# Indices 1 2 3 4 5 6 
#
# 1 0.009196 -0.002031 -0.002904 0.000000 0.000000 0.000000
# 2 -0.002031 0.033085 -0.003730 0.000000 0.000000 0.000000
# 3 -0.002904 -0.003730 0.026980 0.000000 0.000000 0.000000
# 4 0.000000 0.000000 0.000000 0.059506 0.000000 0.000000
# 5 0.000000 0.000000 0.000000 0.000000 0.020617 0.000000
# 6 0.000000 0.000000 0.000000 0.000000 0.000000 0.022392
#
#
# Mechanical properties :
#
#
# Convention : Reuss Voigt Hill
#
# Bulk Modulus (GPa) = 19.25684 26.70111 22.97898
# Shear Modulus (GPa) = 24.22293 32.53494 28.37893
#
# Velocity S-wave (km/s) = 3.06948 3.55735 3.32238
# Velocity P-wave (km/s) = 4.47799 5.22097 4.86369
#
# Compressibility (1/GPa) = 0.05192959
#
# Stress axis : x y z
#
# Youngs Moduli (GPa) = 108.74385 30.22550 37.06457
#
# Poissons Ratio (x) = 0.06140 0.10762
# Poissons Ratio (y) = 0.22090 0.13827
# Poissons Ratio (z) = 0.31575 0.11276
#
# Static dielectric constant tensor:
#      x y z
#    x 2.090900 0.000000 0.000000 
#    y 0.000000 2.016260 0.000000 
#    z 0.000000 0.000000 2.148440 
# 
# From -- ./inp_files/1230.got.cif
#   From: 2010.05.17/outbox.cif.g08.bks.cpg/sg19_1_cif.got.tgz:1230.got - 2010.06.03 22:46:19.
