data_PCOD9314492
_publ_section_title
;
Structure prediction by ZEFSAII (Michael W. Deem and Ramdas Pophale) SiO2 
 PCOD9314492
Probable space group: P 21 21 21
;
_chemical_formula_sum "Si O2"
_cell_formula_units_Z 28
_cell_length_a 7.102965
_cell_length_b 16.316369
_cell_length_c 9.843398
_cell_angle_alpha 90.000000
_cell_angle_beta 90.000000
_cell_angle_gamma 90.000000
_cell_volume 1140.796654
_symmetry_space_group_name_H-M "P 21 21 21"
_symmetry_group_IT_number 19
_symmetry_cell_setting 'orthorhombic'
loop_
_space_group_symop_operation_xyz
x,y,z
1/2-x,-y,1/2+z
1/2+x,1/2-y,-z
-x,1/2+y,1/2-z
loop_
_atom_site_type_symbol
_atom_site_label
_atom_site_fract_x
_atom_site_fract_y
_atom_site_fract_z
Si Si1 0.660398 0.405361 0.621856
Si Si2 0.229466 0.742152 0.023137
Si Si3 0.244084 0.441029 0.918106
Si Si4 0.391537 0.831770 0.592743
Si Si5 0.585443 0.188913 0.716786
Si Si6 0.875891 0.415214 0.097086
Si Si7 0.210011 0.420812 0.615963
O O1 0.722259 0.335385 0.517571
O O2 0.699277 0.378842 0.776863
O O3 0.728826 0.497478 0.599205
O O4 0.435903 0.413301 0.606918
O O5 0.357644 0.673846 0.102819
O O6 0.055405 0.757168 0.123513
O O7 0.227614 0.693607 0.876734
O O8 0.398501 0.368541 0.919010
O O9 0.180376 0.457761 0.764006
O O10 0.339948 0.518050 0.994914
O O11 0.054344 0.420401 0.997586
O O12 0.388229 0.738883 0.644294
O O13 0.271635 0.849300 0.459085
O O14 0.473633 0.108162 0.759985
#
# Coordination Sequence:
#
# PCOD9314492 Si02
#       7
#     4   4   4   4   4   4   4
#     4   9  22  44  62 103 139 181 246 291 362 440
#     4  11  21  44  68  95 143 183 240 296 359 433
#     4  10  23  44  69 105 143 191 239 303 372 430
#     4  10  23  47  63 102 144 174 242 301 351 450
#     4  11  26  44  69 105 137 192 240 301 367 443
#     4  11  26  43  72 103 144 187 244 302 368 434
#     4  10  21  42  69 101 140 188 247 294 363 448
#
# _framework density 24.544249000000001
#
# number of rings (size 3 to 8) (size 9 to 14) (size 15 to 20)
#    0.000    1.714    4.286    0.000   10.000    3.429 
#    5.143    0.000    0.000    0.000    0.000    0.000 
#    0.000    0.000    0.000    0.000    0.000    0.000 
#
# Total GULP energy -156176.772256 kJ/mol
# GULP energy per Si atom -5577.741866 kJ/mol
# Density = 2.448839 g / cm^3
# Si number density = 24.544249 Si / 1000 Ang^3
#
#
#
# Elastic Constant Matrix: (Units=GPa)
#
#
# Indices 1 2 3 4 5 6 
#
# 1 38.1756 2.4604 7.3615 0.0000 0.0000 0.0000
# 2 2.4604 98.8045 51.3098 0.0000 0.0000 0.0000
# 3 7.3615 51.3098 107.4657 0.0000 0.0000 0.0000
# 4 0.0000 0.0000 0.0000 42.9482 0.0000 0.0000
# 5 0.0000 0.0000 0.0000 0.0000 45.6712 0.0000
# 6 0.0000 0.0000 0.0000 0.0000 0.0000 23.2668
#
#
#
# Elastic Compliance Matrix: (Units=1/GPa)
#
#
# Indices 1 2 3 4 5 6 
#
# 1 0.026556 0.000377 -0.001999 0.000000 0.000000 0.000000
# 2 0.000377 0.013463 -0.006454 0.000000 0.000000 0.000000
# 3 -0.001999 -0.006454 0.012524 0.000000 0.000000 0.000000
# 4 0.000000 0.000000 0.000000 0.023284 0.000000 0.000000
# 5 0.000000 0.000000 0.000000 0.000000 0.021896 0.000000
# 6 0.000000 0.000000 0.000000 0.000000 0.000000 0.042980
#
#
# Mechanical properties :
#
#
# Convention : Reuss Voigt Hill
#
# Bulk Modulus (GPa) = 27.47959 40.74547 34.11253
# Shear Modulus (GPa) = 29.58856 34.59816 32.09336
#
# Velocity S-wave (km/s) = 3.47583 3.75857 3.61996
# Velocity P-wave (km/s) = 5.22769 5.95589 5.60363
#
# Compressibility (1/GPa) = 0.03639064
#
# Stress axis : x y z
#
# Youngs Moduli (GPa) = 37.65633 74.27700 79.84918
#
# Poissons Ratio (x) = -0.02799 0.15962
# Poissons Ratio (y) = -0.01419 0.51533
# Poissons Ratio (z) = 0.07528 0.47937
#
# Static dielectric constant tensor:
#      x y z
#    x 2.081160 0.000000 0.000000 
#    y 0.000000 2.059170 0.000000 
#    z 0.000000 0.000000 1.959420 
# 
# From -- ./inp_files/2937.got.cif
#   From: 2010.05.17/outbox.cif.g08.bks.cpg/sg19_2_cif.got.tgz:2937.got - 2010.06.03 22:46:19.
