data_PCOD9314655
_publ_section_title
;
Structure prediction by ZEFSAII (Michael W. Deem and Ramdas Pophale) SiO2 
 PCOD9314655
Probable space group: P 21 21 21
;
_chemical_formula_sum "Si O2"
_cell_formula_units_Z 32
_cell_length_a 16.460119
_cell_length_b 12.159474
_cell_length_c 7.460943
_cell_angle_alpha 90.000000
_cell_angle_beta 90.000000
_cell_angle_gamma 90.000000
_cell_volume 1493.280800
_symmetry_space_group_name_H-M "P 21 21 21"
_symmetry_group_IT_number 19
_symmetry_cell_setting 'orthorhombic'
loop_
_space_group_symop_operation_xyz
x,y,z
1/2-x,-y,1/2+z
1/2+x,1/2-y,-z
-x,1/2+y,1/2-z
loop_
_atom_site_type_symbol
_atom_site_label
_atom_site_fract_x
_atom_site_fract_y
_atom_site_fract_z
Si Si1 0.526307 0.419400 0.844454
Si Si2 0.624136 0.233101 0.956233
Si Si3 0.577273 0.126209 0.306735
Si Si4 0.762580 0.305775 0.726131
Si Si5 0.591285 0.527023 0.195125
Si Si6 0.182734 0.558426 0.810545
Si Si7 0.611539 0.341347 0.487682
Si Si8 0.641653 0.000325 0.789368
O O1 0.542063 0.300858 0.932505
O O2 0.568674 0.407472 0.650249
O O3 0.433571 0.448937 0.812700
O O4 0.569385 0.500114 0.987509
O O5 0.699813 0.307585 0.893786
O O6 0.624100 0.128614 0.826409
O O7 0.629468 0.186624 0.153521
O O8 0.487983 0.094169 0.240477
O O9 0.573291 0.219936 0.457407
O O10 0.624411 0.010277 0.322226
O O11 0.829256 0.399900 0.720741
O O12 0.804203 0.185939 0.734086
O O13 0.703544 0.318978 0.553558
O O14 0.601556 0.416267 0.311721
O O15 0.270679 0.499313 0.803605
O O16 0.149034 0.551458 0.012231
#
# Coordination Sequence:
#
# PCOD9314655 Si02
#       8
#     4   4   4   4   4   4   4   4
#     4  11  25  43  69 101 141 186 239 299 354 440
#     4   9  21  46  66  99 141 180 230 304 353 428
#     4  11  24  45  73 102 150 184 241 308 372 428
#     4  10  25  43  76 103 144 187 245 296 366 450
#     4  12  28  44  75 104 143 199 247 299 373 449
#     4  10  22  43  69 107 133 188 234 302 365 439
#     4  11  25  47  71 103 142 198 234 313 366 434
#     4  10  22  39  69  97 138 178 236 293 359 432
#
# _framework density 21.429326
#
# number of rings (size 3 to 8) (size 9 to 14) (size 15 to 20)
#    0.000    1.500    1.250    2.250   14.000    0.000 
#    4.500    0.000    0.000    0.000    0.000    0.000 
#    0.000    0.000    0.000    0.000    0.000    0.000 
#
# Total GULP energy -178683.628021 kJ/mol
# GULP energy per Si atom -5583.863376 kJ/mol
# Density = 2.138055 g / cm^3
# Si number density = 21.429326 Si / 1000 Ang^3
#
#
#
# Elastic Constant Matrix: (Units=GPa)
#
#
# Indices 1 2 3 4 5 6 
#
# 1 85.8376 39.5482 26.9457 0.0000 0.0000 0.0000
# 2 39.5482 78.8474 31.9921 0.0000 0.0000 0.0000
# 3 26.9457 31.9921 95.9094 0.0000 0.0000 0.0000
# 4 0.0000 0.0000 0.0000 26.9575 0.0000 0.0000
# 5 0.0000 0.0000 0.0000 0.0000 29.3405 0.0000
# 6 0.0000 0.0000 0.0000 0.0000 0.0000 33.0693
#
#
#
# Elastic Compliance Matrix: (Units=1/GPa)
#
#
# Indices 1 2 3 4 5 6 
#
# 1 0.015487 -0.006942 -0.002035 0.000000 0.000000 0.000000
# 2 -0.006942 0.017780 -0.003980 0.000000 0.000000 0.000000
# 3 -0.002035 -0.003980 0.012326 0.000000 0.000000 0.000000
# 4 0.000000 0.000000 0.000000 0.037095 0.000000 0.000000
# 5 0.000000 0.000000 0.000000 0.000000 0.034083 0.000000
# 6 0.000000 0.000000 0.000000 0.000000 0.000000 0.030239
#
#
# Mechanical properties :
#
#
# Convention : Reuss Voigt Hill
#
# Bulk Modulus (GPa) = 50.82029 50.84071 50.83050
# Shear Modulus (GPa) = 27.85730 28.68067 28.26898
#
# Velocity S-wave (km/s) = 3.60941 3.66236 3.63598
# Velocity P-wave (km/s) = 6.41383 6.45447 6.43418
#
# Compressibility (1/GPa) = 0.01967718
#
# Stress axis : x y z
#
# Youngs Moduli (GPa) = 64.56852 56.24346 81.12882
#
# Poissons Ratio (x) = 0.39046 0.16514
# Poissons Ratio (y) = 0.44825 0.32292
# Poissons Ratio (z) = 0.13143 0.22387
#
# Static dielectric constant tensor:
#      x y z
#    x 1.764280 0.000000 0.000000 
#    y 0.000000 1.779760 0.000000 
#    z 0.000000 0.000000 1.834630 
# 
# From -- ./inp_files/3997.got.cif
#   From: 2010.05.17/outbox.cif.g08.bks.cpg/sg19_2_cif.got.tgz:3997.got - 2010.06.03 22:46:19.
