data_PCOD9314752
_publ_section_title
;
Structure prediction by ZEFSAII (Michael W. Deem and Ramdas Pophale) SiO2 
 PCOD9314752
Probable space group: P 21 21 21
;
_chemical_formula_sum "Si O2"
_cell_formula_units_Z 20
_cell_length_a 10.812934
_cell_length_b 7.001380
_cell_length_c 9.588375
_cell_angle_alpha 90.000000
_cell_angle_beta 90.000000
_cell_angle_gamma 90.000000
_cell_volume 725.892339
_symmetry_space_group_name_H-M "P 21 21 21"
_symmetry_group_IT_number 19
_symmetry_cell_setting 'orthorhombic'
loop_
_space_group_symop_operation_xyz
x,y,z
1/2-x,-y,1/2+z
1/2+x,1/2-y,-z
-x,1/2+y,1/2-z
loop_
_atom_site_type_symbol
_atom_site_label
_atom_site_fract_x
_atom_site_fract_y
_atom_site_fract_z
Si Si1 0.595231 0.003650 0.252923
Si Si2 0.283839 0.749944 0.861416
Si Si3 0.002400 0.017045 0.063454
Si Si4 0.321518 0.277190 0.653813
Si Si5 0.467567 0.036978 0.953387
O O1 0.681776 0.810650 0.252758
O O2 0.516230 0.020447 0.395801
O O3 0.726747 0.831896 0.997963
O O4 0.508181 0.007287 0.115792
O O5 0.401731 0.613298 0.861003
O O6 0.333324 0.956875 0.909046
O O7 0.296220 0.667951 0.249667
O O8 0.130060 0.939243 0.129305
O O9 0.941817 0.088138 0.356694
O O10 0.480090 0.259329 0.920912
#
# Coordination Sequence:
#
# PCOD9314752 Si02
#       5
#     4   4   4   4   4
#     4  10  22  42  76  94 144 202 228 304 396 412
#     4   9  21  42  63 102 144 175 248 304 349 457
#     4  10  22  41  68 102 140 185 249 300 356 463
#     4   9  21  42  63 102 144 175 248 304 349 457
#     4  10  22  41  68 102 140 185 249 300 356 463
#
# _framework density 27.552292999999999
#
# number of rings (size 3 to 8) (size 9 to 14) (size 15 to 20)
#    0.000    2.400    0.000    0.000   11.200    4.800 
#    7.200   12.000    0.000    0.000    0.000    0.000 
#    0.000    0.000    0.000    0.000    0.000    0.000 
#
# Total GULP energy -111553.991324 kJ/mol
# GULP energy per Si atom -5577.699566 kJ/mol
# Density = 2.748958 g / cm^3
# Si number density = 27.552293 Si / 1000 Ang^3
#
#
#
# Elastic Constant Matrix: (Units=GPa)
#
#
# Indices 1 2 3 4 5 6 
#
# 1 88.1604 53.8237 33.4900 0.0000 0.0000 0.0000
# 2 53.8237 188.7076 14.4403 0.0000 0.0000 0.0000
# 3 33.4900 14.4403 120.1557 0.0000 0.0000 0.0000
# 4 0.0000 0.0000 0.0000 37.4836 0.0000 0.0000
# 5 0.0000 0.0000 0.0000 0.0000 22.3850 0.0000
# 6 0.0000 0.0000 0.0000 0.0000 0.0000 55.8028
#
#
#
# Elastic Compliance Matrix: (Units=1/GPa)
#
#
# Indices 1 2 3 4 5 6 
#
# 1 0.015253 -0.004062 -0.003763 0.000000 0.000000 0.000000
# 2 -0.004062 0.006430 0.000359 0.000000 0.000000 0.000000
# 3 -0.003763 0.000359 0.009328 0.000000 0.000000 0.000000
# 4 0.000000 0.000000 0.000000 0.026678 0.000000 0.000000
# 5 0.000000 0.000000 0.000000 0.000000 0.044673 0.000000
# 6 0.000000 0.000000 0.000000 0.000000 0.000000 0.017920
#
#
# Mechanical properties :
#
#
# Convention : Reuss Voigt Hill
#
# Bulk Modulus (GPa) = 62.19194 66.72575 64.45885
# Shear Modulus (GPa) = 35.56839 42.81893 39.19366
#
# Velocity S-wave (km/s) = 3.59686 3.94648 3.77572
# Velocity P-wave (km/s) = 6.31437 6.71094 6.51567
#
# Compressibility (1/GPa) = 0.01607925
#
# Stress axis : x y z
#
# Youngs Moduli (GPa) = 65.56236 155.51132 107.20225
#
# Poissons Ratio (x) = 0.63176 0.40340
# Poissons Ratio (y) = 0.26634 -0.03854
# Poissons Ratio (z) = 0.24671 -0.05590
#
# Static dielectric constant tensor:
#      x y z
#    x 2.429720 0.000000 0.000000 
#    y 0.000000 2.305680 0.000000 
#    z 0.000000 0.000000 2.194020 
# 
# From -- ./inp_files/1380.got.cif
#   From: 2010.05.17/outbox.cif.g08.bks.cpg/sg19_1_cif.got.tgz:1380.got - 2010.06.03 22:46:19.
