data_PCOD9314289
_publ_section_title
;
Structure prediction by ZEFSAII (Michael W. Deem and Ramdas Pophale) SiO2 
 PCOD9314289
Probable space group: P 21 21 21
;
_chemical_formula_sum "Si O2"
_cell_formula_units_Z 32
_cell_length_a 7.755799
_cell_length_b 14.193539
_cell_length_c 12.501847
_cell_angle_alpha 90.000000
_cell_angle_beta 90.000000
_cell_angle_gamma 90.000000
_cell_volume 1376.231267
_symmetry_space_group_name_H-M "P 21 21 21"
_symmetry_group_IT_number 19
_symmetry_cell_setting 'orthorhombic'
loop_
_space_group_symop_operation_xyz
x,y,z
1/2-x,-y,1/2+z
1/2+x,1/2-y,-z
-x,1/2+y,1/2-z
loop_
_atom_site_type_symbol
_atom_site_label
_atom_site_fract_x
_atom_site_fract_y
_atom_site_fract_z
Si Si1 0.452901 0.536483 0.308678
Si Si2 0.433537 0.007945 0.621592
Si Si3 0.240785 0.085040 0.299284
Si Si4 0.094120 0.087530 0.513257
Si Si5 0.688324 0.085799 0.777634
Si Si6 0.873029 0.757717 0.640843
Si Si7 0.862815 0.134525 0.989537
Si Si8 0.949290 0.227369 0.655841
O O1 0.606876 0.511149 0.226686
O O2 0.471439 0.477758 0.415945
O O3 0.279944 0.515295 0.244730
O O4 0.474924 0.643045 0.346765
O O5 0.354826 0.917383 0.685416
O O6 0.574724 0.962833 0.542986
O O7 0.284211 0.061499 0.557675
O O8 0.511148 0.075737 0.713479
O O9 0.102187 0.063550 0.389587
O O10 0.345209 0.175102 0.343524
O O11 0.022585 0.190583 0.543505
O O12 0.811637 0.157416 0.711650
O O13 0.714323 0.115826 0.900217
O O14 0.703851 0.792342 0.579538
O O15 0.977569 0.682927 0.571242
O O16 0.885064 0.726441 0.764273
#
# Coordination Sequence:
#
# PCOD9314289 Si02
#       8
#     4   4   4   4   4   4   4   4
#     4   9  19  41  60  86 132 162 201 253 319 363
#     4  11  24  40  64  98 124 162 218 263 305 384
#     4  10  22  40  61  89 124 164 206 260 305 375
#     4  10  22  40  64  88 121 169 209 253 312 377
#     4  10  21  39  61  92 126 166 204 262 312 377
#     4  10  22  39  62  90 125 166 201 262 313 373
#     4  11  24  38  64  96 128 167 211 260 322 376
#     4   9  22  43  58  85 128 164 204 255 316 371
#
# _framework density 23.251906999999999
#
# number of rings (size 3 to 8) (size 9 to 14) (size 15 to 20)
#    0.000    2.000    1.250    0.750    8.750    3.000 
#    2.250    0.000    0.000    0.000    0.000    0.000 
#    0.000    0.000    0.000    0.000    0.000    0.000 
#
# Total GULP energy -178334.802060 kJ/mol
# GULP energy per Si atom -5572.962564 kJ/mol
# Density = 2.319898 g / cm^3
# Si number density = 23.251907 Si / 1000 Ang^3
#
#
#
# Elastic Constant Matrix: (Units=GPa)
#
#
# Indices 1 2 3 4 5 6 
#
# 1 46.6545 -1.3907 4.0876 0.0000 0.0000 0.0000
# 2 -1.3907 53.3540 10.1656 0.0000 0.0000 0.0000
# 3 4.0876 10.1656 64.3821 0.0000 0.0000 0.0000
# 4 0.0000 0.0000 0.0000 13.9600 0.0000 0.0000
# 5 0.0000 0.0000 0.0000 0.0000 32.7616 0.0000
# 6 0.0000 0.0000 0.0000 0.0000 0.0000 35.1806
#
#
#
# Elastic Compliance Matrix: (Units=1/GPa)
#
#
# Indices 1 2 3 4 5 6 
#
# 1 0.021591 0.000850 -0.001505 0.000000 0.000000 0.000000
# 2 0.000850 0.019358 -0.003110 0.000000 0.000000 0.000000
# 3 -0.001505 -0.003110 0.016119 0.000000 0.000000 0.000000
# 4 0.000000 0.000000 0.000000 0.071633 0.000000 0.000000
# 5 0.000000 0.000000 0.000000 0.000000 0.030524 0.000000
# 6 0.000000 0.000000 0.000000 0.000000 0.000000 0.028425
#
#
# Mechanical properties :
#
#
# Convention : Reuss Voigt Hill
#
# Bulk Modulus (GPa) = 20.18728 21.12396 20.65562
# Shear Modulus (GPa) = 23.61909 26.48230 25.05070
#
# Velocity S-wave (km/s) = 3.19061 3.37847 3.28588
# Velocity P-wave (km/s) = 4.71955 4.93186 4.82687
#
# Compressibility (1/GPa) = 0.04953614
#
# Stress axis : x y z
#
# Youngs Moduli (GPa) = 46.31486 51.65955 62.03890
#
# Poissons Ratio (x) = -0.04389 0.09337
# Poissons Ratio (y) = -0.03935 0.19297
# Poissons Ratio (z) = 0.06970 0.16068
#
# Static dielectric constant tensor:
#      x y z
#    x 1.972950 0.000000 0.000000 
#    y 0.000000 1.948320 0.000000 
#    z 0.000000 0.000000 1.896980 
# 
# From -- ./inp_files/3965.got.cif
#   From: 2010.05.17/outbox.cif.g08.bks.cpg/sg19_2_cif.got.tgz:3965.got - 2010.06.03 22:46:19.
