data_PCOD9314635
_publ_section_title
;
Structure prediction by ZEFSAII (Michael W. Deem and Ramdas Pophale) SiO2 
 PCOD9314635
Probable space group: P 21 21 21
;
_chemical_formula_sum "Si O2"
_cell_formula_units_Z 32
_cell_length_a 11.533140
_cell_length_b 5.355845
_cell_length_c 21.751944
_cell_angle_alpha 90.000000
_cell_angle_beta 90.000000
_cell_angle_gamma 90.000000
_cell_volume 1343.611277
_symmetry_space_group_name_H-M "P 21 21 21"
_symmetry_group_IT_number 19
_symmetry_cell_setting 'orthorhombic'
loop_
_space_group_symop_operation_xyz
x,y,z
1/2-x,-y,1/2+z
1/2+x,1/2-y,-z
-x,1/2+y,1/2-z
loop_
_atom_site_type_symbol
_atom_site_label
_atom_site_fract_x
_atom_site_fract_y
_atom_site_fract_z
Si Si1 0.758574 0.139723 0.462993
Si Si2 0.162459 0.111548 0.745128
Si Si3 0.474261 0.399332 0.031208
Si Si4 0.668715 0.135516 0.076985
Si Si5 0.535321 0.656410 0.903926
Si Si6 0.577008 0.882025 0.185986
Si Si7 0.355163 0.018561 0.945196
Si Si8 0.561851 0.499260 0.775292
O O1 0.840487 0.212085 0.407887
O O2 0.731381 0.349873 0.514361
O O3 0.635807 0.037991 0.441589
O O4 0.818178 0.929223 0.505089
O O5 0.121560 0.874118 0.785207
O O6 0.063539 0.104529 0.690903
O O7 0.134195 0.376334 0.778848
O O8 0.300196 0.064936 0.733186
O O9 0.519555 0.551875 0.972685
O O10 0.430991 0.146186 0.998486
O O11 0.568093 0.337675 0.081369
O O12 0.627861 0.909742 0.117850
O O13 0.790345 0.263215 0.091542
O O14 0.430672 0.851501 0.900151
O O15 0.538964 0.467411 0.848408
O O16 0.513206 0.245593 0.744242
#
# Coordination Sequence:
#
# PCOD9314635 Si02
#       8
#     4   4   4   4   4   4   4   4
#     4  10  22  40  64  97 138 183 219 288 347 440
#     4  10  24  51  69 107 138 189 245 310 362 418
#     4  10  22  40  65 100 142 175 232 276 362 441
#     4  11  22  39  69 106 132 189 228 285 365 439
#     4  11  24  45  68  98 144 185 232 300 359 422
#     4  10  24  45  78 101 147 181 244 311 361 423
#     4  10  22  39  63  95 138 177 228 277 352 432
#     4  12  30  49  76 106 143 197 258 303 368 437
#
# _framework density 23.816412
#
# number of rings (size 3 to 8) (size 9 to 14) (size 15 to 20)
#    0.000    1.500    2.500    0.750    5.250    5.000 
#    9.000    0.000    0.000    0.000    0.000    0.000 
#    0.000    0.000    0.000    0.000    0.000    0.000 
#
# Total GULP energy -178806.530931 kJ/mol
# GULP energy per Si atom -5587.704092 kJ/mol
# Density = 2.376220 g / cm^3
# Si number density = 23.816412 Si / 1000 Ang^3
#
#
#
# Elastic Constant Matrix: (Units=GPa)
#
#
# Indices 1 2 3 4 5 6 
#
# 1 143.1899 24.5716 19.7636 0.0000 0.0000 0.0000
# 2 24.5716 92.0854 4.4624 0.0000 0.0000 0.0000
# 3 19.7636 4.4624 31.7719 0.0000 0.0000 0.0000
# 4 0.0000 0.0000 0.0000 25.5729 0.0000 0.0000
# 5 0.0000 0.0000 0.0000 0.0000 11.6879 0.0000
# 6 0.0000 0.0000 0.0000 0.0000 0.0000 35.9754
#
#
#
# Elastic Compliance Matrix: (Units=1/GPa)
#
#
# Indices 1 2 3 4 5 6 
#
# 1 0.007955 -0.001896 -0.004682 0.000000 0.000000 0.000000
# 2 -0.001896 0.011386 -0.000420 0.000000 0.000000 0.000000
# 3 -0.004682 -0.000420 0.034446 0.000000 0.000000 0.000000
# 4 0.000000 0.000000 0.000000 0.039104 0.000000 0.000000
# 5 0.000000 0.000000 0.000000 0.000000 0.085559 0.000000
# 6 0.000000 0.000000 0.000000 0.000000 0.000000 0.027797
#
#
# Mechanical properties :
#
#
# Convention : Reuss Voigt Hill
#
# Bulk Modulus (GPa) = 25.13130 40.51584 32.82357
# Shear Modulus (GPa) = 21.41270 29.19720 25.30495
#
# Velocity S-wave (km/s) = 3.00171 3.50512 3.26314
# Velocity P-wave (km/s) = 4.75275 5.78186 5.29238
#
# Compressibility (1/GPa) = 0.03979102
#
# Stress axis : x y z
#
# Youngs Moduli (GPa) = 125.70176 87.82941 29.03096
#
# Poissons Ratio (x) = 0.16651 0.13593
# Poissons Ratio (y) = 0.23831 0.01219
# Poissons Ratio (z) = 0.58858 0.03687
#
# Static dielectric constant tensor:
#      x y z
#    x 2.005960 0.000000 0.000000 
#    y 0.000000 1.986430 0.000000 
#    z 0.000000 0.000000 1.889020 
# 
# From -- ./inp_files/7393.got.cif
#   From: 2010.05.17/outbox.cif.g08.bks.cpg/sg19_4_cif.got.tgz:7393.got - 2010.06.03 22:46:19.
