data_PCOD9314766
_publ_section_title
;
Structure prediction by ZEFSAII (Michael W. Deem and Ramdas Pophale) SiO2 
 PCOD9314766
Probable space group: P 21 21 21
;
_chemical_formula_sum "Si O2"
_cell_formula_units_Z 28
_cell_length_a 13.348858
_cell_length_b 16.077191
_cell_length_c 5.017452
_cell_angle_alpha 90.000000
_cell_angle_beta 90.000000
_cell_angle_gamma 90.000000
_cell_volume 1076.806110
_symmetry_space_group_name_H-M "P 21 21 21"
_symmetry_group_IT_number 19
_symmetry_cell_setting 'orthorhombic'
loop_
_space_group_symop_operation_xyz
x,y,z
1/2-x,-y,1/2+z
1/2+x,1/2-y,-z
-x,1/2+y,1/2-z
loop_
_atom_site_type_symbol
_atom_site_label
_atom_site_fract_x
_atom_site_fract_y
_atom_site_fract_z
Si Si1 0.619265 0.688947 0.280069
Si Si2 0.234896 0.445998 0.789312
Si Si3 0.883695 0.157525 0.531344
Si Si4 0.451947 0.601894 0.950975
Si Si5 0.973878 0.565321 0.591376
Si Si6 0.307720 0.022561 0.047181
Si Si7 0.455870 0.765085 0.669072
O O1 0.678322 0.765178 0.152247
O O2 0.676673 0.620818 0.445874
O O3 0.539537 0.732348 0.467937
O O4 0.556277 0.638994 0.059688
O O5 0.236005 0.476826 0.091526
O O6 0.319564 0.380382 0.706067
O O7 0.129316 0.410856 0.684877
O O8 0.926195 0.093800 0.748048
O O9 0.986052 0.197354 0.421393
O O10 0.409282 0.676036 0.762020
O O11 0.486029 0.506511 0.884864
O O12 0.900217 0.523676 0.808912
O O13 0.920907 0.648318 0.470374
O O14 0.216454 0.004717 0.249883
#
# Coordination Sequence:
#
# PCOD9314766 Si02
#       7
#     4   4   4   4   4   4   4
#     4   9  23  44  64  97 134 180 227 280 350 402
#     4  12  26  42  67 105 136 176 231 279 344 405
#     4  10  22  42  66  96 136 182 225 287 341 409
#     4  10  22  41  69  99 136 184 225 284 341 415
#     4  10  22  44  68  96 139 181 232 280 349 410
#     4  11  27  44  70 102 135 182 232 285 340 406
#     4  10  22  41  74  97 130 187 230 275 349 407
#
# _framework density 26.002825000000001
#
# number of rings (size 3 to 8) (size 9 to 14) (size 15 to 20)
#    0.000    1.714    1.429    0.857   12.000    2.286 
#    5.143    0.000    0.000    0.000    0.000    0.000 
#    0.000    0.000    0.000    0.000    0.000    0.000 
#
# Total GULP energy -156398.632278 kJ/mol
# GULP energy per Si atom -5585.665439 kJ/mol
# Density = 2.594364 g / cm^3
# Si number density = 26.002825 Si / 1000 Ang^3
#
#
#
# Elastic Constant Matrix: (Units=GPa)
#
#
# Indices 1 2 3 4 5 6 
#
# 1 2.9865 76.2848 -6.4684 0.0000 0.0000 0.0000
# 2 76.2848 107.8799 31.0479 0.0000 0.0000 0.0000
# 3 -6.4684 31.0479 62.1711 0.0000 0.0000 0.0000
# 4 0.0000 0.0000 0.0000 44.2993 0.0000 0.0000
# 5 0.0000 0.0000 0.0000 0.0000 29.4859 0.0000
# 6 0.0000 0.0000 0.0000 0.0000 0.0000 30.1461
#
#
#
# Elastic Compliance Matrix: (Units=1/GPa)
#
#
# Indices 1 2 3 4 5 6 
#
# 1 -0.015121 0.013016 -0.008073 0.000000 0.000000 0.000000
# 2 0.013016 -0.000379 0.001543 0.000000 0.000000 0.000000
# 3 -0.008073 0.001543 0.014474 0.000000 0.000000 0.000000
# 4 0.000000 0.000000 0.000000 0.022574 0.000000 0.000000
# 5 0.000000 0.000000 0.000000 0.000000 0.033914 0.000000
# 6 0.000000 0.000000 0.000000 0.000000 0.000000 0.033172
#
#
# Mechanical properties :
#
#
# Convention : Reuss Voigt Hill
#
# Bulk Modulus (GPa) = 83.70897 41.64067 62.67482
# Shear Modulus (GPa) = 62.77951 25.59780 44.18866
#
# Velocity S-wave (km/s) = 4.91892 3.14096 4.12682
# Velocity P-wave (km/s) = 8.03263 5.40396 6.84565
#
# Compressibility (1/GPa) = 0.01194615
#
# Stress axis : x y z
#
# Youngs Moduli (GPa) = -66.13209 -2640.56759 69.08970
#
# Poissons Ratio (x) = 34.37013 0.55779
# Poissons Ratio (y) = 0.86079 -0.10663
# Poissons Ratio (z) = -0.53391 4.07531
#
# Static dielectric constant tensor:
#      x y z
#    x 2.086360 0.000000 0.000000 
#    y 0.000000 2.190140 0.000000 
#    z 0.000000 0.000000 2.068710 
# 
# From -- ./inp_files/1457.got.cif
#   From: 2010.05.17/outbox.cif.g08.bks.cpg/sg19_1_cif.got.tgz:1457.got - 2010.06.03 22:46:19.
