data_PCOD9314642
_publ_section_title
;
Structure prediction by ZEFSAII (Michael W. Deem and Ramdas Pophale) SiO2 
 PCOD9314642
Probable space group: P 21 21 21
;
_chemical_formula_sum "Si O2"
_cell_formula_units_Z 24
_cell_length_a 14.617381
_cell_length_b 7.693264
_cell_length_c 9.364721
_cell_angle_alpha 90.000000
_cell_angle_beta 90.000000
_cell_angle_gamma 90.000000
_cell_volume 1053.113175
_symmetry_space_group_name_H-M "P 21 21 21"
_symmetry_group_IT_number 19
_symmetry_cell_setting 'orthorhombic'
loop_
_space_group_symop_operation_xyz
x,y,z
1/2-x,-y,1/2+z
1/2+x,1/2-y,-z
-x,1/2+y,1/2-z
loop_
_atom_site_type_symbol
_atom_site_label
_atom_site_fract_x
_atom_site_fract_y
_atom_site_fract_z
Si Si1 0.290759 0.172576 0.255253
Si Si2 0.103716 0.635115 0.265864
Si Si3 0.092886 0.241680 0.283715
Si Si4 0.704129 0.300551 0.168592
Si Si5 0.885572 0.035413 0.567419
Si Si6 0.405956 0.939534 0.083695
O O1 0.186354 0.187980 0.206451
O O2 0.321541 0.344442 0.335161
O O3 0.300424 0.006840 0.363023
O O4 0.355925 0.119181 0.124606
O O5 0.101877 0.441786 0.330034
O O6 0.191489 0.741815 0.314490
O O7 0.004688 0.721102 0.293114
O O8 0.113785 0.604229 0.094790
O O9 0.093051 0.118354 0.421421
O O10 0.651985 0.301691 0.322795
O O11 0.650741 0.160396 0.075793
O O12 0.988387 0.048949 0.627415
#
# Coordination Sequence:
#
# PCOD9314642 Si02
#       6
#     4   4   4   4   4   4
#     4  10  22  39  69  90 130 169 216 272 317 385
#     4  11  24  41  67  93 137 173 216 273 324 396
#     4  11  22  45  62  96 134 171 221 266 329 391
#     4  10  22  39  65  98 122 171 221 258 334 372
#     4  11  21  44  63  97 132 169 218 268 323 384
#     4   9  23  40  66  92 131 169 210 275 319 386
#
# _framework density 22.789570000000001
#
# number of rings (size 3 to 8) (size 9 to 14) (size 15 to 20)
#    1.000    0.667    1.667    3.000    0.000    1.333 
#    6.000    1.667    0.000    0.000    0.000    0.000 
#    0.000    0.000    0.000    0.000    0.000    0.000 
#
# Total GULP energy -134083.451337 kJ/mol
# GULP energy per Si atom -5586.810472 kJ/mol
# Density = 2.273770 g / cm^3
# Si number density = 22.789570 Si / 1000 Ang^3
#
#
#
# Elastic Constant Matrix: (Units=GPa)
#
#
# Indices 1 2 3 4 5 6 
#
# 1 171.3001 36.1429 17.0769 0.0000 0.0000 0.0000
# 2 36.1429 98.1891 11.7335 0.0000 0.0000 0.0000
# 3 17.0769 11.7335 36.5839 0.0000 0.0000 0.0000
# 4 0.0000 0.0000 0.0000 12.7244 0.0000 0.0000
# 5 0.0000 0.0000 0.0000 0.0000 -2.9130 0.0000
# 6 0.0000 0.0000 0.0000 0.0000 0.0000 35.2422
#
#
#
# Elastic Compliance Matrix: (Units=1/GPa)
#
#
# Indices 1 2 3 4 5 6 
#
# 1 0.006520 -0.002118 -0.002364 0.000000 0.000000 0.000000
# 2 -0.002118 0.011278 -0.002629 0.000000 0.000000 0.000000
# 3 -0.002364 -0.002629 0.029281 0.000000 0.000000 0.000000
# 4 0.000000 0.000000 0.000000 0.078589 0.000000 0.000000
# 5 0.000000 0.000000 0.000000 0.000000 -0.343285 0.000000
# 6 0.000000 0.000000 0.000000 0.000000 0.000000 0.028375
#
#
# Mechanical properties :
#
#
# Convention : Reuss Voigt Hill
#
# Bulk Modulus (GPa) = 30.43389 48.44220 39.43804
# Shear Modulus (GPa) = -30.47528 25.08537 -2.69496
#
# Velocity S-wave (km/s) = -3.66081 3.32134 -1.08863
# Velocity P-wave (km/s) = 2.11787 6.00090 3.97023
#
# Compressibility (1/GPa) = 0.03285810
#
# Stress axis : x y z
#
# Youngs Moduli (GPa) = 153.36974 88.66815 34.15157
#
# Poissons Ratio (x) = 0.18776 0.08075
# Poissons Ratio (y) = 0.32476 0.08978
# Poissons Ratio (z) = 0.36263 0.23309
#
# Static dielectric constant tensor:
#      x y z
#    x 1.844200 0.000000 0.000000 
#    y 0.000000 1.828160 0.000000 
#    z 0.000000 0.000000 1.874410 
# 
# From -- ./inp_files/2800.got.cif
#   From: 2010.05.17/outbox.cif.g08.bks.cpg/sg19_2_cif.got.tgz:2800.got - 2010.06.03 22:46:19.
