data_PCOD9314897
_publ_section_title
;
Structure prediction by ZEFSAII (Michael W. Deem and Ramdas Pophale) SiO2 
 PCOD9314897
Probable space group: P 21 21 21
;
_chemical_formula_sum "Si O2"
_cell_formula_units_Z 28
_cell_length_a 7.830741
_cell_length_b 14.868767
_cell_length_c 9.657106
_cell_angle_alpha 90.000000
_cell_angle_beta 90.000000
_cell_angle_gamma 90.000000
_cell_volume 1124.410298
_symmetry_space_group_name_H-M "P 21 21 21"
_symmetry_group_IT_number 19
_symmetry_cell_setting 'orthorhombic'
loop_
_space_group_symop_operation_xyz
x,y,z
1/2-x,-y,1/2+z
1/2+x,1/2-y,-z
-x,1/2+y,1/2-z
loop_
_atom_site_type_symbol
_atom_site_label
_atom_site_fract_x
_atom_site_fract_y
_atom_site_fract_z
Si Si1 0.970298 0.667171 0.842092
Si Si2 0.716386 0.508056 0.296165
Si Si3 0.209106 0.414030 0.484742
Si Si4 0.584956 0.953367 0.756878
Si Si5 0.376609 0.204405 0.130667
Si Si6 0.483410 0.248946 0.822269
Si Si7 0.364348 0.138041 0.555392
O O1 0.910637 0.574094 0.766257
O O2 0.820849 0.683062 0.956416
O O3 0.145762 0.650982 0.922453
O O4 0.991647 0.739627 0.723108
O O5 0.625072 0.600332 0.327125
O O6 0.886791 0.524622 0.206784
O O7 0.808369 0.466363 0.432886
O O8 0.155108 0.482885 0.364045
O O9 0.297378 0.464734 0.610344
O O10 0.034941 0.364306 0.532735
O O11 0.585261 0.848850 0.712030
O O12 0.187788 0.242139 0.165421
O O13 0.413739 0.216441 0.969392
O O14 0.428587 0.180478 0.701354
#
# Coordination Sequence:
#
# PCOD9314897 Si02
#       7
#     4   4   4   4   4   4   4
#     4  10  22  43  74 108 148 201 248 318 378 446
#     4   8  22  44  67 112 151 190 256 322 374 446
#     4  11  23  48  73 106 154 201 249 315 388 458
#     4  10  25  46  76 114 152 204 251 317 391 461
#     4  11  22  42  77 114 152 201 261 318 390 456
#     4  11  23  43  77 110 155 198 265 320 380 471
#     4   9  21  46  66 106 148 191 254 316 367 452
#
# _framework density 24.901941000000001
#
# number of rings (size 3 to 8) (size 9 to 14) (size 15 to 20)
#    0.857    1.143    1.429    0.857    2.000    4.571 
#   10.286    0.000    0.000    0.000    0.000    0.000 
#    0.000    0.000    0.000    0.000    0.000    0.000 
#
# Total GULP energy -156539.839570 kJ/mol
# GULP energy per Si atom -5590.708556 kJ/mol
# Density = 2.484526 g / cm^3
# Si number density = 24.901941 Si / 1000 Ang^3
#
#
#
# Elastic Constant Matrix: (Units=GPa)
#
#
# Indices 1 2 3 4 5 6 
#
# 1 113.2103 66.8162 41.1545 0.0000 0.0000 0.0000
# 2 66.8162 139.6161 39.1598 0.0000 0.0000 0.0000
# 3 41.1545 39.1598 104.9495 0.0000 0.0000 0.0000
# 4 0.0000 0.0000 0.0000 25.5976 0.0000 0.0000
# 5 0.0000 0.0000 0.0000 0.0000 36.6483 0.0000
# 6 0.0000 0.0000 0.0000 0.0000 0.0000 48.7074
#
#
#
# Elastic Compliance Matrix: (Units=1/GPa)
#
#
# Indices 1 2 3 4 5 6 
#
# 1 0.013177 -0.005425 -0.003143 0.000000 0.000000 0.000000
# 2 -0.005425 0.010233 -0.001691 0.000000 0.000000 0.000000
# 3 -0.003143 -0.001691 0.011392 0.000000 0.000000 0.000000
# 4 0.000000 0.000000 0.000000 0.039066 0.000000 0.000000
# 5 0.000000 0.000000 0.000000 0.000000 0.027286 0.000000
# 6 0.000000 0.000000 0.000000 0.000000 0.000000 0.020531
#
#
# Mechanical properties :
#
#
# Convention : Reuss Voigt Hill
#
# Bulk Modulus (GPa) = 70.00637 72.44854 71.22746
# Shear Modulus (GPa) = 34.02179 36.23370 35.12775
#
# Velocity S-wave (km/s) = 3.70027 3.81866 3.75993
# Velocity P-wave (km/s) = 6.81394 6.97134 6.89309
#
# Compressibility (1/GPa) = 0.01428441
#
# Stress axis : x y z
#
# Youngs Moduli (GPa) = 75.88763 97.72415 87.78163
#
# Poissons Ratio (x) = 0.53012 0.27592
# Poissons Ratio (y) = 0.41167 0.14844
# Poissons Ratio (z) = 0.23853 0.16525
#
# Static dielectric constant tensor:
#      x y z
#    x 2.013280 0.000000 0.000000 
#    y 0.000000 1.993060 0.000000 
#    z 0.000000 0.000000 1.971060 
# 
# From -- ./inp_files/3023.got.cif
#   From: 2010.05.17/outbox.cif.g08.bks.cpg/sg19_2_cif.got.tgz:3023.got - 2010.06.03 22:46:19.
