data_PCOD9314989
_publ_section_title
;
Structure prediction by ZEFSAII (Michael W. Deem and Ramdas Pophale) SiO2 
 PCOD9314989
Probable space group: P 21 21 21
;
_chemical_formula_sum "Si O2"
_cell_formula_units_Z 28
_cell_length_a 12.246946
_cell_length_b 4.970878
_cell_length_c 20.759359
_cell_angle_alpha 90.000000
_cell_angle_beta 90.000000
_cell_angle_gamma 90.000000
_cell_volume 1263.789802
_symmetry_space_group_name_H-M "P 21 21 21"
_symmetry_group_IT_number 19
_symmetry_cell_setting 'orthorhombic'
loop_
_space_group_symop_operation_xyz
x,y,z
1/2-x,-y,1/2+z
1/2+x,1/2-y,-z
-x,1/2+y,1/2-z
loop_
_atom_site_type_symbol
_atom_site_label
_atom_site_fract_x
_atom_site_fract_y
_atom_site_fract_z
Si Si1 0.284379 0.513900 0.803976
Si Si2 0.666821 0.245051 0.514725
Si Si3 0.696769 0.394304 0.922520
Si Si4 0.980604 0.631332 0.534809
Si Si5 0.118534 0.626254 0.906804
Si Si6 0.664227 0.906897 0.839380
Si Si7 0.088010 0.989941 0.354894
O O1 0.167422 0.546886 0.838058
O O2 0.282460 0.425938 0.730349
O O3 0.346098 0.797566 0.811204
O O4 0.356459 0.297144 0.843518
O O5 0.709418 0.461059 0.463427
O O6 0.775558 0.115238 0.546204
O O7 0.604986 0.403238 0.572314
O O8 0.590639 0.014157 0.486401
O O9 0.665627 0.607678 0.867279
O O10 0.721095 0.110719 0.889422
O O11 0.595344 0.362172 0.971202
O O12 0.923801 0.428278 0.585849
O O13 0.971793 0.923375 0.566310
O O14 0.538421 0.003872 0.836348
#
# Coordination Sequence:
#
# PCOD9314989 Si02
#       7
#     4   4   4   4   4   4   4
#     4  11  22  39  60  87 127 166 209 256 310 378
#     4  10  23  41  64  92 131 165 207 268 317 383
#     4  11  23  38  57  93 123 162 205 250 323 367
#     4  11  22  40  63  88 127 162 208 260 313 378
#     4  10  23  38  60  92 118 163 210 250 315 376
#     4  12  23  38  59  90 128 162 206 256 310 381
#     4  11  22  38  61  90 122 168 205 254 322 383
#
# _framework density 22.155583
#
# number of rings (size 3 to 8) (size 9 to 14) (size 15 to 20)
#    0.000    1.143    1.429    6.857    2.000    4.571 
#    0.000    0.000    0.000    3.429    0.000    0.000 
#    0.000    0.000    0.000    0.000    0.000    0.000 
#
# Total GULP energy -156862.926743 kJ/mol
# GULP energy per Si atom -5602.247384 kJ/mol
# Density = 2.210516 g / cm^3
# Si number density = 22.155583 Si / 1000 Ang^3
#
#
#
# Elastic Constant Matrix: (Units=GPa)
#
#
# Indices 1 2 3 4 5 6 
#
# 1 41.9043 9.3523 -2.5067 0.0000 0.0000 0.0000
# 2 9.3523 79.2077 3.8360 0.0000 0.0000 0.0000
# 3 -2.5067 3.8360 61.8105 0.0000 0.0000 0.0000
# 4 0.0000 0.0000 0.0000 24.0758 0.0000 0.0000
# 5 0.0000 0.0000 0.0000 0.0000 15.4063 0.0000
# 6 0.0000 0.0000 0.0000 0.0000 0.0000 36.3170
#
#
#
# Elastic Compliance Matrix: (Units=1/GPa)
#
#
# Indices 1 2 3 4 5 6 
#
# 1 0.024595 -0.002961 0.001181 0.000000 0.000000 0.000000
# 2 -0.002961 0.013020 -0.000928 0.000000 0.000000 0.000000
# 3 0.001181 -0.000928 0.016284 0.000000 0.000000 0.000000
# 4 0.000000 0.000000 0.000000 0.041535 0.000000 0.000000
# 5 0.000000 0.000000 0.000000 0.000000 0.064909 0.000000
# 6 0.000000 0.000000 0.000000 0.000000 0.000000 0.027535
#
#
# Mechanical properties :
#
#
# Convention : Reuss Voigt Hill
#
# Bulk Modulus (GPa) = 20.62588 22.69842 21.66215
# Shear Modulus (GPa) = 23.87141 26.64255 25.25698
#
# Velocity S-wave (km/s) = 3.28601 3.47150 3.38003
# Velocity P-wave (km/s) = 4.87103 5.13183 5.00313
#
# Compressibility (1/GPa) = 0.04848278
#
# Stress axis : x y z
#
# Youngs Moduli (GPa) = 40.65790 76.80707 61.41005
#
# Poissons Ratio (x) = 0.22745 -0.07254
# Poissons Ratio (y) = 0.12040 0.05699
# Poissons Ratio (z) = -0.04803 0.07129
#
# Static dielectric constant tensor:
#      x y z
#    x 1.827620 0.000000 0.000000 
#    y 0.000000 1.797590 0.000000 
#    z 0.000000 0.000000 1.810260 
# 
# From -- ./inp_files/7130.got.cif
#   From: 2010.05.17/outbox.cif.g08.bks.cpg/sg19_4_cif.got.tgz:7130.got - 2010.06.03 22:46:19.
