data_PCOD9314668
_publ_section_title
;
Structure prediction by ZEFSAII (Michael W. Deem and Ramdas Pophale) SiO2 
 PCOD9314668
Probable space group: P 21 21 21
;
_chemical_formula_sum "Si O2"
_cell_formula_units_Z 20
_cell_length_a 9.095763
_cell_length_b 12.861716
_cell_length_c 7.911995
_cell_angle_alpha 90.000000
_cell_angle_beta 90.000000
_cell_angle_gamma 90.000000
_cell_volume 925.601513
_symmetry_space_group_name_H-M "P 21 21 21"
_symmetry_group_IT_number 19
_symmetry_cell_setting 'orthorhombic'
loop_
_space_group_symop_operation_xyz
x,y,z
1/2-x,-y,1/2+z
1/2+x,1/2-y,-z
-x,1/2+y,1/2-z
loop_
_atom_site_type_symbol
_atom_site_label
_atom_site_fract_x
_atom_site_fract_y
_atom_site_fract_z
Si Si1 0.550281 0.612623 0.497179
Si Si2 0.870213 0.529183 0.463874
Si Si3 0.951982 0.316633 0.366413
Si Si4 0.414626 0.418381 0.657840
Si Si5 0.585174 0.083475 0.329479
O O1 0.724746 0.595356 0.485863
O O2 0.513313 0.674140 0.667816
O O3 0.482489 0.651403 0.322106
O O4 0.024183 0.500055 0.023883
O O5 0.834749 0.409144 0.406892
O O6 0.974754 0.572100 0.316380
O O7 0.970607 0.509625 0.628806
O O8 0.908976 0.199778 0.402337
O O9 0.080218 0.352980 0.493676
O O10 0.249774 0.449626 0.709163
#
# Coordination Sequence:
#
# PCOD9314668 Si02
#       5
#     4   4   4   4   4
#     4  11  22  43  65  86 136 167 206 272 321 378
#     4   9  22  41  62  91 125 168 209 259 321 376
#     4   9  24  39  62  98 123 160 225 247 325 378
#     4  11  22  41  65  92 131 166 215 269 309 383
#     4  10  22  40  62  93 123 167 213 259 316 375
#
# _framework density 21.607569000000002
#
# number of rings (size 3 to 8) (size 9 to 14) (size 15 to 20)
#    1.200    0.800    0.000    3.600    2.800    1.600 
#    3.600    0.000    0.000    0.000    0.000    0.000 
#    0.000    0.000    0.000    0.000    0.000    0.000 
#
# Total GULP energy -111433.472519 kJ/mol
# GULP energy per Si atom -5571.673626 kJ/mol
# Density = 2.155839 g / cm^3
# Si number density = 21.607569 Si / 1000 Ang^3
#
#
#
# Elastic Constant Matrix: (Units=GPa)
#
#
# Indices 1 2 3 4 5 6 
#
# 1 127.9206 6.9634 30.1260 0.0000 0.0000 0.0000
# 2 6.9634 53.5224 -5.6978 0.0000 0.0000 0.0000
# 3 30.1260 -5.6978 79.3093 0.0000 0.0000 0.0000
# 4 0.0000 0.0000 0.0000 2.4163 0.0000 0.0000
# 5 0.0000 0.0000 0.0000 0.0000 24.4302 0.0000
# 6 0.0000 0.0000 0.0000 0.0000 0.0000 5.4144
#
#
#
# Elastic Compliance Matrix: (Units=1/GPa)
#
#
# Indices 1 2 3 4 5 6 
#
# 1 0.008703 -0.001496 -0.003413 0.000000 0.000000 0.000000
# 2 -0.001496 0.019085 0.001939 0.000000 0.000000 0.000000
# 3 -0.003413 0.001939 0.014045 0.000000 0.000000 0.000000
# 4 0.000000 0.000000 0.000000 0.413856 0.000000 0.000000
# 5 0.000000 0.000000 0.000000 0.000000 0.040933 0.000000
# 6 0.000000 0.000000 0.000000 0.000000 0.000000 0.184694
#
#
# Mechanical properties :
#
#
# Convention : Reuss Voigt Hill
#
# Bulk Modulus (GPa) = 27.86060 35.94838 31.90449
# Shear Modulus (GPa) = 7.15085 21.74291 14.44688
#
# Velocity S-wave (km/s) = 1.82115 3.17561 2.58854
# Velocity P-wave (km/s) = 4.16462 5.48808 4.87150
#
# Compressibility (1/GPa) = 0.03589299
#
# Stress axis : x y z
#
# Youngs Moduli (GPa) = 114.90852 52.39780 71.20137
#
# Poissons Ratio (x) = 0.07836 0.24302
# Poissons Ratio (y) = 0.17185 -0.13807
# Poissons Ratio (z) = 0.39220 -0.10161
#
# Static dielectric constant tensor:
#      x y z
#    x 1.769150 0.000000 0.000000 
#    y 0.000000 1.817710 0.000000 
#    z 0.000000 0.000000 1.869300 
# 
# From -- ./inp_files/2875.got.cif
#   From: 2010.05.17/outbox.cif.g08.bks.cpg/sg19_2_cif.got.tgz:2875.got - 2010.06.03 22:46:19.
