data_PCOD9314247
_publ_section_title
;
Structure prediction by ZEFSAII (Michael W. Deem and Ramdas Pophale) SiO2 
 PCOD9314247
Probable space group: P 21 21 21
;
_chemical_formula_sum "Si O2"
_cell_formula_units_Z 20
_cell_length_a 4.894458
_cell_length_b 26.718484
_cell_length_c 5.569981
_cell_angle_alpha 90.000000
_cell_angle_beta 90.000000
_cell_angle_gamma 90.000000
_cell_volume 728.400328
_symmetry_space_group_name_H-M "P 21 21 21"
_symmetry_group_IT_number 19
_symmetry_cell_setting 'orthorhombic'
loop_
_space_group_symop_operation_xyz
x,y,z
1/2-x,-y,1/2+z
1/2+x,1/2-y,-z
-x,1/2+y,1/2-z
loop_
_atom_site_type_symbol
_atom_site_label
_atom_site_fract_x
_atom_site_fract_y
_atom_site_fract_z
Si Si1 0.559659 0.162710 0.960689
Si Si2 0.558018 0.363638 0.709839
Si Si3 0.181089 0.722541 0.911600
Si Si4 0.081419 0.937929 0.308981
Si Si5 0.080860 0.539630 0.396683
O O1 0.637482 0.213632 0.825566
O O2 0.473371 0.120440 0.762530
O O3 0.839598 0.146564 0.081240
O O4 0.334114 0.156578 0.168549
O O5 0.452727 0.329875 0.493566
O O6 0.535431 0.423772 0.686843
O O7 0.412801 0.742717 0.094776
O O8 0.394333 0.944955 0.377589
O O9 0.895908 0.949959 0.546420
O O10 0.976270 0.981306 0.138274
#
# Coordination Sequence:
#
# PCOD9314247 Si02
#       5
#     4   4   4   4   4
#     4  10  23  44  66  97 140 175 220 284 341 401
#     4  10  23  44  66  97 140 175 220 284 341 401
#     4  12  26  44  70 104 128 182 242 278 346 406
#     4  10  21  38  61  96 130 172 214 259 332 398
#     4  10  21  38  61  96 130 172 214 259 332 398
#
# _framework density 27.457433999999999
#
# number of rings (size 3 to 8) (size 9 to 14) (size 15 to 20)
#    0.000    1.600    0.000    3.600    2.800    3.200 
#    3.600    0.000    0.000    0.000    0.000    0.000 
#    0.000    0.000    0.000    0.000    0.000    0.000 
#
# Total GULP energy -111909.044227 kJ/mol
# GULP energy per Si atom -5595.452211 kJ/mol
# Density = 2.739494 g / cm^3
# Si number density = 27.457434 Si / 1000 Ang^3
#
#
#
# Elastic Constant Matrix: (Units=GPa)
#
#
# Indices 1 2 3 4 5 6 
#
# 1 165.8911 51.4293 26.4890 0.0000 0.0000 0.0000
# 2 51.4293 59.8526 27.2772 0.0000 0.0000 0.0000
# 3 26.4890 27.2772 56.7529 0.0000 0.0000 0.0000
# 4 0.0000 0.0000 0.0000 47.9358 0.0000 0.0000
# 5 0.0000 0.0000 0.0000 0.0000 37.0019 0.0000
# 6 0.0000 0.0000 0.0000 0.0000 0.0000 50.1886
#
#
#
# Elastic Compliance Matrix: (Units=1/GPa)
#
#
# Indices 1 2 3 4 5 6 
#
# 1 0.008231 -0.006815 -0.000567 0.000000 0.000000 0.000000
# 2 -0.006815 0.027036 -0.009813 0.000000 0.000000 0.000000
# 3 -0.000567 -0.009813 0.022601 0.000000 0.000000 0.000000
# 4 0.000000 0.000000 0.000000 0.020861 0.000000 0.000000
# 5 0.000000 0.000000 0.000000 0.000000 0.027026 0.000000
# 6 0.000000 0.000000 0.000000 0.000000 0.000000 0.019925
#
#
# Mechanical properties :
#
#
# Convention : Reuss Voigt Hill
#
# Bulk Modulus (GPa) = 42.59141 54.76530 48.67835
# Shear Modulus (GPa) = 29.78048 38.84534 34.31291
#
# Velocity S-wave (km/s) = 3.29691 3.76539 3.53891
# Velocity P-wave (km/s) = 5.48072 6.23643 5.87075
#
# Compressibility (1/GPa) = 0.02347891
#
# Stress axis : x y z
#
# Youngs Moduli (GPa) = 121.48967 36.98828 44.24519
#
# Poissons Ratio (x) = 0.25206 0.02507
# Poissons Ratio (y) = 0.82790 0.43420
# Poissons Ratio (z) = 0.06883 0.36298
#
# Static dielectric constant tensor:
#      x y z
#    x 1.991600 0.000000 0.000000 
#    y 0.000000 2.334160 0.000000 
#    z 0.000000 0.000000 2.174110 
# 
# From -- ./inp_files/161.got.cif
#   From: 2010.05.17/outbox.cif.g08.bks.cpg/sg19_1_cif.got.tgz:161.got - 2010.06.03 22:46:19.
