data_PCOD9314262
_publ_section_title
;
Structure prediction by ZEFSAII (Michael W. Deem and Ramdas Pophale) SiO2 
 PCOD9314262
Probable space group: P 21 21 21
;
_chemical_formula_sum "Si O2"
_cell_formula_units_Z 20
_cell_length_a 17.612872
_cell_length_b 8.677562
_cell_length_c 5.071218
_cell_angle_alpha 90.000000
_cell_angle_beta 90.000000
_cell_angle_gamma 90.000000
_cell_volume 775.068674
_symmetry_space_group_name_H-M "P 21 21 21"
_symmetry_group_IT_number 19
_symmetry_cell_setting 'orthorhombic'
loop_
_space_group_symop_operation_xyz
x,y,z
1/2-x,-y,1/2+z
1/2+x,1/2-y,-z
-x,1/2+y,1/2-z
loop_
_atom_site_type_symbol
_atom_site_label
_atom_site_fract_x
_atom_site_fract_y
_atom_site_fract_z
Si Si1 0.768716 0.918055 0.076760
Si Si2 0.943145 0.918915 0.941936
Si Si3 0.146630 0.988237 0.076966
Si Si4 0.983650 0.732180 0.424066
Si Si5 0.809715 0.345791 0.913667
O O1 0.718720 0.800106 0.248057
O O2 0.768742 0.055623 0.291753
O O3 0.855646 0.880723 0.011678
O O4 0.961468 0.851486 0.654948
O O5 0.994341 0.829739 0.157780
O O6 0.956521 0.102810 0.975870
O O7 0.152773 0.859235 0.301488
O O8 0.230966 0.060473 0.058125
O O9 0.131761 0.928325 0.783973
O O10 0.088874 0.123540 0.137907
#
# Coordination Sequence:
#
# PCOD9314262 Si02
#       5
#     4   4   4   4   4
#     4  12  26  44  71 104 148 190 232 302 370 435
#     4  12  28  49  76 107 147 199 243 301 369 433
#     4  10  21  38  70  97 131 180 230 291 343 415
#     4  12  26  49  76 105 150 193 249 302 360 442
#     4  10  21  38  65 103 132 176 232 282 352 421
#
# _framework density 25.804162000000002
#
# number of rings (size 3 to 8) (size 9 to 14) (size 15 to 20)
#    0.000    0.800    2.000    4.800    5.600    4.800 
#    0.000    0.000    0.000    0.000    0.000    0.000 
#    0.000    0.000    0.000    0.000    0.000    0.000 
#
# Total GULP energy -111939.282433 kJ/mol
# GULP energy per Si atom -5596.964122 kJ/mol
# Density = 2.574543 g / cm^3
# Si number density = 25.804162 Si / 1000 Ang^3
#
#
#
# Elastic Constant Matrix: (Units=GPa)
#
#
# Indices 1 2 3 4 5 6 
#
# 1 72.8830 -5.3132 11.9051 0.0000 0.0000 0.0000
# 2 -5.3132 54.9837 -3.9820 0.0000 0.0000 0.0000
# 3 11.9051 -3.9820 101.0337 0.0000 0.0000 0.0000
# 4 0.0000 0.0000 0.0000 52.7625 0.0000 0.0000
# 5 0.0000 0.0000 0.0000 0.0000 16.4094 0.0000
# 6 0.0000 0.0000 0.0000 0.0000 0.0000 38.8857
#
#
#
# Elastic Compliance Matrix: (Units=1/GPa)
#
#
# Indices 1 2 3 4 5 6 
#
# 1 0.014074 0.001243 -0.001609 0.000000 0.000000 0.000000
# 2 0.001243 0.018349 0.000577 0.000000 0.000000 0.000000
# 3 -0.001609 0.000577 0.010110 0.000000 0.000000 0.000000
# 4 0.000000 0.000000 0.000000 0.018953 0.000000 0.000000
# 5 0.000000 0.000000 0.000000 0.000000 0.060941 0.000000
# 6 0.000000 0.000000 0.000000 0.000000 0.000000 0.025716
#
#
# Mechanical properties :
#
#
# Convention : Reuss Voigt Hill
#
# Bulk Modulus (GPa) = 23.28030 26.01337 24.64683
# Shear Modulus (GPa) = 30.85655 36.69754 33.77704
#
# Velocity S-wave (km/s) = 3.46178 3.77524 3.62190
# Velocity P-wave (km/s) = 5.00201 5.39502 5.20222
#
# Compressibility (1/GPa) = 0.04295478
#
# Stress axis : x y z
#
# Youngs Moduli (GPa) = 71.05226 54.49854 98.91141
#
# Poissons Ratio (x) = -0.06777 0.15919
# Poissons Ratio (y) = -0.08835 -0.05704
# Poissons Ratio (z) = 0.11435 -0.03143
#
# Static dielectric constant tensor:
#      x y z
#    x 2.067950 0.000000 0.000000 
#    y 0.000000 2.150100 0.000000 
#    z 0.000000 0.000000 1.968420 
# 
# From -- ./inp_files/351.got.cif
#   From: 2010.05.17/outbox.cif.g08.bks.cpg/sg19_1_cif.got.tgz:351.got - 2010.06.03 22:46:19.
