data_PCOD9314890
_publ_section_title
;
Structure prediction by ZEFSAII (Michael W. Deem and Ramdas Pophale) SiO2 
 PCOD9314890
Probable space group: P 21 21 21
;
_chemical_formula_sum "Si O2"
_cell_formula_units_Z 32
_cell_length_a 9.651390
_cell_length_b 14.598346
_cell_length_c 10.119425
_cell_angle_alpha 90.000000
_cell_angle_beta 90.000000
_cell_angle_gamma 90.000000
_cell_volume 1425.769611
_symmetry_space_group_name_H-M "P 21 21 21"
_symmetry_group_IT_number 19
_symmetry_cell_setting 'orthorhombic'
loop_
_space_group_symop_operation_xyz
x,y,z
1/2-x,-y,1/2+z
1/2+x,1/2-y,-z
-x,1/2+y,1/2-z
loop_
_atom_site_type_symbol
_atom_site_label
_atom_site_fract_x
_atom_site_fract_y
_atom_site_fract_z
Si Si1 0.050984 0.661382 0.608705
Si Si2 0.771393 0.716765 0.267205
Si Si3 0.157173 0.462884 0.509374
Si Si4 0.325482 0.969157 0.651213
Si Si5 0.111725 0.489602 0.210752
Si Si6 0.124676 0.868642 0.982744
Si Si7 0.720484 0.352003 0.255833
Si Si8 0.984997 0.298766 0.126522
O O1 0.191370 0.700166 0.668491
O O2 0.087659 0.561458 0.550050
O O3 0.937233 0.665360 0.724213
O O4 0.997618 0.733444 0.499009
O O5 0.765162 0.629714 0.363723
O O6 0.694009 0.679430 0.139801
O O7 0.930068 0.747929 0.256241
O O8 0.188942 0.465942 0.351061
O O9 0.288176 0.457048 0.609127
O O10 0.041798 0.382015 0.525231
O O11 0.472464 0.963720 0.728534
O O12 0.334745 0.025726 0.516155
O O13 0.234762 0.037847 0.738725
O O14 0.049456 0.401008 0.133253
O O15 0.199829 0.822935 0.109660
O O16 0.822426 0.308437 0.149493
#
# Coordination Sequence:
#
# PCOD9314890 Si02
#       8
#     4   4   4   4   4   4   4   4
#     4  12  25  40  72 103 140 170 239 292 351 413
#     4  12  23  41  69 103 132 178 228 297 345 409
#     4  11  22  47  68 102 141 185 236 292 341 430
#     4   8  20  44  64  93 131 186 224 273 344 420
#     4  10  22  43  70  95 138 185 232 284 347 416
#     4   9  22  43  69  89 138 182 233 274 345 427
#     4   9  22  46  66  96 133 190 221 280 348 423
#     4  11  22  42  64  99 139 174 221 292 351 400
#
# _framework density 22.444019999999998
#
# number of rings (size 3 to 8) (size 9 to 14) (size 15 to 20)
#    0.750    1.000    2.500    3.000    0.000    4.000 
#    4.500    0.000    0.000    0.000    0.000    0.000 
#    0.000    0.000    0.000    0.000    0.000    0.000 
#
# Total GULP energy -178154.827925 kJ/mol
# GULP energy per Si atom -5567.338373 kJ/mol
# Density = 2.239294 g / cm^3
# Si number density = 22.444020 Si / 1000 Ang^3
#
#
#
# Elastic Constant Matrix: (Units=GPa)
#
#
# Indices 1 2 3 4 5 6 
#
# 1 60.4639 13.3802 15.6573 0.0000 0.0000 0.0000
# 2 13.3802 48.5035 10.3879 0.0000 0.0000 0.0000
# 3 15.6573 10.3879 87.8967 0.0000 0.0000 0.0000
# 4 0.0000 0.0000 0.0000 34.1605 0.0000 0.0000
# 5 0.0000 0.0000 0.0000 0.0000 33.0944 0.0000
# 6 0.0000 0.0000 0.0000 0.0000 0.0000 18.5608
#
#
#
# Elastic Compliance Matrix: (Units=1/GPa)
#
#
# Indices 1 2 3 4 5 6 
#
# 1 0.018227 -0.004445 -0.002722 0.000000 0.000000 0.000000
# 2 -0.004445 0.022237 -0.001836 0.000000 0.000000 0.000000
# 3 -0.002722 -0.001836 0.012079 0.000000 0.000000 0.000000
# 4 0.000000 0.000000 0.000000 0.029274 0.000000 0.000000
# 5 0.000000 0.000000 0.000000 0.000000 0.030217 0.000000
# 6 0.000000 0.000000 0.000000 0.000000 0.000000 0.053877
#
#
# Mechanical properties :
#
#
# Convention : Reuss Voigt Hill
#
# Bulk Modulus (GPa) = 28.95472 30.63502 29.79487
# Shear Modulus (GPa) = 25.58489 27.65906 26.62197
#
# Velocity S-wave (km/s) = 3.37997 3.51430 3.44779
# Velocity P-wave (km/s) = 5.30670 5.49056 5.39941
#
# Compressibility (1/GPa) = 0.03453668
#
# Stress axis : x y z
#
# Youngs Moduli (GPa) = 54.86293 44.97093 82.78983
#
# Poissons Ratio (x) = 0.19991 0.22531
# Poissons Ratio (y) = 0.24388 0.15201
# Poissons Ratio (z) = 0.14931 0.08257
#
# Static dielectric constant tensor:
#      x y z
#    x 1.845500 0.000000 0.000000 
#    y 0.000000 1.836640 0.000000 
#    z 0.000000 0.000000 1.875870 
# 
# From -- ./inp_files/4816.got.cif
#   From: 2010.05.17/outbox.cif.g08.bks.cpg/sg19_3_cif.got.tgz:4816.got - 2010.06.03 22:46:19.
