data_PCOD9314943
_publ_section_title
;
Structure prediction by ZEFSAII (Michael W. Deem and Ramdas Pophale) SiO2 
 PCOD9314943
Probable space group: P 21 21 21
;
_chemical_formula_sum "Si O2"
_cell_formula_units_Z 28
_cell_length_a 14.983523
_cell_length_b 12.259892
_cell_length_c 7.127701
_cell_angle_alpha 90.000000
_cell_angle_beta 90.000000
_cell_angle_gamma 90.000000
_cell_volume 1309.332827
_symmetry_space_group_name_H-M "P 21 21 21"
_symmetry_group_IT_number 19
_symmetry_cell_setting 'orthorhombic'
loop_
_space_group_symop_operation_xyz
x,y,z
1/2-x,-y,1/2+z
1/2+x,1/2-y,-z
-x,1/2+y,1/2-z
loop_
_atom_site_type_symbol
_atom_site_label
_atom_site_fract_x
_atom_site_fract_y
_atom_site_fract_z
Si Si1 0.114503 0.960965 0.764574
Si Si2 0.756136 0.850694 0.677460
Si Si3 0.757170 0.270340 0.822971
Si Si4 0.020040 0.089917 0.465888
Si Si5 0.041128 0.287972 0.728865
Si Si6 0.322024 0.421766 0.446429
Si Si7 0.572927 0.358599 0.933483
O O1 0.197293 0.879510 0.752137
O O2 0.027678 0.885441 0.792970
O O3 0.098343 0.021707 0.566203
O O4 0.116468 0.049623 0.930983
O O5 0.719883 0.759583 0.537432
O O6 0.855825 0.821035 0.747106
O O7 0.766348 0.967325 0.574779
O O8 0.695042 0.866596 0.854853
O O9 0.790878 0.167501 0.703740
O O10 0.650946 0.287864 0.834622
O O11 0.030600 0.210913 0.549137
O O12 0.020927 0.089072 0.241194
O O13 0.926395 0.049853 0.553317
O O14 0.020148 0.217788 0.918726
#
# Coordination Sequence:
#
# PCOD9314943 Si02
#       7
#     4   4   4   4   4   4   4
#     4  11  24  42  70  95 136 174 220 282 328 398
#     4  11  24  41  66  95 132 169 218 271 334 397
#     4  11  25  46  65  97 135 175 223 272 338 394
#     4  11  24  42  66  98 132 172 225 268 330 394
#     4  10  22  45  62  94 134 169 212 283 329 379
#     4  12  23  39  69  99 127 176 213 274 333 390
#     4  10  26  43  66  96 130 179 223 272 332 404
#
# _framework density 21.384934999999999
#
# number of rings (size 3 to 8) (size 9 to 14) (size 15 to 20)
#    0.000    1.143    4.286    0.857    4.000    3.429 
#    0.000    0.000    0.000    0.000    0.000    0.000 
#    0.000    0.000    0.000    0.000    0.000    0.000 
#
# Total GULP energy -156437.225516 kJ/mol
# GULP energy per Si atom -5587.043768 kJ/mol
# Density = 2.133626 g / cm^3
# Si number density = 21.384935 Si / 1000 Ang^3
#
#
#
# Elastic Constant Matrix: (Units=GPa)
#
#
# Indices 1 2 3 4 5 6 
#
# 1 32.8017 -9.0530 9.0264 0.0000 0.0000 0.0000
# 2 -9.0530 11.3352 3.4045 0.0000 0.0000 0.0000
# 3 9.0264 3.4045 87.2572 0.0000 0.0000 0.0000
# 4 0.0000 0.0000 0.0000 18.1843 0.0000 0.0000
# 5 0.0000 0.0000 0.0000 0.0000 3.2143 0.0000
# 6 0.0000 0.0000 0.0000 0.0000 0.0000 32.1803
#
#
#
# Elastic Compliance Matrix: (Units=1/GPa)
#
#
# Indices 1 2 3 4 5 6 
#
# 1 0.041716 0.035023 -0.005682 0.000000 0.000000 0.000000
# 2 0.035023 0.118671 -0.008253 0.000000 0.000000 0.000000
# 3 -0.005682 -0.008253 0.012370 0.000000 0.000000 0.000000
# 4 0.000000 0.000000 0.000000 0.054993 0.000000 0.000000
# 5 0.000000 0.000000 0.000000 0.000000 0.311108 0.000000
# 6 0.000000 0.000000 0.000000 0.000000 0.000000 0.031075
#
#
# Mechanical properties :
#
#
# Convention : Reuss Voigt Hill
#
# Bulk Modulus (GPa) = 4.65262 15.35000 10.00131
# Shear Modulus (GPa) = 8.34167 19.25019 13.79593
#
# Velocity S-wave (km/s) = 1.97717 3.00355 2.54268
# Velocity P-wave (km/s) = 2.71894 4.38428 3.64791
#
# Compressibility (1/GPa) = 0.21493287
#
# Stress axis : x y z
#
# Youngs Moduli (GPa) = 23.97174 8.42668 80.83977
#
# Poissons Ratio (x) = -0.29513 0.45932
# Poissons Ratio (y) = -0.83957 0.66719
# Poissons Ratio (z) = 0.13620 0.06955
#
# Static dielectric constant tensor:
#      x y z
#    x 1.821370 0.000000 0.000000 
#    y 0.000000 1.781890 0.000000 
#    z 0.000000 0.000000 1.773640 
# 
# From -- ./inp_files/1740.got.cif
#   From: 2010.05.17/outbox.cif.g08.bks.cpg/sg19_1_cif.got.tgz:1740.got - 2010.06.03 22:46:19.
