data_PCOD9314825
_publ_section_title
;
Structure prediction by ZEFSAII (Michael W. Deem and Ramdas Pophale) SiO2 
 PCOD9314825
Probable space group: P 21 21 21
;
_chemical_formula_sum "Si O2"
_cell_formula_units_Z 32
_cell_length_a 8.171053
_cell_length_b 11.379108
_cell_length_c 13.982630
_cell_angle_alpha 90.000000
_cell_angle_beta 90.000000
_cell_angle_gamma 90.000000
_cell_volume 1300.095074
_symmetry_space_group_name_H-M "P 21 21 21"
_symmetry_group_IT_number 19
_symmetry_cell_setting 'orthorhombic'
loop_
_space_group_symop_operation_xyz
x,y,z
1/2-x,-y,1/2+z
1/2+x,1/2-y,-z
-x,1/2+y,1/2-z
loop_
_atom_site_type_symbol
_atom_site_label
_atom_site_fract_x
_atom_site_fract_y
_atom_site_fract_z
Si Si1 0.325222 0.583905 0.802441
Si Si2 0.627287 0.687408 0.206919
Si Si3 0.870766 0.267519 0.368620
Si Si4 0.176941 0.145814 0.114385
Si Si5 0.544976 0.998216 0.901135
Si Si6 0.789885 0.429320 0.519004
Si Si7 0.210926 0.321366 0.814956
Si Si8 0.983112 0.793370 0.519068
O O1 0.170784 0.673392 0.798111
O O2 0.460390 0.657768 0.862652
O O3 0.393025 0.560148 0.695005
O O4 0.288222 0.450128 0.834099
O O5 0.779327 0.637672 0.273655
O O6 0.607668 0.634766 0.101045
O O7 0.462143 0.653835 0.261085
O O8 0.893117 0.134439 0.403059
O O9 0.745820 0.329439 0.441380
O O10 0.809972 0.255095 0.260651
O O11 0.343021 0.202880 0.070384
O O12 0.026028 0.225100 0.080618
O O13 0.149663 0.028892 0.053587
O O14 0.352024 0.985812 0.917375
O O15 0.585246 0.078204 0.992141
O O16 0.148389 0.246879 0.905187
#
# Coordination Sequence:
#
# PCOD9314825 Si02
#       8
#     4   4   4   4   4   4   4   4
#     4  11  24  47  73 103 148 196 243 305 367 445
#     4  11  24  46  70 104 144 192 236 308 370 428
#     4  11  26  44  72 105 142 198 240 303 369 440
#     4  10  24  42  65  99 134 190 233 294 357 436
#     4  10  23  45  69 103 140 189 246 295 363 440
#     4  11  26  41  73 102 143 188 243 306 365 434
#     4  10  27  43  71 109 146 189 242 303 366 439
#     4  10  22  42  67  97 141 178 237 292 353 432
#
# _framework density 24.613586000000002
#
# number of rings (size 3 to 8) (size 9 to 14) (size 15 to 20)
#    0.000    1.500    2.500    0.000    8.750    5.000 
#    2.250    0.000    0.000    0.000    0.000    0.000 
#    0.000    0.000    0.000    0.000    0.000    0.000 
#
# Total GULP energy -178614.767656 kJ/mol
# GULP energy per Si atom -5581.711489 kJ/mol
# Density = 2.455756 g / cm^3
# Si number density = 24.613586 Si / 1000 Ang^3
#
#
#
# Elastic Constant Matrix: (Units=GPa)
#
#
# Indices 1 2 3 4 5 6 
#
# 1 41.5812 13.0401 3.1328 0.0000 0.0000 0.0000
# 2 13.0401 73.4647 15.0747 0.0000 0.0000 0.0000
# 3 3.1328 15.0747 78.7362 0.0000 0.0000 0.0000
# 4 0.0000 0.0000 0.0000 28.1914 0.0000 0.0000
# 5 0.0000 0.0000 0.0000 0.0000 21.8657 0.0000
# 6 0.0000 0.0000 0.0000 0.0000 0.0000 18.2922
#
#
#
# Elastic Compliance Matrix: (Units=1/GPa)
#
#
# Indices 1 2 3 4 5 6 
#
# 1 0.025469 -0.004489 -0.000154 0.000000 0.000000 0.000000
# 2 -0.004489 0.014960 -0.002686 0.000000 0.000000 0.000000
# 3 -0.000154 -0.002686 0.013221 0.000000 0.000000 0.000000
# 4 0.000000 0.000000 0.000000 0.035472 0.000000 0.000000
# 5 0.000000 0.000000 0.000000 0.000000 0.045734 0.000000
# 6 0.000000 0.000000 0.000000 0.000000 0.000000 0.054668
#
#
# Mechanical properties :
#
#
# Convention : Reuss Voigt Hill
#
# Bulk Modulus (GPa) = 25.64608 28.47525 27.06066
# Shear Modulus (GPa) = 23.02259 24.50548 23.76404
#
# Velocity S-wave (km/s) = 3.06169 3.15875 3.11060
# Velocity P-wave (km/s) = 4.78964 4.98975 4.89072
#
# Compressibility (1/GPa) = 0.03899232
#
# Stress axis : x y z
#
# Youngs Moduli (GPa) = 39.26386 66.84545 75.63762
#
# Poissons Ratio (x) = 0.30008 0.01164
# Poissons Ratio (y) = 0.17626 0.20313
# Poissons Ratio (z) = 0.00604 0.17952
#
# Static dielectric constant tensor:
#      x y z
#    x 2.023470 0.000000 0.000000 
#    y 0.000000 2.003940 0.000000 
#    z 0.000000 0.000000 2.046990 
# 
# From -- ./inp_files/5904.got.cif
#   From: 2010.05.17/outbox.cif.g08.bks.cpg/sg19_3_cif.got.tgz:5904.got - 2010.06.03 22:46:19.
