data_PCOD9314631
_publ_section_title
;
Structure prediction by ZEFSAII (Michael W. Deem and Ramdas Pophale) SiO2 
 PCOD9314631
Probable space group: P 21 21 21
;
_chemical_formula_sum "Si O2"
_cell_formula_units_Z 24
_cell_length_a 6.989880
_cell_length_b 16.809468
_cell_length_c 9.396373
_cell_angle_alpha 90.000000
_cell_angle_beta 90.000000
_cell_angle_gamma 90.000000
_cell_volume 1104.037785
_symmetry_space_group_name_H-M "P 21 21 21"
_symmetry_group_IT_number 19
_symmetry_cell_setting 'orthorhombic'
loop_
_space_group_symop_operation_xyz
x,y,z
1/2-x,-y,1/2+z
1/2+x,1/2-y,-z
-x,1/2+y,1/2-z
loop_
_atom_site_type_symbol
_atom_site_label
_atom_site_fract_x
_atom_site_fract_y
_atom_site_fract_z
Si Si1 0.931837 0.186489 0.909398
Si Si2 0.287584 0.134376 0.083336
Si Si3 0.388372 0.558061 0.913361
Si Si4 0.888076 0.941952 0.413358
Si Si5 0.212699 0.865629 0.916663
Si Si6 0.431554 0.313506 0.409556
O O1 0.889302 0.279136 0.932564
O O2 0.731420 0.140342 0.911434
O O3 0.015356 0.177148 0.749881
O O4 0.076922 0.147786 0.020575
O O5 0.284457 0.114199 0.249997
O O6 0.413653 0.072768 0.993740
O O7 0.415307 0.532257 0.749992
O O8 0.268871 0.640354 0.911474
O O9 0.250198 0.500012 0.000059
O O10 0.586739 0.572776 0.993620
O O11 0.111024 0.779139 0.932674
O O12 0.423481 0.852222 0.979195
#
# Coordination Sequence:
#
# PCOD9314631 Si02
#       6
#     4   4   4   4   4   4
#     4  10  22  39  62  91 123 159 204 252 302 363
#     4  11  22  38  64  94 122 160 205 253 307 363
#     4  11  24  43  63  91 127 164 204 255 309 365
#     4  11  24  43  63  91 127 164 204 255 309 365
#     4  11  22  38  64  94 122 160 205 253 307 363
#     4  10  22  39  62  91 123 159 204 252 302 363
#
# _framework density 21.738385000000001
#
# number of rings (size 3 to 8) (size 9 to 14) (size 15 to 20)
#    0.000    1.333    3.333    2.000    0.000    5.333 
#    0.000    0.000    0.000    0.000    0.000    0.000 
#    0.000    0.000    0.000    0.000    0.000    0.000 
#
# Total GULP energy -134268.187020 kJ/mol
# GULP energy per Si atom -5594.507793 kJ/mol
# Density = 2.168891 g / cm^3
# Si number density = 21.738385 Si / 1000 Ang^3
#
#
#
# Elastic Constant Matrix: (Units=GPa)
#
#
# Indices 1 2 3 4 5 6 
#
# 1 91.4980 0.0957 58.9380 0.0000 0.0000 0.0000
# 2 0.0957 42.9663 22.7285 0.0000 0.0000 0.0000
# 3 58.9380 22.7285 144.5546 0.0000 0.0000 0.0000
# 4 0.0000 0.0000 0.0000 28.0779 0.0000 0.0000
# 5 0.0000 0.0000 0.0000 0.0000 40.6662 0.0000
# 6 0.0000 0.0000 0.0000 0.0000 0.0000 45.1348
#
#
#
# Elastic Compliance Matrix: (Units=1/GPa)
#
#
# Indices 1 2 3 4 5 6 
#
# 1 0.015306 0.003564 -0.006801 0.000000 0.000000 0.000000
# 2 0.003564 0.026215 -0.005575 0.000000 0.000000 0.000000
# 3 -0.006801 -0.005575 0.010567 0.000000 0.000000 0.000000
# 4 0.000000 0.000000 0.000000 0.035615 0.000000 0.000000
# 5 0.000000 0.000000 0.000000 0.000000 0.024590 0.000000
# 6 0.000000 0.000000 0.000000 0.000000 0.000000 0.022156
#
#
# Mechanical properties :
#
#
# Convention : Reuss Voigt Hill
#
# Bulk Modulus (GPa) = 29.01565 49.17147 39.09356
# Shear Modulus (GPa) = 30.56933 35.92623 33.24778
#
# Velocity S-wave (km/s) = 3.75405 4.06971 3.91506
# Velocity P-wave (km/s) = 5.67161 6.68970 6.20158
#
# Compressibility (1/GPa) = 0.03446416
#
# Stress axis : x y z
#
# Youngs Moduli (GPa) = 65.33258 38.14597 94.63212
#
# Poissons Ratio (x) = -0.13593 0.64359
# Poissons Ratio (y) = -0.23281 0.52755
# Poissons Ratio (z) = 0.44433 0.21265
#
# Static dielectric constant tensor:
#      x y z
#    x 1.746330 0.000000 0.000000 
#    y 0.000000 1.818380 0.000000 
#    z 0.000000 0.000000 1.761230 
# 
# From -- ./inp_files/423.got.cif
#   From: 2010.05.17/outbox.cif.g08.bks.cpg/sg19_1_cif.got.tgz:423.got - 2010.06.03 22:46:19.
