data_PCOD9314283
_publ_section_title
;
Structure prediction by ZEFSAII (Michael W. Deem and Ramdas Pophale) SiO2 
 PCOD9314283
Probable space group: P 21 21 21
;
_chemical_formula_sum "Si O2"
_cell_formula_units_Z 32
_cell_length_a 16.785395
_cell_length_b 11.649878
_cell_length_c 8.692641
_cell_angle_alpha 90.000000
_cell_angle_beta 90.000000
_cell_angle_gamma 90.000000
_cell_volume 1699.826858
_symmetry_space_group_name_H-M "P 21 21 21"
_symmetry_group_IT_number 19
_symmetry_cell_setting 'orthorhombic'
loop_
_space_group_symop_operation_xyz
x,y,z
1/2-x,-y,1/2+z
1/2+x,1/2-y,-z
-x,1/2+y,1/2-z
loop_
_atom_site_type_symbol
_atom_site_label
_atom_site_fract_x
_atom_site_fract_y
_atom_site_fract_z
Si Si1 0.734417 0.926431 0.841896
Si Si2 0.498351 0.290484 0.022371
Si Si3 0.879376 0.282134 0.726340
Si Si4 0.072364 0.596706 0.029548
Si Si5 0.461466 0.743353 0.818792
Si Si6 0.007799 0.940903 0.935482
Si Si7 0.612665 0.123623 0.168657
Si Si8 0.219649 0.334268 0.318137
O O1 0.642578 0.885768 0.844803
O O2 0.794924 0.875924 0.715115
O O3 0.732085 0.062030 0.803285
O O4 0.764918 0.890504 0.012445
O O5 0.420989 0.243657 0.111583
O O6 0.502611 0.427054 0.023549
O O7 0.574978 0.242016 0.114060
O O8 0.504098 0.244762 0.851121
O O9 0.912658 0.182131 0.613165
O O10 0.913823 0.400146 0.657686
O O11 0.785683 0.261724 0.718309
O O12 0.989166 0.637342 0.100858
O O13 0.087708 0.471099 0.959083
O O14 0.367710 0.719097 0.813487
O O15 0.499191 0.640260 0.917267
O O16 0.934229 0.912811 0.822578
#
# Coordination Sequence:
#
# PCOD9314283 Si02
#       8
#     4   4   4   4   4   4   4   4
#     4  11  20  34  63  94 129 157 215 271 320 373
#     4  11  23  38  64  90 128 168 212 260 328 391
#     4   9  20  40  64  87 121 168 214 256 319 393
#     4  10  21  39  59  95 128 164 207 262 322 382
#     4  11  25  37  63  94 131 165 215 273 323 383
#     4  10  21  40  63  87 129 171 211 261 323 387
#     4  11  20  38  64  98 122 169 213 258 327 385
#     4  11  22  38  64  97 124 168 213 277 326 380
#
# _framework density 18.825447
#
# number of rings (size 3 to 8) (size 9 to 14) (size 15 to 20)
#    0.000    1.500    5.000    0.750    3.500    0.000 
#    0.000    0.000   13.750    0.000    0.000    0.000 
#    0.000    0.000    0.000    0.000    0.000    0.000 
#
# Total GULP energy -178534.218897 kJ/mol
# GULP energy per Si atom -5579.194341 kJ/mol
# Density = 1.878260 g / cm^3
# Si number density = 18.825447 Si / 1000 Ang^3
#
#
#
# Elastic Constant Matrix: (Units=GPa)
#
#
# Indices 1 2 3 4 5 6 
#
# 1 99.2249 28.5710 60.1879 0.0000 0.0000 0.0000
# 2 28.5710 62.9695 49.4907 0.0000 0.0000 0.0000
# 3 60.1879 49.4907 94.0752 0.0000 0.0000 0.0000
# 4 0.0000 0.0000 0.0000 29.5528 0.0000 0.0000
# 5 0.0000 0.0000 0.0000 0.0000 26.4618 0.0000
# 6 0.0000 0.0000 0.0000 0.0000 0.0000 19.1584
#
#
#
# Elastic Compliance Matrix: (Units=1/GPa)
#
#
# Indices 1 2 3 4 5 6 
#
# 1 0.016540 0.001385 -0.011311 0.000000 0.000000 0.000000
# 2 0.001385 0.027192 -0.015191 0.000000 0.000000 0.000000
# 3 -0.011311 -0.015191 0.025858 0.000000 0.000000 0.000000
# 4 0.000000 0.000000 0.000000 0.033838 0.000000 0.000000
# 5 0.000000 0.000000 0.000000 0.000000 0.037790 0.000000
# 6 0.000000 0.000000 0.000000 0.000000 0.000000 0.052197
#
#
# Mechanical properties :
#
#
# Convention : Reuss Voigt Hill
#
# Bulk Modulus (GPa) = 51.66317 59.19652 55.42985
# Shear Modulus (GPa) = 19.99204 22.90259 21.44732
#
# Velocity S-wave (km/s) = 3.26232 3.49173 3.37897
# Velocity P-wave (km/s) = 6.45702 6.91154 6.68815
#
# Compressibility (1/GPa) = 0.01935615
#
# Stress axis : x y z
#
# Youngs Moduli (GPa) = 60.45873 36.77613 38.67315
#
# Poissons Ratio (x) = -0.05093 0.43742
# Poissons Ratio (y) = -0.08373 0.58748
# Poissons Ratio (z) = 0.68383 0.55866
#
# Static dielectric constant tensor:
#      x y z
#    x 1.675450 0.000000 0.000000 
#    y 0.000000 1.640590 0.000000 
#    z 0.000000 0.000000 1.690040 
# 
# From -- ./inp_files/3749.got.cif
#   From: 2010.05.17/outbox.cif.g08.bks.cpg/sg19_2_cif.got.tgz:3749.got - 2010.06.03 22:46:19.
