data_PCOD9314574
_publ_section_title
;
Structure prediction by ZEFSAII (Michael W. Deem and Ramdas Pophale) SiO2 
 PCOD9314574
Probable space group: P 21 21 21
;
_chemical_formula_sum "Si O2"
_cell_formula_units_Z 20
_cell_length_a 11.604678
_cell_length_b 6.088950
_cell_length_c 12.182583
_cell_angle_alpha 90.000000
_cell_angle_beta 90.000000
_cell_angle_gamma 90.000000
_cell_volume 860.825020
_symmetry_space_group_name_H-M "P 21 21 21"
_symmetry_group_IT_number 19
_symmetry_cell_setting 'orthorhombic'
loop_
_space_group_symop_operation_xyz
x,y,z
1/2-x,-y,1/2+z
1/2+x,1/2-y,-z
-x,1/2+y,1/2-z
loop_
_atom_site_type_symbol
_atom_site_label
_atom_site_fract_x
_atom_site_fract_y
_atom_site_fract_z
Si Si1 0.004813 0.522341 0.588134
Si Si2 0.850456 0.244193 0.746669
Si Si3 0.311576 0.618821 0.431584
Si Si4 0.354503 0.078708 0.808142
Si Si5 0.936910 0.181382 0.408364
O O1 0.953062 0.389228 0.693129
O O2 0.909282 0.698143 0.552952
O O3 0.006125 0.343601 0.491274
O O4 0.113202 0.660941 0.632995
O O5 0.737257 0.390151 0.725708
O O6 0.835394 0.026423 0.675683
O O7 0.199232 0.755297 0.397661
O O8 0.334112 0.443617 0.527873
O O9 0.384148 0.194669 0.694513
O O10 0.469512 0.983168 0.860081
#
# Coordination Sequence:
#
# PCOD9314574 Si02
#       5
#     4   4   4   4   4
#     4  10  21  46  74 107 147 190 249 319 378 455
#     4  10  21  46  74 107 147 190 249 319 378 455
#     4  10  24  50  76 108 144 200 258 312 390 454
#     4  11  28  51  71 110 158 201 254 325 388 461
#     4  11  28  51  71 110 158 201 254 325 388 461
#
# _framework density 23.233525
#
# number of rings (size 3 to 8) (size 9 to 14) (size 15 to 20)
#    0.000    1.600    2.000    0.000    5.600    0.000 
#   28.800    0.000    0.000    0.000    0.000    0.000 
#    0.000    0.000    0.000    0.000    0.000    0.000 
#
# Total GULP energy -111867.212403 kJ/mol
# GULP energy per Si atom -5593.360620 kJ/mol
# Density = 2.318064 g / cm^3
# Si number density = 23.233525 Si / 1000 Ang^3
#
#
#
# Elastic Constant Matrix: (Units=GPa)
#
#
# Indices 1 2 3 4 5 6 
#
# 1 51.5221 6.1683 48.2511 0.0000 0.0000 0.0000
# 2 6.1683 85.1461 55.6154 0.0000 0.0000 0.0000
# 3 48.2511 55.6154 167.6641 0.0000 0.0000 0.0000
# 4 0.0000 0.0000 0.0000 34.2241 0.0000 0.0000
# 5 0.0000 0.0000 0.0000 0.0000 23.1822 0.0000
# 6 0.0000 0.0000 0.0000 0.0000 0.0000 37.1124
#
#
#
# Elastic Compliance Matrix: (Units=1/GPa)
#
#
# Indices 1 2 3 4 5 6 
#
# 1 0.027635 0.004076 -0.009305 0.000000 0.000000 0.000000
# 2 0.004076 0.015594 -0.006346 0.000000 0.000000 0.000000
# 3 -0.009305 -0.006346 0.010747 0.000000 0.000000 0.000000
# 4 0.000000 0.000000 0.000000 0.029219 0.000000 0.000000
# 5 0.000000 0.000000 0.000000 0.000000 0.043137 0.000000
# 6 0.000000 0.000000 0.000000 0.000000 0.000000 0.026945
#
#
# Mechanical properties :
#
#
# Convention : Reuss Voigt Hill
#
# Bulk Modulus (GPa) = 32.43923 58.26689 45.35306
# Shear Modulus (GPa) = 26.78053 31.85689 29.31871
#
# Velocity S-wave (km/s) = 3.39878 3.70694 3.55620
# Velocity P-wave (km/s) = 5.42170 6.59205 6.03531
#
# Compressibility (1/GPa) = 0.03082687
#
# Stress axis : x y z
#
# Youngs Moduli (GPa) = 36.18539 64.12702 93.04899
#
# Poissons Ratio (x) = -0.26137 0.86582
# Poissons Ratio (y) = -0.14748 0.59045
# Poissons Ratio (z) = 0.33671 0.40693
#
# Static dielectric constant tensor:
#      x y z
#    x 1.875040 0.000000 0.000000 
#    y 0.000000 1.912510 0.000000 
#    z 0.000000 0.000000 1.848830 
# 
# From -- ./inp_files/4873.got.cif
#   From: 2010.05.17/outbox.cif.g08.bks.cpg/sg19_3_cif.got.tgz:4873.got - 2010.06.03 22:46:19.
