data_PCOD9314662
_publ_section_title
;
Structure prediction by ZEFSAII (Michael W. Deem and Ramdas Pophale) SiO2 
 PCOD9314662
Probable space group: P 21 21 21
;
_chemical_formula_sum "Si O2"
_cell_formula_units_Z 32
_cell_length_a 18.870094
_cell_length_b 7.988539
_cell_length_c 8.346265
_cell_angle_alpha 90.000000
_cell_angle_beta 90.000000
_cell_angle_gamma 90.000000
_cell_volume 1258.153393
_symmetry_space_group_name_H-M "P 21 21 21"
_symmetry_group_IT_number 19
_symmetry_cell_setting 'orthorhombic'
loop_
_space_group_symop_operation_xyz
x,y,z
1/2-x,-y,1/2+z
1/2+x,1/2-y,-z
-x,1/2+y,1/2-z
loop_
_atom_site_type_symbol
_atom_site_label
_atom_site_fract_x
_atom_site_fract_y
_atom_site_fract_z
Si Si1 0.623575 0.213602 0.400715
Si Si2 0.379301 0.234024 0.379568
Si Si3 0.938934 0.149199 0.959246
Si Si4 0.184698 0.794634 0.372725
Si Si5 0.757283 0.409448 0.468366
Si Si6 0.005576 0.145300 0.437687
Si Si7 0.685872 0.094233 0.069090
Si Si8 0.566193 0.214576 0.884781
O O1 0.695719 0.270215 0.486628
O O2 0.564212 0.356207 0.422116
O O3 0.646119 0.176805 0.220060
O O4 0.587216 0.041816 0.459622
O O5 0.412715 0.268651 0.206601
O O6 0.320873 0.092297 0.402436
O O7 0.443640 0.230752 0.504712
O O8 0.334762 0.401022 0.427273
O O9 0.896221 0.245521 0.100192
O O10 0.021754 0.173527 0.989548
O O11 0.204526 0.873580 0.201509
O O12 0.232136 0.630093 0.404466
O O13 0.213976 0.921033 0.506852
O O14 0.048959 0.207352 0.285391
O O15 0.968972 0.968830 0.404324
O O16 0.648826 0.185562 0.919348
#
# Coordination Sequence:
#
# PCOD9314662 Si02
#       8
#     4   4   4   4   4   4   4   4
#     4  10  22  40  61  85 116 154 193 240 293 348
#     4  10  22  40  61  85 116 154 193 240 293 348
#     4  11  22  39  62  86 116 153 194 239 294 348
#     4  11  23  39  60  88 119 154 196 242 291 348
#     4  11  23  39  60  87 119 153 195 241 290 346
#     4  11  23  39  60  87 119 153 195 241 290 346
#     4   9  22  41  60  84 116 155 194 237 294 350
#     4  11  23  39  60  88 119 154 196 242 291 348
#
# _framework density 25.434100999999998
#
# number of rings (size 3 to 8) (size 9 to 14) (size 15 to 20)
#    0.000    1.500    0.000    4.500    0.000    7.000 
#    0.000    0.000    0.000    0.000    0.000    0.000 
#    0.000    0.000    0.000    0.000    0.000    0.000 
#
# Total GULP energy -179229.889971 kJ/mol
# GULP energy per Si atom -5600.934062 kJ/mol
# Density = 2.537621 g / cm^3
# Si number density = 25.434101 Si / 1000 Ang^3
#
#
#
# Elastic Constant Matrix: (Units=GPa)
#
#
# Indices 1 2 3 4 5 6 
#
# 1 67.5272 -14.3235 0.0625 0.0000 0.0000 0.0000
# 2 -14.3235 52.9112 3.0407 0.0000 0.0000 0.0000
# 3 0.0625 3.0407 54.0033 0.0000 0.0000 0.0000
# 4 0.0000 0.0000 0.0000 23.3252 0.0000 0.0000
# 5 0.0000 0.0000 0.0000 0.0000 37.6580 0.0000
# 6 0.0000 0.0000 0.0000 0.0000 0.0000 37.3586
#
#
#
# Elastic Compliance Matrix: (Units=1/GPa)
#
#
# Indices 1 2 3 4 5 6 
#
# 1 0.015715 0.004269 -0.000259 0.000000 0.000000 0.000000
# 2 0.004269 0.020121 -0.001138 0.000000 0.000000 0.000000
# 3 -0.000259 -0.001138 0.018582 0.000000 0.000000 0.000000
# 4 0.000000 0.000000 0.000000 0.042872 0.000000 0.000000
# 5 0.000000 0.000000 0.000000 0.000000 0.026555 0.000000
# 6 0.000000 0.000000 0.000000 0.000000 0.000000 0.026768
#
#
# Mechanical properties :
#
#
# Convention : Reuss Voigt Hill
#
# Bulk Modulus (GPa) = 16.62180 16.88902 16.75541
# Shear Modulus (GPa) = 30.31766 32.04583 31.18175
#
# Velocity S-wave (km/s) = 3.45629 3.55344 3.50520
# Velocity P-wave (km/s) = 4.74103 4.84671 4.79416
#
# Compressibility (1/GPa) = 0.06016197
#
# Stress axis : x y z
#
# Youngs Moduli (GPa) = 63.63515 49.70028 53.81619
#
# Poissons Ratio (x) = -0.21217 0.01392
# Poissons Ratio (y) = -0.27165 0.06124
# Poissons Ratio (z) = 0.01645 0.05655
#
# Static dielectric constant tensor:
#      x y z
#    x 1.971360 0.000000 0.000000 
#    y 0.000000 2.000380 0.000000 
#    z 0.000000 0.000000 2.025060 
# 
# From -- ./inp_files/3045.got.cif
#   From: 2010.05.17/outbox.cif.g08.bks.cpg/sg19_2_cif.got.tgz:3045.got - 2010.06.03 22:46:19.
