data_PCOD9314833
_publ_section_title
;
Structure prediction by ZEFSAII (Michael W. Deem and Ramdas Pophale) SiO2 
 PCOD9314833
Probable space group: P 21 21 21
;
_chemical_formula_sum "Si O2"
_cell_formula_units_Z 20
_cell_length_a 8.852198
_cell_length_b 9.650844
_cell_length_c 9.612432
_cell_angle_alpha 90.000000
_cell_angle_beta 90.000000
_cell_angle_gamma 90.000000
_cell_volume 821.201427
_symmetry_space_group_name_H-M "P 21 21 21"
_symmetry_group_IT_number 19
_symmetry_cell_setting 'orthorhombic'
loop_
_space_group_symop_operation_xyz
x,y,z
1/2-x,-y,1/2+z
1/2+x,1/2-y,-z
-x,1/2+y,1/2-z
loop_
_atom_site_type_symbol
_atom_site_label
_atom_site_fract_x
_atom_site_fract_y
_atom_site_fract_z
Si Si1 0.638230 0.289588 0.224292
Si Si2 0.092725 0.776286 0.947004
Si Si3 0.366637 0.419555 0.706970
Si Si4 0.191996 0.691447 0.658944
Si Si5 0.171112 0.019901 0.131280
O O1 0.566125 0.224471 0.366913
O O2 0.762224 0.173506 0.189629
O O3 0.488376 0.309897 0.132103
O O4 0.713118 0.432795 0.272073
O O5 0.085425 0.680901 0.081829
O O6 0.145762 0.924468 0.998166
O O7 0.200929 0.715857 0.827336
O O8 0.278227 0.548813 0.640124
O O9 0.513937 0.468190 0.788104
O O10 0.263149 0.829820 0.596067
#
# Coordination Sequence:
#
# PCOD9314833 Si02
#       5
#     4   4   4   4   4
#     4   9  22  43  65  90 136 183 203 267 342 380
#     4   9  24  41  71  89 141 171 212 259 347 375
#     4  11  22  38  69 104 124 171 230 267 319 395
#     4  10  22  42  68  95 133 178 211 268 325 387
#     4  11  22  38  69 104 124 171 230 267 319 395
#
# _framework density 24.354559999999999
#
# number of rings (size 3 to 8) (size 9 to 14) (size 15 to 20)
#    1.200    0.800    0.000    3.600   11.200    0.000 
#    0.000    6.000    0.000    0.000    0.000    0.000 
#    0.000    0.000    0.000    0.000    0.000    0.000 
#
# Total GULP energy -111926.525021 kJ/mol
# GULP energy per Si atom -5596.326251 kJ/mol
# Density = 2.429913 g / cm^3
# Si number density = 24.354560 Si / 1000 Ang^3
#
#
#
# Elastic Constant Matrix: (Units=GPa)
#
#
# Indices 1 2 3 4 5 6 
#
# 1 134.0231 43.5361 1.8045 0.0000 0.0000 0.0000
# 2 43.5361 129.8966 1.2706 0.0000 0.0000 0.0000
# 3 1.8045 1.2706 49.3043 0.0000 0.0000 0.0000
# 4 0.0000 0.0000 0.0000 26.6159 0.0000 0.0000
# 5 0.0000 0.0000 0.0000 0.0000 28.6820 0.0000
# 6 0.0000 0.0000 0.0000 0.0000 0.0000 54.7947
#
#
#
# Elastic Compliance Matrix: (Units=1/GPa)
#
#
# Indices 1 2 3 4 5 6 
#
# 1 0.008376 -0.002805 -0.000234 0.000000 0.000000 0.000000
# 2 -0.002805 0.008640 -0.000120 0.000000 0.000000 0.000000
# 3 -0.000234 -0.000120 0.020294 0.000000 0.000000 0.000000
# 4 0.000000 0.000000 0.000000 0.037571 0.000000 0.000000
# 5 0.000000 0.000000 0.000000 0.000000 0.034865 0.000000
# 6 0.000000 0.000000 0.000000 0.000000 0.000000 0.018250
#
#
# Mechanical properties :
#
#
# Convention : Reuss Voigt Hill
#
# Bulk Modulus (GPa) = 32.26746 45.16070 38.71408
# Shear Modulus (GPa) = 34.56753 39.79271 37.18012
#
# Velocity S-wave (km/s) = 3.77151 4.04653 3.91144
# Velocity P-wave (km/s) = 5.67834 6.35734 6.02741
#
# Compressibility (1/GPa) = 0.03099097
#
# Stress axis : x y z
#
# Youngs Moduli (GPa) = 119.39294 115.74476 49.27594
#
# Poissons Ratio (x) = 0.32465 0.01154
# Poissons Ratio (y) = 0.33489 0.00591
# Poissons Ratio (z) = 0.02797 0.01389
#
# Static dielectric constant tensor:
#      x y z
#    x 1.944350 0.000000 0.000000 
#    y 0.000000 1.879530 0.000000 
#    z 0.000000 0.000000 1.987540 
# 
# From -- ./inp_files/4537.got.cif
#   From: 2010.05.17/outbox.cif.g08.bks.cpg/sg19_3_cif.got.tgz:4537.got - 2010.06.03 22:46:19.
