data_PCOD9314732
_publ_section_title
;
Structure prediction by ZEFSAII (Michael W. Deem and Ramdas Pophale) SiO2 
 PCOD9314732
Probable space group: P 21 21 21
;
_chemical_formula_sum "Si O2"
_cell_formula_units_Z 32
_cell_length_a 7.847106
_cell_length_b 15.126296
_cell_length_c 10.404740
_cell_angle_alpha 90.000000
_cell_angle_beta 90.000000
_cell_angle_gamma 90.000000
_cell_volume 1235.018167
_symmetry_space_group_name_H-M "P 21 21 21"
_symmetry_group_IT_number 19
_symmetry_cell_setting 'orthorhombic'
loop_
_space_group_symop_operation_xyz
x,y,z
1/2-x,-y,1/2+z
1/2+x,1/2-y,-z
-x,1/2+y,1/2-z
loop_
_atom_site_type_symbol
_atom_site_label
_atom_site_fract_x
_atom_site_fract_y
_atom_site_fract_z
Si Si1 0.430185 0.411404 0.360178
Si Si2 0.509764 0.831479 0.859685
Si Si3 0.915340 0.472437 0.652735
Si Si4 0.815401 0.754973 0.479177
Si Si5 0.140821 0.805181 0.301016
Si Si6 0.960381 0.489462 0.182332
Si Si7 0.275660 0.453725 0.990672
Si Si8 0.348266 0.220051 0.274238
O O1 0.467059 0.371389 0.500516
O O2 0.561540 0.475546 0.288010
O O3 0.269304 0.477610 0.376985
O O4 0.405692 0.321105 0.283136
O O5 0.653060 0.764396 0.813421
O O6 0.330814 0.781916 0.850863
O O7 0.500380 0.914364 0.760109
O O8 0.052318 0.514165 0.557450
O O9 0.720288 0.488513 0.611337
O O10 0.945024 0.367137 0.675162
O O11 0.805016 0.695863 0.606985
O O12 0.741580 0.849176 0.528698
O O13 0.694818 0.706999 0.375263
O O14 0.985531 0.774889 0.396762
O O15 0.084741 0.899485 0.245975
O O16 0.118384 0.468045 0.090709
#
# Coordination Sequence:
#
# PCOD9314732 Si02
#       8
#     4   4   4   4   4   4   4   4
#     4  11  24  43  70 100 146 178 238 292 349 431
#     4   9  22  44  62  98 138 180 227 292 357 401
#     4  11  24  45  73 101 136 193 230 285 357 424
#     4  10  22  41  65 100 135 180 233 290 341 423
#     4  10  22  41  69  97 138 180 230 293 354 410
#     4   9  22  45  66  96 141 173 228 287 345 417
#     4  10  23  44  66 104 141 175 228 294 351 410
#     4  10  23  43  67 100 147 177 238 295 342 428
#
# _framework density 25.910550000000001
#
# number of rings (size 3 to 8) (size 9 to 14) (size 15 to 20)
#    0.000    2.000    1.250    0.000    8.750    3.000 
#    2.250    3.750    0.000    0.000    0.000    0.000 
#    0.000    0.000    0.000    0.000    0.000    0.000 
#
# Total GULP energy -178754.134925 kJ/mol
# GULP energy per Si atom -5586.066716 kJ/mol
# Density = 2.585158 g / cm^3
# Si number density = 25.910550 Si / 1000 Ang^3
#
#
#
# Elastic Constant Matrix: (Units=GPa)
#
#
# Indices 1 2 3 4 5 6 
#
# 1 73.6501 17.7235 9.1526 0.0000 0.0000 0.0000
# 2 17.7235 138.3211 -3.3093 0.0000 0.0000 0.0000
# 3 9.1526 -3.3093 62.0222 0.0000 0.0000 0.0000
# 4 0.0000 0.0000 0.0000 39.4875 0.0000 0.0000
# 5 0.0000 0.0000 0.0000 0.0000 24.1596 0.0000
# 6 0.0000 0.0000 0.0000 0.0000 0.0000 33.9170
#
#
#
# Elastic Compliance Matrix: (Units=1/GPa)
#
#
# Indices 1 2 3 4 5 6 
#
# 1 0.014306 -0.001886 -0.002212 0.000000 0.000000 0.000000
# 2 -0.001886 0.007487 0.000678 0.000000 0.000000 0.000000
# 3 -0.002212 0.000678 0.016486 0.000000 0.000000 0.000000
# 4 0.000000 0.000000 0.000000 0.025324 0.000000 0.000000
# 5 0.000000 0.000000 0.000000 0.000000 0.041391 0.000000
# 6 0.000000 0.000000 0.000000 0.000000 0.000000 0.029484
#
#
# Mechanical properties :
#
#
# Convention : Reuss Voigt Hill
#
# Bulk Modulus (GPa) = 31.80701 35.68078 33.74390
# Shear Modulus (GPa) = 32.93825 36.20794 34.57310
#
# Velocity S-wave (km/s) = 3.56930 3.74226 3.65680
# Velocity P-wave (km/s) = 5.41192 5.69854 5.55708
#
# Compressibility (1/GPa) = 0.03143961
#
# Stress axis : x y z
#
# Youngs Moduli (GPa) = 69.89857 133.55713 60.65819
#
# Poissons Ratio (x) = 0.25189 0.13417
# Poissons Ratio (y) = 0.13183 -0.04112
# Poissons Ratio (z) = 0.15460 -0.09053
#
# Static dielectric constant tensor:
#      x y z
#    x 2.107970 0.000000 0.000000 
#    y 0.000000 2.076200 0.000000 
#    z 0.000000 0.000000 2.088280 
# 
# From -- ./inp_files/4747.got.cif
#   From: 2010.05.17/outbox.cif.g08.bks.cpg/sg19_3_cif.got.tgz:4747.got - 2010.06.03 22:46:19.
