data_PCOD9314234
_publ_section_title
;
Structure prediction by ZEFSAII (Michael W. Deem and Ramdas Pophale) SiO2 
 PCOD9314234
Probable space group: P 21 21 21
;
_chemical_formula_sum "Si O2"
_cell_formula_units_Z 32
_cell_length_a 7.089945
_cell_length_b 11.878110
_cell_length_c 16.049950
_cell_angle_alpha 90.000000
_cell_angle_beta 90.000000
_cell_angle_gamma 90.000000
_cell_volume 1351.648892
_symmetry_space_group_name_H-M "P 21 21 21"
_symmetry_group_IT_number 19
_symmetry_cell_setting 'orthorhombic'
loop_
_space_group_symop_operation_xyz
x,y,z
1/2-x,-y,1/2+z
1/2+x,1/2-y,-z
-x,1/2+y,1/2-z
loop_
_atom_site_type_symbol
_atom_site_label
_atom_site_fract_x
_atom_site_fract_y
_atom_site_fract_z
Si Si1 0.982946 0.941368 0.845160
Si Si2 0.005762 0.468101 0.841520
Si Si3 0.951093 0.715608 0.097942
Si Si4 0.081746 0.451265 0.350116
Si Si5 0.881082 0.703758 0.907466
Si Si6 0.983390 0.588244 0.501477
Si Si7 0.422745 0.650805 0.506261
Si Si8 0.037511 0.486965 0.166909
O O1 0.991123 0.817585 0.884406
O O2 0.762373 0.982232 0.839129
O O3 0.056477 0.933799 0.750774
O O4 0.071492 0.026795 0.912548
O O5 0.234072 0.471852 0.838417
O O6 0.934413 0.594287 0.856240
O O7 0.968867 0.391990 0.923217
O O8 0.165056 0.760722 0.105136
O O9 0.933524 0.606022 0.154217
O O10 0.843522 0.830559 0.118208
O O11 0.916025 0.678240 0.004004
O O12 0.952792 0.509036 0.420717
O O13 0.996410 0.438830 0.258250
O O14 0.210873 0.602297 0.503513
O O15 0.910091 0.714659 0.493233
O O16 0.504435 0.599006 0.591689
#
# Coordination Sequence:
#
# PCOD9314234 Si02
#       8
#     4   4   4   4   4   4   4   4
#     4   9  20  38  58  81 113 150 185 230 288 337
#     4  10  21  39  60  82 114 152 188 236 290 335
#     4  11  21  38  62  86 114 150 194 239 285 342
#     4  10  21  39  60  82 114 152 188 236 290 335
#     4  11  21  38  62  86 114 150 194 239 285 342
#     4  10  21  38  57  80 114 151 186 228 284 342
#     4  10  21  38  57  80 114 151 186 228 284 342
#     4   9  20  38  58  81 113 150 185 230 288 337
#
# _framework density 23.674787999999999
#
# number of rings (size 3 to 8) (size 9 to 14) (size 15 to 20)
#    0.000    2.000    2.500    0.750    3.500    1.000 
#    0.000    2.500    0.000    0.000    0.000    0.000 
#    0.000    0.000    0.000    0.000    0.000    0.000 
#
# Total GULP energy -178968.328296 kJ/mol
# GULP energy per Si atom -5592.760259 kJ/mol
# Density = 2.362090 g / cm^3
# Si number density = 23.674788 Si / 1000 Ang^3
#
#
#
# Elastic Constant Matrix: (Units=GPa)
#
#
# Indices 1 2 3 4 5 6 
#
# 1 53.9156 0.7594 11.6689 0.0000 0.0000 0.0000
# 2 0.7594 105.1167 49.0830 0.0000 0.0000 0.0000
# 3 11.6689 49.0830 176.4475 0.0000 0.0000 0.0000
# 4 0.0000 0.0000 0.0000 27.1632 0.0000 0.0000
# 5 0.0000 0.0000 0.0000 0.0000 8.2508 0.0000
# 6 0.0000 0.0000 0.0000 0.0000 0.0000 1.5714
#
#
#
# Elastic Compliance Matrix: (Units=1/GPa)
#
#
# Indices 1 2 3 4 5 6 
#
# 1 0.018841 0.000512 -0.001388 0.000000 0.000000 0.000000
# 2 0.000512 0.010947 -0.003079 0.000000 0.000000 0.000000
# 3 -0.001388 -0.003079 0.006616 0.000000 0.000000 0.000000
# 4 0.000000 0.000000 0.000000 0.036815 0.000000 0.000000
# 5 0.000000 0.000000 0.000000 0.000000 0.121201 0.000000
# 6 0.000000 0.000000 0.000000 0.000000 0.000000 0.636385
#
#
# Mechanical properties :
#
#
# Convention : Reuss Voigt Hill
#
# Bulk Modulus (GPa) = 35.09622 50.94472 43.02047
# Shear Modulus (GPa) = 5.89475 25.66163 15.77819
#
# Velocity S-wave (km/s) = 1.57965 3.29587 2.58438
# Velocity P-wave (km/s) = 4.26422 6.00408 5.20733
#
# Compressibility (1/GPa) = 0.02849310
#
# Stress axis : x y z
#
# Youngs Moduli (GPa) = 53.07628 91.34680 151.15415
#
# Poissons Ratio (x) = -0.04679 0.20987
# Poissons Ratio (y) = -0.02719 0.46542
# Poissons Ratio (z) = 0.07370 0.28127
#
# Static dielectric constant tensor:
#      x y z
#    x 2.007550 0.000000 0.000000 
#    y 0.000000 1.798230 0.000000 
#    z 0.000000 0.000000 1.853610 
# 
# From -- ./inp_files/5954.got.cif
#   From: 2010.05.17/outbox.cif.g08.bks.cpg/sg19_3_cif.got.tgz:5954.got - 2010.06.03 22:46:19.
