data_PCOD9314312
_publ_section_title
;
Structure prediction by ZEFSAII (Michael W. Deem and Ramdas Pophale) SiO2 
 PCOD9314312
Probable space group: P 21 21 21
;
_chemical_formula_sum "Si O2"
_cell_formula_units_Z 28
_cell_length_a 6.940954
_cell_length_b 14.816948
_cell_length_c 10.807683
_cell_angle_alpha 90.000000
_cell_angle_beta 90.000000
_cell_angle_gamma 90.000000
_cell_volume 1111.502697
_symmetry_space_group_name_H-M "P 21 21 21"
_symmetry_group_IT_number 19
_symmetry_cell_setting 'orthorhombic'
loop_
_space_group_symop_operation_xyz
x,y,z
1/2-x,-y,1/2+z
1/2+x,1/2-y,-z
-x,1/2+y,1/2-z
loop_
_atom_site_type_symbol
_atom_site_label
_atom_site_fract_x
_atom_site_fract_y
_atom_site_fract_z
Si Si1 0.589123 0.038193 0.048174
Si Si2 0.699868 0.992099 0.792459
Si Si3 0.205811 0.954543 0.926537
Si Si4 0.943154 0.670805 0.241953
Si Si5 0.664349 0.793902 0.522144
Si Si6 0.114999 0.148356 0.840475
Si Si7 0.068679 0.861859 0.161509
O O1 0.650057 0.000236 0.180896
O O2 0.387254 0.996347 0.004564
O O3 0.647625 0.144226 0.049967
O O4 0.730263 0.011104 0.935742
O O5 0.628075 0.889062 0.794956
O O6 0.527243 0.059591 0.746372
O O7 0.228349 0.111405 0.314843
O O8 0.080979 0.898085 0.023271
O O9 0.111354 0.043832 0.872919
O O10 0.984625 0.675865 0.389069
O O11 0.953027 0.769631 0.183379
O O12 0.586983 0.807337 0.382892
O O13 0.722086 0.697977 0.576431
O O14 0.211487 0.157755 0.706574
#
# Coordination Sequence:
#
# PCOD9314312 Si02
#       7
#     4   4   4   4   4   4   4
#     4  10  21  39  64  92 132 168 222 268 339 390
#     4  10  21  42  62  93 129 180 211 282 332 399
#     4  11  22  40  65  92 127 178 218 272 334 405
#     4   9  21  40  59  86 131 164 213 264 335 387
#     4  10  22  39  65  98 128 175 213 284 327 399
#     4  11  22  39  65  94 132 169 226 272 341 389
#     4  11  23  41  64  93 135 174 217 282 330 403
#
# _framework density 25.191120999999999
#
# number of rings (size 3 to 8) (size 9 to 14) (size 15 to 20)
#    0.000    1.714    2.857    2.571    4.000    2.286 
#    0.000    1.429    0.000    0.000    0.000    0.000 
#    0.000    0.000    0.000    0.000    0.000    0.000 
#
# Total GULP energy -156341.596142 kJ/mol
# GULP energy per Si atom -5583.628434 kJ/mol
# Density = 2.513378 g / cm^3
# Si number density = 25.191121 Si / 1000 Ang^3
#
#
#
# Elastic Constant Matrix: (Units=GPa)
#
#
# Indices 1 2 3 4 5 6 
#
# 1 59.7806 8.3253 18.0722 0.0000 0.0000 0.0000
# 2 8.3253 114.3713 36.9806 0.0000 0.0000 0.0000
# 3 18.0722 36.9806 106.9257 0.0000 0.0000 0.0000
# 4 0.0000 0.0000 0.0000 27.8378 0.0000 0.0000
# 5 0.0000 0.0000 0.0000 0.0000 42.8537 0.0000
# 6 0.0000 0.0000 0.0000 0.0000 0.0000 17.5055
#
#
#
# Elastic Compliance Matrix: (Units=1/GPa)
#
#
# Indices 1 2 3 4 5 6 
#
# 1 0.017642 -0.000360 -0.002857 0.000000 0.000000 0.000000
# 2 -0.000360 0.009852 -0.003346 0.000000 0.000000 0.000000
# 3 -0.002857 -0.003346 0.010993 0.000000 0.000000 0.000000
# 4 0.000000 0.000000 0.000000 0.035922 0.000000 0.000000
# 5 0.000000 0.000000 0.000000 0.000000 0.023335 0.000000
# 6 0.000000 0.000000 0.000000 0.000000 0.000000 0.057125
#
#
# Mechanical properties :
#
#
# Convention : Reuss Voigt Hill
#
# Bulk Modulus (GPa) = 39.43476 45.31487 42.37482
# Shear Modulus (GPa) = 28.33681 32.15270 30.24475
#
# Velocity S-wave (km/s) = 3.35755 3.57648 3.46874
# Velocity P-wave (km/s) = 5.54248 5.92304 5.73592
#
# Compressibility (1/GPa) = 0.02535834
#
# Stress axis : x y z
#
# Youngs Moduli (GPa) = 56.68375 101.50552 90.97093
#
# Poissons Ratio (x) = 0.03658 0.25991
# Poissons Ratio (y) = 0.02043 0.30442
# Poissons Ratio (z) = 0.16195 0.33967
#
# Static dielectric constant tensor:
#      x y z
#    x 2.134610 0.000000 0.000000 
#    y 0.000000 1.997810 0.000000 
#    z 0.000000 0.000000 1.983360 
# 
# From -- ./inp_files/3873.got.cif
#   From: 2010.05.17/outbox.cif.g08.bks.cpg/sg19_2_cif.got.tgz:3873.got - 2010.06.03 22:46:19.
