data_PCOD9314729
_publ_section_title
;
Structure prediction by ZEFSAII (Michael W. Deem and Ramdas Pophale) SiO2 
 PCOD9314729
Probable space group: P 21 21 21
;
_chemical_formula_sum "Si O2"
_cell_formula_units_Z 16
_cell_length_a 13.818379
_cell_length_b 4.761464
_cell_length_c 10.165387
_cell_angle_alpha 90.000000
_cell_angle_beta 90.000000
_cell_angle_gamma 90.000000
_cell_volume 668.838897
_symmetry_space_group_name_H-M "P 21 21 21"
_symmetry_group_IT_number 19
_symmetry_cell_setting 'orthorhombic'
loop_
_space_group_symop_operation_xyz
x,y,z
1/2-x,-y,1/2+z
1/2+x,1/2-y,-z
-x,1/2+y,1/2-z
loop_
_atom_site_type_symbol
_atom_site_label
_atom_site_fract_x
_atom_site_fract_y
_atom_site_fract_z
Si Si1 0.560510 0.360614 0.213263
Si Si2 0.439489 0.139377 0.713263
Si Si3 0.250001 0.429100 0.750001
Si Si4 0.647383 0.999995 0.000000
O O1 0.528611 0.678375 0.229679
O O2 0.658768 0.268563 0.286723
O O3 0.582931 0.237407 0.068823
O O4 0.471389 0.821617 0.729680
O O5 0.341232 0.231434 0.786724
O O6 0.417067 0.262578 0.568822
O O7 0.215795 0.596033 0.878962
O O8 0.284206 0.596029 0.621038
#
# Coordination Sequence:
#
# PCOD9314729 Si02
#       4
#     4   4   4   4
#     4  10  22  41  64  93 125 167 207 257 314 374
#     4  10  22  41  64  93 125 167 207 257 314 374
#     4   8  20  42  58  98 126 164 210 262 312 376
#     4   8  20  42  62  98 120 176 200 266 318 364
#
# _framework density 23.922055
#
# number of rings (size 3 to 8) (size 9 to 14) (size 15 to 20)
#    3.000    0.000    0.000    0.000    0.000    8.000 
#    0.000    0.000    0.000    0.000    0.000    0.000 
#    0.000    0.000    0.000    0.000    0.000    0.000 
#
# Total GULP energy -89142.530144 kJ/mol
# GULP energy per Si atom -5571.408134 kJ/mol
# Density = 2.386761 g / cm^3
# Si number density = 23.922055 Si / 1000 Ang^3
#
#
#
# Elastic Constant Matrix: (Units=GPa)
#
#
# Indices 1 2 3 4 5 6 
#
# 1 126.4917 8.6004 32.6496 0.0000 0.0000 0.0000
# 2 8.6004 78.9317 18.9668 0.0000 0.0000 0.0000
# 3 32.6496 18.9668 147.4788 0.0000 0.0000 0.0000
# 4 0.0000 0.0000 0.0000 23.7988 0.0000 0.0000
# 5 0.0000 0.0000 0.0000 0.0000 57.0132 0.0000
# 6 0.0000 0.0000 0.0000 0.0000 0.0000 -56.3328
#
#
#
# Elastic Compliance Matrix: (Units=1/GPa)
#
#
# Indices 1 2 3 4 5 6 
#
# 1 0.008403 -0.000483 -0.001798 0.000000 0.000000 0.000000
# 2 -0.000483 0.013101 -0.001578 0.000000 0.000000 0.000000
# 3 -0.001798 -0.001578 0.007382 0.000000 0.000000 0.000000
# 4 0.000000 0.000000 0.000000 0.042019 0.000000 0.000000
# 5 0.000000 0.000000 0.000000 0.000000 0.017540 0.000000
# 6 0.000000 0.000000 0.000000 0.000000 0.000000 -0.017752
#
#
# Mechanical properties :
#
#
# Convention : Reuss Voigt Hill
#
# Bulk Modulus (GPa) = 47.24445 52.59287 49.91866
# Shear Modulus (GPa) = 58.50240 24.40819 41.45530
#
# Velocity S-wave (km/s) = 4.95061 3.19771 4.16737
# Velocity P-wave (km/s) = 7.24363 5.97216 6.63841
#
# Compressibility (1/GPa) = 0.02116651
#
# Stress axis : x y z
#
# Youngs Moduli (GPa) = 119.01031 76.33003 135.47170
#
# Poissons Ratio (x) = 0.03691 0.24358
# Poissons Ratio (y) = 0.05754 0.21375
# Poissons Ratio (z) = 0.21399 0.12044
#
# Static dielectric constant tensor:
#      x y z
#    x 1.908510 0.000000 0.000000 
#    y 0.000000 1.877400 0.000000 
#    z 0.000000 0.000000 1.952670 
# 
# From -- ./inp_files/2363.got.cif
#   From: 2010.05.17/outbox.cif.g08.bks.cpg/sg19_2_cif.got.tgz:2363.got - 2010.06.03 22:46:19.
