data_PCOD9314224
_publ_section_title
;
Structure prediction by ZEFSAII (Michael W. Deem and Ramdas Pophale) SiO2 
 PCOD9314224
Probable space group: P 21 21 21
;
_chemical_formula_sum "Si O2"
_cell_formula_units_Z 24
_cell_length_a 7.627900
_cell_length_b 9.555720
_cell_length_c 13.803037
_cell_angle_alpha 90.000000
_cell_angle_beta 90.000000
_cell_angle_gamma 90.000000
_cell_volume 1006.104424
_symmetry_space_group_name_H-M "P 21 21 21"
_symmetry_group_IT_number 19
_symmetry_cell_setting 'orthorhombic'
loop_
_space_group_symop_operation_xyz
x,y,z
1/2-x,-y,1/2+z
1/2+x,1/2-y,-z
-x,1/2+y,1/2-z
loop_
_atom_site_type_symbol
_atom_site_label
_atom_site_fract_x
_atom_site_fract_y
_atom_site_fract_z
Si Si1 0.430495 0.136049 0.618097
Si Si2 0.348700 0.169978 0.846046
Si Si3 0.549054 0.108109 0.120727
Si Si4 0.820626 0.678416 0.375783
Si Si5 0.827660 0.173295 0.547009
Si Si6 0.351026 0.095701 0.310409
O O1 0.384617 0.156293 0.730758
O O2 0.633102 0.151312 0.588561
O O3 0.330379 0.253430 0.556473
O O4 0.376982 0.976671 0.592029
O O5 0.220591 0.298711 0.869496
O O6 0.536227 0.204052 0.893568
O O7 0.239955 0.029816 0.867932
O O8 0.378963 0.199744 0.090964
O O9 0.575309 0.973682 0.054660
O O10 0.494354 0.052695 0.229416
O O11 0.797328 0.662628 0.259469
O O12 0.917774 0.286011 0.618373
#
# Coordination Sequence:
#
# PCOD9314224 Si02
#       6
#     4   4   4   4   4   4
#     4  11  23  37  63  95 125 161 207 265 306 367
#     4  11  20  42  63  89 124 164 209 257 313 370
#     4  10  21  37  65  91 122 164 210 256 309 381
#     4   9  20  38  61  89 119 159 209 252 303 372
#     4  12  22  39  64  95 127 161 211 263 312 373
#     4   9  22  35  60  91 123 159 206 255 307 379
#
# _framework density 23.854382999999999
#
# number of rings (size 3 to 8) (size 9 to 14) (size 15 to 20)
#    1.000    0.667    3.333    2.000    2.333    0.000 
#    0.000    0.000    7.333    0.000    0.000    0.000 
#    0.000    0.000    0.000    0.000    0.000    0.000 
#
# Total GULP energy -134111.319950 kJ/mol
# GULP energy per Si atom -5587.971665 kJ/mol
# Density = 2.380009 g / cm^3
# Si number density = 23.854383 Si / 1000 Ang^3
#
#
#
# Elastic Constant Matrix: (Units=GPa)
#
#
# Indices 1 2 3 4 5 6 
#
# 1 104.4042 23.7991 20.0654 0.0000 0.0000 0.0000
# 2 23.7991 86.7848 33.8718 0.0000 0.0000 0.0000
# 3 20.0654 33.8718 86.4091 0.0000 0.0000 0.0000
# 4 0.0000 0.0000 0.0000 32.9194 0.0000 0.0000
# 5 0.0000 0.0000 0.0000 0.0000 22.8028 0.0000
# 6 0.0000 0.0000 0.0000 0.0000 0.0000 31.7231
#
#
#
# Elastic Compliance Matrix: (Units=1/GPa)
#
#
# Indices 1 2 3 4 5 6 
#
# 1 0.010385 -0.002251 -0.001529 0.000000 0.000000 0.000000
# 2 -0.002251 0.014092 -0.005001 0.000000 0.000000 0.000000
# 3 -0.001529 -0.005001 0.013888 0.000000 0.000000 0.000000
# 4 0.000000 0.000000 0.000000 0.030377 0.000000 0.000000
# 5 0.000000 0.000000 0.000000 0.000000 0.043854 0.000000
# 6 0.000000 0.000000 0.000000 0.000000 0.000000 0.031523
#
#
# Mechanical properties :
#
#
# Convention : Reuss Voigt Hill
#
# Bulk Modulus (GPa) = 48.07095 48.11898 48.09497
# Shear Modulus (GPa) = 29.65297 30.81318 30.23308
#
# Velocity S-wave (km/s) = 3.52956 3.59795 3.56392
# Velocity P-wave (km/s) = 6.06679 6.12177 6.09434
#
# Compressibility (1/GPa) = 0.02080258
#
# Stress axis : x y z
#
# Youngs Moduli (GPa) = 96.29096 70.96193 72.00247
#
# Poissons Ratio (x) = 0.15974 0.11010
# Poissons Ratio (y) = 0.21676 0.36010
# Poissons Ratio (z) = 0.14724 0.35490
#
# Static dielectric constant tensor:
#      x y z
#    x 1.898930 0.000000 0.000000 
#    y 0.000000 1.873710 0.000000 
#    z 0.000000 0.000000 1.941220 
# 
# From -- ./inp_files/6557.got.cif
#   From: 2010.05.17/outbox.cif.g08.bks.cpg/sg19_4_cif.got.tgz:6557.got - 2010.06.03 22:46:19.
