data_PCOD9314488
_publ_section_title
;
Structure prediction by ZEFSAII (Michael W. Deem and Ramdas Pophale) SiO2 
 PCOD9314488
Probable space group: P 21 21 21
;
_chemical_formula_sum "Si O2"
_cell_formula_units_Z 32
_cell_length_a 9.281288
_cell_length_b 26.129701
_cell_length_c 6.253925
_cell_angle_alpha 90.000000
_cell_angle_beta 90.000000
_cell_angle_gamma 90.000000
_cell_volume 1516.684882
_symmetry_space_group_name_H-M "P 21 21 21"
_symmetry_group_IT_number 19
_symmetry_cell_setting 'orthorhombic'
loop_
_space_group_symop_operation_xyz
x,y,z
1/2-x,-y,1/2+z
1/2+x,1/2-y,-z
-x,1/2+y,1/2-z
loop_
_atom_site_type_symbol
_atom_site_label
_atom_site_fract_x
_atom_site_fract_y
_atom_site_fract_z
Si Si1 0.737296 0.429672 0.743785
Si Si2 0.966491 0.219378 0.783930
Si Si3 0.317855 0.863436 0.141572
Si Si4 0.388001 0.966237 0.369195
Si Si5 0.843098 0.793958 0.437202
Si Si6 0.962013 0.885761 0.694764
Si Si7 0.542543 0.695554 0.945834
Si Si8 0.688054 0.008918 0.247150
O O1 0.688589 0.381981 0.602698
O O2 0.795333 0.481453 0.630526
O O3 0.882188 0.409842 0.862751
O O4 0.605330 0.448329 0.886679
O O5 0.827866 0.209128 0.928436
O O6 0.915778 0.256492 0.592628
O O7 0.040610 0.167890 0.701488
O O8 0.086581 0.251565 0.910762
O O9 0.313140 0.917820 0.259202
O O10 0.179645 0.827358 0.178996
O O11 0.539752 0.976733 0.260474
O O12 0.897152 0.849105 0.516568
O O13 0.914394 0.787074 0.206278
O O14 0.855663 0.931692 0.746638
O O15 0.988769 0.850188 0.901142
O O16 0.753073 0.000205 0.496315
#
# Coordination Sequence:
#
# PCOD9314488 Si02
#       8
#     4   4   4   4   4   4   4   4
#     4  10  21  42  67  98 134 172 242 297 357 429
#     4  11  25  41  65 103 133 184 232 299 366 448
#     4  11  23  40  67 100 136 179 235 294 371 442
#     4  11  23  40  69  99 135 188 236 302 359 436
#     4  11  23  44  71  93 140 179 239 297 368 443
#     4   9  23  42  68  97 131 192 231 297 368 434
#     4  10  22  43  67  96 134 179 238 299 367 433
#     4  11  28  46  68 102 153 193 243 299 370 447
#
# _framework density 21.098648000000001
#
# number of rings (size 3 to 8) (size 9 to 14) (size 15 to 20)
#    0.000    1.500    1.250    2.250    5.250    4.000 
#    0.000    1.250    0.000    0.000    0.000    0.000 
#    0.000    0.000    0.000    0.000    0.000    0.000 
#
# Total GULP energy -178379.248141 kJ/mol
# GULP energy per Si atom -5574.351504 kJ/mol
# Density = 2.105063 g / cm^3
# Si number density = 21.098648 Si / 1000 Ang^3
#
#
#
# Elastic Constant Matrix: (Units=GPa)
#
#
# Indices 1 2 3 4 5 6 
#
# 1 76.9098 45.1631 38.2321 0.0000 0.0000 0.0000
# 2 45.1631 114.4834 27.1504 0.0000 0.0000 0.0000
# 3 38.2321 27.1504 65.4122 0.0000 0.0000 0.0000
# 4 0.0000 0.0000 0.0000 19.4527 0.0000 0.0000
# 5 0.0000 0.0000 0.0000 0.0000 28.0874 0.0000
# 6 0.0000 0.0000 0.0000 0.0000 0.0000 22.9405
#
#
#
# Elastic Compliance Matrix: (Units=1/GPa)
#
#
# Indices 1 2 3 4 5 6 
#
# 1 0.021622 -0.006137 -0.010090 0.000000 0.000000 0.000000
# 2 -0.006137 0.011430 -0.001158 0.000000 0.000000 0.000000
# 3 -0.010090 -0.001158 0.021666 0.000000 0.000000 0.000000
# 4 0.000000 0.000000 0.000000 0.051407 0.000000 0.000000
# 5 0.000000 0.000000 0.000000 0.000000 0.035603 0.000000
# 6 0.000000 0.000000 0.000000 0.000000 0.000000 0.043591
#
#
# Mechanical properties :
#
#
# Convention : Reuss Voigt Hill
#
# Bulk Modulus (GPa) = 50.12881 53.09962 51.61422
# Shear Modulus (GPa) = 22.05192 23.84678 22.94935
#
# Velocity S-wave (km/s) = 3.23643 3.36557 3.30163
# Velocity P-wave (km/s) = 6.14629 6.35017 6.24906
#
# Compressibility (1/GPa) = 0.01994861
#
# Stress axis : x y z
#
# Youngs Moduli (GPa) = 46.24960 87.48672 46.15580
#
# Poissons Ratio (x) = 0.53688 0.46573
# Poissons Ratio (y) = 0.28382 0.05343
# Poissons Ratio (z) = 0.46668 0.10127
#
# Static dielectric constant tensor:
#      x y z
#    x 1.759660 0.000000 0.000000 
#    y 0.000000 1.728960 0.000000 
#    z 0.000000 0.000000 1.885300 
# 
# From -- ./inp_files/724.got.cif
#   From: 2010.05.17/outbox.cif.g08.bks.cpg/sg19_1_cif.got.tgz:724.got - 2010.06.03 22:46:19.
