data_PCOD9314284
_publ_section_title
;
Structure prediction by ZEFSAII (Michael W. Deem and Ramdas Pophale) SiO2 
 PCOD9314284
Probable space group: P 21 21 21
;
_chemical_formula_sum "Si O2"
_cell_formula_units_Z 28
_cell_length_a 8.624113
_cell_length_b 8.534755
_cell_length_c 18.165853
_cell_angle_alpha 90.000000
_cell_angle_beta 90.000000
_cell_angle_gamma 90.000000
_cell_volume 1337.092007
_symmetry_space_group_name_H-M "P 21 21 21"
_symmetry_group_IT_number 19
_symmetry_cell_setting 'orthorhombic'
loop_
_space_group_symop_operation_xyz
x,y,z
1/2-x,-y,1/2+z
1/2+x,1/2-y,-z
-x,1/2+y,1/2-z
loop_
_atom_site_type_symbol
_atom_site_label
_atom_site_fract_x
_atom_site_fract_y
_atom_site_fract_z
Si Si1 0.465718 0.917421 0.072616
Si Si2 0.473251 0.794400 0.841714
Si Si3 0.154320 0.930116 0.250534
Si Si4 0.802970 0.828244 0.018108
Si Si5 0.555115 0.230221 0.275403
Si Si6 0.806379 0.329951 0.849206
Si Si7 0.719441 0.013394 0.378048
O O1 0.628435 0.881649 0.034362
O O2 0.478627 0.834786 0.152582
O O3 0.417323 0.094468 0.089031
O O4 0.331825 0.835900 0.024145
O O5 0.512845 0.682377 0.772561
O O6 0.391336 0.695085 0.905250
O O7 0.635150 0.868715 0.869818
O O8 0.377205 0.944814 0.814095
O O9 0.301382 0.817823 0.263955
O O10 0.190470 0.034766 0.177797
O O11 0.862625 0.949209 0.955841
O O12 0.413364 0.204500 0.221755
O O13 0.611028 0.065237 0.310052
O O14 0.734757 0.166536 0.873546
#
# Coordination Sequence:
#
# PCOD9314284 Si02
#       7
#     4   4   4   4   4   4   4
#     4  10  22  39  66  89 123 170 211 248 314 380
#     4  11  22  41  65  91 130 165 210 257 327 365
#     4  10  22  37  63  96 121 166 205 266 313 376
#     4  11  22  42  62  88 123 180 207 251 318 381
#     4   9  20  39  64  91 123 164 206 255 316 369
#     4  11  21  39  62  97 127 154 218 266 308 374
#     4  10  21  39  60  92 129 165 211 261 310 381
#
# _framework density 20.940967000000001
#
# number of rings (size 3 to 8) (size 9 to 14) (size 15 to 20)
#    0.000    1.714    1.429    4.286    0.000    3.429 
#    2.571    1.429    0.000    0.000    0.000    0.000 
#    0.000    0.000    0.000    0.000    0.000    0.000 
#
# Total GULP energy -156255.279220 kJ/mol
# GULP energy per Si atom -5580.545686 kJ/mol
# Density = 2.089330 g / cm^3
# Si number density = 20.940967 Si / 1000 Ang^3
#
#
#
# Elastic Constant Matrix: (Units=GPa)
#
#
# Indices 1 2 3 4 5 6 
#
# 1 41.0197 11.2253 17.7588 0.0000 0.0000 0.0000
# 2 11.2253 78.5571 -2.5626 0.0000 0.0000 0.0000
# 3 17.7588 -2.5626 54.8354 0.0000 0.0000 0.0000
# 4 0.0000 0.0000 0.0000 12.4253 0.0000 0.0000
# 5 0.0000 0.0000 0.0000 0.0000 31.2170 0.0000
# 6 0.0000 0.0000 0.0000 0.0000 0.0000 24.0335
#
#
#
# Elastic Compliance Matrix: (Units=1/GPa)
#
#
# Indices 1 2 3 4 5 6 
#
# 1 0.029926 -0.004599 -0.009907 0.000000 0.000000 0.000000
# 2 -0.004599 0.013456 0.002118 0.000000 0.000000 0.000000
# 3 -0.009907 0.002118 0.021544 0.000000 0.000000 0.000000
# 4 0.000000 0.000000 0.000000 0.080481 0.000000 0.000000
# 5 0.000000 0.000000 0.000000 0.000000 0.032034 0.000000
# 6 0.000000 0.000000 0.000000 0.000000 0.000000 0.041609
#
#
# Mechanical properties :
#
#
# Convention : Reuss Voigt Hill
#
# Bulk Modulus (GPa) = 24.90644 25.25061 25.07852
# Shear Modulus (GPa) = 19.43952 23.40121 21.42036
#
# Velocity S-wave (km/s) = 3.05011 3.34651 3.20174
# Velocity P-wave (km/s) = 4.93190 5.19772 5.06656
#
# Compressibility (1/GPa) = 0.04015026
#
# Stress axis : x y z
#
# Youngs Moduli (GPa) = 33.41560 74.31672 46.41711
#
# Poissons Ratio (x) = 0.34181 0.45984
# Poissons Ratio (y) = 0.15369 -0.09833
# Poissons Ratio (z) = 0.33104 -0.15743
#
# Static dielectric constant tensor:
#      x y z
#    x 1.790720 0.000000 0.000000 
#    y 0.000000 1.752910 0.000000 
#    z 0.000000 0.000000 1.787430 
# 
# From -- ./inp_files/6595.got.cif
#   From: 2010.05.17/outbox.cif.g08.bks.cpg/sg19_4_cif.got.tgz:6595.got - 2010.06.03 22:46:19.
