data_PCOD9314440
_publ_section_title
;
Structure prediction by ZEFSAII (Michael W. Deem and Ramdas Pophale) SiO2 
 PCOD9314440
Probable space group: P 21 21 21
;
_chemical_formula_sum "Si O2"
_cell_formula_units_Z 28
_cell_length_a 22.603708
_cell_length_b 8.437503
_cell_length_c 5.353757
_cell_angle_alpha 90.000000
_cell_angle_beta 90.000000
_cell_angle_gamma 90.000000
_cell_volume 1021.062400
_symmetry_space_group_name_H-M "P 21 21 21"
_symmetry_group_IT_number 19
_symmetry_cell_setting 'orthorhombic'
loop_
_space_group_symop_operation_xyz
x,y,z
1/2-x,-y,1/2+z
1/2+x,1/2-y,-z
-x,1/2+y,1/2-z
loop_
_atom_site_type_symbol
_atom_site_label
_atom_site_fract_x
_atom_site_fract_y
_atom_site_fract_z
Si Si1 0.107321 0.849167 0.598474
Si Si2 0.792685 0.176278 0.066581
Si Si3 0.580670 0.345088 0.134032
Si Si4 0.015012 0.367668 0.200533
Si Si5 0.738571 0.401804 0.708445
Si Si6 0.961660 0.164986 0.573388
Si Si7 0.824040 0.831202 0.920635
O O1 0.155200 0.804895 0.386919
O O2 0.044099 0.865382 0.467289
O O3 0.117576 0.999568 0.780748
O O4 0.097413 0.697662 0.776873
O O5 0.774962 0.245075 0.792697
O O6 0.818159 0.000061 0.053839
O O7 0.734367 0.180181 0.239728
O O8 0.516445 0.376577 0.251654
O O9 0.617253 0.201103 0.261121
O O10 0.560577 0.273934 0.867283
O O11 0.044734 0.534890 0.142244
O O12 0.986284 0.329600 0.462662
O O13 0.761055 0.498099 0.465598
O O14 0.679481 0.315481 0.615278
#
# Coordination Sequence:
#
# PCOD9314440 Si02
#       7
#     4   4   4   4   4   4   4
#     4  10  23  43  69 102 141 186 240 306 376 457
#     4  12  26  47  72 107 151 204 260 322 387 457
#     4  10  23  43  69 102 141 185 242 305 376 457
#     4  10  21  41  69 103 139 183 238 299 377 456
#     4  12  26  48  76 106 147 198 258 317 377 453
#     4  10  21  41  67 103 140 183 237 300 377 456
#     4  12  26  47  72 107 153 203 261 321 386 460
#
# _framework density 27.422418
#
# number of rings (size 3 to 8) (size 9 to 14) (size 15 to 20)
#    0.000    1.143    2.857    2.571    0.000    5.714 
#    5.143    0.000    0.000    0.000    0.000    0.000 
#    0.000    0.000    0.000    0.000    0.000    0.000 
#
# Total GULP energy -156433.802683 kJ/mol
# GULP energy per Si atom -5586.921524 kJ/mol
# Density = 2.736000 g / cm^3
# Si number density = 27.422418 Si / 1000 Ang^3
#
#
#
# Elastic Constant Matrix: (Units=GPa)
#
#
# Indices 1 2 3 4 5 6 
#
# 1 112.8819 15.8309 26.0706 0.0000 0.0000 0.0000
# 2 15.8309 134.4719 36.4670 0.0000 0.0000 0.0000
# 3 26.0706 36.4670 94.0924 0.0000 0.0000 0.0000
# 4 0.0000 0.0000 0.0000 44.7444 0.0000 0.0000
# 5 0.0000 0.0000 0.0000 0.0000 47.8980 0.0000
# 6 0.0000 0.0000 0.0000 0.0000 0.0000 32.3796
#
#
#
# Elastic Compliance Matrix: (Units=1/GPa)
#
#
# Indices 1 2 3 4 5 6 
#
# 1 0.009489 -0.000452 -0.002454 0.000000 0.000000 0.000000
# 2 -0.000452 0.008331 -0.003104 0.000000 0.000000 0.000000
# 3 -0.002454 -0.003104 0.012511 0.000000 0.000000 0.000000
# 4 0.000000 0.000000 0.000000 0.022349 0.000000 0.000000
# 5 0.000000 0.000000 0.000000 0.000000 0.020878 0.000000
# 6 0.000000 0.000000 0.000000 0.000000 0.000000 0.030884
#
#
# Mechanical properties :
#
#
# Convention : Reuss Voigt Hill
#
# Bulk Modulus (GPa) = 54.60898 55.35370 54.98134
# Shear Modulus (GPa) = 40.79478 42.54291 41.66884
#
# Velocity S-wave (km/s) = 3.86118 3.94304 3.90233
# Velocity P-wave (km/s) = 6.31154 6.39996 6.35590
#
# Compressibility (1/GPa) = 0.01831201
#
# Stress axis : x y z
#
# Youngs Moduli (GPa) = 105.38583 120.02812 79.93111
#
# Poissons Ratio (x) = 0.05420 0.19616
# Poissons Ratio (y) = 0.04759 0.24809
# Poissons Ratio (z) = 0.25863 0.37255
#
# Static dielectric constant tensor:
#      x y z
#    x 2.180860 0.000000 0.000000 
#    y 0.000000 2.216320 0.000000 
#    z 0.000000 0.000000 2.152000 
# 
# From -- ./inp_files/2141.got.cif
#   From: 2010.05.17/outbox.cif.g08.bks.cpg/sg19_2_cif.got.tgz:2141.got - 2010.06.03 22:46:19.
