data_PCOD9314192
_publ_section_title
;
Structure prediction by ZEFSAII (Michael W. Deem and Ramdas Pophale) SiO2 
 PCOD9314192
Probable space group: P 21 21 21
;
_chemical_formula_sum "Si O2"
_cell_formula_units_Z 28
_cell_length_a 14.331152
_cell_length_b 6.453058
_cell_length_c 13.381517
_cell_angle_alpha 90.000000
_cell_angle_beta 90.000000
_cell_angle_gamma 90.000000
_cell_volume 1237.519415
_symmetry_space_group_name_H-M "P 21 21 21"
_symmetry_group_IT_number 19
_symmetry_cell_setting 'orthorhombic'
loop_
_space_group_symop_operation_xyz
x,y,z
1/2-x,-y,1/2+z
1/2+x,1/2-y,-z
-x,1/2+y,1/2-z
loop_
_atom_site_type_symbol
_atom_site_label
_atom_site_fract_x
_atom_site_fract_y
_atom_site_fract_z
Si Si1 0.364814 0.974001 0.545552
Si Si2 0.125389 0.414711 0.187778
Si Si3 0.721299 0.198984 0.365209
Si Si4 0.056502 0.073900 0.581141
Si Si5 0.029928 0.241414 0.380640
Si Si6 0.407967 0.353233 0.151846
Si Si7 0.412778 0.122435 0.342207
O O1 0.288097 0.145208 0.576300
O O2 0.464625 0.065905 0.584178
O O3 0.363465 0.980229 0.424761
O O4 0.350139 0.757313 0.603102
O O5 0.208463 0.579028 0.208264
O O6 0.092854 0.301500 0.287515
O O7 0.039762 0.555261 0.149015
O O8 0.632706 0.342417 0.338682
O O9 0.664376 0.998463 0.405494
O O10 0.088777 0.158472 0.474159
O O11 0.957554 0.182018 0.597901
O O12 0.053335 0.829292 0.583687
O O13 0.365817 0.235733 0.248519
O O14 0.494695 0.492604 0.189208
#
# Coordination Sequence:
#
# PCOD9314192 Si02
#       7
#     4   4   4   4   4   4   4
#     4  10  21  40  58  89 125 158 205 256 300 372
#     4  11  20  40  61  91 119 166 207 256 308 364
#     4  10  24  38  58  86 128 160 198 262 306 362
#     4  10  21  40  58  89 125 158 205 256 300 372
#     4  10  21  36  65  88 118 161 208 253 304 362
#     4  11  20  40  61  91 119 166 207 256 308 364
#     4  10  21  36  65  88 118 161 208 253 304 362
#
# _framework density 22.625907999999999
#
# number of rings (size 3 to 8) (size 9 to 14) (size 15 to 20)
#    0.000    1.714    2.857    1.714    0.000    1.143 
#    0.000    2.857    0.000    0.000    0.000    0.000 
#    0.000    0.000    0.000    0.000    0.000    0.000 
#
# Total GULP energy -155984.987503 kJ/mol
# GULP energy per Si atom -5570.892411 kJ/mol
# Density = 2.257441 g / cm^3
# Si number density = 22.625908 Si / 1000 Ang^3
#
#
#
# Elastic Constant Matrix: (Units=GPa)
#
#
# Indices 1 2 3 4 5 6 
#
# 1 58.0250 17.5173 -5.1412 0.0000 0.0000 0.0000
# 2 17.5173 100.5349 12.8533 0.0000 0.0000 0.0000
# 3 -5.1412 12.8533 63.2344 0.0000 0.0000 0.0000
# 4 0.0000 0.0000 0.0000 24.8328 0.0000 0.0000
# 5 0.0000 0.0000 0.0000 0.0000 5.9672 0.0000
# 6 0.0000 0.0000 0.0000 0.0000 0.0000 45.2153
#
#
#
# Elastic Compliance Matrix: (Units=1/GPa)
#
#
# Indices 1 2 3 4 5 6 
#
# 1 0.018488 -0.003505 0.002216 0.000000 0.000000 0.000000
# 2 -0.003505 0.010877 -0.002496 0.000000 0.000000 0.000000
# 3 0.002216 -0.002496 0.016502 0.000000 0.000000 0.000000
# 4 0.000000 0.000000 0.000000 0.040269 0.000000 0.000000
# 5 0.000000 0.000000 0.000000 0.000000 0.167584 0.000000
# 6 0.000000 0.000000 0.000000 0.000000 0.000000 0.022116
#
#
# Mechanical properties :
#
#
# Convention : Reuss Voigt Hill
#
# Bulk Modulus (GPa) = 26.11193 30.25035 28.18114
# Shear Modulus (GPa) = 16.88212 28.30737 22.59474
#
# Velocity S-wave (km/s) = 2.73452 3.54093 3.16353
# Velocity P-wave (km/s) = 4.64068 5.48784 5.08195
#
# Compressibility (1/GPa) = 0.03829666
#
# Stress axis : x y z
#
# Youngs Moduli (GPa) = 54.08830 91.94102 60.60009
#
# Poissons Ratio (x) = 0.32222 -0.13426
# Poissons Ratio (y) = 0.18956 0.15124
# Poissons Ratio (z) = -0.11984 0.22946
#
# Static dielectric constant tensor:
#      x y z
#    x 1.866640 0.000000 0.000000 
#    y 0.000000 1.843700 0.000000 
#    z 0.000000 0.000000 1.893320 
# 
# From -- ./inp_files/6245.got.cif
#   From: 2010.05.17/outbox.cif.g08.bks.cpg/sg19_4_cif.got.tgz:6245.got - 2010.06.03 22:46:19.
