data_PCOD9314453
_publ_section_title
;
Structure prediction by ZEFSAII (Michael W. Deem and Ramdas Pophale) SiO2 
 PCOD9314453
Probable space group: P 21 21 21
;
_chemical_formula_sum "Si O2"
_cell_formula_units_Z 32
_cell_length_a 16.756293
_cell_length_b 10.503501
_cell_length_c 7.397773
_cell_angle_alpha 90.000000
_cell_angle_beta 90.000000
_cell_angle_gamma 90.000000
_cell_volume 1302.006127
_symmetry_space_group_name_H-M "P 21 21 21"
_symmetry_group_IT_number 19
_symmetry_cell_setting 'orthorhombic'
loop_
_space_group_symop_operation_xyz
x,y,z
1/2-x,-y,1/2+z
1/2+x,1/2-y,-z
-x,1/2+y,1/2-z
loop_
_atom_site_type_symbol
_atom_site_label
_atom_site_fract_x
_atom_site_fract_y
_atom_site_fract_z
Si Si1 0.367710 0.908355 0.338974
Si Si2 0.332209 0.483207 0.767521
Si Si3 0.035141 0.869616 0.427817
Si Si4 0.667090 0.948038 0.150548
Si Si5 0.196663 0.801735 0.305285
Si Si6 0.438879 0.659076 0.199753
Si Si7 0.892847 0.326350 0.578739
Si Si8 0.991435 0.598234 0.326729
O O1 0.276781 0.869121 0.363337
O O2 0.402071 0.800565 0.205359
O O3 0.426198 0.907789 0.513685
O O4 0.366692 0.056866 0.295871
O O5 0.262022 0.577954 0.826232
O O6 0.345197 0.500043 0.553352
O O7 0.288891 0.348359 0.798557
O O8 0.418923 0.459833 0.855013
O O9 0.126600 0.830468 0.443018
O O10 0.985693 0.862719 0.610789
O O11 0.002008 0.750582 0.306381
O O12 0.034732 0.009183 0.338950
O O13 0.621754 0.813819 0.157426
O O14 0.628254 0.048936 0.289827
O O15 0.158626 0.834579 0.107263
O O16 0.511573 0.656068 0.059340
#
# Coordination Sequence:
#
# PCOD9314453 Si02
#       8
#     4   4   4   4   4   4   4   4
#     4  11  23  44  70 100 141 186 227 289 360 424
#     4  10  22  42  71 102 142 180 241 288 347 420
#     4  10  21  41  68  98 136 180 229 286 348 419
#     4  11  23  44  71 102 140 187 233 296 347 416
#     4  10  22  44  66  96 145 180 223 294 350 414
#     4  11  23  43  71 100 137 186 234 283 358 427
#     4  11  25  43  66 102 137 180 233 292 350 420
#     4  10  21  41  71 100 134 185 230 290 350 424
#
# _framework density 24.577456000000002
#
# number of rings (size 3 to 8) (size 9 to 14) (size 15 to 20)
#    0.000    1.500    3.750    0.750    0.000    5.000 
#    4.500    0.000    0.000    0.000    0.000    0.000 
#    0.000    0.000    0.000    0.000    0.000    0.000 
#
# Total GULP energy -178703.059941 kJ/mol
# GULP energy per Si atom -5584.470623 kJ/mol
# Density = 2.452152 g / cm^3
# Si number density = 24.577456 Si / 1000 Ang^3
#
#
#
# Elastic Constant Matrix: (Units=GPa)
#
#
# Indices 1 2 3 4 5 6 
#
# 1 132.9166 27.5044 14.1258 0.0000 0.0000 0.0000
# 2 27.5044 83.6783 29.9353 0.0000 0.0000 0.0000
# 3 14.1258 29.9353 80.5739 0.0000 0.0000 0.0000
# 4 0.0000 0.0000 0.0000 11.6005 0.0000 0.0000
# 5 0.0000 0.0000 0.0000 0.0000 31.1236 0.0000
# 6 0.0000 0.0000 0.0000 0.0000 0.0000 42.8564
#
#
#
# Elastic Compliance Matrix: (Units=1/GPa)
#
#
# Indices 1 2 3 4 5 6 
#
# 1 0.008090 -0.002481 -0.000496 0.000000 0.000000 0.000000
# 2 -0.002481 0.014544 -0.004968 0.000000 0.000000 0.000000
# 3 -0.000496 -0.004968 0.014344 0.000000 0.000000 0.000000
# 4 0.000000 0.000000 0.000000 0.086203 0.000000 0.000000
# 5 0.000000 0.000000 0.000000 0.000000 0.032130 0.000000
# 6 0.000000 0.000000 0.000000 0.000000 0.000000 0.023334
#
#
# Mechanical properties :
#
#
# Convention : Reuss Voigt Hill
#
# Bulk Modulus (GPa) = 47.42713 48.92220 48.17467
# Shear Modulus (GPa) = 24.80596 32.15632 28.48114
#
# Velocity S-wave (km/s) = 3.18039 3.62106 3.40786
# Velocity P-wave (km/s) = 5.72935 6.11811 5.92692
#
# Compressibility (1/GPa) = 0.02108498
#
# Stress axis : x y z
#
# Youngs Moduli (GPa) = 123.61316 68.75916 69.71652
#
# Poissons Ratio (x) = 0.17062 0.03460
# Poissons Ratio (y) = 0.30674 0.34637
# Poissons Ratio (z) = 0.06135 0.34161
#
# Static dielectric constant tensor:
#      x y z
#    x 1.959480 0.000000 0.000000 
#    y 0.000000 1.972210 0.000000 
#    z 0.000000 0.000000 2.026570 
# 
# From -- ./inp_files/3956.got.cif
#   From: 2010.05.17/outbox.cif.g08.bks.cpg/sg19_2_cif.got.tgz:3956.got - 2010.06.03 22:46:19.
