data_PCOD9314045
_publ_section_title
;
Structure prediction by ZEFSAII (Michael W. Deem and Ramdas Pophale) SiO2 
 PCOD9314045
Probable space group: P 21 21 21
;
_chemical_formula_sum "Si O2"
_cell_formula_units_Z 32
_cell_length_a 15.476018
_cell_length_b 17.283193
_cell_length_c 5.467060
_cell_angle_alpha 90.000000
_cell_angle_beta 90.000000
_cell_angle_gamma 90.000000
_cell_volume 1462.301906
_symmetry_space_group_name_H-M "P 21 21 21"
_symmetry_group_IT_number 19
_symmetry_cell_setting 'orthorhombic'
loop_
_space_group_symop_operation_xyz
x,y,z
1/2-x,-y,1/2+z
1/2+x,1/2-y,-z
-x,1/2+y,1/2-z
loop_
_atom_site_type_symbol
_atom_site_label
_atom_site_fract_x
_atom_site_fract_y
_atom_site_fract_z
Si Si1 0.173039 0.334743 0.961725
Si Si2 0.880201 0.064071 0.814252
Si Si3 0.623710 0.647076 0.027105
Si Si4 0.443736 0.008414 0.135149
Si Si5 0.159017 0.738051 0.587031
Si Si6 0.511946 0.654663 0.633770
Si Si7 0.733116 0.456628 0.316167
Si Si8 0.215880 0.426099 0.464150
O O1 0.244915 0.268126 0.979728
O O2 0.189361 0.385258 0.209787
O O3 0.072831 0.315661 0.999600
O O4 0.190015 0.378777 0.707034
O O5 0.878786 0.151669 0.907704
O O6 0.818467 0.063185 0.573708
O O7 0.831848 0.007410 0.002547
O O8 0.973585 0.030240 0.756475
O O9 0.528016 0.664360 0.920742
O O10 0.698441 0.611582 0.856076
O O11 0.602626 0.576076 0.208454
O O12 0.662061 0.724027 0.145393
O O13 0.367380 0.945731 0.108964
O O14 0.476409 0.062179 0.911470
O O15 0.092506 0.794629 0.456967
O O16 0.760029 0.518531 0.530829
#
# Coordination Sequence:
#
# PCOD9314045 Si02
#       8
#     4   4   4   4   4   4   4   4
#     4  11  25  47  71  98 132 188 224 280 341 413
#     4  11  22  44  65 103 133 175 225 287 330 404
#     4  10  22  44  66  94 138 183 219 284 339 409
#     4  10  21  41  68 100 126 175 234 279 331 397
#     4  10  26  43  62 100 140 175 222 282 345 407
#     4  11  22  44  70  95 135 184 227 272 349 412
#     4  10  20  40  66  96 126 168 226 279 323 385
#     4  11  24  43  70  98 134 172 231 281 336 395
#
# _framework density 21.883305
#
# number of rings (size 3 to 8) (size 9 to 14) (size 15 to 20)
#    0.000    1.500    2.500    2.250    5.250    0.000 
#    9.000    0.000    0.000    0.000    0.000    0.000 
#    0.000    0.000    0.000    0.000    0.000    0.000 
#
# Total GULP energy -178355.242745 kJ/mol
# GULP energy per Si atom -5573.601336 kJ/mol
# Density = 2.183350 g / cm^3
# Si number density = 21.883305 Si / 1000 Ang^3
#
#
#
# Elastic Constant Matrix: (Units=GPa)
#
#
# Indices 1 2 3 4 5 6 
#
# 1 126.6665 29.5300 13.1748 0.0000 0.0000 0.0000
# 2 29.5300 54.1752 15.5399 0.0000 0.0000 0.0000
# 3 13.1748 15.5399 76.5145 0.0000 0.0000 0.0000
# 4 0.0000 0.0000 0.0000 30.2231 0.0000 0.0000
# 5 0.0000 0.0000 0.0000 0.0000 25.0093 0.0000
# 6 0.0000 0.0000 0.0000 0.0000 0.0000 19.5386
#
#
#
# Elastic Compliance Matrix: (Units=1/GPa)
#
#
# Indices 1 2 3 4 5 6 
#
# 1 0.009069 -0.004774 -0.000592 0.000000 0.000000 0.000000
# 2 -0.004774 0.022113 -0.003669 0.000000 0.000000 0.000000
# 3 -0.000592 -0.003669 0.013917 0.000000 0.000000 0.000000
# 4 0.000000 0.000000 0.000000 0.033087 0.000000 0.000000
# 5 0.000000 0.000000 0.000000 0.000000 0.039985 0.000000
# 6 0.000000 0.000000 0.000000 0.000000 0.000000 0.051181
#
#
# Mechanical properties :
#
#
# Convention : Reuss Voigt Hill
#
# Bulk Modulus (GPa) = 36.99710 41.53841 39.26775
# Shear Modulus (GPa) = 25.45416 28.22831 26.84123
#
# Velocity S-wave (km/s) = 3.41424 3.59548 3.50603
# Velocity P-wave (km/s) = 5.69964 6.02160 5.86283
#
# Compressibility (1/GPa) = 0.02702915
#
# Stress axis : x y z
#
# Youngs Moduli (GPa) = 110.26307 45.22192 71.85679
#
# Poissons Ratio (x) = 0.21587 0.04255
# Poissons Ratio (y) = 0.52636 0.26365
# Poissons Ratio (z) = 0.06529 0.16593
#
# Static dielectric constant tensor:
#      x y z
#    x 1.878340 0.000000 0.000000 
#    y 0.000000 1.788610 0.000000 
#    z 0.000000 0.000000 2.053780 
# 
# From -- ./inp_files/1588.got.cif
#   From: 2010.05.17/outbox.cif.g08.bks.cpg/sg19_1_cif.got.tgz:1588.got - 2010.06.03 22:46:19.
