data_PCOD9314636
_publ_section_title
;
Structure prediction by ZEFSAII (Michael W. Deem and Ramdas Pophale) SiO2 
 PCOD9314636
Probable space group: P 21 21 21
;
_chemical_formula_sum "Si O2"
_cell_formula_units_Z 20
_cell_length_a 8.125901
_cell_length_b 22.381027
_cell_length_c 4.862027
_cell_angle_alpha 90.000000
_cell_angle_beta 90.000000
_cell_angle_gamma 90.000000
_cell_volume 884.237449
_symmetry_space_group_name_H-M "P 21 21 21"
_symmetry_group_IT_number 19
_symmetry_cell_setting 'orthorhombic'
loop_
_space_group_symop_operation_xyz
x,y,z
1/2-x,-y,1/2+z
1/2+x,1/2-y,-z
-x,1/2+y,1/2-z
loop_
_atom_site_type_symbol
_atom_site_label
_atom_site_fract_x
_atom_site_fract_y
_atom_site_fract_z
Si Si1 0.265044 0.671877 0.456419
Si Si2 0.947462 0.634272 0.729025
Si Si3 0.643587 0.764674 0.057931
Si Si4 0.903910 0.357286 0.237177
Si Si5 0.255143 0.958700 0.969792
O O1 0.110444 0.630311 0.545231
O O2 0.245583 0.692723 0.147338
O O3 0.438920 0.645805 0.544153
O O4 0.231855 0.730685 0.647451
O O5 0.605815 0.701839 0.924883
O O6 0.914302 0.580420 0.940823
O O7 0.977628 0.696562 0.890489
O O8 0.771895 0.639602 0.579115
O O9 0.892959 0.414988 0.435901
O O10 0.249318 0.016895 0.164375
#
# Coordination Sequence:
#
# PCOD9314636 Si02
#       5
#     4   4   4   4   4
#     4  10  23  38  60 101 124 164 208 261 331 390
#     4   8  23  40  65  91 131 166 205 275 312 386
#     4  10  22  39  63  99 135 156 210 268 336 380
#     4  10  22  41  67  92 130 176 207 268 329 389
#     4  10  24  42  65  91 122 178 224 252 314 387
#
# _framework density 22.618355999999999
#
# number of rings (size 3 to 8) (size 9 to 14) (size 15 to 20)
#    2.400    0.000    0.000    1.200    5.600    3.200 
#    3.600    2.000    0.000    0.000    0.000    0.000 
#    0.000    0.000    0.000    0.000    0.000    0.000 
#
# Total GULP energy -111530.782370 kJ/mol
# GULP energy per Si atom -5576.539119 kJ/mol
# Density = 2.256688 g / cm^3
# Si number density = 22.618356 Si / 1000 Ang^3
#
#
#
# Elastic Constant Matrix: (Units=GPa)
#
#
# Indices 1 2 3 4 5 6 
#
# 1 159.2835 25.0366 19.4158 0.0000 0.0000 0.0000
# 2 25.0366 108.3103 8.1663 0.0000 0.0000 0.0000
# 3 19.4158 8.1663 64.9114 0.0000 0.0000 0.0000
# 4 0.0000 0.0000 0.0000 39.0463 0.0000 0.0000
# 5 0.0000 0.0000 0.0000 0.0000 16.1076 0.0000
# 6 0.0000 0.0000 0.0000 0.0000 0.0000 26.1020
#
#
#
# Elastic Compliance Matrix: (Units=1/GPa)
#
#
# Indices 1 2 3 4 5 6 
#
# 1 0.006724 -0.001416 -0.001833 0.000000 0.000000 0.000000
# 2 -0.001416 0.009619 -0.000787 0.000000 0.000000 0.000000
# 3 -0.001833 -0.000787 0.016053 0.000000 0.000000 0.000000
# 4 0.000000 0.000000 0.000000 0.025611 0.000000 0.000000
# 5 0.000000 0.000000 0.000000 0.000000 0.062083 0.000000
# 6 0.000000 0.000000 0.000000 0.000000 0.000000 0.038311
#
#
# Mechanical properties :
#
#
# Convention : Reuss Voigt Hill
#
# Bulk Modulus (GPa) = 41.11043 48.63809 44.87426
# Shear Modulus (GPa) = 28.64001 34.91026 31.77514
#
# Velocity S-wave (km/s) = 3.56227 3.93294 3.75218
# Velocity P-wave (km/s) = 5.92747 6.49419 6.21729
#
# Compressibility (1/GPa) = 0.02432472
#
# Stress axis : x y z
#
# Youngs Moduli (GPa) = 148.71767 103.95676 62.29405
#
# Poissons Ratio (x) = 0.14721 0.11419
# Poissons Ratio (y) = 0.21060 0.04900
# Poissons Ratio (z) = 0.27262 0.08177
#
# Static dielectric constant tensor:
#      x y z
#    x 1.904330 0.000000 0.000000 
#    y 0.000000 1.835290 0.000000 
#    z 0.000000 0.000000 1.824200 
# 
# From -- ./inp_files/462.got.cif
#   From: 2010.05.17/outbox.cif.g08.bks.cpg/sg19_1_cif.got.tgz:462.got - 2010.06.03 22:46:19.
