data_PCOD9314998
_publ_section_title
;
Structure prediction by ZEFSAII (Michael W. Deem and Ramdas Pophale) SiO2 
 PCOD9314998
Probable space group: P 21 21 21
;
_chemical_formula_sum "Si O2"
_cell_formula_units_Z 20
_cell_length_a 18.543085
_cell_length_b 8.176632
_cell_length_c 4.774095
_cell_angle_alpha 90.000000
_cell_angle_beta 90.000000
_cell_angle_gamma 90.000000
_cell_volume 723.848199
_symmetry_space_group_name_H-M "P 21 21 21"
_symmetry_group_IT_number 19
_symmetry_cell_setting 'orthorhombic'
loop_
_space_group_symop_operation_xyz
x,y,z
1/2-x,-y,1/2+z
1/2+x,1/2-y,-z
-x,1/2+y,1/2-z
loop_
_atom_site_type_symbol
_atom_site_label
_atom_site_fract_x
_atom_site_fract_y
_atom_site_fract_z
Si Si1 0.451294 0.881169 0.380062
Si Si2 0.714547 0.074309 0.909510
Si Si3 0.925285 0.825986 0.142134
Si Si4 0.770610 0.393321 0.196726
Si Si5 0.930177 0.327708 0.034680
O O1 0.414941 0.841845 0.675692
O O2 0.537368 0.844705 0.416719
O O3 0.430251 0.042967 0.218465
O O4 0.427314 0.730549 0.175636
O O5 0.728296 0.944147 0.155744
O O6 0.638380 0.062271 0.753356
O O7 0.725463 0.244522 0.068771
O O8 0.995619 0.375497 0.246306
O O9 0.756166 0.550174 0.998758
O O10 0.852693 0.331192 0.174848
#
# Coordination Sequence:
#
# PCOD9314998 Si02
#       5
#     4   4   4   4   4
#     4  10  23  39  66  94 129 171 229 277 335 391
#     4  12  26  44  71 103 141 183 233 287 345 411
#     4  10  24  40  67  93 139 167 229 274 338 389
#     4  12  27  46  71 101 148 184 230 282 365 416
#     4  10  26  41  73  95 137 177 233 276 341 407
#
# _framework density 27.630099999999999
#
# number of rings (size 3 to 8) (size 9 to 14) (size 15 to 20)
#    1.200    0.000    0.000    4.800    8.400    1.600 
#    0.000    0.000    0.000    0.000    0.000    0.000 
#    0.000    0.000    0.000    0.000    0.000    0.000 
#
# Total GULP energy -112133.530650 kJ/mol
# GULP energy per Si atom -5606.676532 kJ/mol
# Density = 2.756721 g / cm^3
# Si number density = 27.630100 Si / 1000 Ang^3
#
#
#
# Elastic Constant Matrix: (Units=GPa)
#
#
# Indices 1 2 3 4 5 6 
#
# 1 166.3260 1.5407 9.6775 0.0000 0.0000 0.0000
# 2 1.5407 71.4425 -3.0631 0.0000 0.0000 0.0000
# 3 9.6775 -3.0631 123.1900 0.0000 0.0000 0.0000
# 4 0.0000 0.0000 0.0000 28.3197 0.0000 0.0000
# 5 0.0000 0.0000 0.0000 0.0000 47.4603 0.0000
# 6 0.0000 0.0000 0.0000 0.0000 0.0000 34.9818
#
#
#
# Elastic Compliance Matrix: (Units=1/GPa)
#
#
# Indices 1 2 3 4 5 6 
#
# 1 0.006042 -0.000151 -0.000478 0.000000 0.000000 0.000000
# 2 -0.000151 0.014016 0.000360 0.000000 0.000000 0.000000
# 3 -0.000478 0.000360 0.008164 0.000000 0.000000 0.000000
# 4 0.000000 0.000000 0.000000 0.035311 0.000000 0.000000
# 5 0.000000 0.000000 0.000000 0.000000 0.021070 0.000000
# 6 0.000000 0.000000 0.000000 0.000000 0.000000 0.028586
#
#
# Mechanical properties :
#
#
# Convention : Reuss Voigt Hill
#
# Bulk Modulus (GPa) = 36.12197 41.91873 39.02035
# Shear Modulus (GPa) = 40.66532 45.67257 43.16895
#
# Velocity S-wave (km/s) = 3.84054 4.07012 3.95699
# Velocity P-wave (km/s) = 5.72434 6.10673 5.91863
#
# Compressibility (1/GPa) = 0.02768398
#
# Stress axis : x y z
#
# Youngs Moduli (GPa) = 165.52134 71.34712 122.48776
#
# Poissons Ratio (x) = 0.01076 0.05859
# Poissons Ratio (y) = 0.02496 -0.04414
# Poissons Ratio (z) = 0.07918 -0.02571
#
# Static dielectric constant tensor:
#      x y z
#    x 2.178120 0.000000 0.000000 
#    y 0.000000 2.281620 0.000000 
#    z 0.000000 0.000000 2.094560 
# 
# From -- ./inp_files/438.got.cif
#   From: 2010.05.17/outbox.cif.g08.bks.cpg/sg19_1_cif.got.tgz:438.got - 2010.06.03 22:46:19.
