data_PCOD9314002
_publ_section_title
;
Structure prediction by ZEFSAII (Michael W. Deem and Ramdas Pophale) SiO2 
 PCOD9314002
Probable space group: P 21 21 21
;
_chemical_formula_sum "Si O2"
_cell_formula_units_Z 24
_cell_length_a 14.182056
_cell_length_b 7.838086
_cell_length_c 8.008821
_cell_angle_alpha 90.000000
_cell_angle_beta 90.000000
_cell_angle_gamma 90.000000
_cell_volume 890.261941
_symmetry_space_group_name_H-M "P 21 21 21"
_symmetry_group_IT_number 19
_symmetry_cell_setting 'orthorhombic'
loop_
_space_group_symop_operation_xyz
x,y,z
1/2-x,-y,1/2+z
1/2+x,1/2-y,-z
-x,1/2+y,1/2-z
loop_
_atom_site_type_symbol
_atom_site_label
_atom_site_fract_x
_atom_site_fract_y
_atom_site_fract_z
Si Si1 0.846319 0.537592 0.056805
Si Si2 0.634840 0.859137 0.978606
Si Si3 0.504223 0.170887 0.046815
Si Si4 0.467146 0.651648 0.066406
Si Si5 0.794957 0.057410 0.855581
Si Si6 0.832001 0.625281 0.437529
O O1 0.900428 0.680265 0.950408
O O2 0.722919 0.894697 0.856997
O O3 0.737082 0.516781 0.011363
O O4 0.902033 0.361877 0.026813
O O5 0.561329 0.701430 0.962300
O O6 0.852836 0.592324 0.246014
O O7 0.564964 0.021278 0.959246
O O8 0.675024 0.881222 0.169427
O O9 0.499058 0.139304 0.243291
O O10 0.568855 0.336683 0.024619
O O11 0.389431 0.502419 0.047679
O O12 0.732359 0.203818 0.939601
#
# Coordination Sequence:
#
# PCOD9314002 Si02
#       6
#     4   4   4   4   4   4
#     4  11  23  43  70 101 136 179 232 286 347 414
#     4   9  19  36  62  93 128 169 215 268 334 402
#     4   9  21  41  62  92 134 172 218 279 337 402
#     4  10  20  40  66  97 131 173 223 281 345 412
#     4  10  20  39  67  95 129 171 219 276 339 408
#     4  11  23  43  67  98 136 182 229 282 342 410
#
# _framework density 26.958358
#
# number of rings (size 3 to 8) (size 9 to 14) (size 15 to 20)
#    0.000    2.000    0.000    3.000    0.000    0.000 
#    0.000   43.333    0.000    0.000    0.000    0.000 
#    0.000    0.000    0.000    0.000    0.000    0.000 
#
# Total GULP energy -134350.091671 kJ/mol
# GULP energy per Si atom -5597.920486 kJ/mol
# Density = 2.689700 g / cm^3
# Si number density = 26.958358 Si / 1000 Ang^3
#
#
#
# Elastic Constant Matrix: (Units=GPa)
#
#
# Indices 1 2 3 4 5 6 
#
# 1 203.9121 56.0562 39.9475 0.0000 0.0000 0.0000
# 2 56.0562 109.1108 26.4842 0.0000 0.0000 0.0000
# 3 39.9475 26.4842 44.4575 0.0000 0.0000 0.0000
# 4 0.0000 0.0000 0.0000 27.9213 0.0000 0.0000
# 5 0.0000 0.0000 0.0000 0.0000 40.9684 0.0000
# 6 0.0000 0.0000 0.0000 0.0000 0.0000 66.3444
#
#
#
# Elastic Compliance Matrix: (Units=1/GPa)
#
#
# Indices 1 2 3 4 5 6 
#
# 1 0.006375 -0.002203 -0.004416 0.000000 0.000000 0.000000
# 2 -0.002203 0.011476 -0.004857 0.000000 0.000000 0.000000
# 3 -0.004416 -0.004857 0.029354 0.000000 0.000000 0.000000
# 4 0.000000 0.000000 0.000000 0.035815 0.000000 0.000000
# 5 0.000000 0.000000 0.000000 0.000000 0.024409 0.000000
# 6 0.000000 0.000000 0.000000 0.000000 0.000000 0.015073
#
#
# Mechanical properties :
#
#
# Convention : Reuss Voigt Hill
#
# Bulk Modulus (GPa) = 41.23048 66.93958 54.08503
# Shear Modulus (GPa) = 32.56543 42.71299 37.63921
#
# Velocity S-wave (km/s) = 3.47939 3.98478 3.74063
# Velocity P-wave (km/s) = 5.60971 6.78645 6.22594
#
# Compressibility (1/GPa) = 0.02425390
#
# Stress axis : x y z
#
# Youngs Moduli (GPa) = 156.86763 87.14015 34.06673
#
# Poissons Ratio (x) = 0.19200 0.15042
# Poissons Ratio (y) = 0.34563 0.16545
# Poissons Ratio (z) = 0.69266 0.42320
#
# Static dielectric constant tensor:
#      x y z
#    x 2.138530 0.000000 0.000000 
#    y 0.000000 2.294400 0.000000 
#    z 0.000000 0.000000 1.944510 
# 
# From -- ./inp_files/6717.got.cif
#   From: 2010.05.17/outbox.cif.g08.bks.cpg/sg19_4_cif.got.tgz:6717.got - 2010.06.03 22:46:19.
