data_PCOD9314690
_publ_section_title
;
Structure prediction by ZEFSAII (Michael W. Deem and Ramdas Pophale) SiO2 
 PCOD9314690
Probable space group: P 21 21 21
;
_chemical_formula_sum "Si O2"
_cell_formula_units_Z 32
_cell_length_a 11.510182
_cell_length_b 11.376025
_cell_length_c 11.880817
_cell_angle_alpha 90.000000
_cell_angle_beta 90.000000
_cell_angle_gamma 90.000000
_cell_volume 1555.675582
_symmetry_space_group_name_H-M "P 21 21 21"
_symmetry_group_IT_number 19
_symmetry_cell_setting 'orthorhombic'
loop_
_space_group_symop_operation_xyz
x,y,z
1/2-x,-y,1/2+z
1/2+x,1/2-y,-z
-x,1/2+y,1/2-z
loop_
_atom_site_type_symbol
_atom_site_label
_atom_site_fract_x
_atom_site_fract_y
_atom_site_fract_z
Si Si1 0.405791 0.986513 0.737190
Si Si2 0.599345 0.910761 0.890995
Si Si3 0.940917 0.969416 0.614951
Si Si4 0.692520 0.653226 0.361369
Si Si5 0.305298 0.431196 0.170077
Si Si6 0.064300 0.589526 0.451876
Si Si7 0.645740 0.277806 0.063830
Si Si8 0.182499 0.764106 0.271166
O O1 0.388733 0.117215 0.780201
O O2 0.476629 0.911351 0.827282
O O3 0.285184 0.922706 0.708817
O O4 0.484116 0.992053 0.624718
O O5 0.667997 0.795393 0.849877
O O6 0.675048 0.017139 0.835007
O O7 0.573306 0.929377 0.021624
O O8 0.872674 0.860915 0.557551
O O9 0.070552 0.916329 0.633045
O O10 0.878659 0.008477 0.730144
O O11 0.686360 0.789191 0.319288
O O12 0.753870 0.670636 0.483512
O O13 0.356054 0.466243 0.047213
O O14 0.133712 0.671273 0.363406
O O15 0.973566 0.666537 0.523857
O O16 0.686952 0.296185 0.191631
#
# Coordination Sequence:
#
# PCOD9314690 Si02
#       8
#     4   4   4   4   4   4   4   4
#     4  10  25  41  69 100 132 174 232 279 340 414
#     4  11  24  42  68  97 134 178 223 287 348 403
#     4  12  24  43  66 103 134 184 230 285 351 408
#     4  11  24  43  71 102 131 182 231 282 342 412
#     4  12  24  42  71  98 137 176 236 281 341 411
#     4  10  22  40  66  96 128 181 229 278 333 407
#     4  11  18  38  69  92 127 174 233 273 331 414
#     4  11  21  41  64  98 131 177 226 281 346 401
#
# _framework density 20.569841
#
# number of rings (size 3 to 8) (size 9 to 14) (size 15 to 20)
#    0.000    1.000    5.000    1.500    7.000    0.000 
#    2.250    0.000    0.000    0.000    0.000    0.000 
#    0.000    0.000    0.000    0.000    0.000    0.000 
#
# Total GULP energy -178521.389291 kJ/mol
# GULP energy per Si atom -5578.793415 kJ/mol
# Density = 2.052302 g / cm^3
# Si number density = 20.569841 Si / 1000 Ang^3
#
#
#
# Elastic Constant Matrix: (Units=GPa)
#
#
# Indices 1 2 3 4 5 6 
#
# 1 110.3267 15.1697 31.7349 0.0000 0.0000 0.0000
# 2 15.1697 23.4974 3.0235 0.0000 0.0000 0.0000
# 3 31.7349 3.0235 56.1550 0.0000 0.0000 0.0000
# 4 0.0000 0.0000 0.0000 32.6295 0.0000 0.0000
# 5 0.0000 0.0000 0.0000 0.0000 33.5239 0.0000
# 6 0.0000 0.0000 0.0000 0.0000 0.0000 25.5870
#
#
#
# Elastic Compliance Matrix: (Units=1/GPa)
#
#
# Indices 1 2 3 4 5 6 
#
# 1 0.011817 -0.006817 -0.006311 0.000000 0.000000 0.000000
# 2 -0.006817 0.046787 0.001333 0.000000 0.000000 0.000000
# 3 -0.006311 0.001333 0.021303 0.000000 0.000000 0.000000
# 4 0.000000 0.000000 0.000000 0.030647 0.000000 0.000000
# 5 0.000000 0.000000 0.000000 0.000000 0.029829 0.000000
# 6 0.000000 0.000000 0.000000 0.000000 0.000000 0.039082
#
#
# Mechanical properties :
#
#
# Convention : Reuss Voigt Hill
#
# Bulk Modulus (GPa) = 17.75646 32.20393 24.98019
# Shear Modulus (GPa) = 22.54016 27.68480 25.11248
#
# Velocity S-wave (km/s) = 3.31386 3.67262 3.49784
# Velocity P-wave (km/s) = 4.82631 5.80294 5.33701
#
# Compressibility (1/GPa) = 0.05631753
#
# Stress axis : x y z
#
# Youngs Moduli (GPa) = 84.62704 21.37342 46.94278
#
# Poissons Ratio (x) = 0.14569 0.29625
# Poissons Ratio (y) = 0.57687 -0.06258
# Poissons Ratio (z) = 0.53407 -0.02849
#
# Static dielectric constant tensor:
#      x y z
#    x 1.791640 0.000000 0.000000 
#    y 0.000000 1.746450 0.000000 
#    z 0.000000 0.000000 1.749190 
# 
# From -- ./inp_files/5059.got.cif
#   From: 2010.05.17/outbox.cif.g08.bks.cpg/sg19_3_cif.got.tgz:5059.got - 2010.06.03 22:46:19.
