data_PCOD9314485
_publ_section_title
;
Structure prediction by ZEFSAII (Michael W. Deem and Ramdas Pophale) SiO2 
 PCOD9314485
Probable space group: P 21 21 21
;
_chemical_formula_sum "Si O2"
_cell_formula_units_Z 28
_cell_length_a 7.461231
_cell_length_b 18.977661
_cell_length_c 9.013754
_cell_angle_alpha 90.000000
_cell_angle_beta 90.000000
_cell_angle_gamma 90.000000
_cell_volume 1276.317934
_symmetry_space_group_name_H-M "P 21 21 21"
_symmetry_group_IT_number 19
_symmetry_cell_setting 'orthorhombic'
loop_
_space_group_symop_operation_xyz
x,y,z
1/2-x,-y,1/2+z
1/2+x,1/2-y,-z
-x,1/2+y,1/2-z
loop_
_atom_site_type_symbol
_atom_site_label
_atom_site_fract_x
_atom_site_fract_y
_atom_site_fract_z
Si Si1 0.330662 0.919940 0.779278
Si Si2 0.549985 0.901799 0.278160
Si Si3 0.093780 0.780965 0.217463
Si Si4 0.548251 0.058494 0.168061
Si Si5 0.377071 0.074425 0.839724
Si Si6 0.624862 0.847963 0.593676
Si Si7 0.434072 0.818804 0.026095
O O1 0.117442 0.916711 0.768329
O O2 0.435329 0.874675 0.658007
O O3 0.394350 0.999968 0.758032
O O4 0.381063 0.890056 0.939621
O O5 0.337319 0.909028 0.325211
O O6 0.641061 0.871648 0.424778
O O7 0.577051 0.845831 0.145798
O O8 0.601185 0.979732 0.220515
O O9 0.031337 0.858425 0.263661
O O10 0.130060 0.734147 0.364306
O O11 0.276221 0.789410 0.126155
O O12 0.976697 0.736469 0.102187
O O13 0.716334 0.110548 0.177396
O O14 0.458764 0.062076 0.003374
#
# Coordination Sequence:
#
# PCOD9314485 Si02
#       7
#     4   4   4   4   4   4   4
#     4  10  22  45  69  95 135 171 229 289 327 397
#     4  10  22  42  68  95 135 173 227 286 332 400
#     4  10  25  42  64  98 136 178 222 278 344 409
#     4  11  23  39  71  99 124 183 225 275 344 400
#     4  10  21  42  67  96 129 180 226 272 342 396
#     4  11  25  42  65 100 139 172 221 285 341 409
#     4  10  22  44  68  95 136 179 222 281 342 401
#
# _framework density 21.938108
#
# number of rings (size 3 to 8) (size 9 to 14) (size 15 to 20)
#    0.000    1.714    2.857    0.000    4.000    3.429 
#    0.000    0.000    0.000    0.000    0.000    0.000 
#    0.000    0.000    0.000    0.000    0.000    0.000 
#
# Total GULP energy -156305.634245 kJ/mol
# GULP energy per Si atom -5582.344080 kJ/mol
# Density = 2.188818 g / cm^3
# Si number density = 21.938108 Si / 1000 Ang^3
#
#
#
# Elastic Constant Matrix: (Units=GPa)
#
#
# Indices 1 2 3 4 5 6 
#
# 1 30.4523 17.7052 5.4127 0.0000 0.0000 0.0000
# 2 17.7052 121.9597 47.1373 0.0000 0.0000 0.0000
# 3 5.4127 47.1373 71.2051 0.0000 0.0000 0.0000
# 4 0.0000 0.0000 0.0000 0.3446 0.0000 0.0000
# 5 0.0000 0.0000 0.0000 0.0000 31.5166 0.0000
# 6 0.0000 0.0000 0.0000 0.0000 0.0000 15.8267
#
#
#
# Elastic Compliance Matrix: (Units=1/GPa)
#
#
# Indices 1 2 3 4 5 6 
#
# 1 0.035915 -0.005589 0.000969 0.000000 0.000000 0.000000
# 2 -0.005589 0.011888 -0.007445 0.000000 0.000000 0.000000
# 3 0.000969 -0.007445 0.018899 0.000000 0.000000 0.000000
# 4 0.000000 0.000000 0.000000 2.901890 0.000000 0.000000
# 5 0.000000 0.000000 0.000000 0.000000 0.031729 0.000000
# 6 0.000000 0.000000 0.000000 0.000000 0.000000 0.063184
#
#
# Mechanical properties :
#
#
# Convention : Reuss Voigt Hill
#
# Bulk Modulus (GPa) = 23.48861 40.45863 31.97362
# Shear Modulus (GPa) = 1.61195 19.76170 10.68683
#
# Velocity S-wave (km/s) = 0.85812 3.00458 2.20951
# Velocity P-wave (km/s) = 3.42226 5.52439 4.59514
#
# Compressibility (1/GPa) = 0.04257383
#
# Stress axis : x y z
#
# Youngs Moduli (GPa) = 27.84336 84.11645 52.91321
#
# Poissons Ratio (x) = 0.47010 -0.05130
# Poissons Ratio (y) = 0.15561 0.39395
# Poissons Ratio (z) = -0.02699 0.62626
#
# Static dielectric constant tensor:
#      x y z
#    x 1.861730 0.000000 0.000000 
#    y 0.000000 1.825000 0.000000 
#    z 0.000000 0.000000 1.804790 
# 
# From -- ./inp_files/2962.got.cif
#   From: 2010.05.17/outbox.cif.g08.bks.cpg/sg19_2_cif.got.tgz:2962.got - 2010.06.03 22:46:19.
