data_PCOD9314006
_publ_section_title
;
Structure prediction by ZEFSAII (Michael W. Deem and Ramdas Pophale) SiO2 
 PCOD9314006
Probable space group: P 21 21 21
;
_chemical_formula_sum "Si O2"
_cell_formula_units_Z 32
_cell_length_a 21.620350
_cell_length_b 6.153897
_cell_length_c 10.571256
_cell_angle_alpha 90.000000
_cell_angle_beta 90.000000
_cell_angle_gamma 90.000000
_cell_volume 1406.499342
_symmetry_space_group_name_H-M "P 21 21 21"
_symmetry_group_IT_number 19
_symmetry_cell_setting 'orthorhombic'
loop_
_space_group_symop_operation_xyz
x,y,z
1/2-x,-y,1/2+z
1/2+x,1/2-y,-z
-x,1/2+y,1/2-z
loop_
_atom_site_type_symbol
_atom_site_label
_atom_site_fract_x
_atom_site_fract_y
_atom_site_fract_z
Si Si1 0.880858 0.770290 0.953968
Si Si2 0.270144 0.961973 0.958537
Si Si3 0.313089 0.346343 0.140818
Si Si4 0.697413 0.878327 0.865538
Si Si5 0.103835 0.260652 0.031477
Si Si6 0.339340 0.977774 0.297698
Si Si7 0.415561 0.125181 0.724786
Si Si8 0.495990 0.936192 0.940493
O O1 0.835046 0.662526 0.058151
O O2 0.858962 0.663757 0.822008
O O3 0.861803 0.018367 0.940768
O O4 0.951395 0.713343 0.976456
O O5 0.225570 0.792939 0.033551
O O6 0.283313 0.164865 0.049765
O O7 0.233107 0.032917 0.834793
O O8 0.257193 0.497564 0.189627
O O9 0.347604 0.225807 0.254629
O O10 0.649795 0.751575 0.774827
O O11 0.656637 0.064197 0.934364
O O12 0.043149 0.397472 0.995321
O O13 0.091946 0.102995 0.150702
O O14 0.124654 0.105753 0.918434
O O15 0.461880 0.280764 0.646159
O O16 0.449232 0.077427 0.855465
#
# Coordination Sequence:
#
# PCOD9314006 Si02
#       8
#     4   4   4   4   4   4   4   4
#     4  10  26  42  65 102 144 182 229 301 355 420
#     4  10  21  42  66  99 138 182 225 275 353 434
#     4  10  22  41  66 104 140 182 227 287 352 433
#     4  10  20  39  69 103 136 177 232 283 356 415
#     4  11  23  43  73  97 139 188 242 291 347 434
#     4  11  23  43  69 101 143 184 234 283 362 437
#     4  11  22  42  73  96 134 188 238 298 345 419
#     4  11  25  46  65 104 138 183 245 294 352 410
#
# _framework density 22.751522999999999
#
# number of rings (size 3 to 8) (size 9 to 14) (size 15 to 20)
#    0.000    1.500    3.750    0.000    1.750    6.000 
#    2.250    3.750    0.000    0.000    0.000    0.000 
#    0.000    0.000    0.000    0.000    0.000    0.000 
#
# Total GULP energy -179014.903650 kJ/mol
# GULP energy per Si atom -5594.215739 kJ/mol
# Density = 2.269974 g / cm^3
# Si number density = 22.751523 Si / 1000 Ang^3
#
#
#
# Elastic Constant Matrix: (Units=GPa)
#
#
# Indices 1 2 3 4 5 6 
#
# 1 124.3260 60.1715 21.9773 0.0000 0.0000 0.0000
# 2 60.1715 124.7328 16.0673 0.0000 0.0000 0.0000
# 3 21.9773 16.0673 37.6952 0.0000 0.0000 0.0000
# 4 0.0000 0.0000 0.0000 29.1107 0.0000 0.0000
# 5 0.0000 0.0000 0.0000 0.0000 29.8055 0.0000
# 6 0.0000 0.0000 0.0000 0.0000 0.0000 34.3812
#
#
#
# Elastic Compliance Matrix: (Units=1/GPa)
#
#
# Indices 1 2 3 4 5 6 
#
# 1 0.011158 -0.004809 -0.004456 0.000000 0.000000 0.000000
# 2 -0.004809 0.010555 -0.001695 0.000000 0.000000 0.000000
# 3 -0.004456 -0.001695 0.029849 0.000000 0.000000 0.000000
# 4 0.000000 0.000000 0.000000 0.034352 0.000000 0.000000
# 5 0.000000 0.000000 0.000000 0.000000 0.033551 0.000000
# 6 0.000000 0.000000 0.000000 0.000000 0.000000 0.029086
#
#
# Mechanical properties :
#
#
# Convention : Reuss Voigt Hill
#
# Bulk Modulus (GPa) = 33.73537 53.68736 43.71136
# Shear Modulus (GPa) = 27.72349 31.22868 29.47609
#
# Velocity S-wave (km/s) = 3.49454 3.70888 3.60330
# Velocity P-wave (km/s) = 5.58053 6.47993 6.04698
#
# Compressibility (1/GPa) = 0.02964248
#
# Stress axis : x y z
#
# Youngs Moduli (GPa) = 89.61808 94.73867 33.50177
#
# Poissons Ratio (x) = 0.45559 0.14928
# Poissons Ratio (y) = 0.43096 0.05680
# Poissons Ratio (z) = 0.39933 0.16062
#
# Static dielectric constant tensor:
#      x y z
#    x 1.853690 0.000000 0.000000 
#    y 0.000000 1.876180 0.000000 
#    z 0.000000 0.000000 1.852320 
# 
# From -- ./inp_files/5474.got.cif
#   From: 2010.05.17/outbox.cif.g08.bks.cpg/sg19_3_cif.got.tgz:5474.got - 2010.06.03 22:46:19.
