data_PCOD9314301
_publ_section_title
;
Structure prediction by ZEFSAII (Michael W. Deem and Ramdas Pophale) SiO2 
 PCOD9314301
Probable space group: P 21 21 21
;
_chemical_formula_sum "Si O2"
_cell_formula_units_Z 32
_cell_length_a 8.965817
_cell_length_b 14.557700
_cell_length_c 12.187181
_cell_angle_alpha 90.000000
_cell_angle_beta 90.000000
_cell_angle_gamma 90.000000
_cell_volume 1590.691267
_symmetry_space_group_name_H-M "P 21 21 21"
_symmetry_group_IT_number 19
_symmetry_cell_setting 'orthorhombic'
loop_
_space_group_symop_operation_xyz
x,y,z
1/2-x,-y,1/2+z
1/2+x,1/2-y,-z
-x,1/2+y,1/2-z
loop_
_atom_site_type_symbol
_atom_site_label
_atom_site_fract_x
_atom_site_fract_y
_atom_site_fract_z
Si Si1 0.573827 0.971778 0.034175
Si Si2 0.925051 0.157060 0.747018
Si Si3 0.927957 0.683321 0.091180
Si Si4 0.573827 0.028222 0.534175
Si Si5 0.925051 0.842940 0.247018
Si Si6 0.425795 0.847178 0.473414
Si Si7 0.574205 0.652822 0.526586
Si Si8 0.927957 0.316679 0.591180
O O1 0.552637 0.911205 0.144128
O O2 0.750000 0.981765 0.016193
O O3 0.502627 0.914141 0.933262
O O4 0.496342 0.069864 0.042327
O O5 0.750000 0.151071 0.779070
O O6 0.953229 0.261139 0.703733
O O7 0.030308 0.133425 0.847262
O O8 0.953229 0.738861 0.203733
O O9 0.750000 0.677504 0.074959
O O10 1.000000 0.750000 1.000000
O O11 0.552637 0.088795 0.644128
O O12 0.502627 0.085859 0.433262
O O13 0.496342 0.930136 0.542327
O O14 0.030308 0.866575 0.347262
O O15 0.500000 0.750000 0.500000
O O16 0.250000 0.842962 0.489472
#
# Coordination Sequence:
#
# PCOD9314301 Si02
#       8
#     4   4   4   4   4   4   4   4
#     4  10  21  39  63  89 119 155 197 245 293 349
#     4   9  20  39  62  88 119 155 195 240 292 348
#     4   9  17  32  57  88 119 151 191 239 287 340
#     4  10  21  39  63  89 119 155 197 245 293 349
#     4   9  20  39  62  88 119 155 195 240 292 348
#     4  12  26  42  61  85 118 157 197 244 294 349
#     4  12  26  42  61  85 118 157 197 244 294 349
#     4   9  17  32  57  88 119 151 191 239 287 340
#
# _framework density 20.117038999999998
#
# number of rings (size 3 to 8) (size 9 to 14) (size 15 to 20)
#    0.000    2.000    0.000    5.250    0.000    8.000 
#    0.000    0.000    0.000    0.000    0.000    0.000 
#    0.000    0.000    0.000    0.000    0.000    0.000 
#
# Total GULP energy -178719.271207 kJ/mol
# GULP energy per Si atom -5584.977225 kJ/mol
# Density = 2.007125 g / cm^3
# Si number density = 20.117039 Si / 1000 Ang^3
#
#
#
# Elastic Constant Matrix: (Units=GPa)
#
#
# Indices 1 2 3 4 5 6 
#
# 1 128.8712 66.1513 35.5323 0.0000 0.0000 0.0000
# 2 66.1513 144.5743 15.8208 0.0000 0.0000 0.0000
# 3 35.5323 15.8208 32.2460 0.0000 0.0000 0.0000
# 4 0.0000 0.0000 0.0000 18.7791 0.0000 0.0000
# 5 0.0000 0.0000 0.0000 0.0000 32.5576 0.0000
# 6 0.0000 0.0000 0.0000 0.0000 0.0000 39.8538
#
#
#
# Elastic Compliance Matrix: (Units=1/GPa)
#
#
# Indices 1 2 3 4 5 6 
#
# 1 0.013818 -0.004921 -0.012812 0.000000 0.000000 0.000000
# 2 -0.004921 0.009061 0.000976 0.000000 0.000000 0.000000
# 3 -0.012812 0.000976 0.044650 0.000000 0.000000 0.000000
# 4 0.000000 0.000000 0.000000 0.053251 0.000000 0.000000
# 5 0.000000 0.000000 0.000000 0.000000 0.030715 0.000000
# 6 0.000000 0.000000 0.000000 0.000000 0.000000 0.025092
#
#
# Mechanical properties :
#
#
# Convention : Reuss Voigt Hill
#
# Bulk Modulus (GPa) = 29.39699 60.07781 44.73740
# Shear Modulus (GPa) = 22.57957 30.78390 26.68174
#
# Velocity S-wave (km/s) = 3.35387 3.91607 3.64583
# Velocity P-wave (km/s) = 5.44451 7.09764 6.32531
#
# Compressibility (1/GPa) = 0.03401708
#
# Stress axis : x y z
#
# Youngs Moduli (GPa) = 72.36927 110.35733 22.39617
#
# Poissons Ratio (x) = 0.54302 0.28694
# Poissons Ratio (y) = 0.35610 -0.02186
# Poissons Ratio (z) = 0.92720 -0.10773
#
# Static dielectric constant tensor:
#      x y z
#    x 1.660380 0.000000 0.000000 
#    y 0.000000 1.705740 0.000000 
#    z 0.000000 0.000000 1.744900 
# 
# From -- ./inp_files/4746.got.cif
#   From: 2010.05.17/outbox.cif.g08.bks.cpg/sg19_3_cif.got.tgz:4746.got - 2010.06.03 22:46:19.
