data_PCOD9314915
_publ_section_title
;
Structure prediction by ZEFSAII (Michael W. Deem and Ramdas Pophale) SiO2 
 PCOD9314915
Probable space group: P 21 21 21
;
_chemical_formula_sum "Si O2"
_cell_formula_units_Z 28
_cell_length_a 18.003532
_cell_length_b 7.953426
_cell_length_c 6.912440
_cell_angle_alpha 90.000000
_cell_angle_beta 90.000000
_cell_angle_gamma 90.000000
_cell_volume 989.790621
_symmetry_space_group_name_H-M "P 21 21 21"
_symmetry_group_IT_number 19
_symmetry_cell_setting 'orthorhombic'
loop_
_space_group_symop_operation_xyz
x,y,z
1/2-x,-y,1/2+z
1/2+x,1/2-y,-z
-x,1/2+y,1/2-z
loop_
_atom_site_type_symbol
_atom_site_label
_atom_site_fract_x
_atom_site_fract_y
_atom_site_fract_z
Si Si1 0.756379 0.779802 0.744439
Si Si2 0.049824 0.498884 0.694640
Si Si3 0.651545 0.692085 0.281551
Si Si4 0.951394 0.954016 0.340563
Si Si5 0.095475 0.151370 0.734435
Si Si6 0.798776 0.837669 0.188318
Si Si7 0.896525 0.326340 0.326531
O O1 0.832326 0.715036 0.651150
O O2 0.684631 0.662356 0.727153
O O3 0.733365 0.970448 0.697306
O O4 0.785216 0.784074 0.967133
O O5 0.113156 0.634260 0.653695
O O6 0.062534 0.311338 0.617913
O O7 0.974268 0.590005 0.640310
O O8 0.045641 0.463292 0.925739
O O9 0.621737 0.519169 0.370131
O O10 0.738729 0.722969 0.299779
O O11 0.625524 0.672639 0.055358
O O12 0.882470 0.838689 0.267808
O O13 0.032513 0.927211 0.249516
O O14 0.923562 0.137852 0.283451
#
# Coordination Sequence:
#
# PCOD9314915 Si02
#       7
#     4   4   4   4   4   4   4
#     4  10  23  44  70 100 139 185 231 287 353 415
#     4  11  24  44  67 101 139 179 236 287 348 418
#     4  10  22  44  67  97 135 175 231 285 335 427
#     4  10  23  41  69  98 137 179 228 295 350 414
#     4  12  24  43  71  98 137 189 226 285 354 416
#     4  10  22  45  70  98 138 184 227 292 347 412
#     4   9  22  43  64  98 137 171 229 291 341 410
#
# _framework density 28.288813000000001
#
# number of rings (size 3 to 8) (size 9 to 14) (size 15 to 20)
#    0.000    1.714    2.857    0.857    6.000    1.143 
#   12.857    0.000    0.000    0.000    0.000    0.000 
#    0.000    0.000    0.000    0.000    0.000    0.000 
#
# Total GULP energy -156831.546034 kJ/mol
# GULP energy per Si atom -5601.126644 kJ/mol
# Density = 2.822443 g / cm^3
# Si number density = 28.288813 Si / 1000 Ang^3
#
#
#
# Elastic Constant Matrix: (Units=GPa)
#
#
# Indices 1 2 3 4 5 6 
#
# 1 250.1006 60.8123 55.1959 0.0000 0.0000 0.0000
# 2 60.8123 155.7676 16.8888 0.0000 0.0000 0.0000
# 3 55.1959 16.8888 139.2394 0.0000 0.0000 0.0000
# 4 0.0000 0.0000 0.0000 7.0782 0.0000 0.0000
# 5 0.0000 0.0000 0.0000 0.0000 40.5234 0.0000
# 6 0.0000 0.0000 0.0000 0.0000 0.0000 61.8641
#
#
#
# Elastic Compliance Matrix: (Units=1/GPa)
#
#
# Indices 1 2 3 4 5 6 
#
# 1 0.004781 -0.001683 -0.001691 0.000000 0.000000 0.000000
# 2 -0.001683 0.007098 -0.000194 0.000000 0.000000 0.000000
# 3 -0.001691 -0.000194 0.007876 0.000000 0.000000 0.000000
# 4 0.000000 0.000000 0.000000 0.141279 0.000000 0.000000
# 5 0.000000 0.000000 0.000000 0.000000 0.024677 0.000000
# 6 0.000000 0.000000 0.000000 0.000000 0.000000 0.016164
#
#
# Mechanical properties :
#
#
# Convention : Reuss Voigt Hill
#
# Bulk Modulus (GPa) = 79.24720 90.10019 84.67370
# Shear Modulus (GPa) = 23.45026 49.37386 36.41206
#
# Velocity S-wave (km/s) = 2.88229 4.18227 3.59158
# Velocity P-wave (km/s) = 6.25709 7.43244 6.86995
#
# Compressibility (1/GPa) = 0.01261874
#
# Stress axis : x y z
#
# Youngs Moduli (GPa) = 209.16811 140.88641 126.97266
#
# Poissons Ratio (x) = 0.23713 0.21471
# Poissons Ratio (y) = 0.35205 0.02460
# Poissons Ratio (z) = 0.35371 0.02729
#
# Static dielectric constant tensor:
#      x y z
#    x 2.214310 0.000000 0.000000 
#    y 0.000000 2.176720 0.000000 
#    z 0.000000 0.000000 2.283040 
# 
# From -- ./inp_files/2968.got.cif
#   From: 2010.05.17/outbox.cif.g08.bks.cpg/sg19_2_cif.got.tgz:2968.got - 2010.06.03 22:46:19.
