data_PCOD9314491
_publ_section_title
;
Structure prediction by ZEFSAII (Michael W. Deem and Ramdas Pophale) SiO2 
 PCOD9314491
Probable space group: P 21 21 21
;
_chemical_formula_sum "Si O2"
_cell_formula_units_Z 24
_cell_length_a 5.310898
_cell_length_b 9.013189
_cell_length_c 21.788924
_cell_angle_alpha 90.000000
_cell_angle_beta 90.000000
_cell_angle_gamma 90.000000
_cell_volume 1042.994991
_symmetry_space_group_name_H-M "P 21 21 21"
_symmetry_group_IT_number 19
_symmetry_cell_setting 'orthorhombic'
loop_
_space_group_symop_operation_xyz
x,y,z
1/2-x,-y,1/2+z
1/2+x,1/2-y,-z
-x,1/2+y,1/2-z
loop_
_atom_site_type_symbol
_atom_site_label
_atom_site_fract_x
_atom_site_fract_y
_atom_site_fract_z
Si Si1 0.661228 0.878762 0.361861
Si Si2 0.518280 0.461571 0.723759
Si Si3 0.015661 0.670113 0.974807
Si Si4 0.022310 0.331719 0.019813
Si Si5 0.672474 0.255342 0.227513
Si Si6 0.390794 0.177100 0.353643
O O1 0.866536 0.836647 0.411463
O O2 0.477646 0.753214 0.336100
O O3 0.502846 0.024177 0.382121
O O4 0.800330 0.933050 0.300593
O O5 0.738804 0.575435 0.738311
O O6 0.409262 0.355141 0.774919
O O7 0.605736 0.359809 0.666253
O O8 0.068203 0.695724 0.902709
O O9 0.250931 0.752316 0.007787
O O10 0.007479 0.499039 0.994533
O O11 0.246816 0.242436 0.984893
O O12 0.520821 0.210704 0.288428
#
# Coordination Sequence:
#
# PCOD9314491 Si02
#       6
#     4   4   4   4   4   4
#     4  10  22  45  69  95 143 187 230 296 370 426
#     4  10  21  42  68  97 142 178 232 287 364 417
#     4  12  25  48  80 105 141 200 255 292 357 440
#     4  12  28  50  70 111 150 191 243 310 375 423
#     4  10  22  41  68 104 133 186 228 291 360 429
#     4  10  22  42  71 102 131 182 248 292 342 435
#
# _framework density 23.010656999999998
#
# number of rings (size 3 to 8) (size 9 to 14) (size 15 to 20)
#    0.000    1.333    1.667    3.000    7.000    0.000 
#   15.000    0.000    0.000    0.000    0.000    0.000 
#    0.000    0.000    0.000    0.000    0.000    0.000 
#
# Total GULP energy -134166.044216 kJ/mol
# GULP energy per Si atom -5590.251842 kJ/mol
# Density = 2.295828 g / cm^3
# Si number density = 23.010657 Si / 1000 Ang^3
#
#
#
# Elastic Constant Matrix: (Units=GPa)
#
#
# Indices 1 2 3 4 5 6 
#
# 1 67.7683 19.9209 -10.5161 0.0000 0.0000 0.0000
# 2 19.9209 96.9297 17.3718 0.0000 0.0000 0.0000
# 3 -10.5161 17.3718 39.0119 0.0000 0.0000 0.0000
# 4 0.0000 0.0000 0.0000 36.1829 0.0000 0.0000
# 5 0.0000 0.0000 0.0000 0.0000 35.8536 0.0000
# 6 0.0000 0.0000 0.0000 0.0000 0.0000 41.1754
#
#
#
# Elastic Compliance Matrix: (Units=1/GPa)
#
#
# Indices 1 2 3 4 5 6 
#
# 1 0.017198 -0.004744 0.006748 0.000000 0.000000 0.000000
# 2 -0.004744 0.012520 -0.006854 0.000000 0.000000 0.000000
# 3 0.006748 -0.006854 0.030504 0.000000 0.000000 0.000000
# 4 0.000000 0.000000 0.000000 0.027637 0.000000 0.000000
# 5 0.000000 0.000000 0.000000 0.000000 0.027891 0.000000
# 6 0.000000 0.000000 0.000000 0.000000 0.000000 0.024286
#
#
# Mechanical properties :
#
#
# Convention : Reuss Voigt Hill
#
# Bulk Modulus (GPa) = 19.79288 28.58480 24.18884
# Shear Modulus (GPa) = 30.01610 34.43793 32.22701
#
# Velocity S-wave (km/s) = 3.61563 3.87280 3.74642
# Velocity P-wave (km/s) = 5.10398 5.69627 5.40824
#
# Compressibility (1/GPa) = 0.05052321
#
# Stress axis : x y z
#
# Youngs Moduli (GPa) = 58.14680 79.87169 32.78223
#
# Poissons Ratio (x) = 0.37891 -0.22122
# Poissons Ratio (y) = 0.27584 0.22469
# Poissons Ratio (z) = -0.39239 0.54743
#
# Static dielectric constant tensor:
#      x y z
#    x 1.911360 0.000000 0.000000 
#    y 0.000000 1.879440 0.000000 
#    z 0.000000 0.000000 1.863170 
# 
# From -- ./inp_files/481.got.cif
#   From: 2010.05.17/outbox.cif.g08.bks.cpg/sg19_1_cif.got.tgz:481.got - 2010.06.03 22:46:19.
