data_PCOD9314611
_publ_section_title
;
Structure prediction by ZEFSAII (Michael W. Deem and Ramdas Pophale) SiO2 
 PCOD9314611
Probable space group: P 21 21 21
;
_chemical_formula_sum "Si O2"
_cell_formula_units_Z 28
_cell_length_a 5.231913
_cell_length_b 24.480570
_cell_length_c 10.132513
_cell_angle_alpha 90.000000
_cell_angle_beta 90.000000
_cell_angle_gamma 90.000000
_cell_volume 1297.774417
_symmetry_space_group_name_H-M "P 21 21 21"
_symmetry_group_IT_number 19
_symmetry_cell_setting 'orthorhombic'
loop_
_space_group_symop_operation_xyz
x,y,z
1/2-x,-y,1/2+z
1/2+x,1/2-y,-z
-x,1/2+y,1/2-z
loop_
_atom_site_type_symbol
_atom_site_label
_atom_site_fract_x
_atom_site_fract_y
_atom_site_fract_z
Si Si1 0.831518 0.421813 0.306007
Si Si2 0.792904 0.617865 0.533505
Si Si3 0.929834 0.799867 0.593523
Si Si4 0.735614 0.886585 0.786937
Si Si5 0.330667 0.304876 0.170530
Si Si6 0.189102 0.628214 0.917037
Si Si7 0.745303 0.548224 0.291674
O O1 0.874577 0.393317 0.163596
O O2 0.598452 0.391890 0.382816
O O3 0.746919 0.483499 0.279194
O O4 0.098450 0.417612 0.382507
O O5 0.677588 0.662779 0.434578
O O6 0.796464 0.563990 0.445214
O O7 0.046293 0.641816 0.600162
O O8 0.743982 0.840299 0.673665
O O9 0.857506 0.784118 0.443688
O O10 0.971058 0.745120 0.675902
O O11 0.485333 0.924075 0.780214
O O12 0.983904 0.924403 0.759941
O O13 0.731023 0.859143 0.930298
O O14 0.250399 0.322443 0.315781
#
# Coordination Sequence:
#
# PCOD9314611 Si02
#       7
#     4   4   4   4   4   4   4
#     4  11  24  42  66  95 133 179 220 265 326 386
#     4  10  22  38  64  96 128 164 228 270 312 390
#     4  11  21  41  67  96 126 171 219 274 330 381
#     4  11  25  44  65  97 138 170 216 274 325 398
#     4  11  21  41  67  96 126 171 219 274 330 381
#     4  11  25  44  65  97 138 170 216 274 325 398
#     4  11  24  42  66  95 133 179 220 265 326 386
#
# _framework density 21.575396999999999
#
# number of rings (size 3 to 8) (size 9 to 14) (size 15 to 20)
#    0.000    1.143    4.286    1.714    4.000    0.000 
#    0.000    7.143    0.000    0.000    0.000    0.000 
#    0.000    0.000    0.000    0.000    0.000    0.000 
#
# Total GULP energy -156252.747189 kJ/mol
# GULP energy per Si atom -5580.455257 kJ/mol
# Density = 2.152629 g / cm^3
# Si number density = 21.575397 Si / 1000 Ang^3
#
#
#
# Elastic Constant Matrix: (Units=GPa)
#
#
# Indices 1 2 3 4 5 6 
#
# 1 70.9065 3.9417 4.9621 0.0000 0.0000 0.0000
# 2 3.9417 63.2943 9.8756 0.0000 0.0000 0.0000
# 3 4.9621 9.8756 98.9831 0.0000 0.0000 0.0000
# 4 0.0000 0.0000 0.0000 15.4286 0.0000 0.0000
# 5 0.0000 0.0000 0.0000 0.0000 13.5724 0.0000
# 6 0.0000 0.0000 0.0000 0.0000 0.0000 19.6557
#
#
#
# Elastic Compliance Matrix: (Units=1/GPa)
#
#
# Indices 1 2 3 4 5 6 
#
# 1 0.014191 -0.000785 -0.000633 0.000000 0.000000 0.000000
# 2 -0.000785 0.016092 -0.001566 0.000000 0.000000 0.000000
# 3 -0.000633 -0.001566 0.010291 0.000000 0.000000 0.000000
# 4 0.000000 0.000000 0.000000 0.064815 0.000000 0.000000
# 5 0.000000 0.000000 0.000000 0.000000 0.073679 0.000000
# 6 0.000000 0.000000 0.000000 0.000000 0.000000 0.050876
#
#
# Mechanical properties :
#
#
# Convention : Reuss Voigt Hill
#
# Bulk Modulus (GPa) = 28.89700 30.08253 29.48976
# Shear Modulus (GPa) = 20.20633 24.02498 22.11566
#
# Velocity S-wave (km/s) = 3.06362 3.34059 3.20510
# Velocity P-wave (km/s) = 5.09283 5.37146 5.23400
#
# Compressibility (1/GPa) = 0.03460567
#
# Stress axis : x y z
#
# Youngs Moduli (GPa) = 70.46712 62.14087 97.17486
#
# Poissons Ratio (x) = 0.04878 0.06152
# Poissons Ratio (y) = 0.05532 0.15219
# Poissons Ratio (z) = 0.04461 0.09732
#
# Static dielectric constant tensor:
#      x y z
#    x 1.880690 0.000000 0.000000 
#    y 0.000000 1.807180 0.000000 
#    z 0.000000 0.000000 1.800090 
# 
# From -- ./inp_files/551.got.cif
#   From: 2010.05.17/outbox.cif.g08.bks.cpg/sg19_1_cif.got.tgz:551.got - 2010.06.03 22:46:19.
