data_PCOD9314529
_publ_section_title
;
Structure prediction by ZEFSAII (Michael W. Deem and Ramdas Pophale) SiO2 
 PCOD9314529
Probable space group: P 21 21 21
;
_chemical_formula_sum "Si O2"
_cell_formula_units_Z 28
_cell_length_a 15.386998
_cell_length_b 9.507664
_cell_length_c 7.034346
_cell_angle_alpha 90.000000
_cell_angle_beta 90.000000
_cell_angle_gamma 90.000000
_cell_volume 1029.085476
_symmetry_space_group_name_H-M "P 21 21 21"
_symmetry_group_IT_number 19
_symmetry_cell_setting 'orthorhombic'
loop_
_space_group_symop_operation_xyz
x,y,z
1/2-x,-y,1/2+z
1/2+x,1/2-y,-z
-x,1/2+y,1/2-z
loop_
_atom_site_type_symbol
_atom_site_label
_atom_site_fract_x
_atom_site_fract_y
_atom_site_fract_z
Si Si1 0.015022 0.289210 0.881957
Si Si2 0.329814 0.706643 0.645540
Si Si3 0.555301 0.997269 0.444406
Si Si4 0.170208 0.604318 0.241176
Si Si5 0.766519 0.447006 0.759765
Si Si6 0.418481 0.107308 0.757462
Si Si7 0.799921 0.703413 0.942366
O O1 0.094164 0.242315 0.014387
O O2 0.967526 0.145217 0.830332
O O3 0.958150 0.380802 0.029886
O O4 0.049052 0.375452 0.703074
O O5 0.348348 0.737282 0.871923
O O6 0.327319 0.539435 0.620946
O O7 0.248239 0.810462 0.607733
O O8 0.643737 0.951537 0.551476
O O9 0.487361 0.036835 0.614110
O O10 0.100826 0.728965 0.203088
O O11 0.260707 0.680999 0.196522
O O12 0.671391 0.519811 0.731521
O O13 0.830702 0.569468 0.821791
O O14 0.781606 0.371969 0.558846
#
# Coordination Sequence:
#
# PCOD9314529 Si02
#       7
#     4   4   4   4   4   4   4
#     4  11  24  40  69 110 144 188 246 298 386 447
#     4  10  21  43  69  98 146 191 240 309 361 439
#     4  11  23  41  70 110 145 198 235 308 377 449
#     4  10  22  43  69 103 149 190 242 306 364 439
#     4   9  20  44  70  99 136 199 247 297 361 442
#     4  10  21  44  72 100 152 185 238 314 371 445
#     4   9  21  45  69  98 142 201 248 304 362 431
#
# _framework density 27.208625000000001
#
# number of rings (size 3 to 8) (size 9 to 14) (size 15 to 20)
#    0.857    1.143    2.857    0.000    2.000    1.143 
#   12.857    1.429    0.000    0.000    0.000    0.000 
#    0.000    0.000    0.000    0.000    0.000    0.000 
#
# Total GULP energy -156384.502796 kJ/mol
# GULP energy per Si atom -5585.160814 kJ/mol
# Density = 2.714670 g / cm^3
# Si number density = 27.208625 Si / 1000 Ang^3
#
#
#
# Elastic Constant Matrix: (Units=GPa)
#
#
# Indices 1 2 3 4 5 6 
#
# 1 72.3599 27.4528 40.7965 0.0000 0.0000 0.0000
# 2 27.4528 182.8609 39.5751 0.0000 0.0000 0.0000
# 3 40.7965 39.5751 102.7744 0.0000 0.0000 0.0000
# 4 0.0000 0.0000 0.0000 62.6142 0.0000 0.0000
# 5 0.0000 0.0000 0.0000 0.0000 41.7743 0.0000
# 6 0.0000 0.0000 0.0000 0.0000 0.0000 38.3418
#
#
#
# Elastic Compliance Matrix: (Units=1/GPa)
#
#
# Indices 1 2 3 4 5 6 
#
# 1 0.018069 -0.001266 -0.006685 0.000000 0.000000 0.000000
# 2 -0.001266 0.006054 -0.001829 0.000000 0.000000 0.000000
# 3 -0.006685 -0.001829 0.013088 0.000000 0.000000 0.000000
# 4 0.000000 0.000000 0.000000 0.015971 0.000000 0.000000
# 5 0.000000 0.000000 0.000000 0.000000 0.023938 0.000000
# 6 0.000000 0.000000 0.000000 0.000000 0.000000 0.026081
#
#
# Mechanical properties :
#
#
# Convention : Reuss Voigt Hill
#
# Bulk Modulus (GPa) = 56.65152 63.73824 60.19488
# Shear Modulus (GPa) = 38.86647 45.22411 42.04529
#
# Velocity S-wave (km/s) = 3.78360 4.08134 3.93529
# Velocity P-wave (km/s) = 6.32091 6.75917 6.54371
#
# Compressibility (1/GPa) = 0.01765178
#
# Stress axis : x y z
#
# Youngs Moduli (GPa) = 55.34295 165.16644 76.40601
#
# Poissons Ratio (x) = 0.20908 0.51078
# Poissons Ratio (y) = 0.07006 0.13974
# Poissons Ratio (z) = 0.36997 0.30207
#
# Static dielectric constant tensor:
#      x y z
#    x 2.190880 0.000000 0.000000 
#    y 0.000000 2.217760 0.000000 
#    z 0.000000 0.000000 2.161560 
# 
# From -- ./inp_files/4203.got.cif
#   From: 2010.05.17/outbox.cif.g08.bks.cpg/sg19_3_cif.got.tgz:4203.got - 2010.06.03 22:46:19.
