data_PCOD9314828
_publ_section_title
;
Structure prediction by ZEFSAII (Michael W. Deem and Ramdas Pophale) SiO2 
 PCOD9314828
Probable space group: P 21 21 21
;
_chemical_formula_sum "Si O2"
_cell_formula_units_Z 32
_cell_length_a 11.329478
_cell_length_b 13.869330
_cell_length_c 9.665905
_cell_angle_alpha 90.000000
_cell_angle_beta 90.000000
_cell_angle_gamma 90.000000
_cell_volume 1518.825586
_symmetry_space_group_name_H-M "P 21 21 21"
_symmetry_group_IT_number 19
_symmetry_cell_setting 'orthorhombic'
loop_
_space_group_symop_operation_xyz
x,y,z
1/2-x,-y,1/2+z
1/2+x,1/2-y,-z
-x,1/2+y,1/2-z
loop_
_atom_site_type_symbol
_atom_site_label
_atom_site_fract_x
_atom_site_fract_y
_atom_site_fract_z
Si Si1 0.410747 0.948694 0.922145
Si Si2 0.217452 0.679673 0.116124
Si Si3 0.302401 0.325773 0.293420
Si Si4 0.132139 0.176319 0.171510
Si Si5 0.274371 0.910182 0.395224
Si Si6 0.924770 0.679629 0.823432
Si Si7 0.050443 0.828110 0.235800
Si Si8 0.125346 0.477060 0.198950
O O1 0.405588 0.914229 0.763534
O O2 0.282224 0.992280 0.953917
O O3 0.530547 0.013165 0.928683
O O4 0.427559 0.858361 0.020374
O O5 0.337770 0.727837 0.175249
O O6 0.118705 0.764752 0.122468
O O7 0.173761 0.586988 0.205055
O O8 0.225735 0.651517 0.954768
O O9 0.239134 0.227053 0.251457
O O10 0.441401 0.311130 0.274843
O O11 0.240934 0.408959 0.199539
O O12 0.028360 0.253832 0.177342
O O13 0.169686 0.148490 0.019445
O O14 0.365603 0.904631 0.269774
O O15 0.155662 0.865449 0.331276
O O16 0.960727 0.914864 0.196601
#
# Coordination Sequence:
#
# PCOD9314828 Si02
#       8
#     4   4   4   4   4   4   4   4
#     4  11  20  44  68  93 130 177 232 284 349 418
#     4  11  21  46  69 100 136 189 237 290 350 429
#     4  11  24  42  68 103 132 182 236 287 355 413
#     4  11  21  41  66  92 134 175 220 279 352 420
#     4  10  24  38  63  99 130 171 222 286 351 415
#     4  11  23  44  68  95 141 180 230 291 342 429
#     4   9  21  41  67  91 132 181 222 282 355 410
#     4  10  22  42  67  99 133 179 227 295 348 414
#
# _framework density 21.068909999999999
#
# number of rings (size 3 to 8) (size 9 to 14) (size 15 to 20)
#    0.000    1.500    3.750    0.750    3.500    0.000 
#   15.750    0.000    0.000    0.000    0.000    0.000 
#    0.000    0.000    0.000    0.000    0.000    0.000 
#
# Total GULP energy -178135.547405 kJ/mol
# GULP energy per Si atom -5566.735856 kJ/mol
# Density = 2.102096 g / cm^3
# Si number density = 21.068910 Si / 1000 Ang^3
#
#
#
# Elastic Constant Matrix: (Units=GPa)
#
#
# Indices 1 2 3 4 5 6 
#
# 1 139.7960 34.9038 13.0642 0.0000 0.0000 0.0000
# 2 34.9038 76.2189 4.5461 0.0000 0.0000 0.0000
# 3 13.0642 4.5461 44.3215 0.0000 0.0000 0.0000
# 4 0.0000 0.0000 0.0000 14.9726 0.0000 0.0000
# 5 0.0000 0.0000 0.0000 0.0000 13.9370 0.0000
# 6 0.0000 0.0000 0.0000 0.0000 0.0000 38.1812
#
#
#
# Elastic Compliance Matrix: (Units=1/GPa)
#
#
# Indices 1 2 3 4 5 6 
#
# 1 0.008259 -0.003660 -0.002059 0.000000 0.000000 0.000000
# 2 -0.003660 0.014822 -0.000442 0.000000 0.000000 0.000000
# 3 -0.002059 -0.000442 0.023215 0.000000 0.000000 0.000000
# 4 0.000000 0.000000 0.000000 0.066789 0.000000 0.000000
# 5 0.000000 0.000000 0.000000 0.000000 0.071751 0.000000
# 6 0.000000 0.000000 0.000000 0.000000 0.000000 0.026191
#
#
# Mechanical properties :
#
#
# Convention : Reuss Voigt Hill
#
# Bulk Modulus (GPa) = 29.43280 40.59607 35.01443
# Shear Modulus (GPa) = 21.30622 27.27298 24.28960
#
# Velocity S-wave (km/s) = 3.18349 3.60177 3.39907
# Velocity P-wave (km/s) = 5.24527 6.05038 5.66215
#
# Compressibility (1/GPa) = 0.03397571
#
# Stress axis : x y z
#
# Youngs Moduli (GPa) = 121.07397 67.46599 43.07614
#
# Poissons Ratio (x) = 0.24689 0.08870
# Poissons Ratio (y) = 0.44307 0.01902
# Poissons Ratio (z) = 0.24932 0.02980
#
# Static dielectric constant tensor:
#      x y z
#    x 1.811640 0.000000 0.000000 
#    y 0.000000 1.875740 0.000000 
#    z 0.000000 0.000000 1.751350 
# 
# From -- ./inp_files/3644.got.cif
#   From: 2010.05.17/outbox.cif.g08.bks.cpg/sg19_2_cif.got.tgz:3644.got - 2010.06.03 22:46:19.
