data_PCOD9314126
_publ_section_title
;
Structure prediction by ZEFSAII (Michael W. Deem and Ramdas Pophale) SiO2 
 PCOD9314126
Probable space group: P 21 21 21
;
_chemical_formula_sum "Si O2"
_cell_formula_units_Z 32
_cell_length_a 9.490971
_cell_length_b 10.630055
_cell_length_c 15.232506
_cell_angle_alpha 90.000000
_cell_angle_beta 90.000000
_cell_angle_gamma 90.000000
_cell_volume 1536.800580
_symmetry_space_group_name_H-M "P 21 21 21"
_symmetry_group_IT_number 19
_symmetry_cell_setting 'orthorhombic'
loop_
_space_group_symop_operation_xyz
x,y,z
1/2-x,-y,1/2+z
1/2+x,1/2-y,-z
-x,1/2+y,1/2-z
loop_
_atom_site_type_symbol
_atom_site_label
_atom_site_fract_x
_atom_site_fract_y
_atom_site_fract_z
Si Si1 0.394535 0.240085 0.527586
Si Si2 0.695788 0.286519 0.305856
Si Si3 0.194086 0.107100 0.875345
Si Si4 0.507006 0.507195 0.592792
Si Si5 0.826814 0.886566 0.552973
Si Si6 0.771690 0.011565 0.290786
Si Si7 0.383375 0.363122 0.352251
Si Si8 0.577956 0.013234 0.462470
O O1 0.287428 0.199233 0.605069
O O2 0.471459 0.367921 0.558223
O O3 0.323695 0.282121 0.434364
O O4 0.510679 0.135079 0.507386
O O5 0.710289 0.390411 0.229951
O O6 0.744423 0.154812 0.260297
O O7 0.529751 0.294699 0.328809
O O8 0.330391 0.037390 0.911786
O O9 0.182865 0.248936 0.909636
O O10 0.052929 0.046294 0.911727
O O11 0.421069 0.608500 0.534897
O O12 0.435031 0.512040 0.688630
O O13 0.902306 0.994514 0.611076
O O14 0.668179 0.934993 0.532965
O O15 0.691811 0.026607 0.384505
O O16 0.709502 0.897992 0.232917
#
# Coordination Sequence:
#
# PCOD9314126 Si02
#       8
#     4   4   4   4   4   4   4   4
#     4  10  24  42  67  96 134 168 233 277 340 401
#     4  11  23  42  64 100 135 176 225 280 333 407
#     4  12  23  41  67  96 136 171 227 277 335 411
#     4   9  23  40  65  95 130 176 220 279 340 397
#     4  10  23  41  64  92 135 177 216 275 340 403
#     4  10  20  43  64  93 133 171 220 279 341 390
#     4  11  21  39  72  92 129 181 218 276 342 394
#     4  11  23  40  69  96 130 174 223 281 337 407
#
# _framework density 20.822481
#
# number of rings (size 3 to 8) (size 9 to 14) (size 15 to 20)
#    0.000    1.500    3.750    1.500    3.500    1.000 
#    0.000    0.000    5.500    0.000    0.000    0.000 
#    0.000    0.000    0.000    0.000    0.000    0.000 
#
# Total GULP energy -178376.064684 kJ/mol
# GULP energy per Si atom -5574.252021 kJ/mol
# Density = 2.077509 g / cm^3
# Si number density = 20.822481 Si / 1000 Ang^3
#
#
#
# Elastic Constant Matrix: (Units=GPa)
#
#
# Indices 1 2 3 4 5 6 
#
# 1 68.5429 18.8673 3.3337 0.0000 0.0000 0.0000
# 2 18.8673 42.0481 15.3223 0.0000 0.0000 0.0000
# 3 3.3337 15.3223 60.8943 0.0000 0.0000 0.0000
# 4 0.0000 0.0000 0.0000 20.9363 0.0000 0.0000
# 5 0.0000 0.0000 0.0000 0.0000 16.1249 0.0000
# 6 0.0000 0.0000 0.0000 0.0000 0.0000 27.9696
#
#
#
# Elastic Compliance Matrix: (Units=1/GPa)
#
#
# Indices 1 2 3 4 5 6 
#
# 1 0.016708 -0.007887 0.001070 0.000000 0.000000 0.000000
# 2 -0.007887 0.029906 -0.007093 0.000000 0.000000 0.000000
# 3 0.001070 -0.007093 0.018148 0.000000 0.000000 0.000000
# 4 0.000000 0.000000 0.000000 0.047764 0.000000 0.000000
# 5 0.000000 0.000000 0.000000 0.000000 0.062016 0.000000
# 6 0.000000 0.000000 0.000000 0.000000 0.000000 0.035753
#
#
# Mechanical properties :
#
#
# Convention : Reuss Voigt Hill
#
# Bulk Modulus (GPa) = 27.06967 27.39244 27.23106
# Shear Modulus (GPa) = 19.96561 21.93693 20.95127
#
# Velocity S-wave (km/s) = 3.09989 3.24932 3.17548
# Velocity P-wave (km/s) = 5.08339 5.22123 5.15277
#
# Compressibility (1/GPa) = 0.03694171
#
# Stress axis : x y z
#
# Youngs Moduli (GPa) = 59.85018 33.43803 55.10201
#
# Poissons Ratio (x) = 0.26373 -0.05895
# Poissons Ratio (y) = 0.47204 0.39085
# Poissons Ratio (z) = -0.06403 0.23718
#
# Static dielectric constant tensor:
#      x y z
#    x 1.748370 0.000000 0.000000 
#    y 0.000000 1.773270 0.000000 
#    z 0.000000 0.000000 1.863540 
# 
# From -- ./inp_files/3618.got.cif
#   From: 2010.05.17/outbox.cif.g08.bks.cpg/sg19_2_cif.got.tgz:3618.got - 2010.06.03 22:46:19.
