data_PCOD9314118
_publ_section_title
;
Structure prediction by ZEFSAII (Michael W. Deem and Ramdas Pophale) SiO2 
 PCOD9314118
Probable space group: P 21 21 21
;
_chemical_formula_sum "Si O2"
_cell_formula_units_Z 28
_cell_length_a 9.164503
_cell_length_b 15.490599
_cell_length_c 8.374734
_cell_angle_alpha 90.000000
_cell_angle_beta 90.000000
_cell_angle_gamma 90.000000
_cell_volume 1188.907731
_symmetry_space_group_name_H-M "P 21 21 21"
_symmetry_group_IT_number 19
_symmetry_cell_setting 'orthorhombic'
loop_
_space_group_symop_operation_xyz
x,y,z
1/2-x,-y,1/2+z
1/2+x,1/2-y,-z
-x,1/2+y,1/2-z
loop_
_atom_site_type_symbol
_atom_site_label
_atom_site_fract_x
_atom_site_fract_y
_atom_site_fract_z
Si Si1 0.641005 0.948482 0.420586
Si Si2 0.926855 0.681869 0.455267
Si Si3 0.606121 0.961522 0.058552
Si Si4 0.166831 0.108752 0.376013
Si Si5 0.291833 0.703892 0.035811
Si Si6 0.349359 0.198655 0.816851
Si Si7 0.552852 0.588485 0.970306
O O1 0.561832 0.858009 0.444180
O O2 0.607276 0.983195 0.244602
O O3 0.808842 0.963990 0.461987
O O4 0.558628 0.010735 0.545119
O O5 0.887368 0.623923 0.301870
O O6 0.780401 0.684794 0.558597
O O7 0.997273 0.770735 0.390983
O O8 0.451519 0.940427 0.982058
O O9 0.695353 0.870760 0.044626
O O10 0.195602 0.205773 0.443757
O O11 0.320927 0.063337 0.406193
O O12 0.213145 0.724963 0.202467
O O13 0.455415 0.666552 0.041767
O O14 0.378871 0.119422 0.696552
#
# Coordination Sequence:
#
# PCOD9314118 Si02
#       7
#     4   4   4   4   4   4   4
#     4  11  26  43  68 100 141 187 237 303 359 436
#     4  12  26  42  67 108 141 182 246 293 359 422
#     4  11  23  44  70  99 141 188 237 286 367 432
#     4  11  21  41  68 100 135 183 231 292 344 425
#     4  10  20  42  69  94 135 180 234 285 355 419
#     4  11  25  43  70 102 142 187 238 297 351 439
#     4  10  23  43  66  97 137 189 233 288 369 415
#
# _framework density 23.551027000000001
#
# number of rings (size 3 to 8) (size 9 to 14) (size 15 to 20)
#    0.000    1.143    2.857    3.429    6.000    2.286 
#    0.000    4.286    0.000    0.000    0.000    0.000 
#    0.000    0.000    0.000    0.000    0.000    0.000 
#
# Total GULP energy -156608.181423 kJ/mol
# GULP energy per Si atom -5593.149337 kJ/mol
# Density = 2.349742 g / cm^3
# Si number density = 23.551027 Si / 1000 Ang^3
#
#
#
# Elastic Constant Matrix: (Units=GPa)
#
#
# Indices 1 2 3 4 5 6 
#
# 1 100.3247 -1.8865 21.6711 0.0000 0.0000 0.0000
# 2 -1.8865 15.8621 5.1460 0.0000 0.0000 0.0000
# 3 21.6711 5.1460 95.4747 0.0000 0.0000 0.0000
# 4 0.0000 0.0000 0.0000 24.6313 0.0000 0.0000
# 5 0.0000 0.0000 0.0000 0.0000 47.4907 0.0000
# 6 0.0000 0.0000 0.0000 0.0000 0.0000 40.7234
#
#
#
# Elastic Compliance Matrix: (Units=1/GPa)
#
#
# Indices 1 2 3 4 5 6 
#
# 1 0.010548 0.002067 -0.002506 0.000000 0.000000 0.000000
# 2 0.002067 0.064571 -0.003950 0.000000 0.000000 0.000000
# 3 -0.002506 -0.003950 0.011256 0.000000 0.000000 0.000000
# 4 0.000000 0.000000 0.000000 0.040599 0.000000 0.000000
# 5 0.000000 0.000000 0.000000 0.000000 0.021057 0.000000
# 6 0.000000 0.000000 0.000000 0.000000 0.000000 0.024556
#
#
# Mechanical properties :
#
#
# Convention : Reuss Voigt Hill
#
# Bulk Modulus (GPa) = 12.88689 29.05808 20.97248
# Shear Modulus (GPa) = 24.12813 35.01780 29.57296
#
# Velocity S-wave (km/s) = 3.20426 3.86021 3.54743
# Velocity P-wave (km/s) = 4.37875 5.67744 5.06986
#
# Compressibility (1/GPa) = 0.07759827
#
# Stress axis : x y z
#
# Youngs Moduli (GPa) = 94.80701 15.48693 88.84479
#
# Poissons Ratio (x) = -0.03202 0.22261
# Poissons Ratio (y) = -0.19600 0.35090
# Poissons Ratio (z) = 0.23755 0.06117
#
# Static dielectric constant tensor:
#      x y z
#    x 1.909270 0.000000 0.000000 
#    y 0.000000 1.934980 0.000000 
#    z 0.000000 0.000000 1.886570 
# 
# From -- ./inp_files/2985.got.cif
#   From: 2010.05.17/outbox.cif.g08.bks.cpg/sg19_2_cif.got.tgz:2985.got - 2010.06.03 22:46:19.
