data_PCOD9314813
_publ_section_title
;
Structure prediction by ZEFSAII (Michael W. Deem and Ramdas Pophale) SiO2 
 PCOD9314813
Probable space group: P 21 21 21
;
_chemical_formula_sum "Si O2"
_cell_formula_units_Z 28
_cell_length_a 5.869066
_cell_length_b 10.420305
_cell_length_c 18.475108
_cell_angle_alpha 90.000000
_cell_angle_beta 90.000000
_cell_angle_gamma 90.000000
_cell_volume 1129.890638
_symmetry_space_group_name_H-M "P 21 21 21"
_symmetry_group_IT_number 19
_symmetry_cell_setting 'orthorhombic'
loop_
_space_group_symop_operation_xyz
x,y,z
1/2-x,-y,1/2+z
1/2+x,1/2-y,-z
-x,1/2+y,1/2-z
loop_
_atom_site_type_symbol
_atom_site_label
_atom_site_fract_x
_atom_site_fract_y
_atom_site_fract_z
Si Si1 0.585351 0.990533 0.230039
Si Si2 0.850920 0.468369 0.626854
Si Si3 0.352693 0.005305 0.022841
Si Si4 0.963608 0.160471 0.286346
Si Si5 0.394029 0.789148 0.124684
Si Si6 0.298764 0.687939 0.519364
Si Si7 0.277190 0.190137 0.153733
O O1 0.430480 0.958427 0.300384
O O2 0.825138 0.035710 0.259436
O O3 0.488671 0.124296 0.194933
O O4 0.568311 0.878915 0.170822
O O5 0.781790 0.530576 0.551301
O O6 0.630008 0.390396 0.652393
O O7 0.032049 0.356239 0.612933
O O8 0.346465 0.860315 0.049874
O O9 0.243417 0.084503 0.089802
O O10 0.614216 0.054400 0.013923
O O11 0.817680 0.273420 0.321434
O O12 0.094224 0.206147 0.215386
O O13 0.057405 0.742633 0.486554
O O14 0.229426 0.684332 0.603648
#
# Coordination Sequence:
#
# PCOD9314813 Si02
#       7
#     4   4   4   4   4   4   4
#     4   9  21  44  64  96 130 178 231 293 351 425
#     4  10  23  43  61 100 132 177 234 288 357 434
#     4  10  23  44  64 101 139 185 231 297 372 425
#     4  10  22  42  66  94 132 177 237 282 356 435
#     4  10  23  42  67  94 138 180 231 289 356 433
#     4  10  23  44  68 106 138 186 241 302 364 433
#     4   9  21  41  70  93 133 177 235 293 350 427
#
# _framework density 24.781158000000001
#
# number of rings (size 3 to 8) (size 9 to 14) (size 15 to 20)
#    0.000    2.286    0.000    0.000   10.000    3.429 
#   18.000    0.000    0.000    0.000    0.000    0.000 
#    0.000    0.000    0.000    0.000    0.000    0.000 
#
# Total GULP energy -156153.781448 kJ/mol
# GULP energy per Si atom -5576.920766 kJ/mol
# Density = 2.472476 g / cm^3
# Si number density = 24.781158 Si / 1000 Ang^3
#
#
#
# Elastic Constant Matrix: (Units=GPa)
#
#
# Indices 1 2 3 4 5 6 
#
# 1 58.1192 13.9204 25.0421 0.0000 0.0000 0.0000
# 2 13.9204 37.9395 27.9734 0.0000 0.0000 0.0000
# 3 25.0421 27.9734 126.3645 0.0000 0.0000 0.0000
# 4 0.0000 0.0000 0.0000 55.4101 0.0000 0.0000
# 5 0.0000 0.0000 0.0000 0.0000 26.5134 0.0000
# 6 0.0000 0.0000 0.0000 0.0000 0.0000 22.9382
#
#
#
# Elastic Compliance Matrix: (Units=1/GPa)
#
#
# Indices 1 2 3 4 5 6 
#
# 1 0.019629 -0.005179 -0.002743 0.000000 0.000000 0.000000
# 2 -0.005179 0.032866 -0.006249 0.000000 0.000000 0.000000
# 3 -0.002743 -0.006249 0.009841 0.000000 0.000000 0.000000
# 4 0.000000 0.000000 0.000000 0.018047 0.000000 0.000000
# 5 0.000000 0.000000 0.000000 0.000000 0.037717 0.000000
# 6 0.000000 0.000000 0.000000 0.000000 0.000000 0.043595
#
#
# Mechanical properties :
#
#
# Convention : Reuss Voigt Hill
#
# Bulk Modulus (GPa) = 29.41912 39.58836 34.50374
# Shear Modulus (GPa) = 24.83015 31.33816 28.08415
#
# Velocity S-wave (km/s) = 3.16884 3.55997 3.37008
# Velocity P-wave (km/s) = 5.02852 5.73653 5.39415
#
# Compressibility (1/GPa) = 0.03399150
#
# Stress axis : x y z
#
# Youngs Moduli (GPa) = 50.94620 30.42687 101.61941
#
# Poissons Ratio (x) = 0.15759 0.27878
# Poissons Ratio (y) = 0.26386 0.63503
# Poissons Ratio (z) = 0.13976 0.19014
#
# Static dielectric constant tensor:
#      x y z
#    x 2.009900 0.000000 0.000000 
#    y 0.000000 2.125810 0.000000 
#    z 0.000000 0.000000 1.957340 
# 
# From -- ./inp_files/6428.got.cif
#   From: 2010.05.17/outbox.cif.g08.bks.cpg/sg19_4_cif.got.tgz:6428.got - 2010.06.03 22:46:19.
