data_PCOD9314523
_publ_section_title
;
Structure prediction by ZEFSAII (Michael W. Deem and Ramdas Pophale) SiO2 
 PCOD9314523
Probable space group: P 21 21 21
;
_chemical_formula_sum "Si O2"
_cell_formula_units_Z 28
_cell_length_a 12.585678
_cell_length_b 9.535642
_cell_length_c 9.820813
_cell_angle_alpha 90.000000
_cell_angle_beta 90.000000
_cell_angle_gamma 90.000000
_cell_volume 1178.620514
_symmetry_space_group_name_H-M "P 21 21 21"
_symmetry_group_IT_number 19
_symmetry_cell_setting 'orthorhombic'
loop_
_space_group_symop_operation_xyz
x,y,z
1/2-x,-y,1/2+z
1/2+x,1/2-y,-z
-x,1/2+y,1/2-z
loop_
_atom_site_type_symbol
_atom_site_label
_atom_site_fract_x
_atom_site_fract_y
_atom_site_fract_z
Si Si1 0.974072 0.231841 0.366009
Si Si2 0.711227 0.984530 0.930060
Si Si3 0.563731 0.446194 0.419202
Si Si4 0.732219 0.552342 0.224826
Si Si5 0.469230 0.705828 0.556646
Si Si6 0.165124 0.626002 0.793899
Si Si7 0.880798 0.511454 0.463607
O O1 0.874081 0.123959 0.364128
O O2 0.940464 0.365204 0.454878
O O3 0.067345 0.154117 0.449157
O O4 0.999865 0.280374 0.214537
O O5 0.644132 0.127351 0.951686
O O6 0.805557 0.025614 0.831039
O O7 0.737856 0.921749 0.077151
O O8 0.656426 0.448130 0.311244
O O9 0.547178 0.603405 0.476311
O O10 0.454403 0.400739 0.344486
O O11 0.689838 0.711761 0.233373
O O12 0.839454 0.542901 0.311217
O O13 0.716046 0.502976 0.069910
O O14 0.456263 0.860271 0.496808
#
# Coordination Sequence:
#
# PCOD9314523 Si02
#       7
#     4   4   4   4   4   4   4
#     4  10  22  44  67 102 135 174 228 279 343 409
#     4  10  21  43  68  92 136 175 223 278 334 407
#     4  10  25  46  68  95 141 180 226 283 342 412
#     4  12  27  45  67 103 142 177 229 288 348 405
#     4  10  22  41  69  99 131 179 228 277 346 407
#     4  10  22  48  64 100 134 174 229 278 337 410
#     4  12  25  43  71 101 139 179 231 285 342 414
#
# _framework density 23.756585999999999
#
# number of rings (size 3 to 8) (size 9 to 14) (size 15 to 20)
#    0.000    1.714    4.286    1.714    6.000    3.429 
#    2.571    0.000    0.000    0.000    0.000    0.000 
#    0.000    0.000    0.000    0.000    0.000    0.000 
#
# Total GULP energy -156684.508448 kJ/mol
# GULP energy per Si atom -5595.875302 kJ/mol
# Density = 2.370251 g / cm^3
# Si number density = 23.756586 Si / 1000 Ang^3
#
#
#
# Elastic Constant Matrix: (Units=GPa)
#
#
# Indices 1 2 3 4 5 6 
#
# 1 22.0075 10.5233 11.6642 0.0000 0.0000 0.0000
# 2 10.5233 110.2303 13.9563 0.0000 0.0000 0.0000
# 3 11.6642 13.9563 110.4225 0.0000 0.0000 0.0000
# 4 0.0000 0.0000 0.0000 40.4324 0.0000 0.0000
# 5 0.0000 0.0000 0.0000 0.0000 40.4309 0.0000
# 6 0.0000 0.0000 0.0000 0.0000 0.0000 23.7948
#
#
#
# Elastic Compliance Matrix: (Units=1/GPa)
#
#
# Indices 1 2 3 4 5 6 
#
# 1 0.049949 -0.004167 -0.004750 0.000000 0.000000 0.000000
# 2 -0.004167 0.009567 -0.000769 0.000000 0.000000 0.000000
# 3 -0.004750 -0.000769 0.009655 0.000000 0.000000 0.000000
# 4 0.000000 0.000000 0.000000 0.024733 0.000000 0.000000
# 5 0.000000 0.000000 0.000000 0.000000 0.024734 0.000000
# 6 0.000000 0.000000 0.000000 0.000000 0.000000 0.042026
#
#
# Mechanical properties :
#
#
# Convention : Reuss Voigt Hill
#
# Bulk Modulus (GPa) = 20.08042 34.99421 27.53731
# Shear Modulus (GPa) = 25.42790 34.69940 30.06365
#
# Velocity S-wave (km/s) = 3.27517 3.82596 3.56123
# Velocity P-wave (km/s) = 4.77213 5.85487 5.34101
#
# Compressibility (1/GPa) = 0.04979975
#
# Stress axis : x y z
#
# Youngs Moduli (GPa) = 20.02044 104.52484 103.57303
#
# Poissons Ratio (x) = 0.43557 0.49192
# Poissons Ratio (y) = 0.08343 0.07965
# Poissons Ratio (z) = 0.09509 0.08038
#
# Static dielectric constant tensor:
#      x y z
#    x 1.918780 0.000000 0.000000 
#    y 0.000000 1.866160 0.000000 
#    z 0.000000 0.000000 1.872400 
# 
# From -- ./inp_files/4154.got.cif
#   From: 2010.05.17/outbox.cif.g08.bks.cpg/sg19_3_cif.got.tgz:4154.got - 2010.06.03 22:46:19.
