data_PCOD9314749
_publ_section_title
;
Structure prediction by ZEFSAII (Michael W. Deem and Ramdas Pophale) SiO2 
 PCOD9314749
Probable space group: P 21 21 21
;
_chemical_formula_sum "Si O2"
_cell_formula_units_Z 32
_cell_length_a 14.320208
_cell_length_b 17.548846
_cell_length_c 5.562196
_cell_angle_alpha 90.000000
_cell_angle_beta 90.000000
_cell_angle_gamma 90.000000
_cell_volume 1397.797236
_symmetry_space_group_name_H-M "P 21 21 21"
_symmetry_group_IT_number 19
_symmetry_cell_setting 'orthorhombic'
loop_
_space_group_symop_operation_xyz
x,y,z
1/2-x,-y,1/2+z
1/2+x,1/2-y,-z
-x,1/2+y,1/2-z
loop_
_atom_site_type_symbol
_atom_site_label
_atom_site_fract_x
_atom_site_fract_y
_atom_site_fract_z
Si Si1 0.529233 0.606566 0.927254
Si Si2 0.821082 0.782947 0.767964
Si Si3 0.146956 0.158560 0.422905
Si Si4 0.050569 0.594243 0.883624
Si Si5 0.454945 0.830480 0.502128
Si Si6 0.576213 0.078981 0.071792
Si Si7 0.886278 0.233328 0.341501
Si Si8 0.279662 0.037362 0.618346
O O1 0.461239 0.605614 0.691791
O O2 0.579674 0.688206 0.955188
O O3 0.491185 0.587408 0.193205
O O4 0.610469 0.548158 0.858328
O O5 0.906645 0.732097 0.666142
O O6 0.840180 0.867175 0.668143
O O7 0.713851 0.763464 0.714007
O O8 0.836358 0.749672 0.041060
O O9 0.136738 0.141621 0.143123
O O10 0.227521 0.117077 0.565700
O O11 0.050318 0.117357 0.503847
O O12 0.089667 0.512162 0.948308
O O13 0.018864 0.603427 0.608494
O O14 0.116264 0.663536 0.968067
O O15 0.529400 0.786207 0.662803
O O16 0.242169 0.005912 0.869628
#
# Coordination Sequence:
#
# PCOD9314749 Si02
#       8
#     4   4   4   4   4   4   4   4
#     4  12  25  47  73 105 150 192 248 304 373 450
#     4  11  24  45  71 104 141 192 248 304 364 439
#     4  10  22  41  67  99 140 185 235 295 365 440
#     4  10  24  44  67  97 140 188 239 303 367 427
#     4  10  22  43  72  97 135 190 241 297 365 436
#     4  12  27  47  72 107 145 194 246 308 368 439
#     4  11  24  46  70 105 142 198 248 304 364 446
#     4  12  26  41  66 110 149 187 235 305 378 443
#
# _framework density 22.893163000000001
#
# number of rings (size 3 to 8) (size 9 to 14) (size 15 to 20)
#    0.000    1.000    2.500    4.500    8.750    2.000 
#    2.250    0.000    0.000    0.000    0.000    0.000 
#    0.000    0.000    0.000    0.000    0.000    0.000 
#
# Total GULP energy -178172.313263 kJ/mol
# GULP energy per Si atom -5567.884789 kJ/mol
# Density = 2.284106 g / cm^3
# Si number density = 22.893163 Si / 1000 Ang^3
#
#
#
# Elastic Constant Matrix: (Units=GPa)
#
#
# Indices 1 2 3 4 5 6 
#
# 1 61.8602 10.0853 18.7577 0.0000 0.0000 0.0000
# 2 10.0853 129.5504 30.4764 0.0000 0.0000 0.0000
# 3 18.7577 30.4764 71.0200 0.0000 0.0000 0.0000
# 4 0.0000 0.0000 0.0000 26.8427 0.0000 0.0000
# 5 0.0000 0.0000 0.0000 0.0000 22.7384 0.0000
# 6 0.0000 0.0000 0.0000 0.0000 0.0000 31.2619
#
#
#
# Elastic Compliance Matrix: (Units=1/GPa)
#
#
# Indices 1 2 3 4 5 6 
#
# 1 0.017584 -0.000307 -0.004512 0.000000 0.000000 0.000000
# 2 -0.000307 0.008591 -0.003605 0.000000 0.000000 0.000000
# 3 -0.004512 -0.003605 0.016820 0.000000 0.000000 0.000000
# 4 0.000000 0.000000 0.000000 0.037254 0.000000 0.000000
# 5 0.000000 0.000000 0.000000 0.000000 0.043978 0.000000
# 6 0.000000 0.000000 0.000000 0.000000 0.000000 0.031988
#
#
# Mechanical properties :
#
#
# Convention : Reuss Voigt Hill
#
# Bulk Modulus (GPa) = 38.24947 42.34106 40.29526
# Shear Modulus (GPa) = 27.50580 29.70935 28.60757
#
# Velocity S-wave (km/s) = 3.47001 3.60632 3.53882
# Velocity P-wave (km/s) = 5.72701 5.98965 5.85981
#
# Compressibility (1/GPa) = 0.02614415
#
# Stress axis : x y z
#
# Youngs Moduli (GPa) = 56.87039 116.39940 59.45475
#
# Poissons Ratio (x) = 0.03578 0.26828
# Poissons Ratio (y) = 0.01748 0.21436
# Poissons Ratio (z) = 0.25662 0.41967
#
# Static dielectric constant tensor:
#      x y z
#    x 1.856200 0.000000 0.000000 
#    y 0.000000 1.964850 0.000000 
#    z 0.000000 0.000000 2.189310 
# 
# From -- ./inp_files/1619.got.cif
#   From: 2010.05.17/outbox.cif.g08.bks.cpg/sg19_1_cif.got.tgz:1619.got - 2010.06.03 22:46:19.
