data_PCOD9314210
_publ_section_title
;
Structure prediction by ZEFSAII (Michael W. Deem and Ramdas Pophale) SiO2 
 PCOD9314210
Probable space group: P 21 21 21
;
_chemical_formula_sum "Si O2"
_cell_formula_units_Z 32
_cell_length_a 14.172858
_cell_length_b 7.543528
_cell_length_c 12.538471
_cell_angle_alpha 90.000000
_cell_angle_beta 90.000000
_cell_angle_gamma 90.000000
_cell_volume 1340.529953
_symmetry_space_group_name_H-M "P 21 21 21"
_symmetry_group_IT_number 19
_symmetry_cell_setting 'orthorhombic'
loop_
_space_group_symop_operation_xyz
x,y,z
1/2-x,-y,1/2+z
1/2+x,1/2-y,-z
-x,1/2+y,1/2-z
loop_
_atom_site_type_symbol
_atom_site_label
_atom_site_fract_x
_atom_site_fract_y
_atom_site_fract_z
Si Si1 0.479580 0.486332 0.416899
Si Si2 0.634393 0.803718 0.680306
Si Si3 0.136935 0.166517 0.449143
Si Si4 0.297002 0.926048 0.358565
Si Si5 0.657753 0.205280 0.938310
Si Si6 0.546173 0.162701 0.746017
Si Si7 0.851044 0.033216 0.948268
Si Si8 0.016845 0.892357 0.803378
O O1 0.580548 0.467792 0.475107
O O2 0.401804 0.551683 0.500841
O O3 0.464402 0.292348 0.364287
O O4 0.480794 0.620893 0.317574
O O5 0.740405 0.736165 0.695736
O O6 0.561243 0.654464 0.717369
O O7 0.600855 0.976909 0.742936
O O8 0.623508 0.858012 0.556039
O O9 0.060249 0.250177 0.368481
O O10 0.176372 0.334690 0.513793
O O11 0.219136 0.074701 0.383186
O O12 0.329552 0.856606 0.473964
O O13 0.385042 0.002777 0.296895
O O14 0.598132 0.271726 0.838591
O O15 0.759680 0.132386 0.903129
O O16 0.938846 0.000715 0.870865
#
# Coordination Sequence:
#
# PCOD9314210 Si02
#       8
#     4   4   4   4   4   4   4   4
#     4  11  24  44  66  96 131 171 217 271 324 386
#     4  10  21  37  61  91 126 165 217 272 322 385
#     4  10  23  43  64  91 127 166 215 269 324 387
#     4  11  23  40  62  95 130 169 215 265 324 394
#     4  11  23  39  64  92 126 167 215 268 323 386
#     4  11  22  41  67  92 125 170 217 270 329 384
#     4   9  22  41  60  89 124 164 213 268 322 386
#     4  11  24  41  66  92 131 174 215 265 330 392
#
# _framework density 23.871155999999999
#
# number of rings (size 3 to 8) (size 9 to 14) (size 15 to 20)
#    0.000    1.500    0.000    4.500    0.000   10.000 
#    0.000    6.250    0.000    0.000    0.000    0.000 
#    0.000    0.000    0.000    0.000    0.000    0.000 
#
# Total GULP energy -179166.964624 kJ/mol
# GULP energy per Si atom -5598.967645 kJ/mol
# Density = 2.381682 g / cm^3
# Si number density = 23.871156 Si / 1000 Ang^3
#
#
#
# Elastic Constant Matrix: (Units=GPa)
#
#
# Indices 1 2 3 4 5 6 
#
# 1 76.4136 9.0947 23.4122 0.0000 0.0000 0.0000
# 2 9.0947 69.2186 2.4952 0.0000 0.0000 0.0000
# 3 23.4122 2.4952 62.1991 0.0000 0.0000 0.0000
# 4 0.0000 0.0000 0.0000 31.2597 0.0000 0.0000
# 5 0.0000 0.0000 0.0000 0.0000 23.5283 0.0000
# 6 0.0000 0.0000 0.0000 0.0000 0.0000 29.1618
#
#
#
# Elastic Compliance Matrix: (Units=1/GPa)
#
#
# Indices 1 2 3 4 5 6 
#
# 1 0.015006 -0.001771 -0.005577 0.000000 0.000000 0.000000
# 2 -0.001771 0.014677 0.000078 0.000000 0.000000 0.000000
# 3 -0.005577 0.000078 0.018174 0.000000 0.000000 0.000000
# 4 0.000000 0.000000 0.000000 0.031990 0.000000 0.000000
# 5 0.000000 0.000000 0.000000 0.000000 0.042502 0.000000
# 6 0.000000 0.000000 0.000000 0.000000 0.000000 0.034291
#
#
# Mechanical properties :
#
#
# Convention : Reuss Voigt Hill
#
# Bulk Modulus (GPa) = 30.01560 30.87063 30.44311
# Shear Modulus (GPa) = 27.42936 28.31190 27.87063
#
# Velocity S-wave (km/s) = 3.39345 3.44761 3.42064
# Velocity P-wave (km/s) = 5.28728 5.36734 5.32746
#
# Compressibility (1/GPa) = 0.03331601
#
# Stress axis : x y z
#
# Youngs Moduli (GPa) = 66.63882 68.13461 55.02466
#
# Poissons Ratio (x) = 0.12064 0.30690
# Poissons Ratio (y) = 0.11799 -0.00428
# Poissons Ratio (z) = 0.37167 -0.00529
#
# Static dielectric constant tensor:
#      x y z
#    x 1.863040 0.000000 0.000000 
#    y 0.000000 1.949560 0.000000 
#    z 0.000000 0.000000 1.864760 
# 
# From -- ./inp_files/5235.got.cif
#   From: 2010.05.17/outbox.cif.g08.bks.cpg/sg19_3_cif.got.tgz:5235.got - 2010.06.03 22:46:19.
