data_PCOD9314482
_publ_section_title
;
Structure prediction by ZEFSAII (Michael W. Deem and Ramdas Pophale) SiO2 
 PCOD9314482
Probable space group: P 21 21 21
;
_chemical_formula_sum "Si O2"
_cell_formula_units_Z 24
_cell_length_a 6.828869
_cell_length_b 9.627507
_cell_length_c 14.321520
_cell_angle_alpha 90.000000
_cell_angle_beta 90.000000
_cell_angle_gamma 90.000000
_cell_volume 941.568105
_symmetry_space_group_name_H-M "P 21 21 21"
_symmetry_group_IT_number 19
_symmetry_cell_setting 'orthorhombic'
loop_
_space_group_symop_operation_xyz
x,y,z
1/2-x,-y,1/2+z
1/2+x,1/2-y,-z
-x,1/2+y,1/2-z
loop_
_atom_site_type_symbol
_atom_site_label
_atom_site_fract_x
_atom_site_fract_y
_atom_site_fract_z
Si Si1 0.051830 0.803655 0.626738
Si Si2 0.094088 0.000000 0.461077
Si Si3 0.631014 0.000001 0.429085
Si Si4 0.199057 0.000001 0.252381
Si Si5 0.948169 0.696345 0.873260
Si Si6 0.185737 0.500000 0.362699
O O1 0.126880 0.867442 0.527754
O O2 0.068567 0.640482 0.620635
O O3 0.808819 0.630738 0.794653
O O4 0.835718 0.869626 0.639451
O O5 0.865398 1.000000 0.436296
O O6 0.126878 0.132558 0.527755
O O7 0.201449 0.000002 0.363498
O O8 0.568569 0.140483 0.379363
O O9 0.571221 0.000002 0.538446
O O10 0.308821 0.130738 0.205346
O O11 0.974503 0.000001 0.217487
O O12 0.164282 0.630375 0.860547
#
# Coordination Sequence:
#
# PCOD9314482 Si02
#       6
#     4   4   4   4   4   4
#     4   9  22  45  68 101 144 181 230 288 348 412
#     4   9  22  44  72 104 132 188 239 279 352 408
#     4  10  21  42  67 100 143 187 221 285 356 412
#     4  10  21  44  76 101 134 183 239 287 338 420
#     4   9  22  45  68 101 144 181 230 288 348 412
#     4   9  22  40  67  95 135 176 235 281 336 416
#
# _framework density 25.489394999999998
#
# number of rings (size 3 to 8) (size 9 to 14) (size 15 to 20)
#    0.000    3.333    0.000    0.000    9.333    1.333 
#    0.000   23.333    0.000    2.000    0.000    0.000 
#    0.000    0.000    0.000    0.000    0.000    0.000 
#
# Total GULP energy -134676.251061 kJ/mol
# GULP energy per Si atom -5611.510461 kJ/mol
# Density = 2.543138 g / cm^3
# Si number density = 25.489395 Si / 1000 Ang^3
#
#
#
# Elastic Constant Matrix: (Units=GPa)
#
#
# Indices 1 2 3 4 5 6 
#
# 1 126.7334 63.2277 62.9162 0.0000 0.0000 0.0000
# 2 63.2277 254.5952 88.6067 0.0000 0.0000 0.0000
# 3 62.9162 88.6067 237.8634 0.0000 0.0000 0.0000
# 4 0.0000 0.0000 0.0000 19.3188 0.0000 0.0000
# 5 0.0000 0.0000 0.0000 0.0000 40.5039 0.0000
# 6 0.0000 0.0000 0.0000 0.0000 0.0000 -6.3971
#
#
#
# Elastic Compliance Matrix: (Units=1/GPa)
#
#
# Indices 1 2 3 4 5 6 
#
# 1 0.009714 -0.001744 -0.001920 0.000000 0.000000 0.000000
# 2 -0.001744 0.004826 -0.001336 0.000000 0.000000 0.000000
# 3 -0.001920 -0.001336 0.005210 0.000000 0.000000 0.000000
# 4 0.000000 0.000000 0.000000 0.051763 0.000000 0.000000
# 5 0.000000 0.000000 0.000000 0.000000 0.024689 0.000000
# 6 0.000000 0.000000 0.000000 0.000000 0.000000 -0.156320
#
#
# Mechanical properties :
#
#
# Convention : Reuss Voigt Hill
#
# Bulk Modulus (GPa) = 102.57483 116.52146 109.54815
# Shear Modulus (GPa) = -106.68182 37.64788 -34.51697
#
# Velocity S-wave (km/s) = -6.47644 3.84735 -3.68390
# Velocity P-wave (km/s) = 3.94920 8.09624 4.99764
#
# Compressibility (1/GPa) = 0.00974898
#
# Stress axis : x y z
#
# Youngs Moduli (GPa) = 102.94642 207.20665 191.95134
#
# Poissons Ratio (x) = 0.36143 0.36847
# Poissons Ratio (y) = 0.17957 0.25652
# Poissons Ratio (z) = 0.19761 0.27691
#
# Static dielectric constant tensor:
#      x y z
#    x 1.989070 0.000000 0.000000 
#    y 0.000000 1.953710 0.000000 
#    z 0.000000 0.000000 2.039500 
# 
# From -- ./inp_files/5826.got.cif
#   From: 2010.05.17/outbox.cif.g08.bks.cpg/sg19_3_cif.got.tgz:5826.got - 2010.06.03 22:46:19.
