data_PCOD9314927
_publ_section_title
;
Structure prediction by ZEFSAII (Michael W. Deem and Ramdas Pophale) SiO2 
 PCOD9314927
Probable space group: P 21 21 21
;
_chemical_formula_sum "Si O2"
_cell_formula_units_Z 28
_cell_length_a 9.409834
_cell_length_b 10.837158
_cell_length_c 11.271259
_cell_angle_alpha 90.000000
_cell_angle_beta 90.000000
_cell_angle_gamma 90.000000
_cell_volume 1149.396305
_symmetry_space_group_name_H-M "P 21 21 21"
_symmetry_group_IT_number 19
_symmetry_cell_setting 'orthorhombic'
loop_
_space_group_symop_operation_xyz
x,y,z
1/2-x,-y,1/2+z
1/2+x,1/2-y,-z
-x,1/2+y,1/2-z
loop_
_atom_site_type_symbol
_atom_site_label
_atom_site_fract_x
_atom_site_fract_y
_atom_site_fract_z
Si Si1 0.145814 0.339899 0.958350
Si Si2 0.105778 0.992150 0.449896
Si Si3 0.209245 0.231260 0.545691
Si Si4 0.247187 0.433671 0.353114
Si Si5 0.773423 0.644006 0.351157
Si Si6 0.526973 0.769954 0.247069
Si Si7 0.069784 0.917585 0.203191
O O1 0.253133 0.420647 0.880015
O O2 0.051270 0.252504 0.872545
O O3 0.204832 0.262009 0.066605
O O4 0.049631 0.447353 0.015410
O O5 0.195565 0.949833 0.561665
O O6 0.142270 0.913888 0.332817
O O7 0.136752 0.136509 0.451682
O O8 0.249507 0.352798 0.473589
O O9 0.345803 0.169217 0.611390
O O10 0.088461 0.252052 0.645349
O O11 0.388303 0.397352 0.278144
O O12 0.097797 0.394287 0.294280
O O13 0.659865 0.674853 0.249172
O O14 0.911295 0.565362 0.319947
#
# Coordination Sequence:
#
# PCOD9314927 Si02
#       7
#     4   4   4   4   4   4   4
#     4  11  25  46  70 104 145 189 252 297 362 451
#     4  10  22  44  69  97 145 184 240 298 364 441
#     4  11  24  48  72 109 148 192 247 310 370 444
#     4  12  26  46  72 111 141 194 248 307 371 442
#     4  10  24  45  70 105 143 195 244 301 367 440
#     4  11  24  47  74 101 149 195 244 301 374 435
#     4  11  25  44  75 107 149 191 241 312 376 427
#
# _framework density 24.360614000000002
#
# number of rings (size 3 to 8) (size 9 to 14) (size 15 to 20)
#    0.000    1.143    1.429    3.429    4.000    3.429 
#    7.714    0.000    0.000    0.000    0.000    0.000 
#    0.000    0.000    0.000    0.000    0.000    0.000 
#
# Total GULP energy -156382.757059 kJ/mol
# GULP energy per Si atom -5585.098466 kJ/mol
# Density = 2.430517 g / cm^3
# Si number density = 24.360614 Si / 1000 Ang^3
#
#
#
# Elastic Constant Matrix: (Units=GPa)
#
#
# Indices 1 2 3 4 5 6 
#
# 1 107.8622 35.4554 25.0035 0.0000 0.0000 0.0000
# 2 35.4554 74.9702 17.3623 0.0000 0.0000 0.0000
# 3 25.0035 17.3623 61.5757 0.0000 0.0000 0.0000
# 4 0.0000 0.0000 0.0000 35.5941 0.0000 0.0000
# 5 0.0000 0.0000 0.0000 0.0000 31.8098 0.0000
# 6 0.0000 0.0000 0.0000 0.0000 0.0000 35.3824
#
#
#
# Elastic Compliance Matrix: (Units=1/GPa)
#
#
# Indices 1 2 3 4 5 6 
#
# 1 0.011602 -0.004703 -0.003385 0.000000 0.000000 0.000000
# 2 -0.004703 0.016177 -0.002652 0.000000 0.000000 0.000000
# 3 -0.003385 -0.002652 0.018362 0.000000 0.000000 0.000000
# 4 0.000000 0.000000 0.000000 0.028095 0.000000 0.000000
# 5 0.000000 0.000000 0.000000 0.000000 0.031437 0.000000
# 6 0.000000 0.000000 0.000000 0.000000 0.000000 0.028263
#
#
# Mechanical properties :
#
#
# Convention : Reuss Voigt Hill
#
# Bulk Modulus (GPa) = 40.54833 44.45004 42.49919
# Shear Modulus (GPa) = 30.55594 31.66305 31.10949
#
# Velocity S-wave (km/s) = 3.54548 3.60914 3.57745
# Velocity P-wave (km/s) = 5.78288 5.97111 5.87775
#
# Compressibility (1/GPa) = 0.02466193
#
# Stress axis : x y z
#
# Youngs Moduli (GPa) = 86.19497 61.81686 54.45930
#
# Poissons Ratio (x) = 0.29071 0.18434
# Poissons Ratio (y) = 0.40536 0.14441
# Poissons Ratio (z) = 0.29176 0.16392
#
# Static dielectric constant tensor:
#      x y z
#    x 1.912480 0.000000 0.000000 
#    y 0.000000 2.028940 0.000000 
#    z 0.000000 0.000000 1.979410 
# 
# From -- ./inp_files/4585.got.cif
#   From: 2010.05.17/outbox.cif.g08.bks.cpg/sg19_3_cif.got.tgz:4585.got - 2010.06.03 22:46:19.
