data_PCOD9314322
_publ_section_title
;
Structure prediction by ZEFSAII (Michael W. Deem and Ramdas Pophale) SiO2 
 PCOD9314322
Probable space group: P 21 21 21
;
_chemical_formula_sum "Si O2"
_cell_formula_units_Z 32
_cell_length_a 9.461103
_cell_length_b 20.146477
_cell_length_c 9.080354
_cell_angle_alpha 90.000000
_cell_angle_beta 90.000000
_cell_angle_gamma 90.000000
_cell_volume 1730.787153
_symmetry_space_group_name_H-M "P 21 21 21"
_symmetry_group_IT_number 19
_symmetry_cell_setting 'orthorhombic'
loop_
_space_group_symop_operation_xyz
x,y,z
1/2-x,-y,1/2+z
1/2+x,1/2-y,-z
-x,1/2+y,1/2-z
loop_
_atom_site_type_symbol
_atom_site_label
_atom_site_fract_x
_atom_site_fract_y
_atom_site_fract_z
Si Si1 0.142469 0.197294 0.799585
Si Si2 0.313431 0.106332 0.986082
Si Si3 0.583545 0.862705 0.081533
Si Si4 0.724751 0.898976 0.376397
Si Si5 0.448638 0.709708 0.550684
Si Si6 0.010277 0.087003 0.114846
Si Si7 0.472186 0.495287 0.604741
Si Si8 0.892111 0.213335 0.287663
O O1 0.242188 0.135702 0.839522
O O2 0.239208 0.257765 0.748262
O O3 0.035587 0.171417 0.680396
O O4 0.071197 0.226028 0.948172
O O5 0.429516 0.163327 0.021877
O O6 0.399043 0.039783 0.954948
O O7 0.178143 0.097586 0.091210
O O8 0.697708 0.885000 0.203910
O O9 0.613269 0.807438 0.957580
O O10 0.540320 0.929254 0.993838
O O11 0.806172 0.833546 0.437103
O O12 0.579054 0.915599 0.462718
O O13 0.831969 0.959620 0.403033
O O14 0.500303 0.733094 0.713163
O O15 0.936029 0.146974 0.202166
O O16 0.992734 0.025071 0.224858
#
# Coordination Sequence:
#
# PCOD9314322 Si02
#       8
#     4   4   4   4   4   4   4   4
#     4  11  21  40  63  93 121 162 208 251 315 375
#     4  10  22  38  64  87 117 161 206 254 300 364
#     4  11  24  38  64  92 126 164 200 269 310 357
#     4  11  21  41  66  86 119 166 210 250 307 370
#     4  10  21  39  65  90 119 161 209 247 306 388
#     4  11  20  39  65  84 118 164 203 252 302 375
#     4  10  25  41  59  90 125 157 215 256 307 360
#     4  10  22  38  58  94 127 153 201 255 309 367
#
# _framework density 18.488697999999999
#
# number of rings (size 3 to 8) (size 9 to 14) (size 15 to 20)
#    0.000    1.500    3.750    0.750    5.250    0.000 
#    2.250    0.000    2.750    0.000    0.000    0.000 
#    0.000    0.000    0.000    0.000    0.000    0.000 
#
# Total GULP energy -178270.300736 kJ/mol
# GULP energy per Si atom -5570.946898 kJ/mol
# Density = 1.844662 g / cm^3
# Si number density = 18.488698 Si / 1000 Ang^3
#
#
#
# Elastic Constant Matrix: (Units=GPa)
#
#
# Indices 1 2 3 4 5 6 
#
# 1 81.4444 41.9531 39.7414 0.0000 0.0000 0.0000
# 2 41.9531 81.2923 31.3550 0.0000 0.0000 0.0000
# 3 39.7414 31.3550 102.6087 0.0000 0.0000 0.0000
# 4 0.0000 0.0000 0.0000 27.8175 0.0000 0.0000
# 5 0.0000 0.0000 0.0000 0.0000 21.3016 0.0000
# 6 0.0000 0.0000 0.0000 0.0000 0.0000 21.0420
#
#
#
# Elastic Compliance Matrix: (Units=1/GPa)
#
#
# Indices 1 2 3 4 5 6 
#
# 1 0.018635 -0.007746 -0.004851 0.000000 0.000000 0.000000
# 2 -0.007746 0.017165 -0.002245 0.000000 0.000000 0.000000
# 3 -0.004851 -0.002245 0.012310 0.000000 0.000000 0.000000
# 4 0.000000 0.000000 0.000000 0.035949 0.000000 0.000000
# 5 0.000000 0.000000 0.000000 0.000000 0.046945 0.000000
# 6 0.000000 0.000000 0.000000 0.000000 0.000000 0.047524
#
#
# Mechanical properties :
#
#
# Convention : Reuss Voigt Hill
#
# Bulk Modulus (GPa) = 54.26840 54.60494 54.43667
# Shear Modulus (GPa) = 23.32583 24.18528 23.75556
#
# Velocity S-wave (km/s) = 3.55579 3.62071 3.58840
# Velocity P-wave (km/s) = 6.80251 6.86132 6.83198
#
# Compressibility (1/GPa) = 0.01842693
#
# Stress axis : x y z
#
# Youngs Moduli (GPa) = 53.66103 58.25821 81.23180
#
# Poissons Ratio (x) = 0.45129 0.39402
# Poissons Ratio (y) = 0.41568 0.18236
# Poissons Ratio (z) = 0.26029 0.13079
#
# Static dielectric constant tensor:
#      x y z
#    x 1.649710 0.000000 0.000000 
#    y 0.000000 1.643590 0.000000 
#    z 0.000000 0.000000 1.648290 
# 
# From -- ./inp_files/3113.got.cif
#   From: 2010.05.17/outbox.cif.g08.bks.cpg/sg19_2_cif.got.tgz:3113.got - 2010.06.03 22:46:19.
