data_PCOD9314393
_publ_section_title
;
Structure prediction by ZEFSAII (Michael W. Deem and Ramdas Pophale) SiO2 
 PCOD9314393
Probable space group: P 21 21 21
;
_chemical_formula_sum "Si O2"
_cell_formula_units_Z 32
_cell_length_a 12.985519
_cell_length_b 5.055314
_cell_length_c 18.307837
_cell_angle_alpha 90.000000
_cell_angle_beta 90.000000
_cell_angle_gamma 90.000000
_cell_volume 1201.833997
_symmetry_space_group_name_H-M "P 21 21 21"
_symmetry_group_IT_number 19
_symmetry_cell_setting 'orthorhombic'
loop_
_space_group_symop_operation_xyz
x,y,z
1/2-x,-y,1/2+z
1/2+x,1/2-y,-z
-x,1/2+y,1/2-z
loop_
_atom_site_type_symbol
_atom_site_label
_atom_site_fract_x
_atom_site_fract_y
_atom_site_fract_z
Si Si1 0.127446 0.058560 0.166633
Si Si2 0.122127 0.199445 0.443622
Si Si3 0.748687 0.924557 0.840572
Si Si4 0.097960 0.610917 0.755626
Si Si5 0.705526 0.804180 0.478059
Si Si6 0.565769 0.251739 0.132794
Si Si7 0.734822 0.507504 0.693712
Si Si8 0.550540 0.200405 0.967701
O O1 0.159513 0.365098 0.179313
O O2 0.142538 0.923778 0.247393
O O3 0.042120 0.106667 0.103635
O O4 0.206000 0.849423 0.128879
O O5 0.146698 0.492286 0.469966
O O6 0.171089 0.166410 0.364147
O O7 0.179673 0.989733 0.497423
O O8 0.009377 0.068335 0.448985
O O9 0.825674 0.878657 0.773361
O O10 0.817105 0.095881 0.896401
O O11 0.062742 0.552535 0.838447
O O12 0.181204 0.841583 0.760122
O O13 0.004888 0.629810 0.698636
O O14 0.827964 0.851279 0.477486
O O15 0.686612 0.329750 0.140405
O O16 0.525692 0.290737 0.050924
#
# Coordination Sequence:
#
# PCOD9314393 Si02
#       8
#     4   4   4   4   4   4   4   4
#     4  10  23  44  71  97 140 193 247 310 369 461
#     4  12  27  46  75 110 149 209 255 322 390 464
#     4  10  21  40  68  98 143 192 243 299 384 444
#     4  11  23  39  68 110 146 203 251 323 387 467
#     4  11  24  46  71 105 155 196 250 324 380 465
#     4  12  22  42  69 111 154 194 258 327 392 469
#     4  11  24  45  72 102 150 200 259 319 391 460
#     4  11  26  48  74 113 155 203 263 320 401 470
#
# _framework density 26.625975
#
# number of rings (size 3 to 8) (size 9 to 14) (size 15 to 20)
#    0.000    1.000    3.750    3.000    0.000    5.000 
#    4.500    3.750    0.000    0.000    0.000    0.000 
#    0.000    0.000    0.000    0.000    0.000    0.000 
#
# Total GULP energy -178234.450974 kJ/mol
# GULP energy per Si atom -5569.826593 kJ/mol
# Density = 2.656537 g / cm^3
# Si number density = 26.625975 Si / 1000 Ang^3
#
#
#
# Elastic Constant Matrix: (Units=GPa)
#
#
# Indices 1 2 3 4 5 6 
#
# 1 82.7592 -6.1044 -5.0832 0.0000 0.0000 0.0000
# 2 -6.1044 74.1653 -5.6624 0.0000 0.0000 0.0000
# 3 -5.0832 -5.6624 109.9140 0.0000 0.0000 0.0000
# 4 0.0000 0.0000 0.0000 33.4725 0.0000 0.0000
# 5 0.0000 0.0000 0.0000 0.0000 42.4720 0.0000
# 6 0.0000 0.0000 0.0000 0.0000 0.0000 30.6281
#
#
#
# Elastic Compliance Matrix: (Units=1/GPa)
#
#
# Indices 1 2 3 4 5 6 
#
# 1 0.012199 0.001051 0.000618 0.000000 0.000000 0.000000
# 2 0.001051 0.013627 0.000751 0.000000 0.000000 0.000000
# 3 0.000618 0.000751 0.009165 0.000000 0.000000 0.000000
# 4 0.000000 0.000000 0.000000 0.029875 0.000000 0.000000
# 5 0.000000 0.000000 0.000000 0.000000 0.023545 0.000000
# 6 0.000000 0.000000 0.000000 0.000000 0.000000 0.032650
#
#
# Mechanical properties :
#
#
# Convention : Reuss Voigt Hill
#
# Bulk Modulus (GPa) = 25.10561 25.90428 25.50494
# Shear Modulus (GPa) = 38.61060 40.22707 39.41884
#
# Velocity S-wave (km/s) = 3.81216 3.89114 3.85186
# Velocity P-wave (km/s) = 5.36901 5.47157 5.42053
#
# Compressibility (1/GPa) = 0.03983174
#
# Stress axis : x y z
#
# Youngs Moduli (GPa) = 81.97545 73.38244 109.10733
#
# Poissons Ratio (x) = -0.07714 -0.06746
# Poissons Ratio (y) = -0.08618 -0.08190
# Poissons Ratio (z) = -0.05069 -0.05508
#
# Static dielectric constant tensor:
#      x y z
#    x 2.191270 0.000000 0.000000 
#    y 0.000000 2.160420 0.000000 
#    z 0.000000 0.000000 2.220200 
# 
# From -- ./inp_files/6806.got.cif
#   From: 2010.05.17/outbox.cif.g08.bks.cpg/sg19_4_cif.got.tgz:6806.got - 2010.06.03 22:46:19.
