data_PCOD9314362
_publ_section_title
;
Structure prediction by ZEFSAII (Michael W. Deem and Ramdas Pophale) SiO2 
 PCOD9314362
Probable space group: P 21 21 21
;
_chemical_formula_sum "Si O2"
_cell_formula_units_Z 24
_cell_length_a 5.204565
_cell_length_b 11.006040
_cell_length_c 16.428083
_cell_angle_alpha 90.000000
_cell_angle_beta 90.000000
_cell_angle_gamma 90.000000
_cell_volume 941.027710
_symmetry_space_group_name_H-M "P 21 21 21"
_symmetry_group_IT_number 19
_symmetry_cell_setting 'orthorhombic'
loop_
_space_group_symop_operation_xyz
x,y,z
1/2-x,-y,1/2+z
1/2+x,1/2-y,-z
-x,1/2+y,1/2-z
loop_
_atom_site_type_symbol
_atom_site_label
_atom_site_fract_x
_atom_site_fract_y
_atom_site_fract_z
Si Si1 0.570885 0.847684 0.275234
Si Si2 0.616604 0.747925 0.444116
Si Si3 0.547607 0.605634 0.980674
Si Si4 0.778994 0.475946 0.833559
Si Si5 0.544783 0.884923 0.949187
Si Si6 0.065683 0.695412 0.231657
O O1 0.627950 0.847805 0.371537
O O2 0.821439 0.788873 0.232382
O O3 0.320424 0.761723 0.262461
O O4 0.477498 0.969806 0.231281
O O5 0.877255 0.740585 0.495864
O O6 0.597832 0.623750 0.392400
O O7 0.663838 0.578068 0.892772
O O8 0.509111 0.750385 0.988625
O O9 0.269870 0.551888 0.000218
O O10 0.763943 0.558467 0.042673
O O11 0.543517 0.409915 0.789270
O O12 0.614588 0.861764 0.856477
#
# Coordination Sequence:
#
# PCOD9314362 Si02
#       6
#     4   4   4   4   4   4
#     4  11  25  46  77 106 145 193 249 301 362 445
#     4  11  26  51  75 108 154 195 247 312 367 446
#     4  10  22  38  68 100 136 180 232 284 366 423
#     4  11  26  47  77 105 145 201 243 300 374 441
#     4  10  21  40  64 100 141 179 225 302 347 421
#     4  11  24  44  71 107 143 184 248 303 358 436
#
# _framework density 25.504034000000001
#
# number of rings (size 3 to 8) (size 9 to 14) (size 15 to 20)
#    0.000    1.333    1.667    3.000    4.667    9.333 
#    0.000    6.667    0.000    0.000    0.000    0.000 
#    0.000    0.000    0.000    0.000    0.000    0.000 
#
# Total GULP energy -134482.572524 kJ/mol
# GULP energy per Si atom -5603.440522 kJ/mol
# Density = 2.544599 g / cm^3
# Si number density = 25.504034 Si / 1000 Ang^3
#
#
#
# Elastic Constant Matrix: (Units=GPa)
#
#
# Indices 1 2 3 4 5 6 
#
# 1 125.6025 22.4098 26.7420 0.0000 0.0000 0.0000
# 2 22.4098 57.3503 10.0265 0.0000 0.0000 0.0000
# 3 26.7420 10.0265 111.4766 0.0000 0.0000 0.0000
# 4 0.0000 0.0000 0.0000 50.0575 0.0000 0.0000
# 5 0.0000 0.0000 0.0000 0.0000 47.4026 0.0000
# 6 0.0000 0.0000 0.0000 0.0000 0.0000 32.6944
#
#
#
# Elastic Compliance Matrix: (Units=1/GPa)
#
#
# Indices 1 2 3 4 5 6 
#
# 1 0.008921 -0.003161 -0.001856 0.000000 0.000000 0.000000
# 2 -0.003161 0.018836 -0.000936 0.000000 0.000000 0.000000
# 3 -0.001856 -0.000936 0.009500 0.000000 0.000000 0.000000
# 4 0.000000 0.000000 0.000000 0.019977 0.000000 0.000000
# 5 0.000000 0.000000 0.000000 0.000000 0.021096 0.000000
# 6 0.000000 0.000000 0.000000 0.000000 0.000000 0.030586
#
#
# Mechanical properties :
#
#
# Convention : Reuss Voigt Hill
#
# Bulk Modulus (GPa) = 39.44679 45.86513 42.65596
# Shear Modulus (GPa) = 38.67839 41.71431 40.19635
#
# Velocity S-wave (km/s) = 3.89853 4.04864 3.97429
# Velocity P-wave (km/s) = 5.98040 6.31489 6.14992
#
# Compressibility (1/GPa) = 0.02535061
#
# Stress axis : x y z
#
# Youngs Moduli (GPa) = 112.09798 53.09090 105.26531
#
# Poissons Ratio (x) = 0.16784 0.19534
# Poissons Ratio (y) = 0.35439 0.09850
# Poissons Ratio (z) = 0.20801 0.04968
#
# Static dielectric constant tensor:
#      x y z
#    x 1.978910 0.000000 0.000000 
#    y 0.000000 2.105910 0.000000 
#    z 0.000000 0.000000 1.945990 
# 
# From -- ./inp_files/5655.got.cif
#   From: 2010.05.17/outbox.cif.g08.bks.cpg/sg19_3_cif.got.tgz:5655.got - 2010.06.03 22:46:19.
