data_PCOD9314116
_publ_section_title
;
Structure prediction by ZEFSAII (Michael W. Deem and Ramdas Pophale) SiO2 
 PCOD9314116
Probable space group: P 21 21 21
;
_chemical_formula_sum "Si O2"
_cell_formula_units_Z 32
_cell_length_a 15.846578
_cell_length_b 10.045250
_cell_length_c 9.977301
_cell_angle_alpha 90.000000
_cell_angle_beta 90.000000
_cell_angle_gamma 90.000000
_cell_volume 1588.215085
_symmetry_space_group_name_H-M "P 21 21 21"
_symmetry_group_IT_number 19
_symmetry_cell_setting 'orthorhombic'
loop_
_space_group_symop_operation_xyz
x,y,z
1/2-x,-y,1/2+z
1/2+x,1/2-y,-z
-x,1/2+y,1/2-z
loop_
_atom_site_type_symbol
_atom_site_label
_atom_site_fract_x
_atom_site_fract_y
_atom_site_fract_z
Si Si1 0.058376 0.351299 0.289467
Si Si2 0.441626 0.351301 0.710545
Si Si3 0.005914 0.903608 0.921047
Si Si4 0.842893 0.499994 0.750006
Si Si5 0.505914 0.403617 0.421053
Si Si6 0.640953 0.000007 0.249998
Si Si7 0.255912 0.253287 0.662427
Si Si8 0.744094 0.246704 0.662416
O O1 0.081049 0.500000 0.250006
O O2 0.002707 0.382132 0.422028
O O3 0.146256 0.278127 0.312049
O O4 0.000006 0.249999 0.204495
O O5 0.497287 0.382136 0.577976
O O6 0.353746 0.278122 0.687984
O O7 0.999999 0.749995 0.863184
O O8 0.926081 0.990803 0.872389
O O9 0.090902 0.974844 0.871977
O O10 0.782315 0.626384 0.761777
O O11 0.782318 0.373600 0.738228
O O12 0.909094 0.525148 0.871993
O O13 0.426085 0.490815 0.372389
O O14 0.701034 0.875584 0.220615
O O15 0.701034 0.124431 0.279376
O O16 0.250009 0.242850 0.500005
#
# Coordination Sequence:
#
# PCOD9314116 Si02
#       8
#     4   4   4   4   4   4   4   4
#     4  11  24  43  64  92 136 182 219 278 349 414
#     4  11  24  43  64  92 136 182 219 278 349 414
#     4  10  20  42  68  94 132 178 223 280 345 406
#     4  11  24  42  73 100 128 178 233 284 338 419
#     4  10  20  42  68  94 132 178 223 280 345 406
#     4  11  20  38  69  96 126 174 225 272 346 417
#     4  12  23  44  68 100 136 175 223 287 350 410
#     4  12  23  44  68 100 136 175 223 287 350 410
#
# _framework density 20.148405
#
# number of rings (size 3 to 8) (size 9 to 14) (size 15 to 20)
#    0.000    1.000    6.250    1.500    1.750    0.000 
#    4.500    1.250    0.000    0.000    0.000    0.000 
#    0.000    0.000    0.000    0.000    0.000    0.000 
#
# Total GULP energy -178140.418266 kJ/mol
# GULP energy per Si atom -5566.888071 kJ/mol
# Density = 2.010255 g / cm^3
# Si number density = 20.148405 Si / 1000 Ang^3
#
#
#
# Elastic Constant Matrix: (Units=GPa)
#
#
# Indices 1 2 3 4 5 6 
#
# 1 169.7954 82.6024 16.0025 0.0000 0.0000 0.0000
# 2 82.6024 152.4585 34.6738 0.0000 0.0000 0.0000
# 3 16.0025 34.6738 21.8723 0.0000 0.0000 0.0000
# 4 0.0000 0.0000 0.0000 152.9627 0.0000 0.0000
# 5 0.0000 0.0000 0.0000 0.0000 0.6463 0.0000
# 6 0.0000 0.0000 0.0000 0.0000 0.0000 59.3245
#
#
#
# Elastic Compliance Matrix: (Units=1/GPa)
#
#
# Indices 1 2 3 4 5 6 
#
# 1 0.008033 -0.004716 0.001599 0.000000 0.000000 0.000000
# 2 -0.004716 0.013026 -0.017200 0.000000 0.000000 0.000000
# 3 0.001599 -0.017200 0.071816 0.000000 0.000000 0.000000
# 4 0.000000 0.000000 0.000000 0.006538 0.000000 0.000000
# 5 0.000000 0.000000 0.000000 0.000000 1.547344 0.000000
# 6 0.000000 0.000000 0.000000 0.000000 0.000000 0.016856
#
#
# Mechanical properties :
#
#
# Convention : Reuss Voigt Hill
#
# Bulk Modulus (GPa) = 19.14162 67.85371 43.49766
# Shear Modulus (GPa) = 2.90417 56.64318 29.77368
#
# Velocity S-wave (km/s) = 1.20188 5.30792 3.84828
# Velocity P-wave (km/s) = 3.38334 8.44485 6.43282
#
# Compressibility (1/GPa) = 0.05224219
#
# Stress axis : x y z
#
# Youngs Moduli (GPa) = 124.48708 76.76962 13.92439
#
# Poissons Ratio (x) = 0.36204 -0.02226
# Poissons Ratio (y) = 0.58707 0.23949
# Poissons Ratio (z) = -0.19904 1.32041
#
# Static dielectric constant tensor:
#      x y z
#    x 1.604470 0.000000 0.000000 
#    y 0.000000 1.968150 0.000000 
#    z 0.000000 0.000000 1.760410 
# 
# From -- ./inp_files/5393.got.cif
#   From: 2010.05.17/outbox.cif.g08.bks.cpg/sg19_3_cif.got.tgz:5393.got - 2010.06.03 22:46:19.
