data_PCOD9314593
_publ_section_title
;
Structure prediction by ZEFSAII (Michael W. Deem and Ramdas Pophale) SiO2 
 PCOD9314593
Probable space group: P 21 21 21
;
_chemical_formula_sum "Si O2"
_cell_formula_units_Z 16
_cell_length_a 7.644062
_cell_length_b 15.474345
_cell_length_c 5.335811
_cell_angle_alpha 90.000000
_cell_angle_beta 90.000000
_cell_angle_gamma 90.000000
_cell_volume 631.156289
_symmetry_space_group_name_H-M "P 21 21 21"
_symmetry_group_IT_number 19
_symmetry_cell_setting 'orthorhombic'
loop_
_space_group_symop_operation_xyz
x,y,z
1/2-x,-y,1/2+z
1/2+x,1/2-y,-z
-x,1/2+y,1/2-z
loop_
_atom_site_type_symbol
_atom_site_label
_atom_site_fract_x
_atom_site_fract_y
_atom_site_fract_z
Si Si1 0.367895 0.771161 0.475951
Si Si2 0.803117 0.447806 0.822549
Si Si3 0.707330 0.102403 0.256342
Si Si4 0.696525 0.860748 0.268340
O O1 0.285928 0.857802 0.588214
O O2 0.271221 0.708116 0.278552
O O3 0.537534 0.798207 0.323663
O O4 0.371626 0.698335 0.697500
O O5 0.721496 0.489466 0.567265
O O6 0.005379 0.424465 0.759693
O O7 0.807174 0.090872 0.511929
O O8 0.802683 0.074051 0.002038
#
# Coordination Sequence:
#
# PCOD9314593 Si02
#       4
#     4   4   4   4
#     4  10  23  42  73 104 135 185 241 282 341 414
#     4  12  27  44  69 104 149 181 224 295 368 406
#     4  10  22  42  67 103 136 180 240 277 334 425
#     4  10  22  36  75  97 134 168 249 282 325 401
#
# _framework density 25.350297999999999
#
# number of rings (size 3 to 8) (size 9 to 14) (size 15 to 20)
#    1.500    0.000    2.500    1.500    7.000    0.000 
#    0.000    5.000    0.000    0.000    0.000    0.000 
#    0.000    0.000    0.000    0.000    0.000    0.000 
#
# Total GULP energy -89132.796809 kJ/mol
# GULP energy per Si atom -5570.799801 kJ/mol
# Density = 2.529260 g / cm^3
# Si number density = 25.350298 Si / 1000 Ang^3
#
#
#
# Elastic Constant Matrix: (Units=GPa)
#
#
# Indices 1 2 3 4 5 6 
#
# 1 66.0777 15.3876 26.0182 0.0000 0.0000 0.0000
# 2 15.3876 141.4763 19.2584 0.0000 0.0000 0.0000
# 3 26.0182 19.2584 187.1631 0.0000 0.0000 0.0000
# 4 0.0000 0.0000 0.0000 -83.6159 0.0000 0.0000
# 5 0.0000 0.0000 0.0000 0.0000 73.1811 0.0000
# 6 0.0000 0.0000 0.0000 0.0000 0.0000 47.5929
#
#
#
# Elastic Compliance Matrix: (Units=1/GPa)
#
#
# Indices 1 2 3 4 5 6 
#
# 1 0.016313 -0.001486 -0.002115 0.000000 0.000000 0.000000
# 2 -0.001486 0.007304 -0.000545 0.000000 0.000000 0.000000
# 3 -0.002115 -0.000545 0.005693 0.000000 0.000000 0.000000
# 4 0.000000 0.000000 0.000000 -0.011959 0.000000 0.000000
# 5 0.000000 0.000000 0.000000 0.000000 0.013665 0.000000
# 6 0.000000 0.000000 0.000000 0.000000 0.000000 0.021012
#
#
# Mechanical properties :
#
#
# Convention : Reuss Voigt Hill
#
# Bulk Modulus (GPa) = 47.57914 57.33838 52.45876
# Shear Modulus (GPa) = 74.26727 29.70180 51.98454
#
# Velocity S-wave (km/s) = 5.41849 3.42666 4.53332
# Velocity P-wave (km/s) = 7.61289 6.19060 6.93829
#
# Compressibility (1/GPa) = 0.02101761
#
# Stress axis : x y z
#
# Youngs Moduli (GPa) = 61.30265 136.90814 175.65492
#
# Poissons Ratio (x) = 0.20349 0.37146
# Poissons Ratio (y) = 0.09112 0.09572
# Poissons Ratio (z) = 0.12964 0.07461
#
# Static dielectric constant tensor:
#      x y z
#    x 2.153360 0.000000 0.000000 
#    y 0.000000 2.008250 0.000000 
#    z 0.000000 0.000000 2.191590 
# 
# From -- ./inp_files/273.got.cif
#   From: 2010.05.17/outbox.cif.g08.bks.cpg/sg19_1_cif.got.tgz:273.got - 2010.06.03 22:46:19.
