data_PCOD9314324
_publ_section_title
;
Structure prediction by ZEFSAII (Michael W. Deem and Ramdas Pophale) SiO2 
 PCOD9314324
Probable space group: P 21 21 21
;
_chemical_formula_sum "Si O2"
_cell_formula_units_Z 32
_cell_length_a 5.102723
_cell_length_b 15.331304
_cell_length_c 15.760997
_cell_angle_alpha 90.000000
_cell_angle_beta 90.000000
_cell_angle_gamma 90.000000
_cell_volume 1233.004822
_symmetry_space_group_name_H-M "P 21 21 21"
_symmetry_group_IT_number 19
_symmetry_cell_setting 'orthorhombic'
loop_
_space_group_symop_operation_xyz
x,y,z
1/2-x,-y,1/2+z
1/2+x,1/2-y,-z
-x,1/2+y,1/2-z
loop_
_atom_site_type_symbol
_atom_site_label
_atom_site_fract_x
_atom_site_fract_y
_atom_site_fract_z
Si Si1 0.689376 0.661203 0.937771
Si Si2 0.044151 0.217087 0.094177
Si Si3 0.312795 0.395035 0.336201
Si Si4 0.155237 0.435064 0.909757
Si Si5 0.763539 0.377718 0.052532
Si Si6 0.115448 0.666229 0.147429
Si Si7 0.551397 0.033152 0.438467
Si Si8 0.384056 0.224459 0.248914
O O1 0.482545 0.623005 0.868261
O O2 0.638810 0.764322 0.930258
O O3 0.980235 0.638003 0.907563
O O4 0.620188 0.613736 0.025567
O O5 0.290244 0.201038 0.155071
O O6 0.817154 0.149146 0.117046
O O7 0.959861 0.317314 0.104393
O O8 0.084555 0.194956 0.994558
O O9 0.374818 0.497619 0.332206
O O10 0.363333 0.329002 0.259901
O O11 0.338741 0.486195 0.977497
O O12 0.907039 0.419522 0.970418
O O13 0.620403 0.455407 0.100911
O O14 0.211995 0.572463 0.115510
O O15 0.337412 0.697703 0.213909
O O16 0.836759 0.679137 0.191553
#
# Coordination Sequence:
#
# PCOD9314324 Si02
#       8
#     4   4   4   4   4   4   4   4
#     4   9  18  34  60  91 129 166 205 259 322 385
#     4  11  24  42  69  92 126 182 229 286 342 396
#     4   9  18  38  60  92 127 168 209 259 327 403
#     4  10  21  39  65  93 131 162 224 282 337 384
#     4  11  22  41  69  98 125 170 238 293 333 387
#     4  10  23  40  64  98 137 175 216 260 339 414
#     4  10  22  37  64 101 132 167 221 284 330 391
#     4  10  24  43  65  93 137 180 216 263 340 426
#
# _framework density 25.952857000000002
#
# number of rings (size 3 to 8) (size 9 to 14) (size 15 to 20)
#    0.000    2.000    2.500    0.000    3.500    5.000 
#    2.250    0.000    2.750    0.000    0.000    0.000 
#    0.000    0.000    0.000    0.000    0.000    0.000 
#
# Total GULP energy -179049.244383 kJ/mol
# GULP energy per Si atom -5595.288887 kJ/mol
# Density = 2.589379 g / cm^3
# Si number density = 25.952857 Si / 1000 Ang^3
#
#
#
# Elastic Constant Matrix: (Units=GPa)
#
#
# Indices 1 2 3 4 5 6 
#
# 1 80.3434 21.1179 19.3592 0.0000 0.0000 0.0000
# 2 21.1179 98.6352 28.1127 0.0000 0.0000 0.0000
# 3 19.3592 28.1127 63.5855 0.0000 0.0000 0.0000
# 4 0.0000 0.0000 0.0000 16.3927 0.0000 0.0000
# 5 0.0000 0.0000 0.0000 0.0000 35.3395 0.0000
# 6 0.0000 0.0000 0.0000 0.0000 0.0000 35.9644
#
#
#
# Elastic Compliance Matrix: (Units=1/GPa)
#
#
# Indices 1 2 3 4 5 6 
#
# 1 0.013770 -0.002006 -0.003306 0.000000 0.000000 0.000000
# 2 -0.002006 0.011892 -0.004647 0.000000 0.000000 0.000000
# 3 -0.003306 -0.004647 0.018788 0.000000 0.000000 0.000000
# 4 0.000000 0.000000 0.000000 0.061003 0.000000 0.000000
# 5 0.000000 0.000000 0.000000 0.000000 0.028297 0.000000
# 6 0.000000 0.000000 0.000000 0.000000 0.000000 0.027805
#
#
# Mechanical properties :
#
#
# Convention : Reuss Voigt Hill
#
# Bulk Modulus (GPa) = 40.76139 42.19374 41.47756
# Shear Modulus (GPa) = 26.36421 29.13760 27.75090
#
# Velocity S-wave (km/s) = 3.19070 3.35433 3.27353
# Velocity P-wave (km/s) = 5.41425 5.59421 5.50496
#
# Compressibility (1/GPa) = 0.02453302
#
# Stress axis : x y z
#
# Youngs Moduli (GPa) = 72.61971 84.08742 53.22580
#
# Poissons Ratio (x) = 0.16869 0.17594
# Poissons Ratio (y) = 0.14568 0.24735
# Poissons Ratio (z) = 0.24005 0.39077
#
# Static dielectric constant tensor:
#      x y z
#    x 2.096920 0.000000 0.000000 
#    y 0.000000 2.100560 0.000000 
#    z 0.000000 0.000000 2.024060 
# 
# From -- ./inp_files/6456.got.cif
#   From: 2010.05.17/outbox.cif.g08.bks.cpg/sg19_4_cif.got.tgz:6456.got - 2010.06.03 22:46:19.
