data_PCOD9314131
_publ_section_title
;
Structure prediction by ZEFSAII (Michael W. Deem and Ramdas Pophale) SiO2 
 PCOD9314131
Probable space group: P 21 21 21
;
_chemical_formula_sum "Si O2"
_cell_formula_units_Z 20
_cell_length_a 11.698515
_cell_length_b 7.775971
_cell_length_c 8.749379
_cell_angle_alpha 90.000000
_cell_angle_beta 90.000000
_cell_angle_gamma 90.000000
_cell_volume 795.907501
_symmetry_space_group_name_H-M "P 21 21 21"
_symmetry_group_IT_number 19
_symmetry_cell_setting 'orthorhombic'
loop_
_space_group_symop_operation_xyz
x,y,z
1/2-x,-y,1/2+z
1/2+x,1/2-y,-z
-x,1/2+y,1/2-z
loop_
_atom_site_type_symbol
_atom_site_label
_atom_site_fract_x
_atom_site_fract_y
_atom_site_fract_z
Si Si1 0.228197 0.862691 0.869903
Si Si2 0.118126 0.813717 0.330674
Si Si3 0.977640 0.400436 0.849776
Si Si4 0.361650 0.736821 0.135004
Si Si5 0.606410 0.068004 0.667688
O O1 0.106784 0.857443 0.790972
O O2 0.310024 0.724245 0.784075
O O3 0.277551 0.054164 0.847789
O O4 0.247635 0.812781 0.048198
O O5 0.060140 0.802932 0.498422
O O6 0.145308 0.619645 0.282390
O O7 0.019645 0.896624 0.227907
O O8 0.947889 0.599602 0.883252
O O9 0.103966 0.346536 0.796979
O O10 0.391621 0.587379 0.014537
#
# Coordination Sequence:
#
# PCOD9314131 Si02
#       5
#     4   4   4   4   4
#     4   9  23  41  64 100 135 177 223 275 342 397
#     4  11  20  41  69  96 134 183 218 284 331 394
#     4  11  21  44  67 101 137 174 232 277 333 406
#     4   9  22  41  68  96 135 180 214 286 333 389
#     4  10  20  43  66  97 135 176 225 268 351 388
#
# _framework density 25.128551000000002
#
# number of rings (size 3 to 8) (size 9 to 14) (size 15 to 20)
#    1.200    0.800    2.000    1.200    0.000    3.200 
#   14.400    2.000    0.000    0.000    0.000    0.000 
#    0.000    0.000    0.000    0.000    0.000    0.000 
#
# Total GULP energy -111643.725743 kJ/mol
# GULP energy per Si atom -5582.186287 kJ/mol
# Density = 2.507136 g / cm^3
# Si number density = 25.128551 Si / 1000 Ang^3
#
#
#
# Elastic Constant Matrix: (Units=GPa)
#
#
# Indices 1 2 3 4 5 6 
#
# 1 101.2908 10.0916 -1.6656 0.0000 0.0000 0.0000
# 2 10.0916 132.7152 -25.0551 0.0000 0.0000 0.0000
# 3 -1.6656 -25.0551 45.9709 0.0000 0.0000 0.0000
# 4 0.0000 0.0000 0.0000 36.2954 0.0000 0.0000
# 5 0.0000 0.0000 0.0000 0.0000 26.8071 0.0000
# 6 0.0000 0.0000 0.0000 0.0000 0.0000 34.7912
#
#
#
# Elastic Compliance Matrix: (Units=1/GPa)
#
#
# Indices 1 2 3 4 5 6 
#
# 1 0.009948 -0.000767 -0.000058 0.000000 0.000000 0.000000
# 2 -0.000767 0.008458 0.004582 0.000000 0.000000 0.000000
# 3 -0.000058 0.004582 0.024248 0.000000 0.000000 0.000000
# 4 0.000000 0.000000 0.000000 0.027552 0.000000 0.000000
# 5 0.000000 0.000000 0.000000 0.000000 0.037304 0.000000
# 6 0.000000 0.000000 0.000000 0.000000 0.000000 0.028743
#
#
# Mechanical properties :
#
#
# Convention : Reuss Voigt Hill
#
# Bulk Modulus (GPa) = 19.93276 27.41317 23.67296
# Shear Modulus (GPa) = 34.37333 39.35247 36.86290
#
# Velocity S-wave (km/s) = 3.70252 3.96162 3.83426
# Velocity P-wave (km/s) = 5.12131 5.64436 5.38918
#
# Compressibility (1/GPa) = 0.05016868
#
# Stress axis : x y z
#
# Youngs Moduli (GPa) = 100.52203 118.22645 41.24019
#
# Poissons Ratio (x) = 0.09072 0.00238
# Poissons Ratio (y) = 0.07714 -0.18897
# Poissons Ratio (z) = 0.00581 -0.54173
#
# Static dielectric constant tensor:
#      x y z
#    x 2.131050 0.000000 0.000000 
#    y 0.000000 1.943120 0.000000 
#    z 0.000000 0.000000 2.006270 
# 
# From -- ./inp_files/2617.got.cif
#   From: 2010.05.17/outbox.cif.g08.bks.cpg/sg19_2_cif.got.tgz:2617.got - 2010.06.03 22:46:19.
