data_PCOD9314736
_publ_section_title
;
Structure prediction by ZEFSAII (Michael W. Deem and Ramdas Pophale) SiO2 
 PCOD9314736
Probable space group: P 21 21 21
;
_chemical_formula_sum "Si O2"
_cell_formula_units_Z 20
_cell_length_a 10.595872
_cell_length_b 7.192123
_cell_length_c 9.402217
_cell_angle_alpha 90.000000
_cell_angle_beta 90.000000
_cell_angle_gamma 90.000000
_cell_volume 716.513009
_symmetry_space_group_name_H-M "P 21 21 21"
_symmetry_group_IT_number 19
_symmetry_cell_setting 'orthorhombic'
loop_
_space_group_symop_operation_xyz
x,y,z
1/2-x,-y,1/2+z
1/2+x,1/2-y,-z
-x,1/2+y,1/2-z
loop_
_atom_site_type_symbol
_atom_site_label
_atom_site_fract_x
_atom_site_fract_y
_atom_site_fract_z
Si Si1 0.712827 0.166218 0.727950
Si Si2 0.936857 0.524590 0.938293
Si Si3 0.044012 0.640462 0.223862
Si Si4 0.331758 0.072867 0.517205
Si Si5 0.435804 0.544511 0.147879
O O1 0.595663 0.298192 0.770821
O O2 0.789540 0.275741 0.605628
O O3 0.635087 0.981064 0.677568
O O4 0.811380 0.078153 0.838161
O O5 0.011092 0.441104 0.807976
O O6 0.916857 0.745891 0.907120
O O7 0.793903 0.456911 0.953911
O O8 0.012430 0.516079 0.083954
O O9 0.120293 0.812983 0.154903
O O10 0.448089 0.967808 0.444561
#
# Coordination Sequence:
#
# PCOD9314736 Si02
#       5
#     4   4   4   4   4
#     4  11  22  42  68  99 132 179 229 271 339 402
#     4  10  22  41  68  94 133 181 219 276 345 391
#     4  10  22  41  65  95 136 178 219 281 331 393
#     4  10  22  41  71  91 137 179 219 279 345 392
#     4  11  20  41  70  95 132 181 224 277 334 408
#
# _framework density 27.912963000000001
#
# number of rings (size 3 to 8) (size 9 to 14) (size 15 to 20)
#    0.000    1.600    6.000    0.000    0.000    3.200 
#    0.000   10.000    0.000    0.000    0.000    0.000 
#    0.000    0.000    0.000    0.000    0.000    0.000 
#
# Total GULP energy -112104.517827 kJ/mol
# GULP energy per Si atom -5605.225891 kJ/mol
# Density = 2.784943 g / cm^3
# Si number density = 27.912963 Si / 1000 Ang^3
#
#
#
# Elastic Constant Matrix: (Units=GPa)
#
#
# Indices 1 2 3 4 5 6 
#
# 1 187.0931 45.0924 34.4086 0.0000 0.0000 0.0000
# 2 45.0924 109.2489 40.0062 0.0000 0.0000 0.0000
# 3 34.4086 40.0062 96.2849 0.0000 0.0000 0.0000
# 4 0.0000 0.0000 0.0000 44.9522 0.0000 0.0000
# 5 0.0000 0.0000 0.0000 0.0000 58.6999 0.0000
# 6 0.0000 0.0000 0.0000 0.0000 0.0000 46.4041
#
#
#
# Elastic Compliance Matrix: (Units=1/GPa)
#
#
# Indices 1 2 3 4 5 6 
#
# 1 0.006077 -0.002020 -0.001332 0.000000 0.000000 0.000000
# 2 -0.002020 0.011468 -0.004043 0.000000 0.000000 0.000000
# 3 -0.001332 -0.004043 0.012542 0.000000 0.000000 0.000000
# 4 0.000000 0.000000 0.000000 0.022246 0.000000 0.000000
# 5 0.000000 0.000000 0.000000 0.000000 0.017036 0.000000
# 6 0.000000 0.000000 0.000000 0.000000 0.000000 0.021550
#
#
# Mechanical properties :
#
#
# Convention : Reuss Voigt Hill
#
# Bulk Modulus (GPa) = 65.37846 70.18238 67.78042
# Shear Modulus (GPa) = 45.12343 48.21923 46.67133
#
# Velocity S-wave (km/s) = 4.02503 4.16081 4.09348
# Velocity P-wave (km/s) = 6.71374 6.94845 6.83210
#
# Compressibility (1/GPa) = 0.01529556
#
# Stress axis : x y z
#
# Youngs Moduli (GPa) = 164.55803 87.20072 79.73397
#
# Poissons Ratio (x) = 0.17618 0.10622
# Poissons Ratio (y) = 0.33247 0.32235
# Poissons Ratio (z) = 0.21922 0.35254
#
# Static dielectric constant tensor:
#      x y z
#    x 2.174940 0.000000 0.000000 
#    y 0.000000 2.241260 0.000000 
#    z 0.000000 0.000000 2.146920 
# 
# From -- ./inp_files/3308.got.cif
#   From: 2010.05.17/outbox.cif.g08.bks.cpg/sg19_2_cif.got.tgz:3308.got - 2010.06.03 22:46:19.
