data_PCOD9314331
_publ_section_title
;
Structure prediction by ZEFSAII (Michael W. Deem and Ramdas Pophale) SiO2 
 PCOD9314331
Probable space group: P 21 21 21
;
_chemical_formula_sum "Si O2"
_cell_formula_units_Z 28
_cell_length_a 5.335697
_cell_length_b 9.951240
_cell_length_c 24.946575
_cell_angle_alpha 90.000000
_cell_angle_beta 90.000000
_cell_angle_gamma 90.000000
_cell_volume 1324.583339
_symmetry_space_group_name_H-M "P 21 21 21"
_symmetry_group_IT_number 19
_symmetry_cell_setting 'orthorhombic'
loop_
_space_group_symop_operation_xyz
x,y,z
1/2-x,-y,1/2+z
1/2+x,1/2-y,-z
-x,1/2+y,1/2-z
loop_
_atom_site_type_symbol
_atom_site_label
_atom_site_fract_x
_atom_site_fract_y
_atom_site_fract_z
Si Si1 0.959918 0.860909 0.269541
Si Si2 0.842045 0.454370 0.673644
Si Si3 0.070593 0.733659 0.644851
Si Si4 0.673439 0.921870 0.990448
Si Si5 0.448925 0.201363 0.023648
Si Si6 0.323600 0.171100 0.433758
Si Si7 0.789008 0.890101 0.730070
O O1 0.785284 0.779396 0.310515
O O2 0.137340 0.741961 0.248445
O O3 0.832753 0.960856 0.226780
O O4 0.089276 0.976473 0.305860
O O5 0.834280 0.337936 0.630218
O O6 0.968633 0.581806 0.644296
O O7 0.991976 0.413061 0.726584
O O8 0.130791 0.775979 0.585062
O O9 0.878462 0.837521 0.672269
O O10 0.446007 0.887464 0.950330
O O11 0.939017 0.905889 0.960478
O O12 0.666544 0.816755 0.039262
O O13 0.600198 0.064862 0.013490
O O14 0.683069 0.300165 0.008192
#
# Coordination Sequence:
#
# PCOD9314331 Si02
#       7
#     4   4   4   4   4   4   4
#     4  10  22  42  66  92 132 177 218 278 337 401
#     4  10  21  39  66  93 121 181 219 264 332 399
#     4  10  23  41  64  93 135 171 221 276 327 403
#     4  10  22  43  61  97 133 168 217 277 325 384
#     4  12  26  42  68 100 132 177 224 274 336 401
#     4  10  22  41  68  91 133 170 220 272 324 396
#     4  10  22  42  63  98 130 172 225 275 337 402
#
# _framework density 21.138722999999999
#
# number of rings (size 3 to 8) (size 9 to 14) (size 15 to 20)
#    0.000    1.714    0.000    3.429   10.000    0.000 
#   12.857    0.000    0.000    0.000    0.000    0.000 
#    0.000    0.000    0.000    0.000    0.000    0.000 
#
# Total GULP energy -156058.469729 kJ/mol
# GULP energy per Si atom -5573.516776 kJ/mol
# Density = 2.109061 g / cm^3
# Si number density = 21.138723 Si / 1000 Ang^3
#
#
#
# Elastic Constant Matrix: (Units=GPa)
#
#
# Indices 1 2 3 4 5 6 
#
# 1 36.0013 17.6016 -69.9742 0.0000 0.0000 0.0000
# 2 17.6016 74.6141 19.0079 0.0000 0.0000 0.0000
# 3 -69.9742 19.0079 -84.5014 0.0000 0.0000 0.0000
# 4 0.0000 0.0000 0.0000 -5.5451 0.0000 0.0000
# 5 0.0000 0.0000 0.0000 0.0000 -12.8499 0.0000
# 6 0.0000 0.0000 0.0000 0.0000 0.0000 38.8330
#
#
#
# Elastic Compliance Matrix: (Units=1/GPa)
#
#
# Indices 1 2 3 4 5 6 
#
# 1 0.010649 -0.000251 -0.008875 0.000000 0.000000 0.000000
# 2 -0.000251 0.012682 0.003061 0.000000 0.000000 0.000000
# 3 -0.008875 0.003061 -0.003796 0.000000 0.000000 0.000000
# 4 0.000000 0.000000 0.000000 -0.180340 0.000000 0.000000
# 5 0.000000 0.000000 0.000000 0.000000 -0.077822 0.000000
# 6 0.000000 0.000000 0.000000 0.000000 0.000000 0.025751
#
#
# Mechanical properties :
#
#
# Convention : Reuss Voigt Hill
#
# Bulk Modulus (GPa) = 135.06817 -4.51282 65.27767
# Shear Modulus (GPa) = -25.21731 8.05285 -8.58223
#
# Velocity S-wave (km/s) = -3.45765 1.95392 -2.01712
# Velocity P-wave (km/s) = 6.93501 1.71782 5.05199
#
# Compressibility (1/GPa) = 0.00740367
#
# Stress axis : x y z
#
# Youngs Moduli (GPa) = 93.90172 78.85287 -263.41532
#
# Poissons Ratio (x) = 0.01981 -2.33785
# Poissons Ratio (y) = 0.02360 0.80625
# Poissons Ratio (z) = 0.83339 -0.24135
#
# Static dielectric constant tensor:
#      x y z
#    x 1.912250 0.000000 0.000000 
#    y 0.000000 1.782950 0.000000 
#    z 0.000000 0.000000 1.727060 
# 
# From -- ./inp_files/2136.got.cif
#   From: 2010.05.17/outbox.cif.g08.bks.cpg/sg19_2_cif.got.tgz:2136.got - 2010.06.03 22:46:19.
