data_PCOD9314710
_publ_section_title
;
Structure prediction by ZEFSAII (Michael W. Deem and Ramdas Pophale) SiO2 
 PCOD9314710
Probable space group: P 21 21 21
;
_chemical_formula_sum "Si O2"
_cell_formula_units_Z 32
_cell_length_a 9.778901
_cell_length_b 6.175850
_cell_length_c 27.923906
_cell_angle_alpha 90.000000
_cell_angle_beta 90.000000
_cell_angle_gamma 90.000000
_cell_volume 1686.409174
_symmetry_space_group_name_H-M "P 21 21 21"
_symmetry_group_IT_number 19
_symmetry_cell_setting 'orthorhombic'
loop_
_space_group_symop_operation_xyz
x,y,z
1/2-x,-y,1/2+z
1/2+x,1/2-y,-z
-x,1/2+y,1/2-z
loop_
_atom_site_type_symbol
_atom_site_label
_atom_site_fract_x
_atom_site_fract_y
_atom_site_fract_z
Si Si1 0.335948 0.152186 0.519099
Si Si2 0.803013 0.057969 0.566279
Si Si3 0.334599 0.873084 0.649348
Si Si4 0.930045 0.749834 0.248856
Si Si5 0.091893 0.307048 0.357774
Si Si6 0.458794 0.528654 0.576562
Si Si7 0.590258 0.847950 0.504184
Si Si8 0.391689 0.090001 0.080185
O O1 0.300341 0.224657 0.465557
O O2 0.357449 0.355396 0.553818
O O3 0.214833 0.020420 0.543335
O O4 0.483017 0.035546 0.517883
O O5 0.703392 0.062466 0.611790
O O6 0.958042 0.009653 0.579806
O O7 0.735898 0.889406 0.528809
O O8 0.344046 0.777694 0.702583
O O9 0.384785 0.702091 0.609772
O O10 0.446147 0.066564 0.645690
O O11 0.182753 0.925759 0.631109
O O12 0.863276 0.761545 0.196412
O O13 0.005192 0.502499 0.246836
O O14 0.063177 0.092970 0.388368
O O15 0.528605 0.641886 0.531446
O O16 0.592237 0.819686 0.447151
#
# Coordination Sequence:
#
# PCOD9314710 Si02
#       8
#     4   4   4   4   4   4   4   4
#     4  12  23  41  56  87 125 172 209 249 296 372
#     4  12  23  37  59  88 128 165 204 250 315 376
#     4  11  22  41  65  90 123 160 209 265 313 367
#     4  10  22  40  70 100 118 158 224 278 316 368
#     4  11  22  41  65  90 123 160 209 265 313 367
#     4  12  18  40  66  84 122 160 206 260 300 358
#     4  12  23  41  56  87 125 172 209 249 296 372
#     4  12  23  37  59  88 128 165 204 250 315 376
#
# _framework density 18.975227
#
# number of rings (size 3 to 8) (size 9 to 14) (size 15 to 20)
#    0.000    0.500    7.500    3.000    0.000    0.000 
#    0.000    0.000    0.000   10.500    0.000    0.000 
#    0.000    0.000    0.000    0.000    0.000    0.000 
#
# Total GULP energy -178335.583314 kJ/mol
# GULP energy per Si atom -5572.986979 kJ/mol
# Density = 1.893204 g / cm^3
# Si number density = 18.975227 Si / 1000 Ang^3
#
#
#
# Elastic Constant Matrix: (Units=GPa)
#
#
# Indices 1 2 3 4 5 6 
#
# 1 70.0208 1.6170 12.5828 0.0000 0.0000 0.0000
# 2 1.6170 47.8752 1.3380 0.0000 0.0000 0.0000
# 3 12.5828 1.3380 118.8563 0.0000 0.0000 0.0000
# 4 0.0000 0.0000 0.0000 25.4979 0.0000 0.0000
# 5 0.0000 0.0000 0.0000 0.0000 17.3330 0.0000
# 6 0.0000 0.0000 0.0000 0.0000 0.0000 19.4056
#
#
#
# Elastic Compliance Matrix: (Units=1/GPa)
#
#
# Indices 1 2 3 4 5 6 
#
# 1 0.014568 -0.000449 -0.001537 0.000000 0.000000 0.000000
# 2 -0.000449 0.020908 -0.000188 0.000000 0.000000 0.000000
# 3 -0.001537 -0.000188 0.008578 0.000000 0.000000 0.000000
# 4 0.000000 0.000000 0.000000 0.039219 0.000000 0.000000
# 5 0.000000 0.000000 0.000000 0.000000 0.057694 0.000000
# 6 0.000000 0.000000 0.000000 0.000000 0.000000 0.051532
#
#
# Mechanical properties :
#
#
# Convention : Reuss Voigt Hill
#
# Bulk Modulus (GPa) = 25.18496 29.75868 27.47182
# Shear Modulus (GPa) = 23.80021 27.19492 25.49756
#
# Velocity S-wave (km/s) = 3.54542 3.78984 3.66967
# Velocity P-wave (km/s) = 5.48283 5.90487 5.69776
#
# Compressibility (1/GPa) = 0.03970623
#
# Stress axis : x y z
#
# Youngs Moduli (GPa) = 68.64324 47.82849 116.57218
#
# Poissons Ratio (x) = 0.02148 0.17920
# Poissons Ratio (y) = 0.03083 0.02190
# Poissons Ratio (z) = 0.10552 0.00898
#
# Static dielectric constant tensor:
#      x y z
#    x 1.687600 0.000000 0.000000 
#    y 0.000000 1.774540 0.000000 
#    z 0.000000 0.000000 1.650610 
# 
# From -- ./inp_files/7581.got.cif
#   From: 2010.05.17/outbox.cif.g08.bks.cpg/sg19_4_cif.got.tgz:7581.got - 2010.06.03 22:46:19.
