data_PCOD9314348
_publ_section_title
;
Structure prediction by ZEFSAII (Michael W. Deem and Ramdas Pophale) SiO2 
 PCOD9314348
Probable space group: P 21 21 21
;
_chemical_formula_sum "Si O2"
_cell_formula_units_Z 28
_cell_length_a 13.812893
_cell_length_b 10.549946
_cell_length_c 10.053873
_cell_angle_alpha 90.000000
_cell_angle_beta 90.000000
_cell_angle_gamma 90.000000
_cell_volume 1465.103410
_symmetry_space_group_name_H-M "P 21 21 21"
_symmetry_group_IT_number 19
_symmetry_cell_setting 'orthorhombic'
loop_
_space_group_symop_operation_xyz
x,y,z
1/2-x,-y,1/2+z
1/2+x,1/2-y,-z
-x,1/2+y,1/2-z
loop_
_atom_site_type_symbol
_atom_site_label
_atom_site_fract_x
_atom_site_fract_y
_atom_site_fract_z
Si Si1 0.721882 0.098367 0.565303
Si Si2 0.863115 0.487905 0.221381
Si Si3 0.769062 0.287053 0.789749
Si Si4 0.667022 0.164994 0.042204
Si Si5 0.434528 0.422949 0.837469
Si Si6 0.776234 0.234519 0.306493
Si Si7 0.060319 0.823237 0.521321
O O1 0.769751 0.169810 0.689226
O O2 0.723467 0.189046 0.438540
O O3 0.780751 0.970801 0.532929
O O4 0.616062 0.049884 0.608427
O O5 0.782350 0.596061 0.216471
O O6 0.822112 0.373606 0.311719
O O7 0.892394 0.422449 0.082227
O O8 0.960204 0.547601 0.282423
O O9 0.703762 0.247586 0.917419
O O10 0.874022 0.319786 0.847835
O O11 0.706007 0.226858 0.178591
O O12 0.552164 0.149037 0.042852
O O13 0.363554 0.363793 0.725778
O O14 0.435063 0.314882 0.950707
#
# Coordination Sequence:
#
# PCOD9314348 Si02
#       7
#     4   4   4   4   4   4   4
#     4  11  23  41  66  94 128 171 223 260 334 399
#     4  11  23  41  66  94 132 170 222 269 330 395
#     4  12  24  42  67  95 133 177 210 281 333 387
#     4  11  21  46  69  88 133 171 221 278 322 393
#     4  10  21  39  71  89 126 171 224 261 328 394
#     4  10  23  41  63  97 129 170 214 276 325 392
#     4  11  23  44  66  99 127 180 224 269 338 394
#
# _framework density 19.111277999999999
#
# number of rings (size 3 to 8) (size 9 to 14) (size 15 to 20)
#    0.000    1.143    5.714    3.429    4.000    0.000 
#    5.143    0.000    0.000    0.000    0.000    0.000 
#    0.000    0.000    0.000    0.000    0.000    0.000 
#
# Total GULP energy -156460.521831 kJ/mol
# GULP energy per Si atom -5587.875780 kJ/mol
# Density = 1.906778 g / cm^3
# Si number density = 19.111278 Si / 1000 Ang^3
#
#
#
# Elastic Constant Matrix: (Units=GPa)
#
#
# Indices 1 2 3 4 5 6 
#
# 1 34.9856 2.3836 -6.2294 0.0000 0.0000 0.0000
# 2 2.3836 52.9962 4.2278 0.0000 0.0000 0.0000
# 3 -6.2294 4.2278 50.3009 0.0000 0.0000 0.0000
# 4 0.0000 0.0000 0.0000 13.8144 0.0000 0.0000
# 5 0.0000 0.0000 0.0000 0.0000 13.9358 0.0000
# 6 0.0000 0.0000 0.0000 0.0000 0.0000 24.1487
#
#
#
# Elastic Compliance Matrix: (Units=1/GPa)
#
#
# Indices 1 2 3 4 5 6 
#
# 1 0.029366 -0.001622 0.003773 0.000000 0.000000 0.000000
# 2 -0.001622 0.019086 -0.001805 0.000000 0.000000 0.000000
# 3 0.003773 -0.001805 0.020499 0.000000 0.000000 0.000000
# 4 0.000000 0.000000 0.000000 0.072388 0.000000 0.000000
# 5 0.000000 0.000000 0.000000 0.000000 0.071758 0.000000
# 6 0.000000 0.000000 0.000000 0.000000 0.000000 0.041410
#
#
# Mechanical properties :
#
#
# Convention : Reuss Voigt Hill
#
# Bulk Modulus (GPa) = 14.35883 15.44962 14.90423
# Shear Modulus (GPa) = 18.04863 19.57315 18.81089
#
# Velocity S-wave (km/s) = 3.07644 3.20373 3.14073
# Velocity P-wave (km/s) = 4.48875 4.66763 4.57907
#
# Compressibility (1/GPa) = 0.06964355
#
# Stress axis : x y z
#
# Youngs Moduli (GPa) = 34.05353 52.39380 48.78201
#
# Poissons Ratio (x) = 0.08497 -0.18406
# Poissons Ratio (y) = 0.05523 0.08805
# Poissons Ratio (z) = -0.12849 0.09457
#
# Static dielectric constant tensor:
#      x y z
#    x 1.646860 0.000000 0.000000 
#    y 0.000000 1.670230 0.000000 
#    z 0.000000 0.000000 1.656450 
# 
# From -- ./inp_files/3908.got.cif
#   From: 2010.05.17/outbox.cif.g08.bks.cpg/sg19_2_cif.got.tgz:3908.got - 2010.06.03 22:46:19.
