data_PCOD9314687
_publ_section_title
;
Structure prediction by ZEFSAII (Michael W. Deem and Ramdas Pophale) SiO2 
 PCOD9314687
Probable space group: P 21 21 21
;
_chemical_formula_sum "Si O2"
_cell_formula_units_Z 32
_cell_length_a 10.918856
_cell_length_b 15.036761
_cell_length_c 9.477562
_cell_angle_alpha 90.000000
_cell_angle_beta 90.000000
_cell_angle_gamma 90.000000
_cell_volume 1556.066201
_symmetry_space_group_name_H-M "P 21 21 21"
_symmetry_group_IT_number 19
_symmetry_cell_setting 'orthorhombic'
loop_
_space_group_symop_operation_xyz
x,y,z
1/2-x,-y,1/2+z
1/2+x,1/2-y,-z
-x,1/2+y,1/2-z
loop_
_atom_site_type_symbol
_atom_site_label
_atom_site_fract_x
_atom_site_fract_y
_atom_site_fract_z
Si Si1 0.767465 0.349491 0.043447
Si Si2 0.556033 0.573401 0.319950
Si Si3 0.524138 0.376124 0.221415
Si Si4 0.787502 0.897417 0.704137
Si Si5 0.895293 0.276031 0.610568
Si Si6 0.785004 0.055153 0.910161
Si Si7 0.322793 0.719522 0.697068
Si Si8 0.094322 0.756371 0.223642
O O1 0.642027 0.372362 0.122193
O O2 0.860918 0.332830 0.170927
O O3 0.838413 0.412937 0.934841
O O4 0.734833 0.265919 0.942064
O O5 0.531369 0.468909 0.305891
O O6 0.425782 0.622564 0.349009
O O7 0.594543 0.625279 0.177106
O O8 0.497687 0.291310 0.322065
O O9 0.405739 0.387531 0.122942
O O10 0.732559 0.952671 0.575133
O O11 0.694805 0.819324 0.742151
O O12 0.798713 0.960353 0.838812
O O13 0.767634 0.237582 0.671591
O O14 0.901790 0.276488 0.442461
O O15 0.678409 0.114516 0.837955
O O16 0.454477 0.760877 0.731270
#
# Coordination Sequence:
#
# PCOD9314687 Si02
#       8
#     4   4   4   4   4   4   4   4
#     4  11  23  42  70  93 128 180 218 269 338 403
#     4  10  24  45  67  95 141 171 222 286 330 398
#     4  10  23  44  69  94 138 174 222 280 336 393
#     4  11  23  39  66  98 129 175 220 276 338 394
#     4  10  25  43  66  96 133 175 221 282 330 396
#     4  10  22  40  65  93 134 169 222 281 329 393
#     4  10  23  42  62  95 130 168 225 266 331 404
#     4  12  25  39  69  94 129 180 220 270 336 407
#
# _framework density 20.564678000000001
#
# number of rings (size 3 to 8) (size 9 to 14) (size 15 to 20)
#    0.000    1.500    1.250    2.250   12.250    2.000 
#    2.250    1.250    0.000    0.000    0.000    0.000 
#    0.000    0.000    0.000    0.000    0.000    0.000 
#
# Total GULP energy -178513.270907 kJ/mol
# GULP energy per Si atom -5578.539716 kJ/mol
# Density = 2.051787 g / cm^3
# Si number density = 20.564678 Si / 1000 Ang^3
#
#
#
# Elastic Constant Matrix: (Units=GPa)
#
#
# Indices 1 2 3 4 5 6 
#
# 1 70.7421 -27.8099 23.9063 0.0000 0.0000 0.0000
# 2 -27.8099 4.6009 -8.4137 0.0000 0.0000 0.0000
# 3 23.9063 -8.4137 126.8149 0.0000 0.0000 0.0000
# 4 0.0000 0.0000 0.0000 13.2317 0.0000 0.0000
# 5 0.0000 0.0000 0.0000 0.0000 30.8425 0.0000
# 6 0.0000 0.0000 0.0000 0.0000 0.0000 25.5074
#
#
#
# Elastic Compliance Matrix: (Units=1/GPa)
#
#
# Indices 1 2 3 4 5 6 
#
# 1 -0.009627 -0.062449 -0.002328 0.000000 0.000000 0.000000
# 2 -0.062449 -0.157733 0.001308 0.000000 0.000000 0.000000
# 3 -0.002328 0.001308 0.008411 0.000000 0.000000 0.000000
# 4 0.000000 0.000000 0.000000 0.075576 0.000000 0.000000
# 5 0.000000 0.000000 0.000000 0.000000 0.032423 0.000000
# 6 0.000000 0.000000 0.000000 0.000000 0.000000 0.039204
#
#
# Mechanical properties :
#
#
# Convention : Reuss Voigt Hill
#
# Bulk Modulus (GPa) = -3.49786 19.72482 8.11348
# Shear Modulus (GPa) = 251.27656 28.21467 139.74561
#
# Velocity S-wave (km/s) = 11.06588 3.70807 8.25238
# Velocity P-wave (km/s) = 12.71090 5.28634 9.73428
#
# Compressibility (1/GPa) = -0.28588897
#
# Stress axis : x y z
#
# Youngs Moduli (GPa) = -103.87255 -6.33984 118.88914
#
# Poissons Ratio (x) = -0.39592 0.27682
# Poissons Ratio (y) = -6.48677 -0.15546
# Poissons Ratio (z) = -0.24186 0.00829
#
# Static dielectric constant tensor:
#      x y z
#    x 1.825390 0.000000 0.000000 
#    y 0.000000 1.760880 0.000000 
#    z 0.000000 0.000000 1.710380 
# 
# From -- ./inp_files/3646.got.cif
#   From: 2010.05.17/outbox.cif.g08.bks.cpg/sg19_2_cif.got.tgz:3646.got - 2010.06.03 22:46:19.
