data_PCOD9314008
_publ_section_title
;
Structure prediction by ZEFSAII (Michael W. Deem and Ramdas Pophale) SiO2 
 PCOD9314008
Probable space group: P 21 21 21
;
_chemical_formula_sum "Si O2"
_cell_formula_units_Z 28
_cell_length_a 5.219971
_cell_length_b 28.519711
_cell_length_c 8.073898
_cell_angle_alpha 90.000000
_cell_angle_beta 90.000000
_cell_angle_gamma 90.000000
_cell_volume 1201.977863
_symmetry_space_group_name_H-M "P 21 21 21"
_symmetry_group_IT_number 19
_symmetry_cell_setting 'orthorhombic'
loop_
_space_group_symop_operation_xyz
x,y,z
1/2-x,-y,1/2+z
1/2+x,1/2-y,-z
-x,1/2+y,1/2-z
loop_
_atom_site_type_symbol
_atom_site_label
_atom_site_fract_x
_atom_site_fract_y
_atom_site_fract_z
Si Si1 0.439653 0.145520 0.779342
Si Si2 0.935000 0.580810 0.250550
Si Si3 0.447650 0.234111 0.579843
Si Si4 0.075074 0.432738 0.637056
Si Si5 0.541872 0.905338 0.364606
Si Si6 0.729191 0.264811 0.076788
Si Si7 0.686408 0.008730 0.690983
O O1 0.459222 0.178661 0.619176
O O2 0.723422 0.130439 0.832151
O O3 0.311481 0.180765 0.913508
O O4 0.223299 0.105344 0.767264
O O5 0.678827 0.595234 0.163135
O O6 0.175256 0.599183 0.147139
O O7 0.964604 0.591614 0.442987
O O8 0.957812 0.523130 0.232968
O O9 0.231244 0.246511 0.446968
O O10 0.321712 0.255047 0.747178
O O11 0.100552 0.465273 0.475525
O O12 0.108990 0.465554 0.803637
O O13 0.677073 0.952843 0.303280
O O14 0.428763 0.258541 0.049967
#
# Coordination Sequence:
#
# PCOD9314008 Si02
#       7
#     4   4   4   4   4   4   4
#     4  10  25  37  68  98 124 159 213 241 344 366
#     4  10  22  37  61  88 117 169 221 259 314 364
#     4  10  20  39  69  94 128 162 205 247 295 396
#     4  10  22  36  59  91 112 152 242 251 304 366
#     4  12  22  41  63  87 134 164 203 279 313 365
#     4  10  20  39  69  97 122 161 210 247 293 396
#     4  10  23  37  67  85 121 171 224 262 311 371
#
# _framework density 23.294937000000001
#
# number of rings (size 3 to 8) (size 9 to 14) (size 15 to 20)
#    1.714    0.000    1.429    3.429    4.000    0.000 
#    0.000    0.000   31.429    0.000    0.000    0.000 
#    0.000    0.000    0.000    0.000    0.000    0.000 
#
# Total GULP energy -155908.769397 kJ/mol
# GULP energy per Si atom -5568.170336 kJ/mol
# Density = 2.324192 g / cm^3
# Si number density = 23.294937 Si / 1000 Ang^3
#
#
#
# Elastic Constant Matrix: (Units=GPa)
#
#
# Indices 1 2 3 4 5 6 
#
# 1 130.5454 6.7330 14.0298 0.0000 0.0000 0.0000
# 2 6.7330 38.0397 5.6120 0.0000 0.0000 0.0000
# 3 14.0298 5.6120 60.5810 0.0000 0.0000 0.0000
# 4 0.0000 0.0000 0.0000 27.6664 0.0000 0.0000
# 5 0.0000 0.0000 0.0000 0.0000 37.7343 0.0000
# 6 0.0000 0.0000 0.0000 0.0000 0.0000 19.2166
#
#
#
# Elastic Compliance Matrix: (Units=1/GPa)
#
#
# Indices 1 2 3 4 5 6 
#
# 1 0.007905 -0.001145 -0.001725 0.000000 0.000000 0.000000
# 2 -0.001145 0.026818 -0.002219 0.000000 0.000000 0.000000
# 3 -0.001725 -0.002219 0.017112 0.000000 0.000000 0.000000
# 4 0.000000 0.000000 0.000000 0.036145 0.000000 0.000000
# 5 0.000000 0.000000 0.000000 0.000000 0.026501 0.000000
# 6 0.000000 0.000000 0.000000 0.000000 0.000000 0.052038
#
#
# Mechanical properties :
#
#
# Convention : Reuss Voigt Hill
#
# Bulk Modulus (GPa) = 24.00517 31.32399 27.66458
# Shear Modulus (GPa) = 26.23545 30.44289 28.33917
#
# Velocity S-wave (km/s) = 3.35958 3.61895 3.49167
# Velocity P-wave (km/s) = 5.03749 5.56222 5.30634
#
# Compressibility (1/GPa) = 0.04165768
#
# Stress axis : x y z
#
# Youngs Moduli (GPa) = 126.50947 37.28790 58.43925
#
# Poissons Ratio (x) = 0.04268 0.10078
# Poissons Ratio (y) = 0.14481 0.12969
# Poissons Ratio (z) = 0.21817 0.08275
#
# Static dielectric constant tensor:
#      x y z
#    x 1.966500 0.000000 0.000000 
#    y 0.000000 1.923810 0.000000 
#    z 0.000000 0.000000 1.938220 
# 
# From -- ./inp_files/2467.got.cif
#   From: 2010.05.17/outbox.cif.g08.bks.cpg/sg19_2_cif.got.tgz:2467.got - 2010.06.03 22:46:19.
