data_PCOD9314329
_publ_section_title
;
Structure prediction by ZEFSAII (Michael W. Deem and Ramdas Pophale) SiO2 
 PCOD9314329
Probable space group: P 21 21 21
;
_chemical_formula_sum "Si O2"
_cell_formula_units_Z 20
_cell_length_a 8.053745
_cell_length_b 20.988934
_cell_length_c 4.976033
_cell_angle_alpha 90.000000
_cell_angle_beta 90.000000
_cell_angle_gamma 90.000000
_cell_volume 841.146241
_symmetry_space_group_name_H-M "P 21 21 21"
_symmetry_group_IT_number 19
_symmetry_cell_setting 'orthorhombic'
loop_
_space_group_symop_operation_xyz
x,y,z
1/2-x,-y,1/2+z
1/2+x,1/2-y,-z
-x,1/2+y,1/2-z
loop_
_atom_site_type_symbol
_atom_site_label
_atom_site_fract_x
_atom_site_fract_y
_atom_site_fract_z
Si Si1 0.778915 0.716858 0.869908
Si Si2 0.518348 0.876556 0.377819
Si Si3 0.950189 0.751699 0.375053
Si Si4 0.141638 0.002061 0.167261
Si Si5 0.296663 0.541375 0.863960
O O1 0.884495 0.652451 0.830625
O O2 0.594519 0.707837 0.759319
O O3 0.877076 0.765203 0.668040
O O4 0.798044 0.741884 0.169778
O O5 0.534853 0.817812 0.581882
O O6 0.684287 0.900084 0.231853
O O7 0.440359 0.935161 0.538668
O O8 0.994016 0.950505 0.158885
O O9 0.206896 0.012458 0.466831
O O10 0.250354 0.483514 0.658986
#
# Coordination Sequence:
#
# PCOD9314329 Si02
#       5
#     4   4   4   4   4
#     4  10  22  41  65  89 122 159 207 255 304 361
#     4   9  24  41  67  83 130 164 202 239 326 359
#     4  10  22  41  65  87 123 158 204 255 305 361
#     4  11  23  40  61  95 127 156 208 261 291 358
#     4  10  21  39  66  86 124 165 201 240 304 371
#
# _framework density 23.777080000000002
#
# number of rings (size 3 to 8) (size 9 to 14) (size 15 to 20)
#    1.200    0.800    0.000    3.600    8.400    0.000 
#    3.600    0.000    0.000    0.000    0.000    0.000 
#    0.000    0.000    0.000    0.000    0.000    0.000 
#
# Total GULP energy -111699.081490 kJ/mol
# GULP energy per Si atom -5584.954075 kJ/mol
# Density = 2.372296 g / cm^3
# Si number density = 23.777080 Si / 1000 Ang^3
#
#
#
# Elastic Constant Matrix: (Units=GPa)
#
#
# Indices 1 2 3 4 5 6 
#
# 1 67.4385 10.7004 -13.5525 0.0000 0.0000 0.0000
# 2 10.7004 46.4944 9.9285 0.0000 0.0000 0.0000
# 3 -13.5525 9.9285 70.2717 0.0000 0.0000 0.0000
# 4 0.0000 0.0000 0.0000 20.6142 0.0000 0.0000
# 5 0.0000 0.0000 0.0000 0.0000 43.7337 0.0000
# 6 0.0000 0.0000 0.0000 0.0000 0.0000 37.2141
#
#
#
# Elastic Compliance Matrix: (Units=1/GPa)
#
#
# Indices 1 2 3 4 5 6 
#
# 1 0.016314 -0.004564 0.003791 0.000000 0.000000 0.000000
# 2 -0.004564 0.023454 -0.004194 0.000000 0.000000 0.000000
# 3 0.003791 -0.004194 0.015554 0.000000 0.000000 0.000000
# 4 0.000000 0.000000 0.000000 0.048510 0.000000 0.000000
# 5 0.000000 0.000000 0.000000 0.000000 0.022866 0.000000
# 6 0.000000 0.000000 0.000000 0.000000 0.000000 0.026872
#
#
# Mechanical properties :
#
#
# Convention : Reuss Voigt Hill
#
# Bulk Modulus (GPa) = 22.03195 22.03970 22.03582
# Shear Modulus (GPa) = 27.99023 32.12093 30.05558
#
# Velocity S-wave (km/s) = 3.43475 3.67947 3.55921
# Velocity P-wave (km/s) = 5.00161 5.22884 5.11649
#
# Compressibility (1/GPa) = 0.04538863
#
# Stress axis : x y z
#
# Youngs Moduli (GPa) = 61.29546 42.63663 64.29127
#
# Poissons Ratio (x) = 0.19460 -0.24374
# Poissons Ratio (y) = 0.27977 0.26964
# Poissons Ratio (z) = -0.23239 0.17882
#
# Static dielectric constant tensor:
#      x y z
#    x 1.945930 0.000000 0.000000 
#    y 0.000000 1.922840 0.000000 
#    z 0.000000 0.000000 1.857890 
# 
# From -- ./inp_files/567.got.cif
#   From: 2010.05.17/outbox.cif.g08.bks.cpg/sg19_1_cif.got.tgz:567.got - 2010.06.03 22:46:19.
