data_PCOD9314780
_publ_section_title
;
Structure prediction by ZEFSAII (Michael W. Deem and Ramdas Pophale) SiO2 
 PCOD9314780
Probable space group: P 21 21 21
;
_chemical_formula_sum "Si O2"
_cell_formula_units_Z 32
_cell_length_a 9.001068
_cell_length_b 30.872971
_cell_length_c 5.334879
_cell_angle_alpha 90.000000
_cell_angle_beta 90.000000
_cell_angle_gamma 90.000000
_cell_volume 1482.507985
_symmetry_space_group_name_H-M "P 21 21 21"
_symmetry_group_IT_number 19
_symmetry_cell_setting 'orthorhombic'
loop_
_space_group_symop_operation_xyz
x,y,z
1/2-x,-y,1/2+z
1/2+x,1/2-y,-z
-x,1/2+y,1/2-z
loop_
_atom_site_type_symbol
_atom_site_label
_atom_site_fract_x
_atom_site_fract_y
_atom_site_fract_z
Si Si1 0.101609 0.399999 0.171385
Si Si2 0.056802 0.985039 0.173754
Si Si3 0.809742 0.198084 0.386514
Si Si4 0.834855 0.270876 0.735259
Si Si5 0.027313 0.350896 0.688129
Si Si6 0.399932 0.961630 0.170116
Si Si7 0.946725 0.709166 0.505523
Si Si8 0.430085 0.374251 0.235755
O O1 0.057451 0.371795 0.416687
O O2 0.277360 0.393405 0.121653
O O3 0.062342 0.448415 0.257989
O O4 0.015380 0.384737 0.918811
O O5 0.220497 0.962869 0.180212
O O6 0.054956 0.018752 0.402477
O O7 0.044044 0.008913 0.905116
O O8 0.751279 0.238255 0.549235
O O9 0.671790 0.178028 0.236431
O O10 0.949423 0.215623 0.235644
O O11 0.871998 0.157485 0.545250
O O12 0.722310 0.279422 0.961373
O O13 0.891231 0.317830 0.655087
O O14 0.975404 0.241435 0.803124
O O15 0.467379 0.914033 0.189507
O O16 0.975764 0.659063 0.568916
#
# Coordination Sequence:
#
# PCOD9314780 Si02
#       8
#     4   4   4   4   4   4   4   4
#     4  11  24  43  67  95 134 166 221 271 329 389
#     4  10  23  43  66  95 130 172 208 276 322 403
#     4  10  22  42  61  91 133 169 227 273 329 381
#     4  11  25  38  65  92 129 184 220 277 326 394
#     4  11  24  42  64  95 130 173 217 276 324 386
#     4  10  23  42  67  95 132 165 219 261 336 392
#     4  11  23  42  63  93 133 171 230 271 332 386
#     4  10  24  40  63  98 127 172 214 281 320 397
#
# _framework density 21.585044
#
# number of rings (size 3 to 8) (size 9 to 14) (size 15 to 20)
#    0.000    1.500    1.250    2.250    8.750    3.000 
#    0.000    0.000    0.000    0.000    0.000    0.000 
#    0.000    0.000    0.000    0.000    0.000    0.000 
#
# Total GULP energy -178642.224065 kJ/mol
# GULP energy per Si atom -5582.569502 kJ/mol
# Density = 2.153592 g / cm^3
# Si number density = 21.585044 Si / 1000 Ang^3
#
#
#
# Elastic Constant Matrix: (Units=GPa)
#
#
# Indices 1 2 3 4 5 6 
#
# 1 45.3831 29.7895 -2.2423 0.0000 0.0000 0.0000
# 2 29.7895 56.0035 -7.1936 0.0000 0.0000 0.0000
# 3 -2.2423 -7.1936 51.4151 0.0000 0.0000 0.0000
# 4 0.0000 0.0000 0.0000 20.7421 0.0000 0.0000
# 5 0.0000 0.0000 0.0000 0.0000 24.0107 0.0000
# 6 0.0000 0.0000 0.0000 0.0000 0.0000 34.2445
#
#
#
# Elastic Compliance Matrix: (Units=1/GPa)
#
#
# Indices 1 2 3 4 5 6 
#
# 1 0.033912 -0.018175 -0.001064 0.000000 0.000000 0.000000
# 2 -0.018175 0.027924 0.003114 0.000000 0.000000 0.000000
# 3 -0.001064 0.003114 0.019839 0.000000 0.000000 0.000000
# 4 0.000000 0.000000 0.000000 0.048211 0.000000 0.000000
# 5 0.000000 0.000000 0.000000 0.000000 0.041648 0.000000
# 6 0.000000 0.000000 0.000000 0.000000 0.000000 0.029202
#
#
# Mechanical properties :
#
#
# Convention : Reuss Voigt Hill
#
# Bulk Modulus (GPa) = 20.23271 21.50098 20.86685
# Shear Modulus (GPa) = 20.04317 24.62935 22.33626
#
# Velocity S-wave (km/s) = 3.05055 3.38159 3.22032
# Velocity P-wave (km/s) = 4.66922 5.02290 4.84929
#
# Compressibility (1/GPa) = 0.04942490
#
# Stress axis : x y z
#
# Youngs Moduli (GPa) = 29.48771 35.81149 50.40613
#
# Poissons Ratio (x) = 0.65089 0.05363
# Poissons Ratio (y) = 0.53595 -0.15698
# Poissons Ratio (z) = 0.03138 -0.11153
#
# Static dielectric constant tensor:
#      x y z
#    x 1.779790 0.000000 0.000000 
#    y 0.000000 1.752850 0.000000 
#    z 0.000000 0.000000 1.850140 
# 
# From -- ./inp_files/689.got.cif
#   From: 2010.05.17/outbox.cif.g08.bks.cpg/sg19_1_cif.got.tgz:689.got - 2010.06.03 22:46:19.
