data_PCOD9314069
_publ_section_title
;
Structure prediction by ZEFSAII (Michael W. Deem and Ramdas Pophale) SiO2 
 PCOD9314069
Probable space group: P 21 21 21
;
_chemical_formula_sum "Si O2"
_cell_formula_units_Z 32
_cell_length_a 20.943536
_cell_length_b 12.072471
_cell_length_c 5.076767
_cell_angle_alpha 90.000000
_cell_angle_beta 90.000000
_cell_angle_gamma 90.000000
_cell_volume 1283.610941
_symmetry_space_group_name_H-M "P 21 21 21"
_symmetry_group_IT_number 19
_symmetry_cell_setting 'orthorhombic'
loop_
_space_group_symop_operation_xyz
x,y,z
1/2-x,-y,1/2+z
1/2+x,1/2-y,-z
-x,1/2+y,1/2-z
loop_
_atom_site_type_symbol
_atom_site_label
_atom_site_fract_x
_atom_site_fract_y
_atom_site_fract_z
Si Si1 0.017375 0.067522 0.646754
Si Si2 0.002051 0.811204 0.106356
Si Si3 0.731366 0.065301 0.130842
Si Si4 0.230599 0.059398 0.277246
Si Si5 0.609518 0.548577 0.753317
Si Si6 0.934386 0.158814 0.010465
Si Si7 0.685996 0.737286 0.449276
Si Si8 0.097207 0.460520 0.138806
O O1 0.007521 0.196092 0.547306
O O2 0.998910 0.091093 0.946637
O O3 0.073798 0.010814 0.490675
O O4 0.957176 0.990748 0.570800
O O5 0.059638 0.897390 0.036557
O O6 0.034164 0.769139 0.377084
O O7 0.935475 0.871094 0.167521
O O8 0.768969 0.179021 0.104398
O O9 0.660540 0.074698 0.010632
O O10 0.766165 0.980370 0.927017
O O11 0.267961 0.173883 0.250577
O O12 0.230858 0.022648 0.580276
O O13 0.159457 0.046220 0.156408
O O14 0.655007 0.647144 0.646088
O O15 0.875565 0.198442 0.826286
O O16 0.897104 0.077193 0.208156
#
# Coordination Sequence:
#
# PCOD9314069 Si02
#       8
#     4   4   4   4   4   4   4   4
#     4  10  21  39  66  93 131 174 224 280 340 401
#     4   9  21  38  63  95 128 173 217 281 343 398
#     4  12  26  45  69 100 134 180 233 281 340 411
#     4  10  23  43  67  99 133 178 228 278 333 413
#     4   9  21  42  62  98 135 176 232 274 345 412
#     4  10  20  41  63  93 127 174 223 278 343 407
#     4  10  22  42  68  93 135 181 220 282 342 402
#     4  10  22  40  60  95 133 168 225 280 336 410
#
# _framework density 24.929670999999999
#
# number of rings (size 3 to 8) (size 9 to 14) (size 15 to 20)
#    0.000    2.000    1.250    0.750    3.500    5.000 
#   11.250    0.000    0.000    0.000    0.000    0.000 
#    0.000    0.000    0.000    0.000    0.000    0.000 
#
# Total GULP energy -178387.580971 kJ/mol
# GULP energy per Si atom -5574.611905 kJ/mol
# Density = 2.487293 g / cm^3
# Si number density = 24.929671 Si / 1000 Ang^3
#
#
#
# Elastic Constant Matrix: (Units=GPa)
#
#
# Indices 1 2 3 4 5 6 
#
# 1 108.5944 36.4039 -13.6853 0.0000 0.0000 0.0000
# 2 36.4039 88.0499 2.1853 0.0000 0.0000 0.0000
# 3 -13.6853 2.1853 38.7379 0.0000 0.0000 0.0000
# 4 0.0000 0.0000 0.0000 12.2396 0.0000 0.0000
# 5 0.0000 0.0000 0.0000 0.0000 26.0764 0.0000
# 6 0.0000 0.0000 0.0000 0.0000 0.0000 54.3599
#
#
#
# Elastic Compliance Matrix: (Units=1/GPa)
#
#
# Indices 1 2 3 4 5 6 
#
# 1 0.011358 -0.004802 0.004284 0.000000 0.000000 0.000000
# 2 -0.004802 0.013404 -0.002453 0.000000 0.000000 0.000000
# 3 0.004284 -0.002453 0.027466 0.000000 0.000000 0.000000
# 4 0.000000 0.000000 0.000000 0.081702 0.000000 0.000000
# 5 0.000000 0.000000 0.000000 0.000000 0.038349 0.000000
# 6 0.000000 0.000000 0.000000 0.000000 0.000000 0.018396
#
#
# Mechanical properties :
#
#
# Convention : Reuss Voigt Hill
#
# Bulk Modulus (GPa) = 21.60524 31.68779 26.64652
# Shear Modulus (GPa) = 23.57979 32.56706 28.07342
#
# Velocity S-wave (km/s) = 3.07881 3.61828 3.35939
# Velocity P-wave (km/s) = 4.61780 5.49494 5.07535
#
# Compressibility (1/GPa) = 0.04628506
#
# Stress axis : x y z
#
# Youngs Moduli (GPa) = 88.04149 74.60692 36.40838
#
# Poissons Ratio (x) = 0.35829 -0.15596
# Poissons Ratio (y) = 0.42281 0.08930
# Poissons Ratio (z) = -0.37713 0.18299
#
# Static dielectric constant tensor:
#      x y z
#    x 2.043590 0.000000 0.000000 
#    y 0.000000 2.088040 0.000000 
#    z 0.000000 0.000000 2.149870 
# 
# From -- ./inp_files/2039.got.cif
#   From: 2010.05.17/outbox.cif.g08.bks.cpg/sg19_2_cif.got.tgz:2039.got - 2010.06.03 22:46:19.
