data_PCOD9314311
_publ_section_title
;
Structure prediction by ZEFSAII (Michael W. Deem and Ramdas Pophale) SiO2 
 PCOD9314311
Probable space group: P 21 21 21
;
_chemical_formula_sum "Si O2"
_cell_formula_units_Z 32
_cell_length_a 18.590858
_cell_length_b 5.351513
_cell_length_c 12.412044
_cell_angle_alpha 90.000000
_cell_angle_beta 90.000000
_cell_angle_gamma 90.000000
_cell_volume 1234.864555
_symmetry_space_group_name_H-M "P 21 21 21"
_symmetry_group_IT_number 19
_symmetry_cell_setting 'orthorhombic'
loop_
_space_group_symop_operation_xyz
x,y,z
1/2-x,-y,1/2+z
1/2+x,1/2-y,-z
-x,1/2+y,1/2-z
loop_
_atom_site_type_symbol
_atom_site_label
_atom_site_fract_x
_atom_site_fract_y
_atom_site_fract_z
Si Si1 0.046638 0.733428 0.244284
Si Si2 0.939963 0.529017 0.942027
Si Si3 0.184651 0.335039 0.876325
Si Si4 0.132141 0.410999 0.414738
Si Si5 0.718190 0.701264 0.467588
Si Si6 0.091837 0.959967 0.796713
Si Si7 0.080480 0.639214 0.005201
Si Si8 0.746150 0.242964 0.736541
O O1 0.097626 0.626563 0.339361
O O2 0.987014 0.508115 0.237332
O O3 0.083385 0.738833 0.126156
O O4 0.858971 0.426599 0.957889
O O5 0.950512 0.469379 0.814913
O O6 0.013641 0.443002 0.998339
O O7 0.926891 0.791356 0.006412
O O8 0.113257 0.244274 0.819078
O O9 0.154895 0.515088 0.969240
O O10 0.237320 0.451284 0.788537
O O11 0.228541 0.119904 0.937751
O O12 0.192842 0.523887 0.493644
O O13 0.174301 0.222313 0.334137
O O14 0.764061 0.693373 0.359951
O O15 0.063514 0.828991 0.904921
O O16 0.171573 0.841832 0.778567
#
# Coordination Sequence:
#
# PCOD9314311 Si02
#       8
#     4   4   4   4   4   4   4   4
#     4  12  27  48  70 106 149 197 252 311 380 460
#     4  11  23  41  63 100 135 188 246 304 380 454
#     4  10  21  39  64  91 132 179 230 301 374 439
#     4  11  22  40  71  94 143 190 246 312 380 453
#     4  10  21  40  66  95 133 180 241 309 367 455
#     4  10  23  40  64  94 138 183 239 313 378 455
#     4  11  25  42  64 101 142 188 247 310 383 453
#     4   9  20  40  60  99 130 177 243 302 378 443
#
# _framework density 25.913772999999999
#
# number of rings (size 3 to 8) (size 9 to 14) (size 15 to 20)
#    0.000    1.500    1.250    3.000    3.500    1.000 
#    0.000    2.500    0.000    0.000    0.000    0.000 
#    0.000    0.000    0.000    0.000    0.000    0.000 
#
# Total GULP energy -178326.111991 kJ/mol
# GULP energy per Si atom -5572.691000 kJ/mol
# Density = 2.585479 g / cm^3
# Si number density = 25.913773 Si / 1000 Ang^3
#
#
#
# Elastic Constant Matrix: (Units=GPa)
#
#
# Indices 1 2 3 4 5 6 
#
# 1 97.6018 8.2596 14.7164 0.0000 0.0000 0.0000
# 2 8.2596 27.1115 12.6319 0.0000 0.0000 0.0000
# 3 14.7164 12.6319 100.6153 0.0000 0.0000 0.0000
# 4 0.0000 0.0000 0.0000 20.5656 0.0000 0.0000
# 5 0.0000 0.0000 0.0000 0.0000 52.1677 0.0000
# 6 0.0000 0.0000 0.0000 0.0000 0.0000 40.9598
#
#
#
# Elastic Compliance Matrix: (Units=1/GPa)
#
#
# Indices 1 2 3 4 5 6 
#
# 1 0.010657 -0.002677 -0.001223 0.000000 0.000000 0.000000
# 2 -0.002677 0.039849 -0.004611 0.000000 0.000000 0.000000
# 3 -0.001223 -0.004611 0.010697 0.000000 0.000000 0.000000
# 4 0.000000 0.000000 0.000000 0.048625 0.000000 0.000000
# 5 0.000000 0.000000 0.000000 0.000000 0.019169 0.000000
# 6 0.000000 0.000000 0.000000 0.000000 0.000000 0.024414
#
#
# Mechanical properties :
#
#
# Convention : Reuss Voigt Hill
#
# Bulk Modulus (GPa) = 22.63452 32.94936 27.79194
# Shear Modulus (GPa) = 27.00388 35.38665 31.19526
#
# Velocity S-wave (km/s) = 3.23161 3.69935 3.47336
# Velocity P-wave (km/s) = 4.76213 5.56682 5.18013
#
# Compressibility (1/GPa) = 0.04418031
#
# Stress axis : x y z
#
# Youngs Moduli (GPa) = 93.83863 25.09483 93.48755
#
# Poissons Ratio (x) = 0.06718 0.11430
# Poissons Ratio (y) = 0.25120 0.43110
# Poissons Ratio (z) = 0.11473 0.11572
#
# Static dielectric constant tensor:
#      x y z
#    x 2.096730 0.000000 0.000000 
#    y 0.000000 2.264020 0.000000 
#    z 0.000000 0.000000 2.046800 
# 
# From -- ./inp_files/1963.got.cif
#   From: 2010.05.17/outbox.cif.g08.bks.cpg/sg19_1_cif.got.tgz:1963.got - 2010.06.03 22:46:19.
