data_PCOD9314624
_publ_section_title
;
Structure prediction by ZEFSAII (Michael W. Deem and Ramdas Pophale) SiO2 
 PCOD9314624
Probable space group: P 21 21 21
;
_chemical_formula_sum "Si O2"
_cell_formula_units_Z 32
_cell_length_a 7.988550
_cell_length_b 8.169709
_cell_length_c 19.256443
_cell_angle_alpha 90.000000
_cell_angle_beta 90.000000
_cell_angle_gamma 90.000000
_cell_volume 1256.754977
_symmetry_space_group_name_H-M "P 21 21 21"
_symmetry_group_IT_number 19
_symmetry_cell_setting 'orthorhombic'
loop_
_space_group_symop_operation_xyz
x,y,z
1/2-x,-y,1/2+z
1/2+x,1/2-y,-z
-x,1/2+y,1/2-z
loop_
_atom_site_type_symbol
_atom_site_label
_atom_site_fract_x
_atom_site_fract_y
_atom_site_fract_z
Si Si1 0.324171 0.740224 0.830096
Si Si2 0.998330 0.238344 0.967071
Si Si3 0.817660 0.926382 0.421932
Si Si4 0.999100 0.922290 0.287386
Si Si5 0.499099 0.922290 0.212614
Si Si6 0.182343 0.073618 0.578068
Si Si7 0.498333 0.238344 0.532929
Si Si8 0.324172 0.759777 0.330096
O O1 0.433802 0.605023 0.789578
O O2 0.134272 0.715555 0.807588
O O3 0.350526 0.720823 0.912164
O O4 0.404085 0.910305 0.804409
O O5 0.865795 0.095108 0.954139
O O6 0.897231 0.400303 0.941929
O O7 0.149472 0.220823 0.912164
O O8 0.069072 0.287244 0.041310
O O9 0.840458 0.909112 0.339544
O O10 0.897234 0.099697 0.441929
O O11 0.134273 0.784445 0.307589
O O12 0.340456 0.909112 0.160456
O O13 0.433802 0.894978 0.289578
O O14 0.595914 0.089696 0.195591
O O15 0.365798 0.095108 0.545861
O O16 0.069076 0.212756 0.541310
#
# Coordination Sequence:
#
# PCOD9314624 Si02
#       8
#     4   4   4   4   4   4   4   4
#     4  11  23  39  60  86 117 152 192 237 286 341
#     4  10  22  39  59  85 115 149 190 235 284 338
#     4  10  22  39  59  85 115 149 190 235 284 338
#     4  11  23  39  60  86 117 152 192 237 286 341
#     4  11  23  39  60  86 117 152 192 237 286 341
#     4  10  22  39  59  85 115 149 190 235 284 338
#     4  10  22  39  59  85 115 149 190 235 284 338
#     4  11  23  39  60  86 117 152 192 237 286 341
#
# _framework density 25.462401
#
# number of rings (size 3 to 8) (size 9 to 14) (size 15 to 20)
#    0.000    1.500    0.000    4.500    0.000    9.000 
#    0.000    0.000    0.000    0.000    0.000    0.000 
#    0.000    0.000    0.000    0.000    0.000    0.000 
#
# Total GULP energy -179289.016574 kJ/mol
# GULP energy per Si atom -5602.781768 kJ/mol
# Density = 2.540445 g / cm^3
# Si number density = 25.462401 Si / 1000 Ang^3
#
#
#
# Elastic Constant Matrix: (Units=GPa)
#
#
# Indices 1 2 3 4 5 6 
#
# 1 81.4057 -3.7638 -14.6154 0.0000 0.0000 0.0000
# 2 -3.7638 67.1485 3.0350 0.0000 0.0000 0.0000
# 3 -14.6154 3.0350 29.4988 0.0000 0.0000 0.0000
# 4 0.0000 0.0000 0.0000 12.4429 0.0000 0.0000
# 5 0.0000 0.0000 0.0000 0.0000 37.5240 0.0000
# 6 0.0000 0.0000 0.0000 0.0000 0.0000 31.6836
#
#
#
# Elastic Compliance Matrix: (Units=1/GPa)
#
#
# Indices 1 2 3 4 5 6 
#
# 1 0.013497 0.000456 0.006640 0.000000 0.000000 0.000000
# 2 0.000456 0.014977 -0.001315 0.000000 0.000000 0.000000
# 3 0.006640 -0.001315 0.037325 0.000000 0.000000 0.000000
# 4 0.000000 0.000000 0.000000 0.080367 0.000000 0.000000
# 5 0.000000 0.000000 0.000000 0.000000 0.026650 0.000000
# 6 0.000000 0.000000 0.000000 0.000000 0.000000 0.031562
#
#
# Mechanical properties :
#
#
# Convention : Reuss Voigt Hill
#
# Bulk Modulus (GPa) = 12.92591 16.37385 14.64988
# Shear Modulus (GPa) = 22.87256 29.22325 26.04791
#
# Velocity S-wave (km/s) = 3.00040 3.39145 3.20190
# Velocity P-wave (km/s) = 4.13409 4.66696 4.40858
#
# Compressibility (1/GPa) = 0.07736400
#
# Stress axis : x y z
#
# Youngs Moduli (GPa) = 74.08800 66.76734 26.79168
#
# Poissons Ratio (x) = -0.03047 -0.17791
# Poissons Ratio (y) = -0.03381 0.03523
# Poissons Ratio (z) = -0.49198 0.08779
#
# Static dielectric constant tensor:
#      x y z
#    x 1.987690 0.000000 0.000000 
#    y 0.000000 2.055500 0.000000 
#    z 0.000000 0.000000 1.909010 
# 
# From -- ./inp_files/7072.got.cif
#   From: 2010.05.17/outbox.cif.g08.bks.cpg/sg19_4_cif.got.tgz:7072.got - 2010.06.03 22:46:19.
