data_PCOD9314235
_publ_section_title
;
Structure prediction by ZEFSAII (Michael W. Deem and Ramdas Pophale) SiO2 
 PCOD9314235
Probable space group: P 21 21 21
;
_chemical_formula_sum "Si O2"
_cell_formula_units_Z 16
_cell_length_a 9.243766
_cell_length_b 8.124999
_cell_length_c 7.901214
_cell_angle_alpha 90.000000
_cell_angle_beta 90.000000
_cell_angle_gamma 90.000000
_cell_volume 593.425335
_symmetry_space_group_name_H-M "P 21 21 21"
_symmetry_group_IT_number 19
_symmetry_cell_setting 'orthorhombic'
loop_
_space_group_symop_operation_xyz
x,y,z
1/2-x,-y,1/2+z
1/2+x,1/2-y,-z
-x,1/2+y,1/2-z
loop_
_atom_site_type_symbol
_atom_site_label
_atom_site_fract_x
_atom_site_fract_y
_atom_site_fract_z
Si Si1 0.873651 0.094182 0.147367
Si Si2 0.629871 0.281611 0.030614
Si Si3 0.290406 0.114076 0.314812
Si Si4 0.482896 0.763735 0.968816
O O1 0.964761 0.220419 0.028823
O O2 0.910541 0.145775 0.337158
O O3 0.937743 0.916319 0.104952
O O4 0.706620 0.119895 0.102572
O O5 0.709370 0.334591 0.855176
O O6 0.659889 0.427107 0.163236
O O7 0.167262 0.140138 0.459333
O O8 0.427930 0.226068 0.362565
#
# Coordination Sequence:
#
# PCOD9314235 Si02
#       4
#     4   4   4   4
#     4  10  21  38  57  82 114 147 186 232 282 334
#     4  10  21  38  57  82 114 147 186 232 282 334
#     4  10  22  38  58  84 114 149 188 234 282 332
#     4  10  22  38  58  84 114 149 188 234 282 332
#
# _framework density 26.962109000000002
#
# number of rings (size 3 to 8) (size 9 to 14) (size 15 to 20)
#    0.000    2.000    0.000    4.500    0.000   12.000 
#    0.000    2.500    0.000    0.000    0.000    0.000 
#    0.000    0.000    0.000    0.000    0.000    0.000 
#
# Total GULP energy -89675.232402 kJ/mol
# GULP energy per Si atom -5604.702025 kJ/mol
# Density = 2.690074 g / cm^3
# Si number density = 26.962109 Si / 1000 Ang^3
#
#
#
# Elastic Constant Matrix: (Units=GPa)
#
#
# Indices 1 2 3 4 5 6 
#
# 1 71.4238 14.9769 17.8982 0.0000 0.0000 0.0000
# 2 14.9769 65.3273 17.0232 0.0000 0.0000 0.0000
# 3 17.8982 17.0232 80.4915 0.0000 0.0000 0.0000
# 4 0.0000 0.0000 0.0000 25.7340 0.0000 0.0000
# 5 0.0000 0.0000 0.0000 0.0000 50.7677 0.0000
# 6 0.0000 0.0000 0.0000 0.0000 0.0000 42.5805
#
#
#
# Elastic Compliance Matrix: (Units=1/GPa)
#
#
# Indices 1 2 3 4 5 6 
#
# 1 0.015287 -0.002772 -0.002813 0.000000 0.000000 0.000000
# 2 -0.002772 0.016703 -0.002916 0.000000 0.000000 0.000000
# 3 -0.002813 -0.002916 0.013666 0.000000 0.000000 0.000000
# 4 0.000000 0.000000 0.000000 0.038859 0.000000 0.000000
# 5 0.000000 0.000000 0.000000 0.000000 0.019698 0.000000
# 6 0.000000 0.000000 0.000000 0.000000 0.000000 0.023485
#
#
# Mechanical properties :
#
#
# Convention : Reuss Voigt Hill
#
# Bulk Modulus (GPa) = 34.89908 35.22655 35.06282
# Shear Modulus (GPa) = 32.41479 34.97275 33.69377
#
# Velocity S-wave (km/s) = 3.47109 3.60544 3.53890
# Velocity P-wave (km/s) = 5.38855 5.51597 5.45263
#
# Compressibility (1/GPa) = 0.02865405
#
# Stress axis : x y z
#
# Youngs Moduli (GPa) = 65.41478 59.86992 73.17461
#
# Poissons Ratio (x) = 0.16594 0.20585
# Poissons Ratio (y) = 0.18131 0.21339
# Poissons Ratio (z) = 0.18402 0.17459
#
# Static dielectric constant tensor:
#      x y z
#    x 2.069460 0.000000 0.000000 
#    y 0.000000 2.084240 0.000000 
#    z 0.000000 0.000000 2.088820 
# 
# From -- ./inp_files/2532.got.cif
#   From: 2010.05.17/outbox.cif.g08.bks.cpg/sg19_2_cif.got.tgz:2532.got - 2010.06.03 22:46:19.
