data_PCOD9314908
_publ_section_title
;
Structure prediction by ZEFSAII (Michael W. Deem and Ramdas Pophale) SiO2 
 PCOD9314908
Probable space group: P 21 21 21
;
_chemical_formula_sum "Si O2"
_cell_formula_units_Z 28
_cell_length_a 7.096102
_cell_length_b 17.224143
_cell_length_c 9.496175
_cell_angle_alpha 90.000000
_cell_angle_beta 90.000000
_cell_angle_gamma 90.000000
_cell_volume 1160.663110
_symmetry_space_group_name_H-M "P 21 21 21"
_symmetry_group_IT_number 19
_symmetry_cell_setting 'orthorhombic'
loop_
_space_group_symop_operation_xyz
x,y,z
1/2-x,-y,1/2+z
1/2+x,1/2-y,-z
-x,1/2+y,1/2-z
loop_
_atom_site_type_symbol
_atom_site_label
_atom_site_fract_x
_atom_site_fract_y
_atom_site_fract_z
Si Si1 0.520711 0.075838 0.602243
Si Si2 0.009653 0.832465 0.437483
Si Si3 0.334409 0.449391 0.117131
Si Si4 0.392497 0.348722 0.465064
Si Si5 0.402813 0.843363 0.526519
Si Si6 0.045172 0.552798 0.224538
Si Si7 0.274867 0.203175 0.642595
O O1 0.713496 0.125182 0.627288
O O2 0.372696 0.137391 0.545623
O O3 0.584646 0.012194 0.491775
O O4 0.426727 0.022397 0.724591
O O5 0.180866 0.859505 0.535645
O O6 0.116727 0.812817 0.289085
O O7 0.845908 0.896694 0.428629
O O8 0.928054 0.749220 0.484793
O O9 0.251387 0.510200 0.232890
O O10 0.503033 0.387095 0.106695
O O11 0.469669 0.417951 0.565060
O O12 0.320513 0.286229 0.578260
O O13 0.554548 0.310950 0.372642
O O14 0.504404 0.878517 0.665622
#
# Coordination Sequence:
#
# PCOD9314908 Si02
#       7
#     4   4   4   4   4   4   4
#     4  10  23  44  67  96 141 175 221 288 344 403
#     4  12  24  43  71 101 136 178 239 285 340 416
#     4  10  23  44  67  96 141 175 221 288 344 403
#     4  11  24  43  71 100 134 186 230 283 351 405
#     4  11  24  43  71 100 134 186 230 283 351 405
#     4  10  22  44  66  96 144 168 224 288 338 412
#     4  12  24  43  71 101 136 178 239 285 340 416
#
# _framework density 24.124140000000001
#
# number of rings (size 3 to 8) (size 9 to 14) (size 15 to 20)
#    0.000    1.143    5.714    0.000    2.000    4.571 
#    2.571    5.714    0.000    0.000    0.000    0.000 
#    0.000    0.000    0.000    0.000    0.000    0.000 
#
# Total GULP energy -156038.934033 kJ/mol
# GULP energy per Si atom -5572.819073 kJ/mol
# Density = 2.406923 g / cm^3
# Si number density = 24.124140 Si / 1000 Ang^3
#
#
#
# Elastic Constant Matrix: (Units=GPa)
#
#
# Indices 1 2 3 4 5 6 
#
# 1 87.8999 23.5391 -4.4158 0.0000 0.0000 0.0000
# 2 23.5391 114.6140 3.0749 0.0000 0.0000 0.0000
# 3 -4.4158 3.0749 41.8893 0.0000 0.0000 0.0000
# 4 0.0000 0.0000 0.0000 32.2071 0.0000 0.0000
# 5 0.0000 0.0000 0.0000 0.0000 21.5257 0.0000
# 6 0.0000 0.0000 0.0000 0.0000 0.0000 42.6835
#
#
#
# Elastic Compliance Matrix: (Units=1/GPa)
#
#
# Indices 1 2 3 4 5 6 
#
# 1 0.012128 -0.002530 0.001464 0.000000 0.000000 0.000000
# 2 -0.002530 0.009270 -0.000947 0.000000 0.000000 0.000000
# 3 0.001464 -0.000947 0.024096 0.000000 0.000000 0.000000
# 4 0.000000 0.000000 0.000000 0.031049 0.000000 0.000000
# 5 0.000000 0.000000 0.000000 0.000000 0.046456 0.000000
# 6 0.000000 0.000000 0.000000 0.000000 0.000000 0.023428
#
#
# Mechanical properties :
#
#
# Convention : Reuss Voigt Hill
#
# Bulk Modulus (GPa) = 24.11503 32.08882 28.10192
# Shear Modulus (GPa) = 30.43659 34.09693 32.26676
#
# Velocity S-wave (km/s) = 3.55585 3.76359 3.66119
# Velocity P-wave (km/s) = 5.18427 5.67597 5.43568
#
# Compressibility (1/GPa) = 0.04146792
#
# Stress axis : x y z
#
# Youngs Moduli (GPa) = 82.45609 107.87531 41.50008
#
# Poissons Ratio (x) = 0.27293 -0.06076
# Poissons Ratio (y) = 0.20862 0.03931
# Poissons Ratio (z) = -0.12073 0.10218
#
# Static dielectric constant tensor:
#      x y z
#    x 1.955280 0.000000 0.000000 
#    y 0.000000 1.940540 0.000000 
#    z 0.000000 0.000000 2.124610 
# 
# From -- ./inp_files/1751.got.cif
#   From: 2010.05.17/outbox.cif.g08.bks.cpg/sg19_1_cif.got.tgz:1751.got - 2010.06.03 22:46:19.
