data_PCOD9314352
_publ_section_title
;
Structure prediction by ZEFSAII (Michael W. Deem and Ramdas Pophale) SiO2 
 PCOD9314352
Probable space group: P 21 21 21
;
_chemical_formula_sum "Si O2"
_cell_formula_units_Z 32
_cell_length_a 16.275068
_cell_length_b 15.461716
_cell_length_c 5.319899
_cell_angle_alpha 90.000000
_cell_angle_beta 90.000000
_cell_angle_gamma 90.000000
_cell_volume 1338.701934
_symmetry_space_group_name_H-M "P 21 21 21"
_symmetry_group_IT_number 19
_symmetry_cell_setting 'orthorhombic'
loop_
_space_group_symop_operation_xyz
x,y,z
1/2-x,-y,1/2+z
1/2+x,1/2-y,-z
-x,1/2+y,1/2-z
loop_
_atom_site_type_symbol
_atom_site_label
_atom_site_fract_x
_atom_site_fract_y
_atom_site_fract_z
Si Si1 0.093587 0.139328 0.584547
Si Si2 0.237606 0.140557 0.897865
Si Si3 0.610472 0.681330 0.338688
Si Si4 0.327544 0.425457 0.760480
Si Si5 0.148062 0.997352 0.215992
Si Si6 0.025567 0.979699 0.834228
Si Si7 0.848257 0.962578 0.739072
Si Si8 0.048545 0.730831 0.172858
O O1 0.161631 0.185303 0.758190
O O2 0.145362 0.066647 0.438065
O O3 0.042689 0.198314 0.395391
O O4 0.028648 0.078666 0.736960
O O5 0.308588 0.095100 0.732297
O O6 0.293018 0.193879 0.093858
O O7 0.195499 0.054696 0.010730
O O8 0.593573 0.579449 0.302182
O O9 0.556466 0.714228 0.573146
O O10 0.582263 0.724894 0.080891
O O11 0.344480 0.493174 0.534854
O O12 0.231041 0.401592 0.737445
O O13 0.391187 0.349233 0.725857
O O14 0.338215 0.467645 0.034947
O O15 0.054679 0.984032 0.121548
O O16 0.940453 0.931838 0.785828
#
# Coordination Sequence:
#
# PCOD9314352 Si02
#       8
#     4   4   4   4   4   4   4   4
#     4  11  24  41  77 101 134 184 245 292 336 438
#     4  11  22  41  68 105 135 178 229 296 358 417
#     4  12  28  45  67  97 152 190 223 288 369 428
#     4  10  21  42  69  99 130 178 230 295 340 402
#     4  11  20  38  74 106 133 171 233 297 362 400
#     4  11  23  41  70 103 134 181 233 301 339 416
#     4  10  21  39  73 101 127 166 245 296 332 389
#     4  12  27  47  66 100 145 196 226 283 368 420
#
# _framework density 23.903752000000001
#
# number of rings (size 3 to 8) (size 9 to 14) (size 15 to 20)
#    0.000    1.000    3.750    3.000    5.250    0.000 
#    2.250    0.000    2.750    0.000    0.000    0.000 
#    0.000    0.000    0.000    0.000    0.000    0.000 
#
# Total GULP energy -178773.852240 kJ/mol
# GULP energy per Si atom -5586.682883 kJ/mol
# Density = 2.384935 g / cm^3
# Si number density = 23.903752 Si / 1000 Ang^3
#
#
#
# Elastic Constant Matrix: (Units=GPa)
#
#
# Indices 1 2 3 4 5 6 
#
# 1 106.2605 -0.3404 6.6298 0.0000 0.0000 0.0000
# 2 -0.3404 38.4789 16.5724 0.0000 0.0000 0.0000
# 3 6.6298 16.5724 89.6548 0.0000 0.0000 0.0000
# 4 0.0000 0.0000 0.0000 -1.8731 0.0000 0.0000
# 5 0.0000 0.0000 0.0000 0.0000 36.0102 0.0000
# 6 0.0000 0.0000 0.0000 0.0000 0.0000 19.8144
#
#
#
# Elastic Compliance Matrix: (Units=1/GPa)
#
#
# Indices 1 2 3 4 5 6 
#
# 1 0.009461 0.000418 -0.000777 0.000000 0.000000 0.000000
# 2 0.000418 0.028255 -0.005254 0.000000 0.000000 0.000000
# 3 -0.000777 -0.005254 0.012182 0.000000 0.000000 0.000000
# 4 0.000000 0.000000 0.000000 -0.533862 0.000000 0.000000
# 5 0.000000 0.000000 0.000000 0.000000 0.027770 0.000000
# 6 0.000000 0.000000 0.000000 0.000000 0.000000 0.050468
#
#
# Mechanical properties :
#
#
# Convention : Reuss Voigt Hill
#
# Bulk Modulus (GPa) = 25.85776 31.12423 28.49099
# Shear Modulus (GPa) = -13.10236 24.89245 5.89505
#
# Velocity S-wave (km/s) = -2.34376 3.23051 1.57210
# Velocity P-wave (km/s) = 1.87528 5.19268 3.90388
#
# Compressibility (1/GPa) = 0.03867311
#
# Stress axis : x y z
#
# Youngs Moduli (GPa) = 105.70098 35.39235 82.08511
#
# Poissons Ratio (x) = -0.01480 0.06377
# Poissons Ratio (y) = -0.04421 0.43125
# Poissons Ratio (z) = 0.08212 0.18594
#
# Static dielectric constant tensor:
#      x y z
#    x 2.000610 0.000000 0.000000 
#    y 0.000000 1.890800 0.000000 
#    z 0.000000 0.000000 2.047100 
# 
# From -- ./inp_files/1607.got.cif
#   From: 2010.05.17/outbox.cif.g08.bks.cpg/sg19_1_cif.got.tgz:1607.got - 2010.06.03 22:46:19.
