data_PCOD9314580
_publ_section_title
;
Structure prediction by ZEFSAII (Michael W. Deem and Ramdas Pophale) SiO2 
 PCOD9314580
Probable space group: P 21 21 21
;
_chemical_formula_sum "Si O2"
_cell_formula_units_Z 28
_cell_length_a 9.132323
_cell_length_b 23.112422
_cell_length_c 4.963836
_cell_angle_alpha 90.000000
_cell_angle_beta 90.000000
_cell_angle_gamma 90.000000
_cell_volume 1047.717376
_symmetry_space_group_name_H-M "P 21 21 21"
_symmetry_group_IT_number 19
_symmetry_cell_setting 'orthorhombic'
loop_
_space_group_symop_operation_xyz
x,y,z
1/2-x,-y,1/2+z
1/2+x,1/2-y,-z
-x,1/2+y,1/2-z
loop_
_atom_site_type_symbol
_atom_site_label
_atom_site_fract_x
_atom_site_fract_y
_atom_site_fract_z
Si Si1 0.019067 0.224378 0.524975
Si Si2 0.157203 0.733594 0.469156
Si Si3 0.661558 0.934407 0.962341
Si Si4 0.766818 0.644379 0.310421
Si Si5 0.954385 0.015413 0.968812
Si Si6 0.134727 0.915594 0.204747
Si Si7 0.644455 0.160114 0.708185
O O1 0.977806 0.214766 0.835050
O O2 0.101696 0.172294 0.370994
O O3 0.090627 0.287031 0.474763
O O4 0.877174 0.234275 0.341564
O O5 0.195669 0.797969 0.563826
O O6 0.288153 0.691122 0.534777
O O7 0.808805 0.974186 0.960540
O O8 0.725152 0.875522 0.073047
O O9 0.541361 0.961680 0.165034
O O10 0.592565 0.933175 0.668116
O O11 0.755480 0.598915 0.564117
O O12 0.675298 0.614043 0.076249
O O13 0.084188 0.979820 0.112484
O O14 0.984302 0.883480 0.292676
#
# Coordination Sequence:
#
# PCOD9314580 Si02
#       7
#     4   4   4   4   4   4   4
#     4  11  23  38  53  79 112 148 185 220 253 324
#     4  11  22  37  53  79 108 148 182 220 261 317
#     4   9  18  32  48  79 106 140 166 216 271 325
#     4  11  21  35  55  78 109 145 184 216 265 318
#     4   9  18  31  51  76 111 132 173 214 268 331
#     4  11  20  36  56  85 109 146 173 222 276 318
#     4  10  22  35  58  80 115 143 177 220 276 321
#
# _framework density 26.724764
#
# number of rings (size 3 to 8) (size 9 to 14) (size 15 to 20)
#    0.000    1.714    2.857    1.714    0.000   10.286 
#    0.000    0.000    0.000    0.000    0.000   20.000 
#    0.000    0.000    0.000    0.000    0.000    0.000 
#
# Total GULP energy -156729.373991 kJ/mol
# GULP energy per Si atom -5597.477643 kJ/mol
# Density = 2.666394 g / cm^3
# Si number density = 26.724764 Si / 1000 Ang^3
#
#
#
# Elastic Constant Matrix: (Units=GPa)
#
#
# Indices 1 2 3 4 5 6 
#
# 1 40.3229 16.0648 8.2545 0.0000 0.0000 0.0000
# 2 16.0648 83.6372 9.9665 0.0000 0.0000 0.0000
# 3 8.2545 9.9665 109.2181 0.0000 0.0000 0.0000
# 4 0.0000 0.0000 0.0000 35.3902 0.0000 0.0000
# 5 0.0000 0.0000 0.0000 0.0000 44.5164 0.0000
# 6 0.0000 0.0000 0.0000 0.0000 0.0000 42.5921
#
#
#
# Elastic Compliance Matrix: (Units=1/GPa)
#
#
# Indices 1 2 3 4 5 6 
#
# 1 0.027126 -0.005021 -0.001592 0.000000 0.000000 0.000000
# 2 -0.005021 0.013017 -0.000808 0.000000 0.000000 0.000000
# 3 -0.001592 -0.000808 0.009350 0.000000 0.000000 0.000000
# 4 0.000000 0.000000 0.000000 0.028256 0.000000 0.000000
# 5 0.000000 0.000000 0.000000 0.000000 0.022464 0.000000
# 6 0.000000 0.000000 0.000000 0.000000 0.000000 0.023479
#
#
# Mechanical properties :
#
#
# Convention : Reuss Voigt Hill
#
# Bulk Modulus (GPa) = 28.85906 33.52775 31.19341
# Shear Modulus (GPa) = 33.31472 37.75925 35.53698
#
# Velocity S-wave (km/s) = 3.53453 3.76293 3.65052
# Velocity P-wave (km/s) = 5.24207 5.60823 5.42824
#
# Compressibility (1/GPa) = 0.03465116
#
# Stress axis : x y z
#
# Youngs Moduli (GPa) = 36.86517 76.82223 106.95095
#
# Poissons Ratio (x) = 0.38569 0.17026
# Poissons Ratio (y) = 0.18508 0.08646
# Poissons Ratio (z) = 0.05869 0.06210
#
# Static dielectric constant tensor:
#      x y z
#    x 2.208310 0.000000 0.000000 
#    y 0.000000 2.083410 0.000000 
#    z 0.000000 0.000000 1.987700 
# 
# From -- ./inp_files/1272.got.cif
#   From: 2010.05.17/outbox.cif.g08.bks.cpg/sg19_1_cif.got.tgz:1272.got - 2010.06.03 22:46:19.
