data_PCOD9314142
_publ_section_title
;
Structure prediction by ZEFSAII (Michael W. Deem and Ramdas Pophale) SiO2 
 PCOD9314142
Probable space group: P 21 21 21
;
_chemical_formula_sum "Si O2"
_cell_formula_units_Z 32
_cell_length_a 7.439800
_cell_length_b 28.735542
_cell_length_c 5.543075
_cell_angle_alpha 90.000000
_cell_angle_beta 90.000000
_cell_angle_gamma 90.000000
_cell_volume 1185.035631
_symmetry_space_group_name_H-M "P 21 21 21"
_symmetry_group_IT_number 19
_symmetry_cell_setting 'orthorhombic'
loop_
_space_group_symop_operation_xyz
x,y,z
1/2-x,-y,1/2+z
1/2+x,1/2-y,-z
-x,1/2+y,1/2-z
loop_
_atom_site_type_symbol
_atom_site_label
_atom_site_fract_x
_atom_site_fract_y
_atom_site_fract_z
Si Si1 0.109615 0.322128 0.432562
Si Si2 0.664248 0.304612 0.102761
Si Si3 0.303164 0.056937 0.224150
Si Si4 0.213970 0.584421 0.699574
Si Si5 0.885515 0.619024 0.942568
Si Si6 0.471456 0.025302 0.724344
Si Si7 0.350070 0.348328 0.804124
Si Si8 0.112176 0.759197 0.808617
O O1 0.158397 0.371741 0.299184
O O2 0.157479 0.333182 0.712742
O O3 0.243182 0.282197 0.337156
O O4 0.921522 0.294097 0.463907
O O5 0.707556 0.353610 0.229783
O O6 0.582937 0.263817 0.266097
O O7 0.474935 0.316972 0.966578
O O8 0.812431 0.287884 0.917443
O O9 0.429146 0.041187 0.449124
O O10 0.236940 0.105466 0.333697
O O11 0.126357 0.024135 0.235881
O O12 0.381840 0.052615 0.955888
O O13 0.018785 0.580621 0.827351
O O14 0.321186 0.536968 0.731219
O O15 0.171262 0.601801 0.430454
O O16 0.035630 0.651327 0.059893
#
# Coordination Sequence:
#
# PCOD9314142 Si02
#       8
#     4   4   4   4   4   4   4   4
#     4  11  24  43  64  97 135 181 241 291 360 417
#     4  11  24  43  64  97 135 181 241 291 360 417
#     4  10  24  47  72 107 150 188 233 294 362 442
#     4  10  23  44  69 101 137 183 237 294 359 429
#     4  10  23  44  69 101 137 183 237 294 359 429
#     4  10  24  47  72 107 150 188 233 294 362 442
#     4  10  20  44  64  95 136 178 230 303 350 426
#     4  12  24  44  66  89 140 186 232 299 354 418
#
# _framework density 27.003405999999998
#
# number of rings (size 3 to 8) (size 9 to 14) (size 15 to 20)
#    0.000    1.500    3.750    1.500    7.000    2.000 
#    2.250    0.000    0.000    0.000    0.000    0.000 
#    0.000    0.000    0.000    0.000    0.000    0.000 
#
# Total GULP energy -178667.967223 kJ/mol
# GULP energy per Si atom -5583.373976 kJ/mol
# Density = 2.694194 g / cm^3
# Si number density = 27.003406 Si / 1000 Ang^3
#
#
#
# Elastic Constant Matrix: (Units=GPa)
#
#
# Indices 1 2 3 4 5 6 
#
# 1 64.6632 17.3736 13.1037 0.0000 0.0000 0.0000
# 2 17.3736 17.7409 21.1735 0.0000 0.0000 0.0000
# 3 13.1037 21.1735 75.8888 0.0000 0.0000 0.0000
# 4 0.0000 0.0000 0.0000 47.2637 0.0000 0.0000
# 5 0.0000 0.0000 0.0000 0.0000 51.4010 0.0000
# 6 0.0000 0.0000 0.0000 0.0000 0.0000 54.4232
#
#
#
# Elastic Compliance Matrix: (Units=1/GPa)
#
#
# Indices 1 2 3 4 5 6 
#
# 1 0.021506 -0.024930 0.003242 0.000000 0.000000 0.000000
# 2 -0.024930 0.113407 -0.027337 0.000000 0.000000 0.000000
# 3 0.003242 -0.027337 0.020244 0.000000 0.000000 0.000000
# 4 0.000000 0.000000 0.000000 0.021158 0.000000 0.000000
# 5 0.000000 0.000000 0.000000 0.000000 0.019455 0.000000
# 6 0.000000 0.000000 0.000000 0.000000 0.000000 0.018375
#
#
# Mechanical properties :
#
#
# Convention : Reuss Voigt Hill
#
# Bulk Modulus (GPa) = 17.51062 29.06606 23.28834
# Shear Modulus (GPa) = 15.09522 37.72704 26.41113
#
# Velocity S-wave (km/s) = 2.36691 3.74186 3.13080
# Velocity P-wave (km/s) = 3.73742 5.42733 4.65963
#
# Compressibility (1/GPa) = 0.05710821
#
# Stress axis : x y z
#
# Youngs Moduli (GPa) = 46.49876 8.81777 49.39630
#
# Poissons Ratio (x) = 0.21983 -0.16016
# Poissons Ratio (y) = 1.15923 1.35033
# Poissons Ratio (z) = -0.15076 0.24105
#
# Static dielectric constant tensor:
#      x y z
#    x 2.198460 0.000000 0.000000 
#    y 0.000000 2.190760 0.000000 
#    z 0.000000 0.000000 2.152920 
# 
# From -- ./inp_files/729.got.cif
#   From: 2010.05.17/outbox.cif.g08.bks.cpg/sg19_1_cif.got.tgz:729.got - 2010.06.03 22:46:19.
