data_PCOD9314137
_publ_section_title
;
Structure prediction by ZEFSAII (Michael W. Deem and Ramdas Pophale) SiO2 
 PCOD9314137
Probable space group: P 21 21 21
;
_chemical_formula_sum "Si O2"
_cell_formula_units_Z 32
_cell_length_a 8.972510
_cell_length_b 10.791784
_cell_length_c 14.732743
_cell_angle_alpha 90.000000
_cell_angle_beta 90.000000
_cell_angle_gamma 90.000000
_cell_volume 1426.562516
_symmetry_space_group_name_H-M "P 21 21 21"
_symmetry_group_IT_number 19
_symmetry_cell_setting 'orthorhombic'
loop_
_space_group_symop_operation_xyz
x,y,z
1/2-x,-y,1/2+z
1/2+x,1/2-y,-z
-x,1/2+y,1/2-z
loop_
_atom_site_type_symbol
_atom_site_label
_atom_site_fract_x
_atom_site_fract_y
_atom_site_fract_z
Si Si1 0.619856 0.463657 0.118469
Si Si2 0.448358 0.948887 0.879221
Si Si3 0.185750 0.312093 0.416526
Si Si4 0.131514 0.288172 0.793791
Si Si5 0.861153 0.652677 0.438183
Si Si6 0.478892 0.709410 0.106206
Si Si7 0.913175 0.053928 0.196132
Si Si8 0.514966 0.619389 0.457858
O O1 0.792467 0.482485 0.141065
O O2 0.573886 0.331842 0.153406
O O3 0.523826 0.577022 0.150371
O O4 0.603882 0.457174 0.009935
O O5 0.407445 0.804027 0.875832
O O6 0.564952 0.981575 0.801212
O O7 0.490067 0.995576 0.980240
O O8 0.124888 0.312562 0.519668
O O9 0.361603 0.274914 0.412695
O O10 0.146918 0.437781 0.362614
O O11 0.112622 0.240955 0.690990
O O12 0.300078 0.331071 0.807935
O O13 0.050240 0.392875 0.856479
O O14 0.684309 0.662506 0.442746
O O15 0.933043 0.606816 0.345272
O O16 0.932037 0.778466 0.478678
#
# Coordination Sequence:
#
# PCOD9314137 Si02
#       8
#     4   4   4   4   4   4   4   4
#     4   9  21  47  65  96 139 182 227 286 356 410
#     4  10  25  43  71  98 140 188 231 287 360 423
#     4  11  28  47  70 105 143 187 234 292 361 420
#     4  11  27  43  73 107 140 186 241 296 350 423
#     4  10  20  43  70  96 138 181 230 294 348 419
#     4  11  26  48  70 101 144 186 230 291 357 428
#     4  12  26  42  70 106 139 185 243 289 346 435
#     4  10  23  43  71 103 137 185 238 299 356 412
#
# _framework density 22.431546000000001
#
# number of rings (size 3 to 8) (size 9 to 14) (size 15 to 20)
#    0.000    1.500    1.250    2.250   12.250    0.000 
#    2.250    0.000    0.000    0.000    0.000    0.000 
#    0.000    0.000    0.000    0.000    0.000    0.000 
#
# Total GULP energy -178470.083046 kJ/mol
# GULP energy per Si atom -5577.190095 kJ/mol
# Density = 2.238049 g / cm^3
# Si number density = 22.431546 Si / 1000 Ang^3
#
#
#
# Elastic Constant Matrix: (Units=GPa)
#
#
# Indices 1 2 3 4 5 6 
#
# 1 53.3916 16.6380 42.7398 0.0000 0.0000 0.0000
# 2 16.6380 63.0136 12.0418 0.0000 0.0000 0.0000
# 3 42.7398 12.0418 127.1269 0.0000 0.0000 0.0000
# 4 0.0000 0.0000 0.0000 19.0249 0.0000 0.0000
# 5 0.0000 0.0000 0.0000 0.0000 26.5587 0.0000
# 6 0.0000 0.0000 0.0000 0.0000 0.0000 17.5340
#
#
#
# Elastic Compliance Matrix: (Units=1/GPa)
#
#
# Indices 1 2 3 4 5 6 
#
# 1 0.027427 -0.005581 -0.008692 0.000000 0.000000 0.000000
# 2 -0.005581 0.017298 0.000238 0.000000 0.000000 0.000000
# 3 -0.008692 0.000238 0.010766 0.000000 0.000000 0.000000
# 4 0.000000 0.000000 0.000000 0.052563 0.000000 0.000000
# 5 0.000000 0.000000 0.000000 0.000000 0.037652 0.000000
# 6 0.000000 0.000000 0.000000 0.000000 0.000000 0.057032
#
#
# Mechanical properties :
#
#
# Convention : Reuss Voigt Hill
#
# Bulk Modulus (GPa) = 36.46963 42.93014 39.69988
# Shear Modulus (GPa) = 20.83789 24.09770 22.46779
#
# Velocity S-wave (km/s) = 3.05118 3.28117 3.16827
# Velocity P-wave (km/s) = 5.35784 5.79091 5.57858
#
# Compressibility (1/GPa) = 0.02742008
#
# Stress axis : x y z
#
# Youngs Moduli (GPa) = 36.46088 57.81129 92.88568
#
# Poissons Ratio (x) = 0.32262 0.80738
# Poissons Ratio (y) = 0.20347 -0.02208
# Poissons Ratio (z) = 0.31692 -0.01374
#
# Static dielectric constant tensor:
#      x y z
#    x 1.815070 0.000000 0.000000 
#    y 0.000000 1.866130 0.000000 
#    z 0.000000 0.000000 1.929360 
# 
# From -- ./inp_files/5918.got.cif
#   From: 2010.05.17/outbox.cif.g08.bks.cpg/sg19_3_cif.got.tgz:5918.got - 2010.06.03 22:46:19.
