data_PCOD9314033
_publ_section_title
;
Structure prediction by ZEFSAII (Michael W. Deem and Ramdas Pophale) SiO2 
 PCOD9314033
Probable space group: P 21 21 21
;
_chemical_formula_sum "Si O2"
_cell_formula_units_Z 20
_cell_length_a 7.821246
_cell_length_b 11.856066
_cell_length_c 8.044933
_cell_angle_alpha 90.000000
_cell_angle_beta 90.000000
_cell_angle_gamma 90.000000
_cell_volume 746.000272
_symmetry_space_group_name_H-M "P 21 21 21"
_symmetry_group_IT_number 19
_symmetry_cell_setting 'orthorhombic'
loop_
_space_group_symop_operation_xyz
x,y,z
1/2-x,-y,1/2+z
1/2+x,1/2-y,-z
-x,1/2+y,1/2-z
loop_
_atom_site_type_symbol
_atom_site_label
_atom_site_fract_x
_atom_site_fract_y
_atom_site_fract_z
Si Si1 0.792452 0.423210 0.869453
Si Si2 0.371656 0.483047 0.546091
Si Si3 0.203204 0.829656 0.227166
Si Si4 0.078057 0.624425 0.410618
Si Si5 0.069716 0.750237 0.894183
O O1 0.873782 0.253845 0.125445
O O2 0.617763 0.388754 0.962902
O O3 0.961244 0.455743 0.972213
O O4 0.744060 0.538512 0.772884
O O5 0.209709 0.564442 0.532879
O O6 0.351185 0.371966 0.431953
O O7 0.399004 0.437183 0.731784
O O8 0.379251 0.769140 0.171589
O O9 0.074060 0.813424 0.071028
O O10 0.169490 0.825995 0.763284
#
# Coordination Sequence:
#
# PCOD9314033 Si02
#       5
#     4   4   4   4   4
#     4  11  22  38  67  96 130 169 225 280 321 398
#     4  10  24  43  66 100 128 179 224 276 333 405
#     4  10  22  39  67  95 126 179 227 271 339 401
#     4  11  24  42  70  97 134 177 226 274 343 397
#     4  10  20  40  64  92 132 170 230 273 328 409
#
# _framework density 26.809640000000002
#
# number of rings (size 3 to 8) (size 9 to 14) (size 15 to 20)
#    0.000    1.600    2.000    3.600    8.400    1.600 
#    0.000    4.000    0.000    0.000    0.000    0.000 
#    0.000    0.000    0.000    0.000    0.000    0.000 
#
# Total GULP energy -112334.509761 kJ/mol
# GULP energy per Si atom -5616.725488 kJ/mol
# Density = 2.674862 g / cm^3
# Si number density = 26.809640 Si / 1000 Ang^3
#
#
#
# Elastic Constant Matrix: (Units=GPa)
#
#
# Indices 1 2 3 4 5 6 
#
# 1 169.3517 77.2274 16.6524 0.0000 0.0000 0.0000
# 2 77.2274 141.8979 53.2729 0.0000 0.0000 0.0000
# 3 16.6524 53.2729 92.6922 0.0000 0.0000 0.0000
# 4 0.0000 0.0000 0.0000 51.7196 0.0000 0.0000
# 5 0.0000 0.0000 0.0000 0.0000 40.6424 0.0000
# 6 0.0000 0.0000 0.0000 0.0000 0.0000 49.7638
#
#
#
# Elastic Compliance Matrix: (Units=1/GPa)
#
#
# Indices 1 2 3 4 5 6 
#
# 1 0.007986 -0.004855 0.001356 0.000000 0.000000 0.000000
# 2 -0.004855 0.011938 -0.005989 0.000000 0.000000 0.000000
# 3 0.001356 -0.005989 0.013987 0.000000 0.000000 0.000000
# 4 0.000000 0.000000 0.000000 0.019335 0.000000 0.000000
# 5 0.000000 0.000000 0.000000 0.000000 0.024605 0.000000
# 6 0.000000 0.000000 0.000000 0.000000 0.000000 0.020095
#
#
# Mechanical properties :
#
#
# Convention : Reuss Voigt Hill
#
# Bulk Modulus (GPa) = 66.96167 77.58303 72.27235
# Shear Modulus (GPa) = 41.01724 45.54444 43.28084
#
# Velocity S-wave (km/s) = 3.91569 4.12613 4.02229
# Velocity P-wave (km/s) = 6.74348 7.19036 6.97050
#
# Compressibility (1/GPa) = 0.01493392
#
# Stress axis : x y z
#
# Youngs Moduli (GPa) = 125.22584 83.76521 71.49570
#
# Poissons Ratio (x) = 0.40669 -0.09693
# Poissons Ratio (y) = 0.60798 0.42818
# Poissons Ratio (z) = -0.16977 0.50167
#
# Static dielectric constant tensor:
#      x y z
#    x 2.027160 0.000000 0.000000 
#    y 0.000000 2.047790 0.000000 
#    z 0.000000 0.000000 2.095330 
# 
# From -- ./inp_files/2600.got.cif
#   From: 2010.05.17/outbox.cif.g08.bks.cpg/sg19_2_cif.got.tgz:2600.got - 2010.06.03 22:46:19.
