data_PCOD9314854
_publ_section_title
;
Structure prediction by ZEFSAII (Michael W. Deem and Ramdas Pophale) SiO2 
 PCOD9314854
Probable space group: P 21 21 21
;
_chemical_formula_sum "Si O2"
_cell_formula_units_Z 28
_cell_length_a 9.963689
_cell_length_b 10.609345
_cell_length_c 13.172883
_cell_angle_alpha 90.000000
_cell_angle_beta 90.000000
_cell_angle_gamma 90.000000
_cell_volume 1392.481936
_symmetry_space_group_name_H-M "P 21 21 21"
_symmetry_group_IT_number 19
_symmetry_cell_setting 'orthorhombic'
loop_
_space_group_symop_operation_xyz
x,y,z
1/2-x,-y,1/2+z
1/2+x,1/2-y,-z
-x,1/2+y,1/2-z
loop_
_atom_site_type_symbol
_atom_site_label
_atom_site_fract_x
_atom_site_fract_y
_atom_site_fract_z
Si Si1 0.021898 0.500419 0.930652
Si Si2 0.116381 0.736335 0.552825
Si Si3 0.848654 0.126104 0.387639
Si Si4 0.248675 0.129855 0.498159
Si Si5 0.881743 0.619275 0.436099
Si Si6 0.702280 0.932321 0.259872
Si Si7 0.128537 0.199772 0.291346
O O1 0.106099 0.547146 0.835256
O O2 0.967763 0.360012 0.916364
O O3 0.890933 0.585482 0.951501
O O4 0.107661 0.515997 0.033856
O O5 0.262671 0.789771 0.520583
O O6 0.133077 0.645024 0.648835
O O7 0.028001 0.668084 0.467395
O O8 0.786830 0.236833 0.454647
O O9 0.979723 0.182346 0.333705
O O10 0.752449 0.063938 0.305229
O O11 0.225549 0.143972 0.377960
O O12 0.354718 0.020727 0.523508
O O13 0.861403 0.628085 0.315346
O O14 0.827630 0.844008 0.227187
#
# Coordination Sequence:
#
# PCOD9314854 Si02
#       7
#     4   4   4   4   4   4   4
#     4  10  22  43  61  95 138 166 227 277 330 403
#     4  10  23  42  65  96 134 175 223 280 330 398
#     4  11  24  41  68  96 133 179 223 277 339 407
#     4  10  23  43  66  96 136 174 221 282 334 398
#     4  10  23  44  68  98 135 180 223 283 339 403
#     4  11  24  41  67  97 133 175 226 277 338 404
#     4  10  23  44  65  96 135 173 223 276 336 407
#
# _framework density 20.107983000000001
#
# number of rings (size 3 to 8) (size 9 to 14) (size 15 to 20)
#    0.000    1.714    1.429    1.714    4.000    8.000 
#    0.000    0.000    0.000    0.000    0.000    0.000 
#    0.000    0.000    0.000    0.000    0.000    0.000 
#
# Total GULP energy -156476.149018 kJ/mol
# GULP energy per Si atom -5588.433894 kJ/mol
# Density = 2.006222 g / cm^3
# Si number density = 20.107983 Si / 1000 Ang^3
#
#
#
# Elastic Constant Matrix: (Units=GPa)
#
#
# Indices 1 2 3 4 5 6 
#
# 1 44.7231 27.0286 42.1792 0.0000 0.0000 0.0000
# 2 27.0286 72.8955 41.9317 0.0000 0.0000 0.0000
# 3 42.1792 41.9317 102.6327 0.0000 0.0000 0.0000
# 4 0.0000 0.0000 0.0000 21.2778 0.0000 0.0000
# 5 0.0000 0.0000 0.0000 0.0000 29.3020 0.0000
# 6 0.0000 0.0000 0.0000 0.0000 0.0000 25.3508
#
#
#
# Elastic Compliance Matrix: (Units=1/GPa)
#
#
# Indices 1 2 3 4 5 6 
#
# 1 0.038959 -0.006844 -0.013215 0.000000 0.000000 0.000000
# 2 -0.006844 0.019135 -0.005005 0.000000 0.000000 0.000000
# 3 -0.013215 -0.005005 0.017219 0.000000 0.000000 0.000000
# 4 0.000000 0.000000 0.000000 0.046997 0.000000 0.000000
# 5 0.000000 0.000000 0.000000 0.000000 0.034127 0.000000
# 6 0.000000 0.000000 0.000000 0.000000 0.000000 0.039446
#
#
# Mechanical properties :
#
#
# Convention : Reuss Voigt Hill
#
# Bulk Modulus (GPa) = 39.70530 49.17005 44.43767
# Shear Modulus (GPa) = 19.65345 22.46024 21.05684
#
# Velocity S-wave (km/s) = 3.12972 3.34575 3.23954
# Velocity P-wave (km/s) = 5.73142 6.27945 6.01168
#
# Compressibility (1/GPa) = 0.02518555
#
# Stress axis : x y z
#
# Youngs Moduli (GPa) = 25.66779 52.26028 58.07390
#
# Poissons Ratio (x) = 0.35766 0.76745
# Poissons Ratio (y) = 0.17567 0.29067
# Poissons Ratio (z) = 0.33920 0.26157
#
# Static dielectric constant tensor:
#      x y z
#    x 1.723080 0.000000 0.000000 
#    y 0.000000 1.695500 0.000000 
#    z 0.000000 0.000000 1.684230 
# 
# From -- ./inp_files/4584.got.cif
#   From: 2010.05.17/outbox.cif.g08.bks.cpg/sg19_3_cif.got.tgz:4584.got - 2010.06.03 22:46:19.
