data_PCOD9314620
_publ_section_title
;
Structure prediction by ZEFSAII (Michael W. Deem and Ramdas Pophale) SiO2 
 PCOD9314620
Probable space group: P 21 21 21
;
_chemical_formula_sum "Si O2"
_cell_formula_units_Z 20
_cell_length_a 10.547235
_cell_length_b 9.562310
_cell_length_c 7.653103
_cell_angle_alpha 90.000000
_cell_angle_beta 90.000000
_cell_angle_gamma 90.000000
_cell_volume 771.860826
_symmetry_space_group_name_H-M "P 21 21 21"
_symmetry_group_IT_number 19
_symmetry_cell_setting 'orthorhombic'
loop_
_space_group_symop_operation_xyz
x,y,z
1/2-x,-y,1/2+z
1/2+x,1/2-y,-z
-x,1/2+y,1/2-z
loop_
_atom_site_type_symbol
_atom_site_label
_atom_site_fract_x
_atom_site_fract_y
_atom_site_fract_z
Si Si1 0.374040 0.889369 0.349011
Si Si2 0.131457 0.726041 0.234425
Si Si3 0.026745 0.473415 0.122691
Si Si4 0.626565 0.856580 0.151369
Si Si5 0.295744 0.868081 0.744342
O O1 0.268975 0.780599 0.280625
O O2 0.513315 0.848139 0.288519
O O3 0.352699 0.898334 0.555212
O O4 0.329242 0.036932 0.266753
O O5 0.107990 0.561782 0.264499
O O6 0.029210 0.825007 0.327626
O O7 0.113352 0.737903 0.024851
O O8 0.898545 0.572102 0.118339
O O9 0.105584 0.493352 0.944415
O O10 0.752655 0.792054 0.235256
#
# Coordination Sequence:
#
# PCOD9314620 Si02
#       5
#     4   4   4   4   4
#     4  11  22  40  65  94 127 171 217 260 320 387
#     4   9  20  39  68  92 132 164 214 260 317 375
#     4   9  20  39  68  92 132 164 214 260 317 375
#     4  10  22  38  68  96 124 162 220 268 306 376
#     4  11  22  40  65  94 127 171 217 260 320 387
#
# _framework density 25.91141
#
# number of rings (size 3 to 8) (size 9 to 14) (size 15 to 20)
#    1.200    0.800    0.000    6.000    2.800    0.000 
#    0.000    2.000    0.000    0.000    0.000    0.000 
#    0.000    0.000    0.000    0.000    0.000    0.000 
#
# Total GULP energy -111737.695247 kJ/mol
# GULP energy per Si atom -5586.884762 kJ/mol
# Density = 2.585243 g / cm^3
# Si number density = 25.911410 Si / 1000 Ang^3
#
#
#
# Elastic Constant Matrix: (Units=GPa)
#
#
# Indices 1 2 3 4 5 6 
#
# 1 56.8089 23.5287 15.4295 0.0000 0.0000 0.0000
# 2 23.5287 138.6312 24.7598 0.0000 0.0000 0.0000
# 3 15.4295 24.7598 123.6761 0.0000 0.0000 0.0000
# 4 0.0000 0.0000 0.0000 30.2823 0.0000 0.0000
# 5 0.0000 0.0000 0.0000 0.0000 44.1517 0.0000
# 6 0.0000 0.0000 0.0000 0.0000 0.0000 40.4376
#
#
#
# Elastic Compliance Matrix: (Units=1/GPa)
#
#
# Indices 1 2 3 4 5 6 
#
# 1 0.019320 -0.002954 -0.001819 0.000000 0.000000 0.000000
# 2 -0.002954 0.007933 -0.001220 0.000000 0.000000 0.000000
# 3 -0.001819 -0.001220 0.008557 0.000000 0.000000 0.000000
# 4 0.000000 0.000000 0.000000 0.033023 0.000000 0.000000
# 5 0.000000 0.000000 0.000000 0.000000 0.022649 0.000000
# 6 0.000000 0.000000 0.000000 0.000000 0.000000 0.024729
#
#
# Mechanical properties :
#
#
# Convention : Reuss Voigt Hill
#
# Bulk Modulus (GPa) = 41.97383 49.61691 45.79537
# Shear Modulus (GPa) = 36.72745 40.00084 38.36415
#
# Velocity S-wave (km/s) = 3.76895 3.93333 3.85202
# Velocity P-wave (km/s) = 5.93078 6.31018 6.12342
#
# Compressibility (1/GPa) = 0.02382437
#
# Stress axis : x y z
#
# Youngs Moduli (GPa) = 51.75853 126.06215 116.86729
#
# Poissons Ratio (x) = 0.37242 0.21257
# Poissons Ratio (y) = 0.15291 0.14252
# Poissons Ratio (z) = 0.09415 0.15374
#
# Static dielectric constant tensor:
#      x y z
#    x 2.079260 0.000000 0.000000 
#    y 0.000000 2.146850 0.000000 
#    z 0.000000 0.000000 2.055920 
# 
# From -- ./inp_files/3328.got.cif
#   From: 2010.05.17/outbox.cif.g08.bks.cpg/sg19_2_cif.got.tgz:3328.got - 2010.06.03 22:46:19.
