data_PCOD9314776
_publ_section_title
;
Structure prediction by ZEFSAII (Michael W. Deem and Ramdas Pophale) SiO2 
 PCOD9314776
Probable space group: P 21 21 21
;
_chemical_formula_sum "Si O2"
_cell_formula_units_Z 32
_cell_length_a 5.160373
_cell_length_b 13.110568
_cell_length_c 17.711623
_cell_angle_alpha 90.000000
_cell_angle_beta 90.000000
_cell_angle_gamma 90.000000
_cell_volume 1198.287313
_symmetry_space_group_name_H-M "P 21 21 21"
_symmetry_group_IT_number 19
_symmetry_cell_setting 'orthorhombic'
loop_
_space_group_symop_operation_xyz
x,y,z
1/2-x,-y,1/2+z
1/2+x,1/2-y,-z
-x,1/2+y,1/2-z
loop_
_atom_site_type_symbol
_atom_site_label
_atom_site_fract_x
_atom_site_fract_y
_atom_site_fract_z
Si Si1 0.339690 0.540777 0.348482
Si Si2 0.625077 0.339150 0.325440
Si Si3 0.034180 0.964579 0.274848
Si Si4 0.232688 0.403064 0.080640
Si Si5 0.931885 0.300673 0.466974
Si Si6 0.291297 0.161350 0.263262
Si Si7 0.060114 0.182516 0.105875
Si Si8 0.741325 0.473179 0.004325
O O1 0.493539 0.436824 0.366517
O O2 0.484923 0.602408 0.282883
O O3 0.086815 0.493753 0.305881
O O4 0.214299 0.625724 0.403251
O O5 0.748911 0.382412 0.247961
O O6 0.844464 0.293092 0.379794
O O7 0.415987 0.252872 0.308224
O O8 0.817191 0.926240 0.331394
O O9 0.153154 0.069658 0.307351
O O10 0.121024 0.289401 0.067816
O O11 0.530635 0.416326 0.058146
O O12 0.028074 0.476432 0.038218
O O13 0.718403 0.236096 0.513557
O O14 0.886667 0.418028 0.489497
O O15 0.108001 0.198282 0.194956
O O16 0.249851 0.098150 0.070032
#
# Coordination Sequence:
#
# PCOD9314776 Si02
#       8
#     4   4   4   4   4   4   4   4
#     4  10  22  41  73 101 147 193 253 323 393 465
#     4  11  25  46  78 108 153 208 265 329 404 479
#     4  10  24  44  70 113 146 200 252 342 391 463
#     4  12  28  46  79 110 153 196 260 319 396 461
#     4  12  30  53  79 113 157 218 269 319 394 488
#     4  10  23  42  74 107 147 193 257 322 398 466
#     4  11  25  46  73 111 146 200 256 318 402 470
#     4  12  29  50  74 109 155 206 254 324 384 482
#
# _framework density 26.704782000000002
#
# number of rings (size 3 to 8) (size 9 to 14) (size 15 to 20)
#    0.000    1.000    0.000    5.250   15.750    2.000 
#    0.000    0.000    0.000    0.000    0.000    0.000 
#    0.000    0.000    0.000    0.000    0.000    0.000 
#
# Total GULP energy -179400.846508 kJ/mol
# GULP energy per Si atom -5606.276453 kJ/mol
# Density = 2.664400 g / cm^3
# Si number density = 26.704782 Si / 1000 Ang^3
#
#
#
# Elastic Constant Matrix: (Units=GPa)
#
#
# Indices 1 2 3 4 5 6 
#
# 1 102.9139 20.1190 6.4452 0.0000 0.0000 0.0000
# 2 20.1190 140.5119 27.9819 0.0000 0.0000 0.0000
# 3 6.4452 27.9819 76.7331 0.0000 0.0000 0.0000
# 4 0.0000 0.0000 0.0000 39.5434 0.0000 0.0000
# 5 0.0000 0.0000 0.0000 0.0000 45.4844 0.0000
# 6 0.0000 0.0000 0.0000 0.0000 0.0000 49.9943
#
#
#
# Elastic Compliance Matrix: (Units=1/GPa)
#
#
# Indices 1 2 3 4 5 6 
#
# 1 0.010005 -0.001364 -0.000343 0.000000 0.000000 0.000000
# 2 -0.001364 0.007860 -0.002752 0.000000 0.000000 0.000000
# 3 -0.000343 -0.002752 0.014064 0.000000 0.000000 0.000000
# 4 0.000000 0.000000 0.000000 0.025289 0.000000 0.000000
# 5 0.000000 0.000000 0.000000 0.000000 0.021986 0.000000
# 6 0.000000 0.000000 0.000000 0.000000 0.000000 0.020002
#
#
# Mechanical properties :
#
#
# Convention : Reuss Voigt Hill
#
# Bulk Modulus (GPa) = 43.45581 47.69458 45.57520
# Shear Modulus (GPa) = 43.17990 44.71192 43.94591
#
# Velocity S-wave (km/s) = 4.02548 4.09627 4.06102
# Velocity P-wave (km/s) = 6.15743 6.34596 6.25241
#
# Compressibility (1/GPa) = 0.02301188
#
# Stress axis : x y z
#
# Youngs Moduli (GPa) = 99.94963 127.22380 71.10120
#
# Poissons Ratio (x) = 0.17357 0.02438
# Poissons Ratio (y) = 0.13636 0.19565
# Poissons Ratio (z) = 0.03427 0.35009
#
# Static dielectric constant tensor:
#      x y z
#    x 2.111300 0.000000 0.000000 
#    y 0.000000 2.051140 0.000000 
#    z 0.000000 0.000000 2.169420 
# 
# From -- ./inp_files/6926.got.cif
#   From: 2010.05.17/outbox.cif.g08.bks.cpg/sg19_4_cif.got.tgz:6926.got - 2010.06.03 22:46:19.
