data_PCOD9314292
_publ_section_title
;
Structure prediction by ZEFSAII (Michael W. Deem and Ramdas Pophale) SiO2 
 PCOD9314292
Probable space group: P 21 21 21
;
_chemical_formula_sum "Si O2"
_cell_formula_units_Z 32
_cell_length_a 11.977096
_cell_length_b 14.633828
_cell_length_c 8.453330
_cell_angle_alpha 90.000000
_cell_angle_beta 90.000000
_cell_angle_gamma 90.000000
_cell_volume 1481.621597
_symmetry_space_group_name_H-M "P 21 21 21"
_symmetry_group_IT_number 19
_symmetry_cell_setting 'orthorhombic'
loop_
_space_group_symop_operation_xyz
x,y,z
1/2-x,-y,1/2+z
1/2+x,1/2-y,-z
-x,1/2+y,1/2-z
loop_
_atom_site_type_symbol
_atom_site_label
_atom_site_fract_x
_atom_site_fract_y
_atom_site_fract_z
Si Si1 0.756087 0.297579 0.791434
Si Si2 0.008168 0.732411 0.299559
Si Si3 0.762658 0.587691 0.602676
Si Si4 0.274032 0.886828 0.032136
Si Si5 0.527813 0.883159 0.979943
Si Si6 0.698496 0.909049 0.255406
Si Si7 0.038875 0.441584 0.233963
Si Si8 0.485098 0.435606 0.016959
O O1 0.621884 0.295751 0.785813
O O2 0.785591 0.332084 0.613268
O O3 0.797747 0.195689 0.809505
O O4 0.780910 0.350651 0.955340
O O5 0.003351 0.841562 0.318417
O O6 0.062471 0.699074 0.136472
O O7 0.049529 0.658131 0.426613
O O8 0.728707 0.487523 0.544541
O O9 0.898417 0.587124 0.601287
O O10 0.731093 0.610977 0.785147
O O11 0.405236 0.858013 0.046714
O O12 0.510847 0.977660 0.885883
O O13 0.628570 0.905298 0.095515
O O14 0.826202 0.939790 0.247496
O O15 0.618246 0.963345 0.373790
O O16 0.992192 0.480762 0.398373
#
# Coordination Sequence:
#
# PCOD9314292 Si02
#       8
#     4   4   4   4   4   4   4   4
#     4   9  21  38  58  86 121 159 204 259 313 366
#     4   8  19  39  57  81 119 156 203 260 302 368
#     4  11  21  39  64  90 123 162 213 267 317 368
#     4  11  21  39  64  90 123 162 213 267 317 368
#     4  10  21  39  62  89 122 165 204 258 316 369
#     4  11  21  40  59  90 131 163 207 255 308 393
#     4  10  21  39  64  87 125 166 206 256 323 381
#     4  10  21  39  62  89 122 165 204 258 316 369
#
# _framework density 21.597957000000001
#
# number of rings (size 3 to 8) (size 9 to 14) (size 15 to 20)
#    0.000    2.000    2.500    1.500    0.000    2.000 
#    4.500    1.250    5.500    0.000    0.000    0.000 
#    0.000    0.000    0.000    0.000    0.000    0.000 
#
# Total GULP energy -178281.558951 kJ/mol
# GULP energy per Si atom -5571.298717 kJ/mol
# Density = 2.154880 g / cm^3
# Si number density = 21.597957 Si / 1000 Ang^3
#
#
#
# Elastic Constant Matrix: (Units=GPa)
#
#
# Indices 1 2 3 4 5 6 
#
# 1 61.3713 7.3367 55.8463 0.0000 0.0000 0.0000
# 2 7.3367 47.1110 -4.4275 0.0000 0.0000 0.0000
# 3 55.8463 -4.4275 103.7652 0.0000 0.0000 0.0000
# 4 0.0000 0.0000 0.0000 6.8684 0.0000 0.0000
# 5 0.0000 0.0000 0.0000 0.0000 28.3837 0.0000
# 6 0.0000 0.0000 0.0000 0.0000 0.0000 25.7985
#
#
#
# Elastic Compliance Matrix: (Units=1/GPa)
#
#
# Indices 1 2 3 4 5 6 
#
# 1 0.034128 -0.007069 -0.018669 0.000000 0.000000 0.000000
# 2 -0.007069 0.022776 0.004777 0.000000 0.000000 0.000000
# 3 -0.018669 0.004777 0.019889 0.000000 0.000000 0.000000
# 4 0.000000 0.000000 0.000000 0.145595 0.000000 0.000000
# 5 0.000000 0.000000 0.000000 0.000000 0.035231 0.000000
# 6 0.000000 0.000000 0.000000 0.000000 0.000000 0.038762
#
#
# Mechanical properties :
#
#
# Convention : Reuss Voigt Hill
#
# Bulk Modulus (GPa) = 28.67894 36.63985 32.65940
# Shear Modulus (GPa) = 14.28866 22.44293 18.36579
#
# Velocity S-wave (km/s) = 2.57490 3.22704 2.91924
# Velocity P-wave (km/s) = 4.70611 5.55755 5.14946
#
# Compressibility (1/GPa) = 0.03486879
#
# Stress axis : x y z
#
# Youngs Moduli (GPa) = 29.30154 43.90532 50.27979
#
# Poissons Ratio (x) = 0.31038 0.93869
# Poissons Ratio (y) = 0.20714 -0.24016
# Poissons Ratio (z) = 0.54704 -0.20972
#
# Static dielectric constant tensor:
#      x y z
#    x 1.897430 0.000000 0.000000 
#    y 0.000000 1.796050 0.000000 
#    z 0.000000 0.000000 1.869150 
# 
# From -- ./inp_files/3563.got.cif
#   From: 2010.05.17/outbox.cif.g08.bks.cpg/sg19_2_cif.got.tgz:3563.got - 2010.06.03 22:46:19.
