data_PCOD9314265
_publ_section_title
;
Structure prediction by ZEFSAII (Michael W. Deem and Ramdas Pophale) SiO2 
 PCOD9314265
Probable space group: P 21 21 21
;
_chemical_formula_sum "Si O2"
_cell_formula_units_Z 32
_cell_length_a 10.153695
_cell_length_b 8.726032
_cell_length_c 13.845200
_cell_angle_alpha 90.000000
_cell_angle_beta 90.000000
_cell_angle_gamma 90.000000
_cell_volume 1226.705038
_symmetry_space_group_name_H-M "P 21 21 21"
_symmetry_group_IT_number 19
_symmetry_cell_setting 'orthorhombic'
loop_
_space_group_symop_operation_xyz
x,y,z
1/2-x,-y,1/2+z
1/2+x,1/2-y,-z
-x,1/2+y,1/2-z
loop_
_atom_site_type_symbol
_atom_site_label
_atom_site_fract_x
_atom_site_fract_y
_atom_site_fract_z
Si Si1 0.468675 0.876275 0.843544
Si Si2 0.112826 0.089925 0.677261
Si Si3 0.164266 0.420509 0.281164
Si Si4 0.767315 0.500155 0.016681
Si Si5 0.540375 0.707704 0.033775
Si Si6 0.083048 0.287573 0.978615
Si Si7 0.591755 0.094923 0.237064
Si Si8 0.155695 0.561571 0.496308
O O1 0.379652 0.756085 0.783310
O O2 0.559652 0.975886 0.775515
O O3 0.391083 0.993226 0.913348
O O4 0.535227 0.767283 0.923934
O O5 0.997929 0.162531 0.608901
O O6 0.205877 0.014385 0.597822
O O7 0.158229 0.248737 0.724988
O O8 0.053896 0.975043 0.757093
O O9 0.308841 0.456983 0.241183
O O10 0.169561 0.493402 0.388603
O O11 0.687057 0.651179 0.046500
O O12 0.673161 0.360869 0.033934
O O13 0.429040 0.574508 0.046839
O O14 0.064909 0.362501 0.874682
O O15 0.194474 0.397581 0.031034
O O16 0.941747 0.210725 0.006899
#
# Coordination Sequence:
#
# PCOD9314265 Si02
#       8
#     4   4   4   4   4   4   4   4
#     4  10  21  38  65  90 130 162 219 265 340 402
#     4  11  24  43  67  97 132 180 231 274 346 406
#     4  10  22  41  59  98 127 168 214 280 340 400
#     4  10  21  40  67  92 124 181 219 277 332 405
#     4   9  20  41  63  87 128 172 222 264 334 399
#     4  10  21  41  65  97 133 167 225 274 344 395
#     4  11  25  42  65  93 139 169 228 285 335 409
#     4   9  20  38  63  92 129 169 210 275 329 412
#
# _framework density 26.08614
#
# number of rings (size 3 to 8) (size 9 to 14) (size 15 to 20)
#    0.000    2.000    0.000    2.250    7.000    1.000 
#    2.250    1.250    0.000    0.000    0.000    0.000 
#    0.000    0.000    0.000    0.000    0.000    0.000 
#
# Total GULP energy -178785.512412 kJ/mol
# GULP energy per Si atom -5587.047263 kJ/mol
# Density = 2.602677 g / cm^3
# Si number density = 26.086140 Si / 1000 Ang^3
#
#
#
# Elastic Constant Matrix: (Units=GPa)
#
#
# Indices 1 2 3 4 5 6 
#
# 1 68.8901 5.3085 -2.2208 0.0000 0.0000 0.0000
# 2 5.3085 104.4460 5.6622 0.0000 0.0000 0.0000
# 3 -2.2208 5.6622 42.6956 0.0000 0.0000 0.0000
# 4 0.0000 0.0000 0.0000 29.9974 0.0000 0.0000
# 5 0.0000 0.0000 0.0000 0.0000 24.5212 0.0000
# 6 0.0000 0.0000 0.0000 0.0000 0.0000 47.6065
#
#
#
# Elastic Compliance Matrix: (Units=1/GPa)
#
#
# Indices 1 2 3 4 5 6 
#
# 1 0.014605 -0.000789 0.000864 0.000000 0.000000 0.000000
# 2 -0.000789 0.009686 -0.001326 0.000000 0.000000 0.000000
# 3 0.000864 -0.001326 0.023642 0.000000 0.000000 0.000000
# 4 0.000000 0.000000 0.000000 0.033336 0.000000 0.000000
# 5 0.000000 0.000000 0.000000 0.000000 0.040781 0.000000
# 6 0.000000 0.000000 0.000000 0.000000 0.000000 0.021006
#
#
# Mechanical properties :
#
#
# Convention : Reuss Voigt Hill
#
# Bulk Modulus (GPa) = 22.01076 25.94795 23.97935
# Shear Modulus (GPa) = 31.11368 34.24380 32.67874
#
# Velocity S-wave (km/s) = 3.45734 3.62708 3.54322
# Velocity P-wave (km/s) = 4.93899 5.24495 5.09427
#
# Compressibility (1/GPa) = 0.04543232
#
# Stress axis : x y z
#
# Youngs Moduli (GPa) = 68.47180 103.23862 42.29691
#
# Poissons Ratio (x) = 0.08147 -0.03656
# Poissons Ratio (y) = 0.05403 0.05607
# Poissons Ratio (z) = -0.05918 0.13686
#
# Static dielectric constant tensor:
#      x y z
#    x 2.106440 0.000000 0.000000 
#    y 0.000000 2.050230 0.000000 
#    z 0.000000 0.000000 2.123760 
# 
# From -- ./inp_files/5220.got.cif
#   From: 2010.05.17/outbox.cif.g08.bks.cpg/sg19_3_cif.got.tgz:5220.got - 2010.06.03 22:46:19.
