data_PCOD9314217
_publ_section_title
;
Structure prediction by ZEFSAII (Michael W. Deem and Ramdas Pophale) SiO2 
 PCOD9314217
Probable space group: P 21 21 21
;
_chemical_formula_sum "Si O2"
_cell_formula_units_Z 32
_cell_length_a 11.819486
_cell_length_b 17.103696
_cell_length_c 7.555313
_cell_angle_alpha 90.000000
_cell_angle_beta 90.000000
_cell_angle_gamma 90.000000
_cell_volume 1527.358620
_symmetry_space_group_name_H-M "P 21 21 21"
_symmetry_group_IT_number 19
_symmetry_cell_setting 'orthorhombic'
loop_
_space_group_symop_operation_xyz
x,y,z
1/2-x,-y,1/2+z
1/2+x,1/2-y,-z
-x,1/2+y,1/2-z
loop_
_atom_site_type_symbol
_atom_site_label
_atom_site_fract_x
_atom_site_fract_y
_atom_site_fract_z
Si Si1 0.872158 0.770243 0.993739
Si Si2 0.754801 0.923510 0.583691
Si Si3 0.447936 0.213820 0.782384
Si Si4 0.479502 0.669882 0.350585
Si Si5 0.347438 0.362177 0.589995
Si Si6 0.610711 0.935838 0.240184
Si Si7 0.736726 0.610251 0.900773
Si Si8 0.610706 0.523206 0.219696
O O1 0.811949 0.685554 0.964822
O O2 0.933859 0.787209 0.177895
O O3 0.962805 0.788048 0.837389
O O4 0.775370 0.836053 0.978648
O O5 0.852382 0.858260 0.602137
O O6 0.670977 0.923933 0.752852
O O7 0.691011 0.911936 0.400182
O O8 0.822154 0.003868 0.612290
O O9 0.391686 0.289956 0.702250
O O10 0.362276 0.144138 0.727335
O O11 0.470331 0.219761 0.990111
O O12 0.560018 0.593845 0.337637
O O13 0.422137 0.375644 0.414996
O O14 0.503662 0.976899 0.330284
O O15 0.675939 0.567334 0.064127
O O16 0.811177 0.542677 0.808912
#
# Coordination Sequence:
#
# PCOD9314217 Si02
#       8
#     4   4   4   4   4   4   4   4
#     4  10  22  44  67  92 133 179 224 279 336 402
#     4  10  21  37  62  96 125 166 212 269 328 401
#     4  11  22  41  67  92 127 174 223 275 337 398
#     4  10  22  42  68  95 133 173 224 276 339 402
#     4  10  22  38  60  96 126 162 222 270 331 400
#     4  11  21  39  66  92 134 167 213 276 336 395
#     4  11  24  45  66  98 140 180 232 282 339 414
#     4  11  24  44  66  97 138 181 224 283 342 406
#
# _framework density 20.951201999999999
#
# number of rings (size 3 to 8) (size 9 to 14) (size 15 to 20)
#    0.000    1.500    2.500    2.250    0.000    3.000 
#   13.500    0.000    0.000    0.000    0.000    0.000 
#    0.000    0.000    0.000    0.000    0.000    0.000 
#
# Total GULP energy -178447.044900 kJ/mol
# GULP energy per Si atom -5576.470153 kJ/mol
# Density = 2.090352 g / cm^3
# Si number density = 20.951202 Si / 1000 Ang^3
#
#
#
# Elastic Constant Matrix: (Units=GPa)
#
#
# Indices 1 2 3 4 5 6 
#
# 1 41.8203 14.8340 7.8239 0.0000 0.0000 0.0000
# 2 14.8340 60.1230 16.0591 0.0000 0.0000 0.0000
# 3 7.8239 16.0591 57.3869 0.0000 0.0000 0.0000
# 4 0.0000 0.0000 0.0000 24.9990 0.0000 0.0000
# 5 0.0000 0.0000 0.0000 0.0000 34.7971 0.0000
# 6 0.0000 0.0000 0.0000 0.0000 0.0000 21.5216
#
#
#
# Elastic Compliance Matrix: (Units=1/GPa)
#
#
# Indices 1 2 3 4 5 6 
#
# 1 0.026400 -0.006001 -0.001920 0.000000 0.000000 0.000000
# 2 -0.006001 0.019340 -0.004594 0.000000 0.000000 0.000000
# 3 -0.001920 -0.004594 0.018973 0.000000 0.000000 0.000000
# 4 0.000000 0.000000 0.000000 0.040002 0.000000 0.000000
# 5 0.000000 0.000000 0.000000 0.000000 0.028738 0.000000
# 6 0.000000 0.000000 0.000000 0.000000 0.000000 0.046465
#
#
# Mechanical properties :
#
#
# Convention : Reuss Voigt Hill
#
# Bulk Modulus (GPa) = 25.19955 26.30715 25.75335
# Shear Modulus (GPa) = 22.91747 24.30443 23.61095
#
# Velocity S-wave (km/s) = 3.31093 3.40965 3.36065
# Velocity P-wave (km/s) = 5.16432 5.29949 5.23234
#
# Compressibility (1/GPa) = 0.03968324
#
# Stress axis : x y z
#
# Youngs Moduli (GPa) = 37.87949 51.70585 52.70672
#
# Poissons Ratio (x) = 0.31027 0.10120
# Poissons Ratio (y) = 0.22730 0.24214
# Poissons Ratio (z) = 0.07273 0.23754
#
# Static dielectric constant tensor:
#      x y z
#    x 1.852910 0.000000 0.000000 
#    y 0.000000 1.876470 0.000000 
#    z 0.000000 0.000000 1.783430 
# 
# From -- ./inp_files/1164.got.cif
#   From: 2010.05.17/outbox.cif.g08.bks.cpg/sg19_1_cif.got.tgz:1164.got - 2010.06.03 22:46:19.
