data_PCOD9314957
_publ_section_title
;
Structure prediction by ZEFSAII (Michael W. Deem and Ramdas Pophale) SiO2 
 PCOD9314957
Probable space group: P 21 21 21
;
_chemical_formula_sum "Si O2"
_cell_formula_units_Z 32
_cell_length_a 5.524695
_cell_length_b 9.057205
_cell_length_c 27.353753
_cell_angle_alpha 90.000000
_cell_angle_beta 90.000000
_cell_angle_gamma 90.000000
_cell_volume 1368.735167
_symmetry_space_group_name_H-M "P 21 21 21"
_symmetry_group_IT_number 19
_symmetry_cell_setting 'orthorhombic'
loop_
_space_group_symop_operation_xyz
x,y,z
1/2-x,-y,1/2+z
1/2+x,1/2-y,-z
-x,1/2+y,1/2-z
loop_
_atom_site_type_symbol
_atom_site_label
_atom_site_fract_x
_atom_site_fract_y
_atom_site_fract_z
Si Si1 0.615101 0.518690 0.593561
Si Si2 0.615534 0.339547 0.498065
Si Si3 0.981717 0.899403 0.193321
Si Si4 0.063685 0.823326 0.841879
Si Si5 0.600532 0.783415 0.725606
Si Si6 0.118340 0.280992 0.873940
Si Si7 0.689051 0.440279 0.391718
Si Si8 0.235516 0.582629 0.671333
O O1 0.548072 0.452344 0.541639
O O2 0.830875 0.416630 0.612892
O O3 0.695496 0.690692 0.592551
O O4 0.438606 0.499210 0.640033
O O5 0.356452 0.257339 0.487688
O O6 0.711884 0.420930 0.449255
O O7 0.762992 0.785761 0.182114
O O8 0.168933 0.800282 0.224902
O O9 0.080061 0.974013 0.142941
O O10 0.934964 0.041907 0.227538
O O11 0.878099 0.715937 0.868492
O O12 0.950337 0.957460 0.809884
O O13 0.785594 0.764101 0.681382
O O14 0.356417 0.698239 0.708347
O O15 0.028885 0.444537 0.883740
O O16 0.878818 0.183067 0.871442
#
# Coordination Sequence:
#
# PCOD9314957 Si02
#       8
#     4   4   4   4   4   4   4   4
#     4  10  23  45  72 108 141 190 245 303 384 454
#     4  12  26  47  78 116 152 197 259 319 379 472
#     4  12  27  44  68 106 146 197 252 321 380 465
#     4  11  22  43  73  98 141 188 244 299 382 438
#     4  11  26  46  67 103 149 189 261 315 383 463
#     4  10  23  47  70 101 146 192 237 316 378 456
#     4  12  25  47  73 104 149 193 245 312 386 455
#     4  10  22  45  71  96 144 190 241 315 376 457
#
# _framework density 23.379249999999999
#
# number of rings (size 3 to 8) (size 9 to 14) (size 15 to 20)
#    0.000    1.000    3.750    2.250    8.750    1.000 
#    2.250    0.000    0.000    0.000    0.000    0.000 
#    0.000    0.000    0.000    0.000    0.000    0.000 
#
# Total GULP energy -178457.969886 kJ/mol
# GULP energy per Si atom -5576.811559 kJ/mol
# Density = 2.332604 g / cm^3
# Si number density = 23.379250 Si / 1000 Ang^3
#
#
#
# Elastic Constant Matrix: (Units=GPa)
#
#
# Indices 1 2 3 4 5 6 
#
# 1 40.0088 15.0646 -13.4218 0.0000 0.0000 0.0000
# 2 15.0646 130.9286 16.2921 0.0000 0.0000 0.0000
# 3 -13.4218 16.2921 78.6350 0.0000 0.0000 0.0000
# 4 0.0000 0.0000 0.0000 36.5790 0.0000 0.0000
# 5 0.0000 0.0000 0.0000 0.0000 20.7328 0.0000
# 6 0.0000 0.0000 0.0000 0.0000 0.0000 47.9256
#
#
#
# Elastic Compliance Matrix: (Units=1/GPa)
#
#
# Indices 1 2 3 4 5 6 
#
# 1 0.028392 -0.003972 0.005669 0.000000 0.000000 0.000000
# 2 -0.003972 0.008396 -0.002417 0.000000 0.000000 0.000000
# 3 0.005669 -0.002417 0.014185 0.000000 0.000000 0.000000
# 4 0.000000 0.000000 0.000000 0.027338 0.000000 0.000000
# 5 0.000000 0.000000 0.000000 0.000000 0.048233 0.000000
# 6 0.000000 0.000000 0.000000 0.000000 0.000000 0.020866
#
#
# Mechanical properties :
#
#
# Convention : Reuss Voigt Hill
#
# Bulk Modulus (GPa) = 20.18900 31.71578 25.95239
# Shear Modulus (GPa) = 30.23682 36.48998 33.36340
#
# Velocity S-wave (km/s) = 3.60018 3.95496 3.78173
# Velocity P-wave (km/s) = 5.09273 5.86949 5.49485
#
# Compressibility (1/GPa) = 0.04953192
#
# Stress axis : x y z
#
# Youngs Moduli (GPa) = 35.22122 119.10991 70.49466
#
# Poissons Ratio (x) = 0.47313 -0.39964
# Poissons Ratio (y) = 0.13991 0.17042
# Poissons Ratio (z) = -0.19967 0.28794
#
# Static dielectric constant tensor:
#      x y z
#    x 2.004770 0.000000 0.000000 
#    y 0.000000 1.894450 0.000000 
#    z 0.000000 0.000000 1.870220 
# 
# From -- ./inp_files/7549.got.cif
#   From: 2010.05.17/outbox.cif.g08.bks.cpg/sg19_4_cif.got.tgz:7549.got - 2010.06.03 22:46:19.
