data_PCOD9314616
_publ_section_title
;
Structure prediction by ZEFSAII (Michael W. Deem and Ramdas Pophale) SiO2 
 PCOD9314616
Probable space group: P 21 21 21
;
_chemical_formula_sum "Si O2"
_cell_formula_units_Z 32
_cell_length_a 4.833685
_cell_length_b 12.376083
_cell_length_c 19.559081
_cell_angle_alpha 90.000000
_cell_angle_beta 90.000000
_cell_angle_gamma 90.000000
_cell_volume 1170.065040
_symmetry_space_group_name_H-M "P 21 21 21"
_symmetry_group_IT_number 19
_symmetry_cell_setting 'orthorhombic'
loop_
_space_group_symop_operation_xyz
x,y,z
1/2-x,-y,1/2+z
1/2+x,1/2-y,-z
-x,1/2+y,1/2-z
loop_
_atom_site_type_symbol
_atom_site_label
_atom_site_fract_x
_atom_site_fract_y
_atom_site_fract_z
Si Si1 0.074120 0.859957 0.446800
Si Si2 0.155726 0.773427 0.046784
Si Si3 0.122452 0.677723 0.757362
Si Si4 0.856911 0.587953 0.281771
Si Si5 0.783940 0.170049 0.316683
Si Si6 0.418971 0.381556 0.961116
Si Si7 0.077785 0.021904 0.840000
Si Si8 0.013362 0.536934 0.882141
O O1 0.120618 0.735350 0.425114
O O2 0.759082 0.874840 0.468401
O O3 0.196443 0.941827 0.393299
O O4 0.266570 0.882400 0.513264
O O5 0.052340 0.710594 0.115686
O O6 0.329535 0.878626 0.073193
O O7 0.386497 0.710401 0.000799
O O8 0.273391 0.791719 0.744729
O O9 0.825710 0.721035 0.782850
O O10 0.122616 0.617014 0.685295
O O11 0.182172 0.602331 0.822507
O O12 0.743735 0.501301 0.228881
O O13 0.707943 0.549637 0.349934
O O14 0.166756 0.599005 0.253126
O O15 0.570789 0.089878 0.355328
O O16 0.256994 0.473413 0.920869
#
# Coordination Sequence:
#
# PCOD9314616 Si02
#       8
#     4   4   4   4   4   4   4   4
#     4  10  23  42  65  94 135 171 232 282 342 405
#     4  11  28  46  72 104 145 189 236 297 351 431
#     4   9  21  44  63  98 135 169 231 289 351 416
#     4  10  22  44  67  98 138 173 234 295 351 425
#     4  10  24  42  66 101 135 180 236 288 354 423
#     4  10  23  44  63  96 132 179 227 285 334 425
#     4  10  22  38  67  93 127 176 220 282 352 408
#     4  10  23  44  69 102 133 191 236 286 369 425
#
# _framework density 27.348905999999999
#
# number of rings (size 3 to 8) (size 9 to 14) (size 15 to 20)
#    0.000    2.000    0.000    0.750   10.500    3.000 
#   20.250    0.000    0.000    0.000    0.000    0.000 
#    0.000    0.000    0.000    0.000    0.000    0.000 
#
# Total GULP energy -178687.436572 kJ/mol
# GULP energy per Si atom -5583.982393 kJ/mol
# Density = 2.728666 g / cm^3
# Si number density = 27.348906 Si / 1000 Ang^3
#
#
#
# Elastic Constant Matrix: (Units=GPa)
#
#
# Indices 1 2 3 4 5 6 
#
# 1 77.8595 9.6144 14.0108 0.0000 0.0000 0.0000
# 2 9.6144 106.1642 36.9780 0.0000 0.0000 0.0000
# 3 14.0108 36.9780 107.4859 0.0000 0.0000 0.0000
# 4 0.0000 0.0000 0.0000 46.8055 0.0000 0.0000
# 5 0.0000 0.0000 0.0000 0.0000 23.1570 0.0000
# 6 0.0000 0.0000 0.0000 0.0000 0.0000 1.3926
#
#
#
# Elastic Compliance Matrix: (Units=1/GPa)
#
#
# Indices 1 2 3 4 5 6 
#
# 1 0.013195 -0.000677 -0.001487 0.000000 0.000000 0.000000
# 2 -0.000677 0.010736 -0.003605 0.000000 0.000000 0.000000
# 3 -0.001487 -0.003605 0.010738 0.000000 0.000000 0.000000
# 4 0.000000 0.000000 0.000000 0.021365 0.000000 0.000000
# 5 0.000000 0.000000 0.000000 0.000000 0.043183 0.000000
# 6 0.000000 0.000000 0.000000 0.000000 0.000000 0.718067
#
#
# Mechanical properties :
#
#
# Convention : Reuss Voigt Hill
#
# Bulk Modulus (GPa) = 43.23352 45.85733 44.54543
# Shear Modulus (GPa) = 5.97704 29.66480 17.82092
#
# Velocity S-wave (km/s) = 1.47994 3.29702 2.55544
# Velocity P-wave (km/s) = 4.33160 5.59444 5.00302
#
# Compressibility (1/GPa) = 0.02313020
#
# Stress axis : x y z
#
# Youngs Moduli (GPa) = 75.78717 93.14048 93.12957
#
# Poissons Ratio (x) = 0.06306 0.13849
# Poissons Ratio (y) = 0.05131 0.33577
# Poissons Ratio (z) = 0.11270 0.33581
#
# Static dielectric constant tensor:
#      x y z
#    x 2.525990 0.000000 0.000000 
#    y 0.000000 2.222860 0.000000 
#    z 0.000000 0.000000 2.314060 
# 
# From -- ./inp_files/6950.got.cif
#   From: 2010.05.17/outbox.cif.g08.bks.cpg/sg19_4_cif.got.tgz:6950.got - 2010.06.03 22:46:19.
