data_PCOD9314158
_publ_section_title
;
Structure prediction by ZEFSAII (Michael W. Deem and Ramdas Pophale) SiO2 
 PCOD9314158
Probable space group: P 21 21 21
;
_chemical_formula_sum "Si O2"
_cell_formula_units_Z 28
_cell_length_a 25.889194
_cell_length_b 4.854796
_cell_length_c 11.246818
_cell_angle_alpha 90.000000
_cell_angle_beta 90.000000
_cell_angle_gamma 90.000000
_cell_volume 1413.576064
_symmetry_space_group_name_H-M "P 21 21 21"
_symmetry_group_IT_number 19
_symmetry_cell_setting 'orthorhombic'
loop_
_space_group_symop_operation_xyz
x,y,z
1/2-x,-y,1/2+z
1/2+x,1/2-y,-z
-x,1/2+y,1/2-z
loop_
_atom_site_type_symbol
_atom_site_label
_atom_site_fract_x
_atom_site_fract_y
_atom_site_fract_z
Si Si1 0.389163 0.334975 0.167577
Si Si2 0.204684 0.455838 0.952806
Si Si3 0.794719 0.825922 0.174735
Si Si4 0.610838 0.334975 0.167580
Si Si5 0.500000 0.700134 0.332451
Si Si6 0.204684 0.955836 0.547190
Si Si7 0.205281 0.825922 0.174731
O O1 0.386917 0.647038 0.212452
O O2 0.445224 0.273310 0.109871
O O3 0.342268 0.229522 0.089197
O O4 0.386917 0.147038 0.287545
O O5 0.232988 0.630016 0.848159
O O6 0.157732 0.270478 0.910799
O O7 0.250000 0.250002 0.999998
O O8 0.188898 0.674613 0.054143
O O9 0.810481 0.626810 0.282539
O O10 0.810481 0.126810 0.217465
O O11 0.811102 0.674612 0.054148
O O12 0.554777 0.273310 0.109873
O O13 0.500000 0.387122 0.287980
O O14 0.232988 0.130015 0.651837
#
# Coordination Sequence:
#
# PCOD9314158 Si02
#       7
#     4   4   4   4   4   4   4
#     4  10  21  33  55  77 108 137 168 213 262 310
#     4  11  23  33  52  78 103 142 183 203 263 316
#     4  11  22  35  48  68 107 136 168 211 249 302
#     4  10  21  33  55  77 108 137 168 213 262 310
#     4   8  16  34  50  76 102 132 166 208 264 316
#     4  11  23  33  52  78 103 142 183 203 263 316
#     4  11  22  35  48  68 107 136 168 211 249 302
#
# _framework density 19.807917
#
# number of rings (size 3 to 8) (size 9 to 14) (size 15 to 20)
#    0.000    1.714    2.857    1.714    8.000    0.000 
#    0.000    0.000    0.000    0.000    0.000    2.000 
#    0.000    0.000    0.000    0.000    0.000    0.000 
#
# Total GULP energy -156127.250679 kJ/mol
# GULP energy per Si atom -5575.973239 kJ/mol
# Density = 1.976283 g / cm^3
# Si number density = 19.807917 Si / 1000 Ang^3
#
#
#
# Elastic Constant Matrix: (Units=GPa)
#
#
# Indices 1 2 3 4 5 6 
#
# 1 119.2912 1.5840 14.7968 0.0000 0.0000 0.0000
# 2 1.5840 86.4463 13.7052 0.0000 0.0000 0.0000
# 3 14.7968 13.7052 31.8429 0.0000 0.0000 0.0000
# 4 0.0000 0.0000 0.0000 27.6101 0.0000 0.0000
# 5 0.0000 0.0000 0.0000 0.0000 24.1000 0.0000
# 6 0.0000 0.0000 0.0000 0.0000 0.0000 26.3563
#
#
#
# Elastic Compliance Matrix: (Units=1/GPa)
#
#
# Indices 1 2 3 4 5 6 
#
# 1 0.008918 0.000530 -0.004372 0.000000 0.000000 0.000000
# 2 0.000530 0.012446 -0.005603 0.000000 0.000000 0.000000
# 3 -0.004372 -0.005603 0.035847 0.000000 0.000000 0.000000
# 4 0.000000 0.000000 0.000000 0.036219 0.000000 0.000000
# 5 0.000000 0.000000 0.000000 0.000000 0.041494 0.000000
# 6 0.000000 0.000000 0.000000 0.000000 0.000000 0.037942
#
#
# Mechanical properties :
#
#
# Convention : Reuss Voigt Hill
#
# Bulk Modulus (GPa) = 26.09535 33.08362 29.58948
# Shear Modulus (GPa) = 24.44624 29.44626 26.94625
#
# Velocity S-wave (km/s) = 3.51688 3.85982 3.69233
# Velocity P-wave (km/s) = 5.44923 6.05002 5.75746
#
# Compressibility (1/GPa) = 0.03832101
#
# Stress axis : x y z
#
# Youngs Moduli (GPa) = 112.13119 80.34394 27.89606
#
# Poissons Ratio (x) = -0.04256 0.12196
# Poissons Ratio (y) = -0.05940 0.15631
# Poissons Ratio (z) = 0.49025 0.45018
#
# Static dielectric constant tensor:
#      x y z
#    x 1.745270 0.000000 0.000000 
#    y 0.000000 1.740540 0.000000 
#    z 0.000000 0.000000 1.768510 
# 
# From -- ./inp_files/2270.got.cif
#   From: 2010.05.17/outbox.cif.g08.bks.cpg/sg19_2_cif.got.tgz:2270.got - 2010.06.03 22:46:19.
