data_PCOD9314870
_publ_section_title
;
Structure prediction by ZEFSAII (Michael W. Deem and Ramdas Pophale) SiO2 
 PCOD9314870
Probable space group: P 21 21 21
;
_chemical_formula_sum "Si O2"
_cell_formula_units_Z 32
_cell_length_a 8.505841
_cell_length_b 19.082671
_cell_length_c 7.993761
_cell_angle_alpha 90.000000
_cell_angle_beta 90.000000
_cell_angle_gamma 90.000000
_cell_volume 1297.500645
_symmetry_space_group_name_H-M "P 21 21 21"
_symmetry_group_IT_number 19
_symmetry_cell_setting 'orthorhombic'
loop_
_space_group_symop_operation_xyz
x,y,z
1/2-x,-y,1/2+z
1/2+x,1/2-y,-z
-x,1/2+y,1/2-z
loop_
_atom_site_type_symbol
_atom_site_label
_atom_site_fract_x
_atom_site_fract_y
_atom_site_fract_z
Si Si1 0.953080 0.607961 0.782837
Si Si2 0.556323 0.763710 0.623645
Si Si3 0.409228 0.532694 0.326842
Si Si4 0.828800 0.748829 0.893377
Si Si5 0.066409 0.832055 0.678967
Si Si6 0.875930 0.598024 0.406216
Si Si7 0.923768 0.969975 0.074866
Si Si8 0.297759 0.667852 0.778650
O O1 0.976146 0.532508 0.868759
O O2 0.131907 0.631692 0.732532
O O3 0.885041 0.668595 0.900208
O O4 0.855677 0.603188 0.609248
O O5 0.695392 0.751402 0.752681
O O6 0.600494 0.732013 0.444828
O O7 0.510750 0.844754 0.628490
O O8 0.402037 0.718614 0.666593
O O9 0.454066 0.607894 0.399048
O O10 0.236103 0.511104 0.380648
O O11 0.423095 0.539561 0.125464
O O12 0.973407 0.797305 0.831116
O O13 0.765385 0.783592 0.059964
O O14 0.226370 0.875680 0.697326
O O15 0.933821 0.519842 0.371527
O O16 0.910705 0.896127 0.165763
#
# Coordination Sequence:
#
# PCOD9314870 Si02
#       8
#     4   4   4   4   4   4   4   4
#     4  10  22  43  66  95 133 175 225 276 333 411
#     4  12  25  40  70 103 129 184 225 284 343 408
#     4  10  23  41  71  92 136 176 224 279 342 411
#     4  12  23  44  67  98 142 170 231 275 353 410
#     4  12  23  42  68  98 133 177 226 284 337 414
#     4  11  24  42  68  97 129 177 230 277 332 404
#     4  10  23  45  66  99 132 178 226 280 344 419
#     4  11  25  43  68  98 138 179 221 289 350 407
#
# _framework density 24.662799
#
# number of rings (size 3 to 8) (size 9 to 14) (size 15 to 20)
#    0.000    1.000    3.750    2.250    7.000    1.000 
#    0.000    0.000    0.000    0.000    0.000    0.000 
#    0.000    0.000    0.000    0.000    0.000    0.000 
#
# Total GULP energy -179198.033699 kJ/mol
# GULP energy per Si atom -5599.938553 kJ/mol
# Density = 2.460666 g / cm^3
# Si number density = 24.662799 Si / 1000 Ang^3
#
#
#
# Elastic Constant Matrix: (Units=GPa)
#
#
# Indices 1 2 3 4 5 6 
#
# 1 75.8343 0.5907 18.3995 0.0000 0.0000 0.0000
# 2 0.5907 107.3201 7.2390 0.0000 0.0000 0.0000
# 3 18.3995 7.2390 33.9997 0.0000 0.0000 0.0000
# 4 0.0000 0.0000 0.0000 24.1287 0.0000 0.0000
# 5 0.0000 0.0000 0.0000 0.0000 30.6654 0.0000
# 6 0.0000 0.0000 0.0000 0.0000 0.0000 42.0045
#
#
#
# Elastic Compliance Matrix: (Units=1/GPa)
#
#
# Indices 1 2 3 4 5 6 
#
# 1 0.015204 0.000478 -0.008330 0.000000 0.000000 0.000000
# 2 0.000478 0.009469 -0.002275 0.000000 0.000000 0.000000
# 3 -0.008330 -0.002275 0.034404 0.000000 0.000000 0.000000
# 4 0.000000 0.000000 0.000000 0.041444 0.000000 0.000000
# 5 0.000000 0.000000 0.000000 0.000000 0.032610 0.000000
# 6 0.000000 0.000000 0.000000 0.000000 0.000000 0.023807
#
#
# Mechanical properties :
#
#
# Convention : Reuss Voigt Hill
#
# Bulk Modulus (GPa) = 25.75715 29.95695 27.85705
# Shear Modulus (GPa) = 26.29749 32.08804 29.19277
#
# Velocity S-wave (km/s) = 3.26894 3.61095 3.44419
# Velocity P-wave (km/s) = 4.97135 5.43675 5.20925
#
# Compressibility (1/GPa) = 0.03882417
#
# Stress axis : x y z
#
# Youngs Moduli (GPa) = 65.77238 105.61080 29.06628
#
# Poissons Ratio (x) = -0.05050 0.24211
# Poissons Ratio (y) = -0.03145 0.06612
# Poissons Ratio (z) = 0.54786 0.24024
#
# Static dielectric constant tensor:
#      x y z
#    x 1.959800 0.000000 0.000000 
#    y 0.000000 1.934230 0.000000 
#    z 0.000000 0.000000 1.978800 
# 
# From -- ./inp_files/3128.got.cif
#   From: 2010.05.17/outbox.cif.g08.bks.cpg/sg19_2_cif.got.tgz:3128.got - 2010.06.03 22:46:19.
