data_PCOD9314553
_publ_section_title
;
Structure prediction by ZEFSAII (Michael W. Deem and Ramdas Pophale) SiO2 
 PCOD9314553
Probable space group: P 21 21 21
;
_chemical_formula_sum "Si O2"
_cell_formula_units_Z 28
_cell_length_a 19.034787
_cell_length_b 10.950025
_cell_length_c 5.121167
_cell_angle_alpha 90.000000
_cell_angle_beta 90.000000
_cell_angle_gamma 90.000000
_cell_volume 1067.411974
_symmetry_space_group_name_H-M "P 21 21 21"
_symmetry_group_IT_number 19
_symmetry_cell_setting 'orthorhombic'
loop_
_space_group_symop_operation_xyz
x,y,z
1/2-x,-y,1/2+z
1/2+x,1/2-y,-z
-x,1/2+y,1/2-z
loop_
_atom_site_type_symbol
_atom_site_label
_atom_site_fract_x
_atom_site_fract_y
_atom_site_fract_z
Si Si1 0.792608 0.971649 0.536535
Si Si2 0.705692 0.480171 0.625310
Si Si3 0.490379 0.652311 0.801548
Si Si4 0.083507 0.645147 0.911029
Si Si5 0.047321 0.055251 0.903590
Si Si6 0.401921 0.151320 0.066754
Si Si7 0.864002 0.751360 0.842658
O O1 0.861766 0.051586 0.471172
O O2 0.752746 0.959298 0.261300
O O3 0.817253 0.849245 0.688041
O O4 0.757853 0.531076 0.403271
O O5 0.646336 0.585586 0.644916
O O6 0.676175 0.351810 0.513715
O O7 0.515441 0.666427 0.503645
O O8 0.546971 0.751721 0.912643
O O9 0.511403 0.510581 0.852163
O O10 0.419114 0.684634 0.953759
O O11 0.122543 0.721372 0.681360
O O12 0.018542 0.577136 0.782417
O O13 0.094300 0.175188 0.882813
O O14 0.097192 0.951567 0.786951
#
# Coordination Sequence:
#
# PCOD9314553 Si02
#       7
#     4   4   4   4   4   4   4
#     4  12  30  49  71 102 148 199 242 284 356 443
#     4  11  28  47  74 103 144 193 247 293 351 434
#     4  10  21  44  75 103 141 175 240 311 373 419
#     4  10  23  42  67 100 139 180 232 292 358 426
#     4   9  20  44  68 104 135 171 236 302 363 418
#     4  10  24  40  71 103 134 186 234 299 365 425
#     4  10  24  48  70 109 139 194 239 309 362 429
#
# _framework density 26.231672
#
# number of rings (size 3 to 8) (size 9 to 14) (size 15 to 20)
#    0.000    1.714    1.429    0.000   12.000    4.571 
#    7.714    0.000    0.000    0.000    0.000    0.000 
#    0.000    0.000    0.000    0.000    0.000    0.000 
#
# Total GULP energy -156510.517952 kJ/mol
# GULP energy per Si atom -5589.661355 kJ/mol
# Density = 2.617197 g / cm^3
# Si number density = 26.231672 Si / 1000 Ang^3
#
#
#
# Elastic Constant Matrix: (Units=GPa)
#
#
# Indices 1 2 3 4 5 6 
#
# 1 90.4273 38.9875 19.5644 0.0000 0.0000 0.0000
# 2 38.9875 88.0240 24.4763 0.0000 0.0000 0.0000
# 3 19.5644 24.4763 80.9145 0.0000 0.0000 0.0000
# 4 0.0000 0.0000 0.0000 25.3252 0.0000 0.0000
# 5 0.0000 0.0000 0.0000 0.0000 50.1695 0.0000
# 6 0.0000 0.0000 0.0000 0.0000 0.0000 52.1146
#
#
#
# Elastic Compliance Matrix: (Units=1/GPa)
#
#
# Indices 1 2 3 4 5 6 
#
# 1 0.013863 -0.005687 -0.001632 0.000000 0.000000 0.000000
# 2 -0.005687 0.014736 -0.003083 0.000000 0.000000 0.000000
# 3 -0.001632 -0.003083 0.013686 0.000000 0.000000 0.000000
# 4 0.000000 0.000000 0.000000 0.039486 0.000000 0.000000
# 5 0.000000 0.000000 0.000000 0.000000 0.019932 0.000000
# 6 0.000000 0.000000 0.000000 0.000000 0.000000 0.019188
#
#
# Mechanical properties :
#
#
# Convention : Reuss Voigt Hill
#
# Bulk Modulus (GPa) = 46.54792 47.26913 46.90853
# Shear Modulus (GPa) = 33.58937 37.27769 35.43353
#
# Velocity S-wave (km/s) = 3.58227 3.77383 3.67930
# Velocity P-wave (km/s) = 5.90709 6.08671 5.99757
#
# Compressibility (1/GPa) = 0.02148324
#
# Stress axis : x y z
#
# Youngs Moduli (GPa) = 72.13214 67.85890 73.06831
#
# Poissons Ratio (x) = 0.38589 0.11924
# Poissons Ratio (y) = 0.41019 0.22525
# Poissons Ratio (z) = 0.11771 0.20919
#
# Static dielectric constant tensor:
#      x y z
#    x 2.129020 0.000000 0.000000 
#    y 0.000000 2.101130 0.000000 
#    z 0.000000 0.000000 2.202490 
# 
# From -- ./inp_files/1923.got.cif
#   From: 2010.05.17/outbox.cif.g08.bks.cpg/sg19_1_cif.got.tgz:1923.got - 2010.06.03 22:46:19.
