data_PCOD9314682
_publ_section_title
;
Structure prediction by ZEFSAII (Michael W. Deem and Ramdas Pophale) SiO2 
 PCOD9314682
Probable space group: P 21 21 21
;
_chemical_formula_sum "Si O2"
_cell_formula_units_Z 32
_cell_length_a 12.929599
_cell_length_b 19.566321
_cell_length_c 5.362590
_cell_angle_alpha 90.000000
_cell_angle_beta 90.000000
_cell_angle_gamma 90.000000
_cell_volume 1356.653139
_symmetry_space_group_name_H-M "P 21 21 21"
_symmetry_group_IT_number 19
_symmetry_cell_setting 'orthorhombic'
loop_
_space_group_symop_operation_xyz
x,y,z
1/2-x,-y,1/2+z
1/2+x,1/2-y,-z
-x,1/2+y,1/2-z
loop_
_atom_site_type_symbol
_atom_site_label
_atom_site_fract_x
_atom_site_fract_y
_atom_site_fract_z
Si Si1 0.263572 0.305796 0.262359
Si Si2 0.969990 0.551093 0.198645
Si Si3 0.871154 0.292615 0.335484
Si Si4 0.977160 0.461361 0.708529
Si Si5 0.246781 0.957564 0.716123
Si Si6 0.656332 0.290494 0.145045
Si Si7 0.944953 0.166030 0.041624
Si Si8 0.080609 0.340727 0.554820
O O1 0.330496 0.258720 0.449781
O O2 0.178538 0.353835 0.384325
O O3 0.198025 0.253087 0.090463
O O4 0.346059 0.351507 0.118926
O O5 0.981961 0.500048 0.439415
O O6 0.852235 0.580107 0.216823
O O7 0.045442 0.614502 0.230409
O O8 0.982202 0.513670 0.937301
O O9 0.762398 0.325357 0.244319
O O10 0.919008 0.243036 0.124445
O O11 0.970216 0.335573 0.416483
O O12 0.864580 0.425026 0.744260
O O13 0.063134 0.403491 0.738009
O O14 0.253478 0.983690 0.431765
O O15 0.611083 0.232167 0.328477
O O16 0.556119 0.335779 0.091757
#
# Coordination Sequence:
#
# PCOD9314682 Si02
#       8
#     4   4   4   4   4   4   4   4
#     4  10  22  41  64  98 136 170 227 292 340 420
#     4  10  23  41  66  96 136 183 232 284 345 416
#     4  10  22  40  65 101 134 176 226 286 357 417
#     4  10  23  41  66  96 136 183 232 284 345 416
#     4   8  16  37  56  88 128 164 211 270 324 388
#     4  10  22  40  65 101 134 176 226 286 357 417
#     4  11  22  41  70  95 141 178 229 290 351 422
#     4  11  22  41  70  95 141 178 229 290 351 422
#
# _framework density 23.58746
#
# number of rings (size 3 to 8) (size 9 to 14) (size 15 to 20)
#    0.000    2.000    2.500    0.000    3.500    1.000 
#   13.500    0.000    8.250    0.000    0.000    0.000 
#    0.000    0.000    0.000    0.000    0.000    0.000 
#
# Total GULP energy -178690.492862 kJ/mol
# GULP energy per Si atom -5584.077902 kJ/mol
# Density = 2.353377 g / cm^3
# Si number density = 23.587460 Si / 1000 Ang^3
#
#
#
# Elastic Constant Matrix: (Units=GPa)
#
#
# Indices 1 2 3 4 5 6 
#
# 1 157.2675 40.5374 44.0728 0.0000 0.0000 0.0000
# 2 40.5374 37.9651 11.8577 0.0000 0.0000 0.0000
# 3 44.0728 11.8577 82.2567 0.0000 0.0000 0.0000
# 4 0.0000 0.0000 0.0000 9.4506 0.0000 0.0000
# 5 0.0000 0.0000 0.0000 0.0000 5.4454 0.0000
# 6 0.0000 0.0000 0.0000 0.0000 0.0000 -5.0280
#
#
#
# Elastic Compliance Matrix: (Units=1/GPa)
#
#
# Indices 1 2 3 4 5 6 
#
# 1 0.009860 -0.009296 -0.003943 0.000000 0.000000 0.000000
# 2 -0.009296 0.036347 -0.000259 0.000000 0.000000 0.000000
# 3 -0.003943 -0.000259 0.014307 0.000000 0.000000 0.000000
# 4 0.000000 0.000000 0.000000 0.105814 0.000000 0.000000
# 5 0.000000 0.000000 0.000000 0.000000 0.183641 0.000000
# 6 0.000000 0.000000 0.000000 0.000000 0.000000 -0.198885
#
#
# Mechanical properties :
#
#
# Convention : Reuss Voigt Hill
#
# Bulk Modulus (GPa) = 29.83458 52.26947 41.05202
# Shear Modulus (GPa) = 26.41983 14.04167 20.23075
#
# Velocity S-wave (km/s) = 3.35039 2.44253 2.93181
# Velocity P-wave (km/s) = 5.25764 5.49205 5.37612
#
# Compressibility (1/GPa) = 0.03351815
#
# Stress axis : x y z
#
# Youngs Moduli (GPa) = 101.42263 27.51259 69.89671
#
# Poissons Ratio (x) = 0.25577 0.27558
# Poissons Ratio (y) = 0.94286 0.01808
# Poissons Ratio (z) = 0.39988 0.00712
#
# Static dielectric constant tensor:
#      x y z
#    x 1.881750 0.000000 0.000000 
#    y 0.000000 2.005740 0.000000 
#    z 0.000000 0.000000 2.003230 
# 
# From -- ./inp_files/1207.got.cif
#   From: 2010.05.17/outbox.cif.g08.bks.cpg/sg19_1_cif.got.tgz:1207.got - 2010.06.03 22:46:19.
