data_PCOD9314277
_publ_section_title
;
Structure prediction by ZEFSAII (Michael W. Deem and Ramdas Pophale) SiO2 
 PCOD9314277
Probable space group: P 21 21 21
;
_chemical_formula_sum "Si O2"
_cell_formula_units_Z 24
_cell_length_a 13.180525
_cell_length_b 8.689460
_cell_length_c 8.024445
_cell_angle_alpha 90.000000
_cell_angle_beta 90.000000
_cell_angle_gamma 90.000000
_cell_volume 919.052884
_symmetry_space_group_name_H-M "P 21 21 21"
_symmetry_group_IT_number 19
_symmetry_cell_setting 'orthorhombic'
loop_
_space_group_symop_operation_xyz
x,y,z
1/2-x,-y,1/2+z
1/2+x,1/2-y,-z
-x,1/2+y,1/2-z
loop_
_atom_site_type_symbol
_atom_site_label
_atom_site_fract_x
_atom_site_fract_y
_atom_site_fract_z
Si Si1 0.195725 0.066808 0.948412
Si Si2 0.477096 0.313636 0.115481
Si Si3 0.489894 0.956288 0.049173
Si Si4 0.932581 0.959340 0.194484
Si Si5 0.349045 0.162119 0.713405
Si Si6 0.714206 0.269018 0.556266
O O1 0.295743 0.156563 0.892985
O O2 0.098450 0.156566 0.890374
O O3 0.175449 0.008593 0.134641
O O4 0.207257 0.894553 0.872430
O O5 0.449503 0.379109 0.297838
O O6 0.465763 0.131515 0.101528
O O7 0.439046 0.418522 0.958556
O O8 0.551221 0.971373 0.876738
O O9 0.385888 0.862462 0.009700
O O10 0.830466 0.862570 0.170472
O O11 0.030503 0.843416 0.190163
O O12 0.277892 0.276435 0.607862
#
# Coordination Sequence:
#
# PCOD9314277 Si02
#       6
#     4   4   4   4   4   4
#     4   9  18  36  59  91 119 174 220 258 313 400
#     4  11  24  39  66  97 132 177 223 273 331 394
#     4  12  23  40  65  98 137 173 225 273 327 402
#     4  11  22  40  68  99 133 172 224 275 334 394
#     4   9  18  35  62  92 126 167 223 260 317 399
#     4  10  21  38  68  95 129 175 223 269 330 397
#
# _framework density 26.113838000000001
#
# number of rings (size 3 to 8) (size 9 to 14) (size 15 to 20)
#    1.000    0.667    3.333    2.000    2.333    0.000 
#    0.000    0.000    3.667    2.000    0.000    0.000 
#    0.000    0.000    0.000    0.000    0.000    0.000 
#
# Total GULP energy -133823.045153 kJ/mol
# GULP energy per Si atom -5575.960215 kJ/mol
# Density = 2.605440 g / cm^3
# Si number density = 26.113838 Si / 1000 Ang^3
#
#
#
# Elastic Constant Matrix: (Units=GPa)
#
#
# Indices 1 2 3 4 5 6 
#
# 1 92.4755 36.7510 15.6847 0.0000 0.0000 0.0000
# 2 36.7510 121.5108 45.6622 0.0000 0.0000 0.0000
# 3 15.6847 45.6622 142.4247 0.0000 0.0000 0.0000
# 4 0.0000 0.0000 0.0000 15.4126 0.0000 0.0000
# 5 0.0000 0.0000 0.0000 0.0000 15.8134 0.0000
# 6 0.0000 0.0000 0.0000 0.0000 0.0000 46.2262
#
#
#
# Elastic Compliance Matrix: (Units=1/GPa)
#
#
# Indices 1 2 3 4 5 6 
#
# 1 0.012295 -0.003650 -0.000184 0.000000 0.000000 0.000000
# 2 -0.003650 0.010440 -0.002945 0.000000 0.000000 0.000000
# 3 -0.000184 -0.002945 0.007986 0.000000 0.000000 0.000000
# 4 0.000000 0.000000 0.000000 0.064882 0.000000 0.000000
# 5 0.000000 0.000000 0.000000 0.000000 0.063238 0.000000
# 6 0.000000 0.000000 0.000000 0.000000 0.000000 0.021633
#
#
# Mechanical properties :
#
#
# Convention : Reuss Voigt Hill
#
# Bulk Modulus (GPa) = 58.26247 61.40074 59.83161
# Shear Modulus (GPa) = 25.03098 32.71133 28.87116
#
# Velocity S-wave (km/s) = 3.09938 3.54311 3.32865
# Velocity P-wave (km/s) = 5.93023 6.34838 6.14286
#
# Compressibility (1/GPa) = 0.01716371
#
# Stress axis : x y z
#
# Youngs Moduli (GPa) = 81.33209 95.78224 125.22226
#
# Poissons Ratio (x) = 0.34957 0.02303
# Poissons Ratio (y) = 0.29683 0.36882
# Poissons Ratio (z) = 0.01496 0.28211
#
# Static dielectric constant tensor:
#      x y z
#    x 2.087360 0.000000 0.000000 
#    y 0.000000 2.070150 0.000000 
#    z 0.000000 0.000000 2.306840 
# 
# From -- ./inp_files/3832.got.cif
#   From: 2010.05.17/outbox.cif.g08.bks.cpg/sg19_2_cif.got.tgz:3832.got - 2010.06.03 22:46:19.
