data_PCOD9314351
_publ_section_title
;
Structure prediction by ZEFSAII (Michael W. Deem and Ramdas Pophale) SiO2 
 PCOD9314351
Probable space group: P 21 21 21
;
_chemical_formula_sum "Si O2"
_cell_formula_units_Z 24
_cell_length_a 7.197884
_cell_length_b 7.865824
_cell_length_c 16.656230
_cell_angle_alpha 90.000000
_cell_angle_beta 90.000000
_cell_angle_gamma 90.000000
_cell_volume 943.030583
_symmetry_space_group_name_H-M "P 21 21 21"
_symmetry_group_IT_number 19
_symmetry_cell_setting 'orthorhombic'
loop_
_space_group_symop_operation_xyz
x,y,z
1/2-x,-y,1/2+z
1/2+x,1/2-y,-z
-x,1/2+y,1/2-z
loop_
_atom_site_type_symbol
_atom_site_label
_atom_site_fract_x
_atom_site_fract_y
_atom_site_fract_z
Si Si1 0.020374 0.727779 0.373232
Si Si2 0.909836 0.761746 0.551065
Si Si3 0.096035 0.091477 0.559581
Si Si4 0.918068 0.187464 0.393538
Si Si5 0.519529 0.076056 0.356566
Si Si6 0.160493 0.057006 0.272243
O O1 0.905821 0.764587 0.454525
O O2 0.215924 0.674419 0.412581
O O3 0.920512 0.596710 0.314301
O O4 0.081007 0.889983 0.317892
O O5 0.959158 0.574971 0.583735
O O6 0.054764 0.900467 0.582326
O O7 0.024507 0.107567 0.468729
O O8 0.984255 0.235097 0.608833
O O9 0.306362 0.153529 0.570292
O O10 0.744659 0.082034 0.352888
O O11 0.074462 0.207321 0.327158
O O12 0.384025 0.051955 0.280484
#
# Coordination Sequence:
#
# PCOD9314351 Si02
#       6
#     4   4   4   4   4   4
#     4  11  27  46  75 105 158 185 253 307 368 445
#     4  11  23  46  70 113 136 201 250 298 362 448
#     4  10  21  39  72 106 145 190 248 299 358 447
#     4  10  21  41  68 104 144 190 245 302 366 447
#     4   9  24  41  74 102 146 190 241 309 365 440
#     4  11  24  49  65 110 149 194 239 309 383 427
#
# _framework density 25.449864000000002
#
# number of rings (size 3 to 8) (size 9 to 14) (size 15 to 20)
#    1.000    0.667    1.667    2.000    4.667    1.333 
#    3.000    1.667    0.000    0.000    0.000    0.000 
#    0.000    0.000    0.000    0.000    0.000    0.000 
#
# Total GULP energy -134058.323057 kJ/mol
# GULP energy per Si atom -5585.763461 kJ/mol
# Density = 2.539194 g / cm^3
# Si number density = 25.449864 Si / 1000 Ang^3
#
#
#
# Elastic Constant Matrix: (Units=GPa)
#
#
# Indices 1 2 3 4 5 6 
#
# 1 116.1887 11.3468 31.2379 0.0000 0.0000 0.0000
# 2 11.3468 106.7007 22.7058 0.0000 0.0000 0.0000
# 3 31.2379 22.7058 90.7705 0.0000 0.0000 0.0000
# 4 0.0000 0.0000 0.0000 33.1695 0.0000 0.0000
# 5 0.0000 0.0000 0.0000 0.0000 33.6685 0.0000
# 6 0.0000 0.0000 0.0000 0.0000 0.0000 30.1860
#
#
#
# Elastic Compliance Matrix: (Units=1/GPa)
#
#
# Indices 1 2 3 4 5 6 
#
# 1 0.009495 -0.000332 -0.003185 0.000000 0.000000 0.000000
# 2 -0.000332 0.009911 -0.002365 0.000000 0.000000 0.000000
# 3 -0.003185 -0.002365 0.012704 0.000000 0.000000 0.000000
# 4 0.000000 0.000000 0.000000 0.030148 0.000000 0.000000
# 5 0.000000 0.000000 0.000000 0.000000 0.029701 0.000000
# 6 0.000000 0.000000 0.000000 0.000000 0.000000 0.033128
#
#
# Mechanical properties :
#
#
# Convention : Reuss Voigt Hill
#
# Bulk Modulus (GPa) = 49.14697 49.36009 49.25353
# Shear Modulus (GPa) = 34.81092 35.96276 35.38684
#
# Velocity S-wave (km/s) = 3.70242 3.76318 3.73292
# Velocity P-wave (km/s) = 6.13437 6.19025 6.16237
#
# Compressibility (1/GPa) = 0.02034713
#
# Stress axis : x y z
#
# Youngs Moduli (GPa) = 105.31490 100.90258 78.71345
#
# Poissons Ratio (x) = 0.03351 0.25068
# Poissons Ratio (y) = 0.03497 0.18614
# Poissons Ratio (z) = 0.33539 0.23861
#
# Static dielectric constant tensor:
#      x y z
#    x 2.024710 0.000000 0.000000 
#    y 0.000000 2.091310 0.000000 
#    z 0.000000 0.000000 1.977240 
# 
# From -- ./inp_files/6562.got.cif
#   From: 2010.05.17/outbox.cif.g08.bks.cpg/sg19_4_cif.got.tgz:6562.got - 2010.06.03 22:46:19.
