data_PCOD9314566
_publ_section_title
;
Structure prediction by ZEFSAII (Michael W. Deem and Ramdas Pophale) SiO2 
 PCOD9314566
Probable space group: P 21 21 21
;
_chemical_formula_sum "Si O2"
_cell_formula_units_Z 24
_cell_length_a 12.703879
_cell_length_b 13.179667
_cell_length_c 6.349414
_cell_angle_alpha 90.000000
_cell_angle_beta 90.000000
_cell_angle_gamma 90.000000
_cell_volume 1063.100766
_symmetry_space_group_name_H-M "P 21 21 21"
_symmetry_group_IT_number 19
_symmetry_cell_setting 'orthorhombic'
loop_
_space_group_symop_operation_xyz
x,y,z
1/2-x,-y,1/2+z
1/2+x,1/2-y,-z
-x,1/2+y,1/2-z
loop_
_atom_site_type_symbol
_atom_site_label
_atom_site_fract_x
_atom_site_fract_y
_atom_site_fract_z
Si Si1 0.609788 0.366479 0.626951
Si Si2 0.989959 0.310069 0.524574
Si Si3 0.573250 0.873756 0.528712
Si Si4 0.633348 0.063316 0.762132
Si Si5 0.996153 0.985200 0.647189
Si Si6 0.299358 0.256936 0.268517
O O1 0.579631 0.275536 0.465915
O O2 0.522754 0.355257 0.811724
O O3 0.587225 0.470012 0.503665
O O4 0.722872 0.339909 0.720040
O O5 0.981285 0.384423 0.722850
O O6 0.878700 0.252365 0.533364
O O7 0.028619 0.381814 0.335406
O O8 0.634147 0.775777 0.444534
O O9 0.646620 0.957738 0.640144
O O10 0.530743 0.929539 0.319535
O O11 0.726151 0.142821 0.726559
O O12 0.603658 0.037316 0.999669
#
# Coordination Sequence:
#
# PCOD9314566 Si02
#       6
#     4   4   4   4   4   4
#     4  10  23  45  63  96 136 169 218 273 319 388
#     4  10  22  42  65  94 129 172 216 267 320 382
#     4  10  22  42  66  95 133 167 214 276 325 385
#     4   9  23  41  65  94 132 166 218 273 323 387
#     4  10  21  46  67  89 141 171 210 279 325 374
#     4  11  23  40  68  96 123 175 218 262 332 386
#
# _framework density 22.575472999999999
#
# number of rings (size 3 to 8) (size 9 to 14) (size 15 to 20)
#    0.000    2.000    1.667    0.000    7.000    0.000 
#   18.000    0.000    0.000    0.000    0.000    0.000 
#    0.000    0.000    0.000    0.000    0.000    0.000 
#
# Total GULP energy -133942.297584 kJ/mol
# GULP energy per Si atom -5580.929066 kJ/mol
# Density = 2.252409 g / cm^3
# Si number density = 22.575473 Si / 1000 Ang^3
#
#
#
# Elastic Constant Matrix: (Units=GPa)
#
#
# Indices 1 2 3 4 5 6 
#
# 1 58.8730 2.6992 26.9923 0.0000 0.0000 0.0000
# 2 2.6992 71.4164 32.2181 0.0000 0.0000 0.0000
# 3 26.9923 32.2181 83.6465 0.0000 0.0000 0.0000
# 4 0.0000 0.0000 0.0000 27.9961 0.0000 0.0000
# 5 0.0000 0.0000 0.0000 0.0000 21.8922 0.0000
# 6 0.0000 0.0000 0.0000 0.0000 0.0000 49.6392
#
#
#
# Elastic Compliance Matrix: (Units=1/GPa)
#
#
# Indices 1 2 3 4 5 6 
#
# 1 0.020342 0.002654 -0.007586 0.000000 0.000000 0.000000
# 2 0.002654 0.017293 -0.007517 0.000000 0.000000 0.000000
# 3 -0.007586 -0.007517 0.017299 0.000000 0.000000 0.000000
# 4 0.000000 0.000000 0.000000 0.035719 0.000000 0.000000
# 5 0.000000 0.000000 0.000000 0.000000 0.045678 0.000000
# 6 0.000000 0.000000 0.000000 0.000000 0.000000 0.020145
#
#
# Mechanical properties :
#
#
# Convention : Reuss Voigt Hill
#
# Bulk Modulus (GPa) = 33.29536 37.52833 35.41185
# Shear Modulus (GPa) = 26.12487 30.04060 28.08273
#
# Velocity S-wave (km/s) = 3.40549 3.65180 3.53079
# Velocity P-wave (km/s) = 5.49942 5.86860 5.68701
#
# Compressibility (1/GPa) = 0.03003421
#
# Stress axis : x y z
#
# Youngs Moduli (GPa) = 49.15860 57.82581 57.80825
#
# Poissons Ratio (x) = -0.15345 0.43856
# Poissons Ratio (y) = -0.13045 0.43455
# Poissons Ratio (z) = 0.37294 0.43469
#
# Static dielectric constant tensor:
#      x y z
#    x 1.883520 0.000000 0.000000 
#    y 0.000000 1.888190 0.000000 
#    z 0.000000 0.000000 1.838280 
# 
# From -- ./inp_files/1465.got.cif
#   From: 2010.05.17/outbox.cif.g08.bks.cpg/sg19_1_cif.got.tgz:1465.got - 2010.06.03 22:46:19.
