data_PCOD9314509
_publ_section_title
;
Structure prediction by ZEFSAII (Michael W. Deem and Ramdas Pophale) SiO2 
 PCOD9314509
Probable space group: P 21 21 21
;
_chemical_formula_sum "Si O2"
_cell_formula_units_Z 16
_cell_length_a 11.218490
_cell_length_b 7.091974
_cell_length_c 8.460200
_cell_angle_alpha 90.000000
_cell_angle_beta 90.000000
_cell_angle_gamma 90.000000
_cell_volume 673.103998
_symmetry_space_group_name_H-M "P 21 21 21"
_symmetry_group_IT_number 19
_symmetry_cell_setting 'orthorhombic'
loop_
_space_group_symop_operation_xyz
x,y,z
1/2-x,-y,1/2+z
1/2+x,1/2-y,-z
-x,1/2+y,1/2-z
loop_
_atom_site_type_symbol
_atom_site_label
_atom_site_fract_x
_atom_site_fract_y
_atom_site_fract_z
Si Si1 0.702338 0.932222 0.408298
Si Si2 0.927428 0.990301 0.581128
Si Si3 0.469705 0.694857 0.916467
Si Si4 0.382598 0.855921 0.583379
O O1 0.639018 0.973226 0.243999
O O2 0.745396 0.714825 0.425082
O O3 0.832955 0.024592 0.436927
O O4 0.624099 0.031033 0.541860
O O5 0.029609 0.139341 0.545954
O O6 0.949173 0.768017 0.553080
O O7 0.437032 0.786078 0.749856
O O8 0.592030 0.575550 0.928065
#
# Coordination Sequence:
#
# PCOD9314509 Si02
#       4
#     4   4   4   4
#     4  10  22  45  58  99 131 157 221 263 300 394
#     4  10  23  42  62  91 132 167 210 266 310 384
#     4  12  22  42  69  89 130 173 208 259 332 367
#     4  10  21  43  63  91 127 171 205 262 318 379
#
# _framework density 23.770471000000001
#
# number of rings (size 3 to 8) (size 9 to 14) (size 15 to 20)
#    1.500    0.000    5.000    0.000    3.500    0.000 
#   13.500    0.000    0.000    0.000    0.000    0.000 
#    0.000    0.000    0.000    0.000    0.000    0.000 
#
# Total GULP energy -89136.135917 kJ/mol
# GULP energy per Si atom -5571.008495 kJ/mol
# Density = 2.371637 g / cm^3
# Si number density = 23.770471 Si / 1000 Ang^3
#
#
#
# Elastic Constant Matrix: (Units=GPa)
#
#
# Indices 1 2 3 4 5 6 
#
# 1 21.5812 4.6789 1.6042 0.0000 0.0000 0.0000
# 2 4.6789 99.3758 12.4331 0.0000 0.0000 0.0000
# 3 1.6042 12.4331 75.4630 0.0000 0.0000 0.0000
# 4 0.0000 0.0000 0.0000 13.8475 0.0000 0.0000
# 5 0.0000 0.0000 0.0000 0.0000 47.1215 0.0000
# 6 0.0000 0.0000 0.0000 0.0000 0.0000 19.2103
#
#
#
# Elastic Compliance Matrix: (Units=1/GPa)
#
#
# Indices 1 2 3 4 5 6 
#
# 1 0.046845 -0.002125 -0.000646 0.000000 0.000000 0.000000
# 2 -0.002125 0.010371 -0.001664 0.000000 0.000000 0.000000
# 3 -0.000646 -0.001664 0.013539 0.000000 0.000000 0.000000
# 4 0.000000 0.000000 0.000000 0.072215 0.000000 0.000000
# 5 0.000000 0.000000 0.000000 0.000000 0.021222 0.000000
# 6 0.000000 0.000000 0.000000 0.000000 0.000000 0.052056
#
#
# Mechanical properties :
#
#
# Convention : Reuss Voigt Hill
#
# Bulk Modulus (GPa) = 16.15836 25.98359 21.07097
# Shear Modulus (GPa) = 20.34624 27.88276 24.11450
#
# Velocity S-wave (km/s) = 2.92883 3.42862 3.18853
# Velocity P-wave (km/s) = 4.27198 5.16030 4.73701
#
# Compressibility (1/GPa) = 0.06188748
#
# Stress axis : x y z
#
# Youngs Moduli (GPa) = 21.34682 96.42283 73.85886
#
# Poissons Ratio (x) = 0.20488 0.04769
# Poissons Ratio (y) = 0.04536 0.12287
# Poissons Ratio (z) = 0.01378 0.16040
#
# Static dielectric constant tensor:
#      x y z
#    x 2.010410 0.000000 0.000000 
#    y 0.000000 1.902110 0.000000 
#    z 0.000000 0.000000 1.858110 
# 
# From -- ./inp_files/289.got.cif
#   From: 2010.05.17/outbox.cif.g08.bks.cpg/sg19_1_cif.got.tgz:289.got - 2010.06.03 22:46:19.
