data_PCOD9314543
_publ_section_title
;
Structure prediction by ZEFSAII (Michael W. Deem and Ramdas Pophale) SiO2 
 PCOD9314543
Probable space group: P 21 21 21
;
_chemical_formula_sum "Si O2"
_cell_formula_units_Z 28
_cell_length_a 17.519364
_cell_length_b 9.162840
_cell_length_c 7.128470
_cell_angle_alpha 90.000000
_cell_angle_beta 90.000000
_cell_angle_gamma 90.000000
_cell_volume 1144.312825
_symmetry_space_group_name_H-M "P 21 21 21"
_symmetry_group_IT_number 19
_symmetry_cell_setting 'orthorhombic'
loop_
_space_group_symop_operation_xyz
x,y,z
1/2-x,-y,1/2+z
1/2+x,1/2-y,-z
-x,1/2+y,1/2-z
loop_
_atom_site_type_symbol
_atom_site_label
_atom_site_fract_x
_atom_site_fract_y
_atom_site_fract_z
Si Si1 0.533910 0.334342 0.978087
Si Si2 0.068427 0.124824 0.618344
Si Si3 0.527461 0.032607 0.805060
Si Si4 0.685843 0.137415 0.344961
Si Si5 0.784859 0.655748 0.506552
Si Si6 0.660061 0.919560 0.031241
Si Si7 0.673162 0.622167 0.189228
O O1 0.495461 0.479756 0.899729
O O2 0.625858 0.336897 0.951363
O O3 0.505894 0.195836 0.861544
O O4 0.522334 0.317321 0.200198
O O5 0.125110 0.254857 0.560624
O O6 0.020040 0.069156 0.447463
O O7 0.114972 0.986576 0.705596
O O8 0.613887 0.996131 0.863928
O O9 0.750484 0.079173 0.481160
O O10 0.724998 0.241879 0.186825
O O11 0.646715 0.012413 0.219931
O O12 0.727424 0.694998 0.343538
O O13 0.774670 0.486788 0.565375
O O14 0.638711 0.750914 0.065083
#
# Coordination Sequence:
#
# PCOD9314543 Si02
#       7
#     4   4   4   4   4   4   4
#     4  10  26  46  67 103 139 180 233 287 341 422
#     4  10  25  49  68  99 145 184 226 290 352 417
#     4  12  27  45  72 100 143 186 233 288 357 415
#     4  10  23  44  65  95 140 176 225 293 344 403
#     4  10  21  44  63  98 136 172 227 279 340 403
#     4  12  24  41  67 103 129 179 235 278 351 414
#     4  10  22  37  70  96 128 177 227 275 335 418
#
# _framework density 24.468833
#
# number of rings (size 3 to 8) (size 9 to 14) (size 15 to 20)
#    0.000    1.714    2.857    2.571   10.000    1.143 
#    2.571    0.000    0.000    0.000    0.000    0.000 
#    0.000    0.000    0.000    0.000    0.000    0.000 
#
# Total GULP energy -156787.505181 kJ/mol
# GULP energy per Si atom -5599.553756 kJ/mol
# Density = 2.441314 g / cm^3
# Si number density = 24.468833 Si / 1000 Ang^3
#
#
#
# Elastic Constant Matrix: (Units=GPa)
#
#
# Indices 1 2 3 4 5 6 
#
# 1 38.7726 1.5233 15.6815 0.0000 0.0000 0.0000
# 2 1.5233 88.7543 3.0807 0.0000 0.0000 0.0000
# 3 15.6815 3.0807 39.2760 0.0000 0.0000 0.0000
# 4 0.0000 0.0000 0.0000 39.2091 0.0000 0.0000
# 5 0.0000 0.0000 0.0000 0.0000 35.5408 0.0000
# 6 0.0000 0.0000 0.0000 0.0000 0.0000 31.4705
#
#
#
# Elastic Compliance Matrix: (Units=1/GPa)
#
#
# Indices 1 2 3 4 5 6 
#
# 1 0.030759 -0.000102 -0.012273 0.000000 0.000000 0.000000
# 2 -0.000102 0.011298 -0.000845 0.000000 0.000000 0.000000
# 3 -0.012273 -0.000845 0.030427 0.000000 0.000000 0.000000
# 4 0.000000 0.000000 0.000000 0.025504 0.000000 0.000000
# 5 0.000000 0.000000 0.000000 0.000000 0.028137 0.000000
# 6 0.000000 0.000000 0.000000 0.000000 0.000000 0.031776
#
#
# Mechanical properties :
#
#
# Convention : Reuss Voigt Hill
#
# Bulk Modulus (GPa) = 21.71846 23.04154 22.38000
# Shear Modulus (GPa) = 25.03877 31.01190 28.02533
#
# Velocity S-wave (km/s) = 3.20236 3.56392 3.38797
# Velocity P-wave (km/s) = 4.75066 5.13542 4.94678
#
# Compressibility (1/GPa) = 0.04604378
#
# Stress axis : x y z
#
# Youngs Moduli (GPa) = 32.51058 88.51000 32.86523
#
# Poissons Ratio (x) = 0.00902 0.40336
# Poissons Ratio (y) = 0.00331 0.02779
# Poissons Ratio (z) = 0.39900 0.07484
#
# Static dielectric constant tensor:
#      x y z
#    x 1.943860 0.000000 0.000000 
#    y 0.000000 1.955270 0.000000 
#    z 0.000000 0.000000 1.927870 
# 
# From -- ./inp_files/4192.got.cif
#   From: 2010.05.17/outbox.cif.g08.bks.cpg/sg19_3_cif.got.tgz:4192.got - 2010.06.03 22:46:19.
