data_PCOD9314419
_publ_section_title
;
Structure prediction by ZEFSAII (Michael W. Deem and Ramdas Pophale) SiO2 
 PCOD9314419
Probable space group: P 21 21 21
;
_chemical_formula_sum "Si O2"
_cell_formula_units_Z 32
_cell_length_a 11.051326
_cell_length_b 11.192986
_cell_length_c 11.764667
_cell_angle_alpha 90.000000
_cell_angle_beta 90.000000
_cell_angle_gamma 90.000000
_cell_volume 1455.257981
_symmetry_space_group_name_H-M "P 21 21 21"
_symmetry_group_IT_number 19
_symmetry_cell_setting 'orthorhombic'
loop_
_space_group_symop_operation_xyz
x,y,z
1/2-x,-y,1/2+z
1/2+x,1/2-y,-z
-x,1/2+y,1/2-z
loop_
_atom_site_type_symbol
_atom_site_label
_atom_site_fract_x
_atom_site_fract_y
_atom_site_fract_z
Si Si1 0.987033 0.976839 0.048859
Si Si2 0.706867 0.926725 0.722690
Si Si3 0.555194 0.963273 0.286168
Si Si4 0.534141 0.728989 0.795010
Si Si5 0.927405 0.389647 0.916039
Si Si6 0.318609 0.046345 0.864756
Si Si7 0.890925 0.724339 0.638602
Si Si8 0.676261 0.353335 0.819130
O O1 0.014295 0.841063 0.087687
O O2 0.867304 0.021405 0.116361
O O3 0.969878 0.991958 0.914782
O O4 0.092480 0.059939 0.103201
O O5 0.800180 0.025129 0.770184
O O6 0.607305 0.855123 0.798854
O O7 0.800381 0.822055 0.688477
O O8 0.485673 0.040472 0.189866
O O9 0.492704 0.832920 0.279521
O O10 0.607258 0.636568 0.715816
O O11 0.408822 0.750912 0.729638
O O12 0.802005 0.326227 0.880665
O O13 0.026850 0.291835 0.953833
O O14 0.892504 0.474228 0.020335
O O15 0.196264 0.116457 0.891949
O O16 0.291071 0.930564 0.792508
#
# Coordination Sequence:
#
# PCOD9314419 Si02
#       8
#     4   4   4   4   4   4   4   4
#     4  10  22  44  68  90 132 165 208 273 319 383
#     4   9  22  44  60  95 129 165 211 264 323 379
#     4  11  23  44  61  97 130 163 217 268 317 386
#     4   9  21  42  64  91 123 171 208 262 321 386
#     4  11  24  38  65  97 121 172 214 262 322 385
#     4  10  21  41  64  91 131 164 210 276 308 381
#     4  10  22  40  62  90 129 164 211 266 311 372
#     4  10  21  41  64  95 123 164 219 247 331 382
#
# _framework density 21.989228000000001
#
# number of rings (size 3 to 8) (size 9 to 14) (size 15 to 20)
#    0.000    2.000    1.250    0.750    8.750    0.000 
#   20.250    0.000    0.000    0.000    0.000    0.000 
#    0.000    0.000    0.000    0.000    0.000    0.000 
#
# Total GULP energy -178470.546637 kJ/mol
# GULP energy per Si atom -5577.204582 kJ/mol
# Density = 2.193918 g / cm^3
# Si number density = 21.989228 Si / 1000 Ang^3
#
#
#
# Elastic Constant Matrix: (Units=GPa)
#
#
# Indices 1 2 3 4 5 6 
#
# 1 93.6188 27.0191 26.8194 0.0000 0.0000 0.0000
# 2 27.0191 32.8380 6.3231 0.0000 0.0000 0.0000
# 3 26.8194 6.3231 95.6520 0.0000 0.0000 0.0000
# 4 0.0000 0.0000 0.0000 5.1685 0.0000 0.0000
# 5 0.0000 0.0000 0.0000 0.0000 30.1542 0.0000
# 6 0.0000 0.0000 0.0000 0.0000 0.0000 42.6318
#
#
#
# Elastic Compliance Matrix: (Units=1/GPa)
#
#
# Indices 1 2 3 4 5 6 
#
# 1 0.015051 -0.011721 -0.003445 0.000000 0.000000 0.000000
# 2 -0.011721 0.039972 0.000644 0.000000 0.000000 0.000000
# 3 -0.003445 0.000644 0.011378 0.000000 0.000000 0.000000
# 4 0.000000 0.000000 0.000000 0.193480 0.000000 0.000000
# 5 0.000000 0.000000 0.000000 0.000000 0.033163 0.000000
# 6 0.000000 0.000000 0.000000 0.000000 0.000000 0.023457
#
#
# Mechanical properties :
#
#
# Convention : Reuss Voigt Hill
#
# Bulk Modulus (GPa) = 26.76854 38.04802 32.40828
# Shear Modulus (GPa) = 13.96656 26.38739 20.17697
#
# Velocity S-wave (km/s) = 2.52296 3.46788 3.03245
# Velocity P-wave (km/s) = 4.54830 5.77715 5.19916
#
# Compressibility (1/GPa) = 0.03735728
#
# Stress axis : x y z
#
# Youngs Moduli (GPa) = 66.43926 25.01727 87.88875
#
# Poissons Ratio (x) = 0.29322 0.30281
# Poissons Ratio (y) = 0.77872 -0.05660
# Poissons Ratio (z) = 0.22891 -0.01611
#
# Static dielectric constant tensor:
#      x y z
#    x 1.831610 0.000000 0.000000 
#    y 0.000000 1.875040 0.000000 
#    z 0.000000 0.000000 1.799000 
# 
# From -- ./inp_files/5049.got.cif
#   From: 2010.05.17/outbox.cif.g08.bks.cpg/sg19_3_cif.got.tgz:5049.got - 2010.06.03 22:46:19.
