data_PCOD9314468
_publ_section_title
;
Structure prediction by ZEFSAII (Michael W. Deem and Ramdas Pophale) SiO2 
 PCOD9314468
Probable space group: P 21 21 21
;
_chemical_formula_sum "Si O2"
_cell_formula_units_Z 32
_cell_length_a 6.978499
_cell_length_b 10.195541
_cell_length_c 22.108384
_cell_angle_alpha 90.000000
_cell_angle_beta 90.000000
_cell_angle_gamma 90.000000
_cell_volume 1573.002074
_symmetry_space_group_name_H-M "P 21 21 21"
_symmetry_group_IT_number 19
_symmetry_cell_setting 'orthorhombic'
loop_
_space_group_symop_operation_xyz
x,y,z
1/2-x,-y,1/2+z
1/2+x,1/2-y,-z
-x,1/2+y,1/2-z
loop_
_atom_site_type_symbol
_atom_site_label
_atom_site_fract_x
_atom_site_fract_y
_atom_site_fract_z
Si Si1 0.245284 0.471119 0.844633
Si Si2 0.010874 0.977634 0.761882
Si Si3 0.278300 0.168478 0.823253
Si Si4 0.753151 0.060465 0.520562
Si Si5 0.994745 0.511090 0.084529
Si Si6 0.811425 0.805485 0.857102
Si Si7 0.112295 0.850337 0.964494
Si Si8 0.151315 0.941187 0.198653
O O1 0.124109 0.535250 0.790274
O O2 0.221597 0.315117 0.839112
O O3 0.198973 0.520811 0.911391
O O4 0.463753 0.502499 0.829962
O O5 0.902219 0.862272 0.795509
O O6 0.086850 0.080779 0.811788
O O7 0.206461 0.947889 0.725193
O O8 0.383472 0.149630 0.758265
O O9 0.412946 0.104543 0.873942
O O10 0.524609 0.067525 0.509319
O O11 0.828539 0.209050 0.509476
O O12 0.863705 0.974437 0.470682
O O13 0.806490 0.580248 0.056633
O O14 0.122780 0.610444 0.125248
O O15 0.754579 0.655282 0.848222
O O16 0.973694 0.825464 0.907360
#
# Coordination Sequence:
#
# PCOD9314468 Si02
#       8
#     4   4   4   4   4   4   4   4
#     4  12  24  46  63 102 137 172 231 272 346 413
#     4  10  21  42  64 100 134 168 219 265 343 413
#     4  10  24  44  64  98 134 176 211 273 345 411
#     4  11  25  38  69  94 128 177 225 284 326 399
#     4  11  23  44  65  93 134 175 226 277 337 391
#     4  11  21  40  69  98 126 174 218 275 341 389
#     4  11  21  41  66  96 127 166 233 283 329 391
#     4  10  23  39  68  99 132 170 211 283 335 407
#
# _framework density 20.343266
#
# number of rings (size 3 to 8) (size 9 to 14) (size 15 to 20)
#    0.750    0.500    3.750    2.250    1.750    1.000 
#   15.750    0.000    0.000    0.000    0.000    0.000 
#    0.000    0.000    0.000    0.000    0.000    0.000 
#
# Total GULP energy -178546.334848 kJ/mol
# GULP energy per Si atom -5579.572964 kJ/mol
# Density = 2.029696 g / cm^3
# Si number density = 20.343266 Si / 1000 Ang^3
#
#
#
# Elastic Constant Matrix: (Units=GPa)
#
#
# Indices 1 2 3 4 5 6 
#
# 1 106.6844 22.0335 22.1956 0.0000 0.0000 0.0000
# 2 22.0335 41.7551 0.9621 0.0000 0.0000 0.0000
# 3 22.1956 0.9621 76.5232 0.0000 0.0000 0.0000
# 4 0.0000 0.0000 0.0000 26.9172 0.0000 0.0000
# 5 0.0000 0.0000 0.0000 0.0000 32.0812 0.0000
# 6 0.0000 0.0000 0.0000 0.0000 0.0000 24.3157
#
#
#
# Elastic Compliance Matrix: (Units=1/GPa)
#
#
# Indices 1 2 3 4 5 6 
#
# 1 0.011247 -0.005862 -0.003189 0.000000 0.000000 0.000000
# 2 -0.005862 0.027011 0.001361 0.000000 0.000000 0.000000
# 3 -0.003189 0.001361 0.013976 0.000000 0.000000 0.000000
# 4 0.000000 0.000000 0.000000 0.037151 0.000000 0.000000
# 5 0.000000 0.000000 0.000000 0.000000 0.031171 0.000000
# 6 0.000000 0.000000 0.000000 0.000000 0.000000 0.041126
#
#
# Mechanical properties :
#
#
# Convention : Reuss Voigt Hill
#
# Bulk Modulus (GPa) = 27.13363 35.03835 31.08599
# Shear Modulus (GPa) = 26.40669 28.64756 27.52713
#
# Velocity S-wave (km/s) = 3.60676 3.75668 3.68249
# Velocity P-wave (km/s) = 5.54183 6.00648 5.77883
#
# Compressibility (1/GPa) = 0.03685464
#
# Stress axis : x y z
#
# Youngs Moduli (GPa) = 88.90915 37.02209 71.55283
#
# Poissons Ratio (x) = 0.21701 0.22816
# Poissons Ratio (y) = 0.52115 -0.09735
# Poissons Ratio (z) = 0.28350 -0.05037
#
# Static dielectric constant tensor:
#      x y z
#    x 1.739680 0.000000 0.000000 
#    y 0.000000 1.708230 0.000000 
#    z 0.000000 0.000000 1.759300 
# 
# From -- ./inp_files/7294.got.cif
#   From: 2010.05.17/outbox.cif.g08.bks.cpg/sg19_4_cif.got.tgz:7294.got - 2010.06.03 22:46:19.
