data_PCOD9314931
_publ_section_title
;
Structure prediction by ZEFSAII (Michael W. Deem and Ramdas Pophale) SiO2 
 PCOD9314931
Probable space group: P 21 21 21
;
_chemical_formula_sum "Si O2"
_cell_formula_units_Z 32
_cell_length_a 6.145631
_cell_length_b 10.339143
_cell_length_c 26.719872
_cell_angle_alpha 90.000000
_cell_angle_beta 90.000000
_cell_angle_gamma 90.000000
_cell_volume 1697.795569
_symmetry_space_group_name_H-M "P 21 21 21"
_symmetry_group_IT_number 19
_symmetry_cell_setting 'orthorhombic'
loop_
_space_group_symop_operation_xyz
x,y,z
1/2-x,-y,1/2+z
1/2+x,1/2-y,-z
-x,1/2+y,1/2-z
loop_
_atom_site_type_symbol
_atom_site_label
_atom_site_fract_x
_atom_site_fract_y
_atom_site_fract_z
Si Si1 0.388524 0.796643 0.282164
Si Si2 0.272957 0.831750 0.660577
Si Si3 0.098663 0.554265 0.271500
Si Si4 0.511973 0.569739 0.670557
Si Si5 0.742912 0.419699 0.401994
Si Si6 0.919680 0.684555 0.117769
Si Si7 0.377231 0.353090 0.321989
Si Si8 0.216002 0.188337 0.493110
O O1 0.544618 0.725328 0.321609
O O2 0.214211 0.690613 0.263761
O O3 0.260843 0.907356 0.312295
O O4 0.504452 0.839447 0.231219
O O5 0.360619 0.911491 0.708700
O O6 0.423175 0.706637 0.651483
O O7 0.287658 0.934783 0.616262
O O8 0.217870 0.474507 0.314810
O O9 0.103861 0.468342 0.222348
O O10 0.473642 0.450032 0.634060
O O11 0.537430 0.379135 0.368016
O O12 0.709395 0.413817 0.461520
O O13 0.920597 0.307540 0.389823
O O14 0.761851 0.728171 0.162794
O O15 0.797043 0.658211 0.065679
O O16 0.467973 0.246249 0.499090
#
# Coordination Sequence:
#
# PCOD9314931 Si02
#       8
#     4   4   4   4   4   4   4   4
#     4  11  24  36  57  85 132 169 212 248 318 394
#     4  11  22  40  58  88 127 173 205 260 317 393
#     4  11  22  36  56  89 125 169 214 255 305 391
#     4  11  25  39  58  90 135 171 213 260 323 395
#     4  11  22  40  69  91 122 162 222 275 331 384
#     4  11  24  41  65  92 128 166 218 278 333 384
#     4  12  21  34  59  93 118 168 210 262 320 379
#     4  10  22  44  70 104 129 164 226 296 339 390
#
# _framework density 18.847971000000001
#
# number of rings (size 3 to 8) (size 9 to 14) (size 15 to 20)
#    0.000    1.000    5.000    2.250    3.500    1.000 
#    0.000    0.000    2.750    0.000    0.000    0.000 
#    0.000    0.000    0.000    0.000    0.000    0.000 
#
# Total GULP energy -178221.451620 kJ/mol
# GULP energy per Si atom -5569.420363 kJ/mol
# Density = 1.880507 g / cm^3
# Si number density = 18.847971 Si / 1000 Ang^3
#
#
#
# Elastic Constant Matrix: (Units=GPa)
#
#
# Indices 1 2 3 4 5 6 
#
# 1 51.4350 5.2646 7.7499 0.0000 0.0000 0.0000
# 2 5.2646 65.2369 2.3922 0.0000 0.0000 0.0000
# 3 7.7499 2.3922 41.2933 0.0000 0.0000 0.0000
# 4 0.0000 0.0000 0.0000 21.6820 0.0000 0.0000
# 5 0.0000 0.0000 0.0000 0.0000 31.2634 0.0000
# 6 0.0000 0.0000 0.0000 0.0000 0.0000 23.0357
#
#
#
# Elastic Compliance Matrix: (Units=1/GPa)
#
#
# Indices 1 2 3 4 5 6 
#
# 1 0.020151 -0.001491 -0.003696 0.000000 0.000000 0.000000
# 2 -0.001491 0.015472 -0.000617 0.000000 0.000000 0.000000
# 3 -0.003696 -0.000617 0.024946 0.000000 0.000000 0.000000
# 4 0.000000 0.000000 0.000000 0.046121 0.000000 0.000000
# 5 0.000000 0.000000 0.000000 0.000000 0.031986 0.000000
# 6 0.000000 0.000000 0.000000 0.000000 0.000000 0.043411
#
#
# Mechanical properties :
#
#
# Convention : Reuss Voigt Hill
#
# Bulk Modulus (GPa) = 20.42332 20.97541 20.69936
# Shear Modulus (GPa) = 23.80785 24.70012 24.25398
#
# Velocity S-wave (km/s) = 3.55794 3.62400 3.59112
# Velocity P-wave (km/s) = 5.26668 5.35388 5.31046
#
# Compressibility (1/GPa) = 0.04896364
#
# Stress axis : x y z
#
# Youngs Moduli (GPa) = 49.62429 64.63436 40.08606
#
# Poissons Ratio (x) = 0.09635 0.14814
# Poissons Ratio (y) = 0.07398 0.02471
# Poissons Ratio (z) = 0.18339 0.03985
#
# Static dielectric constant tensor:
#      x y z
#    x 1.756320 0.000000 0.000000 
#    y 0.000000 1.656510 0.000000 
#    z 0.000000 0.000000 1.621350 
# 
# From -- ./inp_files/2272.got.cif
#   From: 2010.05.17/outbox.cif.g08.bks.cpg/sg19_2_cif.got.tgz:2272.got - 2010.06.03 22:46:19.
