data_PCOD9314162
_publ_section_title
;
Structure prediction by ZEFSAII (Michael W. Deem and Ramdas Pophale) SiO2 
 PCOD9314162
Probable space group: P 21 21 21
;
_chemical_formula_sum "Si O2"
_cell_formula_units_Z 32
_cell_length_a 5.008288
_cell_length_b 11.775154
_cell_length_c 23.960446
_cell_angle_alpha 90.000000
_cell_angle_beta 90.000000
_cell_angle_gamma 90.000000
_cell_volume 1413.028067
_symmetry_space_group_name_H-M "P 21 21 21"
_symmetry_group_IT_number 19
_symmetry_cell_setting 'orthorhombic'
loop_
_space_group_symop_operation_xyz
x,y,z
1/2-x,-y,1/2+z
1/2+x,1/2-y,-z
-x,1/2+y,1/2-z
loop_
_atom_site_type_symbol
_atom_site_label
_atom_site_fract_x
_atom_site_fract_y
_atom_site_fract_z
Si Si1 0.136203 0.084704 0.151950
Si Si2 0.322150 0.087315 0.997902
Si Si3 0.347729 0.278836 0.216651
Si Si4 0.486228 0.825767 0.014957
Si Si5 0.184575 0.686366 0.438951
Si Si6 0.280522 0.509509 0.760508
Si Si7 0.446729 0.882018 0.135595
Si Si8 0.173881 0.730565 0.220308
O O1 0.320218 0.189699 0.167904
O O2 0.885423 0.140570 0.122083
O O3 0.259234 0.985129 0.116110
O O4 0.056212 0.020891 0.209046
O O5 0.027924 0.118273 0.021543
O O6 0.529101 0.145030 0.041113
O O7 0.399831 0.953041 0.992100
O O8 0.349380 0.177520 0.946018
O O9 0.223220 0.402333 0.210373
O O10 0.651987 0.298629 0.233938
O O11 0.139501 0.235477 0.265779
O O12 0.586243 0.842660 0.079258
O O13 0.726459 0.757150 0.985085
O O14 0.199915 0.391635 0.733235
O O15 0.118823 0.562596 0.813601
O O16 0.264020 0.783675 0.162288
#
# Coordination Sequence:
#
# PCOD9314162 Si02
#       8
#     4   4   4   4   4   4   4   4
#     4  11  20  36  63  92 115 166 208 250 309 391
#     4  10  21  42  62  92 123 158 209 276 321 361
#     4  10  21  34  56  90 120 151 196 252 299 360
#     4  12  27  43  67  93 131 173 224 271 323 395
#     4  10  21  36  69  92 118 158 214 269 313 374
#     4  10  21  38  63  88 131 158 206 255 313 387
#     4  11  22  40  67  89 123 172 209 257 318 391
#     4  10  21  37  59  92 119 158 200 250 302 373
#
# _framework density 22.646398999999999
#
# number of rings (size 3 to 8) (size 9 to 14) (size 15 to 20)
#    0.000    1.500    3.750    1.500    1.750    0.000 
#    2.250    0.000   11.000    0.000    0.000    0.000 
#    0.000    0.000    0.000    0.000    0.000    0.000 
#
# Total GULP energy -178162.490678 kJ/mol
# GULP energy per Si atom -5567.577834 kJ/mol
# Density = 2.259486 g / cm^3
# Si number density = 22.646399 Si / 1000 Ang^3
#
#
#
# Elastic Constant Matrix: (Units=GPa)
#
#
# Indices 1 2 3 4 5 6 
#
# 1 73.3412 19.1940 13.5409 0.0000 0.0000 0.0000
# 2 19.1940 150.1778 33.9337 0.0000 0.0000 0.0000
# 3 13.5409 33.9337 42.2000 0.0000 0.0000 0.0000
# 4 0.0000 0.0000 0.0000 33.6717 0.0000 0.0000
# 5 0.0000 0.0000 0.0000 0.0000 27.1634 0.0000
# 6 0.0000 0.0000 0.0000 0.0000 0.0000 31.2155
#
#
#
# Elastic Compliance Matrix: (Units=1/GPa)
#
#
# Indices 1 2 3 4 5 6 
#
# 1 0.014612 -0.000988 -0.003895 0.000000 0.000000 0.000000
# 2 -0.000988 0.008204 -0.006280 0.000000 0.000000 0.000000
# 3 -0.003895 -0.006280 0.029996 0.000000 0.000000 0.000000
# 4 0.000000 0.000000 0.000000 0.029699 0.000000 0.000000
# 5 0.000000 0.000000 0.000000 0.000000 0.036814 0.000000
# 6 0.000000 0.000000 0.000000 0.000000 0.000000 0.032035
#
#
# Mechanical properties :
#
#
# Convention : Reuss Voigt Hill
#
# Bulk Modulus (GPa) = 32.79961 44.33955 38.56958
# Shear Modulus (GPa) = 27.19636 31.68016 29.43826
#
# Velocity S-wave (km/s) = 3.46918 3.74425 3.60934
# Velocity P-wave (km/s) = 5.52827 6.18984 5.86838
#
# Compressibility (1/GPa) = 0.03048816
#
# Stress axis : x y z
#
# Youngs Moduli (GPa) = 68.43493 121.89141 33.33745
#
# Poissons Ratio (x) = 0.12038 0.12984
# Poissons Ratio (y) = 0.06758 0.20936
# Poissons Ratio (z) = 0.26653 0.76549
#
# Static dielectric constant tensor:
#      x y z
#    x 1.897420 0.000000 0.000000 
#    y 0.000000 1.917170 0.000000 
#    z 0.000000 0.000000 1.884890 
# 
# From -- ./inp_files/1295.got.cif
#   From: 2010.05.17/outbox.cif.g08.bks.cpg/sg19_1_cif.got.tgz:1295.got - 2010.06.03 22:46:19.
