data_PCOD9314030
_publ_section_title
;
Structure prediction by ZEFSAII (Michael W. Deem and Ramdas Pophale) SiO2 
 PCOD9314030
Probable space group: P 21 21 21
;
_chemical_formula_sum "Si O2"
_cell_formula_units_Z 24
_cell_length_a 7.717219
_cell_length_b 13.546663
_cell_length_c 9.022846
_cell_angle_alpha 90.000000
_cell_angle_beta 90.000000
_cell_angle_gamma 90.000000
_cell_volume 943.271465
_symmetry_space_group_name_H-M "P 21 21 21"
_symmetry_group_IT_number 19
_symmetry_cell_setting 'orthorhombic'
loop_
_space_group_symop_operation_xyz
x,y,z
1/2-x,-y,1/2+z
1/2+x,1/2-y,-z
-x,1/2+y,1/2-z
loop_
_atom_site_type_symbol
_atom_site_label
_atom_site_fract_x
_atom_site_fract_y
_atom_site_fract_z
Si Si1 0.612107 0.755474 0.361260
Si Si2 0.682708 0.896484 0.895870
Si Si3 0.736933 0.449219 0.274266
Si Si4 0.602663 0.065151 0.119243
Si Si5 0.424138 0.776600 0.058123
Si Si6 0.611356 0.390254 0.961034
O O1 0.472470 0.672819 0.410530
O O2 0.568680 0.773958 0.189115
O O3 0.793334 0.702412 0.384698
O O4 0.561678 0.850682 0.458460
O O5 0.740974 0.920620 0.731988
O O6 0.841822 0.830369 0.959703
O O7 0.513155 0.828988 0.919740
O O8 0.650791 0.995776 0.984616
O O9 0.556702 0.508570 0.299119
O O10 0.720047 0.349456 0.370594
O O11 0.735394 0.423599 0.100625
O O12 0.881437 0.519705 0.345353
#
# Coordination Sequence:
#
# PCOD9314030 Si02
#       6
#     4   4   4   4   4   4
#     4   9  20  39  60  86 121 156 194 241 290 344
#     4  10  20  40  64  86 118 156 194 242 294 344
#     4   9  20  39  60  86 121 156 194 241 290 344
#     4   9  20  39  60  86 121 156 194 241 290 344
#     4   9  20  39  60  86 121 156 194 241 290 344
#     4  10  20  40  64  86 118 156 194 242 294 344
#
# _framework density 25.443363000000002
#
# number of rings (size 3 to 8) (size 9 to 14) (size 15 to 20)
#    0.000    2.667    0.000    0.000    0.000    8.000 
#    0.000   43.333    0.000    0.000    0.000    0.000 
#    0.000    0.000    0.000    0.000    0.000    0.000 
#
# Total GULP energy -134357.559872 kJ/mol
# GULP energy per Si atom -5598.231661 kJ/mol
# Density = 2.538545 g / cm^3
# Si number density = 25.443363 Si / 1000 Ang^3
#
#
#
# Elastic Constant Matrix: (Units=GPa)
#
#
# Indices 1 2 3 4 5 6 
#
# 1 46.2643 4.7662 31.8651 0.0000 0.0000 0.0000
# 2 4.7662 66.7408 28.0289 0.0000 0.0000 0.0000
# 3 31.8651 28.0289 81.3761 0.0000 0.0000 0.0000
# 4 0.0000 0.0000 0.0000 41.8482 0.0000 0.0000
# 5 0.0000 0.0000 0.0000 0.0000 33.8319 0.0000
# 6 0.0000 0.0000 0.0000 0.0000 0.0000 51.1360
#
#
#
# Elastic Compliance Matrix: (Units=1/GPa)
#
#
# Indices 1 2 3 4 5 6 
#
# 1 0.030201 0.003285 -0.012958 0.000000 0.000000 0.000000
# 2 0.003285 0.017875 -0.007443 0.000000 0.000000 0.000000
# 3 -0.012958 -0.007443 0.019926 0.000000 0.000000 0.000000
# 4 0.000000 0.000000 0.000000 0.023896 0.000000 0.000000
# 5 0.000000 0.000000 0.000000 0.000000 0.029558 0.000000
# 6 0.000000 0.000000 0.000000 0.000000 0.000000 0.019556
#
#
# Mechanical properties :
#
#
# Convention : Reuss Voigt Hill
#
# Bulk Modulus (GPa) = 29.61145 35.96684 32.78914
# Shear Modulus (GPa) = 26.80973 34.01129 30.41051
#
# Velocity S-wave (km/s) = 3.24960 3.66012 3.46095
# Velocity P-wave (km/s) = 5.07379 5.65939 5.37457
#
# Compressibility (1/GPa) = 0.03377072
#
# Stress axis : x y z
#
# Youngs Moduli (GPa) = 33.11126 55.94553 50.18530
#
# Poissons Ratio (x) = -0.18378 0.65028
# Poissons Ratio (y) = -0.10877 0.37353
# Poissons Ratio (z) = 0.42904 0.41640
#
# Static dielectric constant tensor:
#      x y z
#    x 2.024850 0.000000 0.000000 
#    y 0.000000 1.964140 0.000000 
#    z 0.000000 0.000000 1.952620 
# 
# From -- ./inp_files/2785.got.cif
#   From: 2010.05.17/outbox.cif.g08.bks.cpg/sg19_2_cif.got.tgz:2785.got - 2010.06.03 22:46:19.
