data_PCOD9314913
_publ_section_title
;
Structure prediction by ZEFSAII (Michael W. Deem and Ramdas Pophale) SiO2 
 PCOD9314913
Probable space group: P 21 21 21
;
_chemical_formula_sum "Si O2"
_cell_formula_units_Z 28
_cell_length_a 9.063200
_cell_length_b 5.072931
_cell_length_c 23.570012
_cell_angle_alpha 90.000000
_cell_angle_beta 90.000000
_cell_angle_gamma 90.000000
_cell_volume 1083.678165
_symmetry_space_group_name_H-M "P 21 21 21"
_symmetry_group_IT_number 19
_symmetry_cell_setting 'orthorhombic'
loop_
_space_group_symop_operation_xyz
x,y,z
1/2-x,-y,1/2+z
1/2+x,1/2-y,-z
-x,1/2+y,1/2-z
loop_
_atom_site_type_symbol
_atom_site_label
_atom_site_fract_x
_atom_site_fract_y
_atom_site_fract_z
Si Si1 0.477522 0.117581 0.615964
Si Si2 0.429201 0.379109 0.729214
Si Si3 0.750020 0.160778 0.171396
Si Si4 0.336511 0.902052 0.098613
Si Si5 0.119377 0.435192 0.493776
Si Si6 0.613805 0.258848 0.061876
Si Si7 0.494540 0.283518 0.290254
O O1 0.437540 0.336070 0.662585
O O2 0.323148 0.966836 0.605938
O O3 0.595552 0.922397 0.643761
O O4 0.560351 0.228065 0.560410
O O5 0.443736 0.683209 0.746416
O O6 0.291878 0.260819 0.764632
O O7 0.669304 0.342264 0.124859
O O8 0.651378 0.900072 0.179283
O O9 0.308758 0.699615 0.047861
O O10 0.388273 0.780835 0.158413
O O11 0.474462 0.070801 0.076378
O O12 0.244630 0.628351 0.468351
O O13 0.965388 0.541748 0.519810
O O14 0.520185 0.508100 0.241991
#
# Coordination Sequence:
#
# PCOD9314913 Si02
#       7
#     4   4   4   4   4   4   4
#     4  10  22  44  67 102 136 185 243 300 366 436
#     4  10  22  45  68 105 143 186 241 301 367 439
#     4   9  22  44  70 106 142 194 239 309 369 438
#     4  11  24  43  68 100 139 183 242 300 365 440
#     4  11  23  45  67 102 135 189 238 301 371 443
#     4  10  23  44  68  99 141 182 243 301 372 443
#     4  11  26  45  72 106 148 195 242 300 370 439
#
# _framework density 25.837931000000001
#
# number of rings (size 3 to 8) (size 9 to 14) (size 15 to 20)
#    0.000    1.714    0.000    2.571    4.000    6.857 
#   30.857    0.000    0.000    0.000    0.000    0.000 
#    0.000    0.000    0.000    0.000    0.000    0.000 
#
# Total GULP energy -156417.035945 kJ/mol
# GULP energy per Si atom -5586.322712 kJ/mol
# Density = 2.577912 g / cm^3
# Si number density = 25.837931 Si / 1000 Ang^3
#
#
#
# Elastic Constant Matrix: (Units=GPa)
#
#
# Indices 1 2 3 4 5 6 
#
# 1 152.5676 15.6222 45.4183 0.0000 0.0000 0.0000
# 2 15.6222 36.0697 27.3213 0.0000 0.0000 0.0000
# 3 45.4183 27.3213 187.0289 0.0000 0.0000 0.0000
# 4 0.0000 0.0000 0.0000 35.1059 0.0000 0.0000
# 5 0.0000 0.0000 0.0000 0.0000 46.1295 0.0000
# 6 0.0000 0.0000 0.0000 0.0000 0.0000 26.4246
#
#
#
# Elastic Compliance Matrix: (Units=1/GPa)
#
#
# Indices 1 2 3 4 5 6 
#
# 1 0.007193 -0.002015 -0.001452 0.000000 0.000000 0.000000
# 2 -0.002015 0.031738 -0.004147 0.000000 0.000000 0.000000
# 3 -0.001452 -0.004147 0.006305 0.000000 0.000000 0.000000
# 4 0.000000 0.000000 0.000000 0.028485 0.000000 0.000000
# 5 0.000000 0.000000 0.000000 0.000000 0.021678 0.000000
# 6 0.000000 0.000000 0.000000 0.000000 0.000000 0.037844
#
#
# Mechanical properties :
#
#
# Convention : Reuss Voigt Hill
#
# Bulk Modulus (GPa) = 33.32526 61.37662 47.35094
# Shear Modulus (GPa) = 31.55067 40.68561 36.11814
#
# Velocity S-wave (km/s) = 3.49821 3.97249 3.74287
# Velocity P-wave (km/s) = 5.40763 6.69678 6.08643
#
# Compressibility (1/GPa) = 0.03000727
#
# Stress axis : x y z
#
# Youngs Moduli (GPa) = 139.02020 31.50787 158.59785
#
# Poissons Ratio (x) = 0.06350 0.23035
# Poissons Ratio (y) = 0.28017 0.65769
# Poissons Ratio (z) = 0.20191 0.13066
#
# Static dielectric constant tensor:
#      x y z
#    x 2.110900 0.000000 0.000000 
#    y 0.000000 2.089070 0.000000 
#    z 0.000000 0.000000 2.085670 
# 
# From -- ./inp_files/2116.got.cif
#   From: 2010.05.17/outbox.cif.g08.bks.cpg/sg19_2_cif.got.tgz:2116.got - 2010.06.03 22:46:19.
