data_PCOD9314906
_publ_section_title
;
Structure prediction by ZEFSAII (Michael W. Deem and Ramdas Pophale) SiO2 
 PCOD9314906
Probable space group: P 21 21 21
;
_chemical_formula_sum "Si O2"
_cell_formula_units_Z 28
_cell_length_a 11.353717
_cell_length_b 20.550657
_cell_length_c 4.880610
_cell_angle_alpha 90.000000
_cell_angle_beta 90.000000
_cell_angle_gamma 90.000000
_cell_volume 1138.774887
_symmetry_space_group_name_H-M "P 21 21 21"
_symmetry_group_IT_number 19
_symmetry_cell_setting 'orthorhombic'
loop_
_space_group_symop_operation_xyz
x,y,z
1/2-x,-y,1/2+z
1/2+x,1/2-y,-z
-x,1/2+y,1/2-z
loop_
_atom_site_type_symbol
_atom_site_label
_atom_site_fract_x
_atom_site_fract_y
_atom_site_fract_z
Si Si1 0.835559 0.221265 0.992200
Si Si2 0.742705 0.546232 0.434617
Si Si3 0.613756 0.041482 0.722854
Si Si4 0.987330 0.240507 0.497348
Si Si5 0.194552 0.164016 0.770713
Si Si6 0.577414 0.619209 0.071401
Si Si7 0.751063 0.085554 0.222301
O O1 0.950071 0.237720 0.180710
O O2 0.742942 0.279064 0.033639
O O3 0.784804 0.155469 0.113976
O O4 0.876345 0.217217 0.680399
O O5 0.719906 0.491454 0.661293
O O6 0.833620 0.599197 0.555953
O O7 0.627800 0.587853 0.347440
O O8 0.491951 0.065723 0.601197
O O9 0.710327 0.079156 0.534815
O O10 0.642687 0.965688 0.682209
O O11 0.642962 0.059852 0.034302
O O12 0.002429 0.315965 0.587595
O O13 0.093356 0.194390 0.584381
O O14 0.305220 0.142999 0.584365
#
# Coordination Sequence:
#
# PCOD9314906 Si02
#       7
#     4   4   4   4   4   4   4
#     4  11  24  43  70 100 140 179 231 293 351 421
#     4  12  26  47  72 100 144 193 236 296 359 437
#     4  10  23  41  72  96 139 177 233 282 345 423
#     4  11  26  42  71 100 137 185 232 294 351 427
#     4  11  26  47  71 106 146 182 250 295 366 434
#     4  11  25  48  72 108 140 194 236 293 371 431
#     4  10  22  44  66 104 132 182 230 289 343 409
#
# _framework density 24.587827999999998
#
# number of rings (size 3 to 8) (size 9 to 14) (size 15 to 20)
#    0.000    1.143    2.857    1.714    4.000    4.571 
#    2.571    0.000    0.000    0.000    0.000    0.000 
#    0.000    0.000    0.000    0.000    0.000    0.000 
#
# Total GULP energy -156863.441920 kJ/mol
# GULP energy per Si atom -5602.265783 kJ/mol
# Density = 2.453187 g / cm^3
# Si number density = 24.587828 Si / 1000 Ang^3
#
#
#
# Elastic Constant Matrix: (Units=GPa)
#
#
# Indices 1 2 3 4 5 6 
#
# 1 16.6682 14.5274 1.4225 0.0000 0.0000 0.0000
# 2 14.5274 134.1051 15.6539 0.0000 0.0000 0.0000
# 3 1.4225 15.6539 103.6248 0.0000 0.0000 0.0000
# 4 0.0000 0.0000 0.0000 37.7175 0.0000 0.0000
# 5 0.0000 0.0000 0.0000 0.0000 24.1770 0.0000
# 6 0.0000 0.0000 0.0000 0.0000 0.0000 41.8098
#
#
#
# Elastic Compliance Matrix: (Units=1/GPa)
#
#
# Indices 1 2 3 4 5 6 
#
# 1 0.066253 -0.007198 0.000178 0.000000 0.000000 0.000000
# 2 -0.007198 0.008373 -0.001166 0.000000 0.000000 0.000000
# 3 0.000178 -0.001166 0.009824 0.000000 0.000000 0.000000
# 4 0.000000 0.000000 0.000000 0.026513 0.000000 0.000000
# 5 0.000000 0.000000 0.000000 0.000000 0.041362 0.000000
# 6 0.000000 0.000000 0.000000 0.000000 0.000000 0.023918
#
#
# Mechanical properties :
#
#
# Convention : Reuss Voigt Hill
#
# Bulk Modulus (GPa) = 14.68919 35.28952 24.98935
# Shear Modulus (GPa) = 23.22279 35.59382 29.40831
#
# Velocity S-wave (km/s) = 3.07658 3.80889 3.46215
# Velocity P-wave (km/s) = 4.31365 5.80750 5.11540
#
# Compressibility (1/GPa) = 0.06807728
#
# Stress axis : x y z
#
# Youngs Moduli (GPa) = 15.09375 119.43623 101.79264
#
# Poissons Ratio (x) = 0.85968 -0.01811
# Poissons Ratio (y) = 0.10864 0.11869
# Poissons Ratio (z) = -0.00268 0.13926
#
# Static dielectric constant tensor:
#      x y z
#    x 1.971700 0.000000 0.000000 
#    y 0.000000 1.955190 0.000000 
#    z 0.000000 0.000000 1.925860 
# 
# From -- ./inp_files/1120.got.cif
#   From: 2010.05.17/outbox.cif.g08.bks.cpg/sg19_1_cif.got.tgz:1120.got - 2010.06.03 22:46:19.
