data_PCOD9314942
_publ_section_title
;
Structure prediction by ZEFSAII (Michael W. Deem and Ramdas Pophale) SiO2 
 PCOD9314942
Probable space group: P 21 21 21
;
_chemical_formula_sum "Si O2"
_cell_formula_units_Z 28
_cell_length_a 6.175820
_cell_length_b 11.898411
_cell_length_c 17.457782
_cell_angle_alpha 90.000000
_cell_angle_beta 90.000000
_cell_angle_gamma 90.000000
_cell_volume 1282.840499
_symmetry_space_group_name_H-M "P 21 21 21"
_symmetry_group_IT_number 19
_symmetry_cell_setting 'orthorhombic'
loop_
_space_group_symop_operation_xyz
x,y,z
1/2-x,-y,1/2+z
1/2+x,1/2-y,-z
-x,1/2+y,1/2-z
loop_
_atom_site_type_symbol
_atom_site_label
_atom_site_fract_x
_atom_site_fract_y
_atom_site_fract_z
Si Si1 0.589556 0.209362 0.174107
Si Si2 0.037587 0.556141 0.619767
Si Si3 0.001015 0.131312 0.578064
Si Si4 0.228502 0.149890 0.415564
Si Si5 0.610039 0.908442 0.794866
Si Si6 0.170041 0.572626 0.450384
Si Si7 0.289643 0.968171 0.667266
O O1 0.544039 0.339883 0.168809
O O2 0.753804 0.173392 0.240401
O O3 0.698389 0.167848 0.094691
O O4 0.370970 0.136298 0.182493
O O5 0.225420 0.491711 0.664185
O O6 0.128897 0.598704 0.538500
O O7 0.850767 0.466595 0.600757
O O8 0.146861 0.151667 0.502892
O O9 0.890470 0.247874 0.599853
O O10 0.142559 0.073838 0.644381
O O11 0.813118 0.041149 0.556753
O O12 0.025311 0.156403 0.359014
O O13 0.445911 0.976592 0.739972
O O14 0.945268 0.555406 0.405277
#
# Coordination Sequence:
#
# PCOD9314942 Si02
#       7
#     4   4   4   4   4   4   4
#     4  10  26  48  72 109 145 189 247 307 375 437
#     4  12  25  47  76 110 145 191 252 301 368 452
#     4  11  24  46  75 108 144 192 246 308 361 440
#     4  12  26  46  74 111 146 192 252 304 363 439
#     4  11  26  52  69 110 147 198 245 301 382 435
#     4  10  22  44  77 107 139 189 240 303 372 432
#     4  10  23  51  71 103 146 191 246 304 371 435
#
# _framework density 21.826564999999999
#
# number of rings (size 3 to 8) (size 9 to 14) (size 15 to 20)
#    0.000    1.143    2.857    1.714    2.000    2.286 
#   33.429    0.000    0.000    0.000    0.000    0.000 
#    0.000    0.000    0.000    0.000    0.000    0.000 
#
# Total GULP energy -156904.058005 kJ/mol
# GULP energy per Si atom -5603.716357 kJ/mol
# Density = 2.177689 g / cm^3
# Si number density = 21.826565 Si / 1000 Ang^3
#
#
#
# Elastic Constant Matrix: (Units=GPa)
#
#
# Indices 1 2 3 4 5 6 
#
# 1 72.9899 33.6709 15.0659 0.0000 0.0000 0.0000
# 2 33.6709 83.1829 23.8476 0.0000 0.0000 0.0000
# 3 15.0659 23.8476 92.8601 0.0000 0.0000 0.0000
# 4 0.0000 0.0000 0.0000 3.1996 0.0000 0.0000
# 5 0.0000 0.0000 0.0000 0.0000 42.5301 0.0000
# 6 0.0000 0.0000 0.0000 0.0000 0.0000 20.6841
#
#
#
# Elastic Compliance Matrix: (Units=1/GPa)
#
#
# Indices 1 2 3 4 5 6 
#
# 1 0.016943 -0.006553 -0.001066 0.000000 0.000000 0.000000
# 2 -0.006553 0.015511 -0.002920 0.000000 0.000000 0.000000
# 3 -0.001066 -0.002920 0.011692 0.000000 0.000000 0.000000
# 4 0.000000 0.000000 0.000000 0.312538 0.000000 0.000000
# 5 0.000000 0.000000 0.000000 0.000000 0.023513 0.000000
# 6 0.000000 0.000000 0.000000 0.000000 0.000000 0.048346
#
#
# Mechanical properties :
#
#
# Convention : Reuss Voigt Hill
#
# Bulk Modulus (GPa) = 43.34980 43.80019 43.57500
# Shear Modulus (GPa) = 10.93345 25.04598 17.98972
#
# Velocity S-wave (km/s) = 2.24056 3.39115 2.87402
# Velocity P-wave (km/s) = 5.15729 5.95350 5.56964
#
# Compressibility (1/GPa) = 0.02306816
#
# Stress axis : x y z
#
# Youngs Moduli (GPa) = 59.01994 64.46888 85.52970
#
# Poissons Ratio (x) = 0.42245 0.09119
# Poissons Ratio (y) = 0.38674 0.24978
# Poissons Ratio (z) = 0.06292 0.18827
#
# Static dielectric constant tensor:
#      x y z
#    x 1.789880 0.000000 0.000000 
#    y 0.000000 1.750770 0.000000 
#    z 0.000000 0.000000 1.786870 
# 
# From -- ./inp_files/6432.got.cif
#   From: 2010.05.17/outbox.cif.g08.bks.cpg/sg19_4_cif.got.tgz:6432.got - 2010.06.03 22:46:19.
