data_PCOD9314524
_publ_section_title
;
Structure prediction by ZEFSAII (Michael W. Deem and Ramdas Pophale) SiO2 
 PCOD9314524
Probable space group: P 21 21 21
;
_chemical_formula_sum "Si O2"
_cell_formula_units_Z 32
_cell_length_a 12.014716
_cell_length_b 6.298611
_cell_length_c 17.430321
_cell_angle_alpha 90.000000
_cell_angle_beta 90.000000
_cell_angle_gamma 90.000000
_cell_volume 1319.057362
_symmetry_space_group_name_H-M "P 21 21 21"
_symmetry_group_IT_number 19
_symmetry_cell_setting 'orthorhombic'
loop_
_space_group_symop_operation_xyz
x,y,z
1/2-x,-y,1/2+z
1/2+x,1/2-y,-z
-x,1/2+y,1/2-z
loop_
_atom_site_type_symbol
_atom_site_label
_atom_site_fract_x
_atom_site_fract_y
_atom_site_fract_z
Si Si1 0.596541 0.299005 0.078018
Si Si2 0.548213 0.130670 0.505984
Si Si3 0.904312 0.492567 0.902386
Si Si4 0.756857 0.892503 0.451325
Si Si5 0.339731 0.670321 0.757033
Si Si6 0.680668 0.587043 0.666758
Si Si7 0.006753 0.099487 0.151459
Si Si8 0.265248 0.683731 0.189461
O O1 0.706257 0.352675 0.124726
O O2 0.514550 0.135532 0.119700
O O3 0.525369 0.507889 0.057989
O O4 0.639078 0.190728 0.999225
O O5 0.569383 0.368636 0.478481
O O6 0.486407 0.071945 0.584391
O O7 0.668025 0.013575 0.506371
O O8 0.811764 0.313025 0.920363
O O9 0.863066 0.664642 0.840116
O O10 0.781834 0.073529 0.387735
O O11 0.442487 0.518457 0.779276
O O12 0.229971 0.531135 0.741359
O O13 0.328107 0.835712 0.825655
O O14 0.382121 0.793323 0.681948
O O15 0.577250 0.708849 0.629824
O O16 0.692936 0.670038 0.754578
#
# Coordination Sequence:
#
# PCOD9314524 Si02
#       8
#     4   4   4   4   4   4   4   4
#     4  11  24  43  67 101 137 184 234 295 354 412
#     4  10  23  39  67  99 132 179 231 288 349 419
#     4  10  24  45  66  98 135 181 239 287 352 419
#     4  10  21  43  68  95 136 175 234 286 353 424
#     4  11  23  39  69  99 142 182 229 282 355 420
#     4  11  24  43  68  99 143 181 235 292 349 418
#     4  11  22  40  64 105 138 181 228 284 350 424
#     4  10  23  44  69  98 133 185 226 284 348 420
#
# _framework density 24.259748999999999
#
# number of rings (size 3 to 8) (size 9 to 14) (size 15 to 20)
#    0.000    1.500    2.500    1.500    1.750    5.000 
#    6.750    0.000    0.000    0.000    0.000    0.000 
#    0.000    0.000    0.000    0.000    0.000    0.000 
#
# Total GULP energy -178785.588305 kJ/mol
# GULP energy per Si atom -5587.049635 kJ/mol
# Density = 2.420453 g / cm^3
# Si number density = 24.259749 Si / 1000 Ang^3
#
#
#
# Elastic Constant Matrix: (Units=GPa)
#
#
# Indices 1 2 3 4 5 6 
#
# 1 90.4974 45.3992 11.5426 0.0000 0.0000 0.0000
# 2 45.3992 90.6768 23.9477 0.0000 0.0000 0.0000
# 3 11.5426 23.9477 40.5821 0.0000 0.0000 0.0000
# 4 0.0000 0.0000 0.0000 38.4479 0.0000 0.0000
# 5 0.0000 0.0000 0.0000 0.0000 27.8116 0.0000
# 6 0.0000 0.0000 0.0000 0.0000 0.0000 33.1591
#
#
#
# Elastic Compliance Matrix: (Units=1/GPa)
#
#
# Indices 1 2 3 4 5 6 
#
# 1 0.014758 -0.007440 0.000193 0.000000 0.000000 0.000000
# 2 -0.007440 0.016815 -0.007806 0.000000 0.000000 0.000000
# 3 0.000193 -0.007806 0.029193 0.000000 0.000000 0.000000
# 4 0.000000 0.000000 0.000000 0.026009 0.000000 0.000000
# 5 0.000000 0.000000 0.000000 0.000000 0.035956 0.000000
# 6 0.000000 0.000000 0.000000 0.000000 0.000000 0.030158
#
#
# Mechanical properties :
#
#
# Convention : Reuss Voigt Hill
#
# Bulk Modulus (GPa) = 32.61696 42.61502 37.61599
# Shear Modulus (GPa) = 25.87792 29.27482 27.57637
#
# Velocity S-wave (km/s) = 3.26958 3.47756 3.37518
# Velocity P-wave (km/s) = 5.26570 5.80766 5.54331
#
# Compressibility (1/GPa) = 0.03065889
#
# Stress axis : x y z
#
# Youngs Moduli (GPa) = 67.76147 59.47191 34.25454
#
# Poissons Ratio (x) = 0.44245 -0.00660
# Poissons Ratio (y) = 0.50412 0.26740
# Poissons Ratio (z) = -0.01306 0.46426
#
# Static dielectric constant tensor:
#      x y z
#    x 1.890190 0.000000 0.000000 
#    y 0.000000 1.950320 0.000000 
#    z 0.000000 0.000000 2.010450 
# 
# From -- ./inp_files/7169.got.cif
#   From: 2010.05.17/outbox.cif.g08.bks.cpg/sg19_4_cif.got.tgz:7169.got - 2010.06.03 22:46:19.
