data_PCOD9314530
_publ_section_title
;
Structure prediction by ZEFSAII (Michael W. Deem and Ramdas Pophale) SiO2 
 PCOD9314530
Probable space group: P 21 21 21
;
_chemical_formula_sum "Si O2"
_cell_formula_units_Z 28
_cell_length_a 8.327418
_cell_length_b 7.960399
_cell_length_c 18.365833
_cell_angle_alpha 90.000000
_cell_angle_beta 90.000000
_cell_angle_gamma 90.000000
_cell_volume 1217.463171
_symmetry_space_group_name_H-M "P 21 21 21"
_symmetry_group_IT_number 19
_symmetry_cell_setting 'orthorhombic'
loop_
_space_group_symop_operation_xyz
x,y,z
1/2-x,-y,1/2+z
1/2+x,1/2-y,-z
-x,1/2+y,1/2-z
loop_
_atom_site_type_symbol
_atom_site_label
_atom_site_fract_x
_atom_site_fract_y
_atom_site_fract_z
Si Si1 0.664598 0.954319 0.759715
Si Si2 0.540603 0.581476 0.355640
Si Si3 0.557040 0.238623 0.665225
Si Si4 0.196511 0.704665 0.393455
Si Si5 0.517862 0.192950 0.306148
Si Si6 0.873005 0.512779 0.418623
Si Si7 0.225042 0.920415 0.927551
O O1 0.663887 0.135113 0.722105
O O2 0.816248 0.910726 0.808082
O O3 0.503989 0.912766 0.802966
O O4 0.667507 0.821416 0.692969
O O5 0.377179 0.625426 0.400695
O O6 0.533235 0.680053 0.278738
O O7 0.708785 0.609451 0.397553
O O8 0.533617 0.384554 0.333034
O O9 0.411439 0.114538 0.647301
O O10 0.647268 0.276414 0.590654
O O11 0.204474 0.893632 0.419993
O O12 0.037977 0.617748 0.427015
O O13 0.399092 0.101898 0.361652
O O14 0.843417 0.410214 0.492119
#
# Coordination Sequence:
#
# PCOD9314530 Si02
#       7
#     4   4   4   4   4   4   4
#     4  10  21  43  70 103 141 179 239 304 357 415
#     4  11  24  48  76 106 143 184 245 304 353 427
#     4  11  24  45  71 105 141 186 240 296 359 434
#     4  10  25  48  68 104 141 183 245 290 355 434
#     4  11  22  43  72 107 136 181 241 301 354 413
#     4  11  27  48  71 100 151 196 232 290 371 433
#     4  12  27  45  72 105 147 189 238 299 365 436
#
# _framework density 22.998643000000001
#
# number of rings (size 3 to 8) (size 9 to 14) (size 15 to 20)
#    0.000    1.143    1.429    5.143    8.000    0.000 
#   10.286    0.000    0.000    0.000    0.000    0.000 
#    0.000    0.000    0.000    0.000    0.000    0.000 
#
# Total GULP energy -156465.180050 kJ/mol
# GULP energy per Si atom -5588.042145 kJ/mol
# Density = 2.294630 g / cm^3
# Si number density = 22.998643 Si / 1000 Ang^3
#
#
#
# Elastic Constant Matrix: (Units=GPa)
#
#
# Indices 1 2 3 4 5 6 
#
# 1 132.9776 42.8195 15.9839 0.0000 0.0000 0.0000
# 2 42.8195 89.6883 -0.1134 0.0000 0.0000 0.0000
# 3 15.9839 -0.1134 23.6763 0.0000 0.0000 0.0000
# 4 0.0000 0.0000 0.0000 15.7498 0.0000 0.0000
# 5 0.0000 0.0000 0.0000 0.0000 36.8771 0.0000
# 6 0.0000 0.0000 0.0000 0.0000 0.0000 25.9356
#
#
#
# Elastic Compliance Matrix: (Units=1/GPa)
#
#
# Indices 1 2 3 4 5 6 
#
# 1 0.009836 -0.004704 -0.006663 0.000000 0.000000 0.000000
# 2 -0.004704 0.013400 0.003240 0.000000 0.000000 0.000000
# 3 -0.006663 0.003240 0.046750 0.000000 0.000000 0.000000
# 4 0.000000 0.000000 0.000000 0.063493 0.000000 0.000000
# 5 0.000000 0.000000 0.000000 0.000000 0.027117 0.000000
# 6 0.000000 0.000000 0.000000 0.000000 0.000000 0.038557
#
#
# Mechanical properties :
#
#
# Convention : Reuss Voigt Hill
#
# Bulk Modulus (GPa) = 18.61104 40.41357 29.51230
# Shear Modulus (GPa) = 21.43011 28.22265 24.82638
#
# Velocity S-wave (km/s) = 3.05585 3.50686 3.28910
# Velocity P-wave (km/s) = 4.53440 5.83162 5.22343
#
# Compressibility (1/GPa) = 0.05373156
#
# Stress axis : x y z
#
# Youngs Moduli (GPa) = 101.67053 74.62827 21.39046
#
# Poissons Ratio (x) = 0.35107 0.14252
# Poissons Ratio (y) = 0.47828 -0.06930
# Poissons Ratio (z) = 0.67739 -0.24179
#
# Static dielectric constant tensor:
#      x y z
#    x 1.967150 0.000000 0.000000 
#    y 0.000000 1.858290 0.000000 
#    z 0.000000 0.000000 1.825090 
# 
# From -- ./inp_files/6602.got.cif
#   From: 2010.05.17/outbox.cif.g08.bks.cpg/sg19_4_cif.got.tgz:6602.got - 2010.06.03 22:46:19.
