data_PCOD9314373
_publ_section_title
;
Structure prediction by ZEFSAII (Michael W. Deem and Ramdas Pophale) SiO2 
 PCOD9314373
Probable space group: P 21 21 21
;
_chemical_formula_sum "Si O2"
_cell_formula_units_Z 32
_cell_length_a 11.913241
_cell_length_b 23.125033
_cell_length_c 5.270792
_cell_angle_alpha 90.000000
_cell_angle_beta 90.000000
_cell_angle_gamma 90.000000
_cell_volume 1452.072052
_symmetry_space_group_name_H-M "P 21 21 21"
_symmetry_group_IT_number 19
_symmetry_cell_setting 'orthorhombic'
loop_
_space_group_symop_operation_xyz
x,y,z
1/2-x,-y,1/2+z
1/2+x,1/2-y,-z
-x,1/2+y,1/2-z
loop_
_atom_site_type_symbol
_atom_site_label
_atom_site_fract_x
_atom_site_fract_y
_atom_site_fract_z
Si Si1 0.228081 0.866136 0.886012
Si Si2 0.533213 0.554477 0.039708
Si Si3 0.808740 0.902611 0.170484
Si Si4 0.732254 0.836495 0.669638
Si Si5 0.092693 0.047553 0.235001
Si Si6 0.708640 0.297164 0.122344
Si Si7 0.903203 0.038706 0.611192
Si Si8 0.993601 0.141899 0.910912
O O1 0.320822 0.917987 0.908843
O O2 0.259097 0.823509 0.653039
O O3 0.109973 0.897342 0.830792
O O4 0.229813 0.831180 0.149346
O O5 0.438694 0.583342 0.867079
O O6 0.619189 0.514794 0.876164
O O7 0.464965 0.510824 0.225324
O O8 0.787061 0.875446 0.446341
O O9 0.730857 0.960029 0.130032
O O10 0.772646 0.860445 0.939597
O O11 0.764651 0.770149 0.634089
O O12 0.598267 0.840905 0.619242
O O13 0.078238 0.093207 0.011855
O O14 0.968095 0.037822 0.347085
O O15 0.574827 0.306850 0.168369
O O16 0.929090 0.104364 0.704193
#
# Coordination Sequence:
#
# PCOD9314373 Si02
#       8
#     4   4   4   4   4   4   4   4
#     4  11  26  44  65 101 133 170 227 271 328 400
#     4  11  28  38  68 100 142 172 208 283 334 384
#     4  11  26  44  65 101 133 170 227 271 328 400
#     4  11  24  44  69  95 130 176 225 279 332 382
#     4  10  21  40  65  90 128 176 212 257 319 409
#     4  11  24  44  69  95 130 176 225 279 332 382
#     4  10  21  40  65  90 128 176 212 257 319 409
#     4   9  20  40  62  96 122 174 220 271 310 406
#
# _framework density 22.037475000000001
#
# number of rings (size 3 to 8) (size 9 to 14) (size 15 to 20)
#    0.000    1.500    2.500    0.750    7.000    2.000 
#    0.000    0.000    0.000    0.000    0.000    0.000 
#    0.000    0.000    0.000    0.000    0.000    0.000 
#
# Total GULP energy -178552.916506 kJ/mol
# GULP energy per Si atom -5579.778641 kJ/mol
# Density = 2.198732 g / cm^3
# Si number density = 22.037475 Si / 1000 Ang^3
#
#
#
# Elastic Constant Matrix: (Units=GPa)
#
#
# Indices 1 2 3 4 5 6 
#
# 1 63.1743 26.1632 -2.5783 0.0000 0.0000 0.0000
# 2 26.1632 73.5331 13.1568 0.0000 0.0000 0.0000
# 3 -2.5783 13.1568 69.3958 0.0000 0.0000 0.0000
# 4 0.0000 0.0000 0.0000 33.7898 0.0000 0.0000
# 5 0.0000 0.0000 0.0000 0.0000 22.7229 0.0000
# 6 0.0000 0.0000 0.0000 0.0000 0.0000 26.3761
#
#
#
# Elastic Compliance Matrix: (Units=1/GPa)
#
#
# Indices 1 2 3 4 5 6 
#
# 1 0.018840 -0.007068 0.002040 0.000000 0.000000 0.000000
# 2 -0.007068 0.016729 -0.003434 0.000000 0.000000 0.000000
# 3 0.002040 -0.003434 0.015137 0.000000 0.000000 0.000000
# 4 0.000000 0.000000 0.000000 0.029595 0.000000 0.000000
# 5 0.000000 0.000000 0.000000 0.000000 0.044008 0.000000
# 6 0.000000 0.000000 0.000000 0.000000 0.000000 0.037913
#
#
# Mechanical properties :
#
#
# Convention : Reuss Voigt Hill
#
# Bulk Modulus (GPa) = 29.60280 31.06518 30.33399
# Shear Modulus (GPa) = 26.25956 27.86851 27.06403
#
# Velocity S-wave (km/s) = 3.45568 3.55997 3.50822
# Velocity P-wave (km/s) = 5.42074 5.57001 5.49588
#
# Compressibility (1/GPa) = 0.03378059
#
# Stress axis : x y z
#
# Youngs Moduli (GPa) = 53.07926 59.77759 66.06336
#
# Poissons Ratio (x) = 0.42252 -0.13477
# Poissons Ratio (y) = 0.37518 0.22688
# Poissons Ratio (z) = -0.10828 0.20529
#
# Static dielectric constant tensor:
#      x y z
#    x 1.897600 0.000000 0.000000 
#    y 0.000000 1.817630 0.000000 
#    z 0.000000 0.000000 1.841670 
# 
# From -- ./inp_files/1221.got.cif
#   From: 2010.05.17/outbox.cif.g08.bks.cpg/sg19_1_cif.got.tgz:1221.got - 2010.06.03 22:46:19.
