data_PCOD9314056
_publ_section_title
;
Structure prediction by ZEFSAII (Michael W. Deem and Ramdas Pophale) SiO2 
 PCOD9314056
Probable space group: P 21 21 21
;
_chemical_formula_sum "Si O2"
_cell_formula_units_Z 28
_cell_length_a 12.272664
_cell_length_b 9.548399
_cell_length_c 11.616531
_cell_angle_alpha 90.000000
_cell_angle_beta 90.000000
_cell_angle_gamma 90.000000
_cell_volume 1361.274968
_symmetry_space_group_name_H-M "P 21 21 21"
_symmetry_group_IT_number 19
_symmetry_cell_setting 'orthorhombic'
loop_
_space_group_symop_operation_xyz
x,y,z
1/2-x,-y,1/2+z
1/2+x,1/2-y,-z
-x,1/2+y,1/2-z
loop_
_atom_site_type_symbol
_atom_site_label
_atom_site_fract_x
_atom_site_fract_y
_atom_site_fract_z
Si Si1 0.190993 0.087064 0.711895
Si Si2 0.100759 0.878931 0.887457
Si Si3 0.573408 0.541902 0.851956
Si Si4 0.447693 0.105796 0.065051
Si Si5 0.963038 0.775622 0.333689
Si Si6 0.791715 0.190142 0.795684
Si Si7 0.120457 0.382692 0.737756
O O1 0.310164 0.021814 0.709193
O O2 0.200045 0.251921 0.727110
O O3 0.128289 0.023507 0.821335
O O4 0.120962 0.032298 0.602085
O O5 0.178779 0.764277 0.827071
O O6 0.977538 0.846935 0.850034
O O7 0.104585 0.903243 0.021783
O O8 0.515772 0.390173 0.851995
O O9 0.506186 0.659306 0.784835
O O10 0.370958 0.229164 0.115360
O O11 0.558539 0.107465 0.139946
O O12 0.478761 0.135958 0.934758
O O13 0.832667 0.794625 0.333597
O O14 0.824752 0.029013 0.789376
#
# Coordination Sequence:
#
# PCOD9314056 Si02
#       7
#     4   4   4   4   4   4   4
#     4  10  22  42  70  97 129 187 230 273 349 425
#     4  10  21  45  68  93 136 180 236 279 344 423
#     4  12  27  43  67  99 141 184 227 301 353 427
#     4  10  21  44  73  90 137 186 228 285 344 424
#     4  12  27  45  65 107 141 178 240 295 363 406
#     4  10  22  45  68 102 140 178 235 294 336 428
#     4  10  20  40  69 102 126 181 238 273 343 417
#
# _framework density 20.568951999999999
#
# number of rings (size 3 to 8) (size 9 to 14) (size 15 to 20)
#    0.000    1.714    2.857    5.143    4.000    4.571 
#    2.571    0.000    0.000    0.000    0.000    0.000 
#    0.000    0.000    0.000    0.000    0.000    0.000 
#
# Total GULP energy -156367.820854 kJ/mol
# GULP energy per Si atom -5584.565030 kJ/mol
# Density = 2.052214 g / cm^3
# Si number density = 20.568952 Si / 1000 Ang^3
#
#
#
# Elastic Constant Matrix: (Units=GPa)
#
#
# Indices 1 2 3 4 5 6 
#
# 1 42.4648 4.1499 22.3234 0.0000 0.0000 0.0000
# 2 4.1499 101.7695 14.3767 0.0000 0.0000 0.0000
# 3 22.3234 14.3767 81.5940 0.0000 0.0000 0.0000
# 4 0.0000 0.0000 0.0000 9.5360 0.0000 0.0000
# 5 0.0000 0.0000 0.0000 0.0000 6.7964 0.0000
# 6 0.0000 0.0000 0.0000 0.0000 0.0000 23.9475
#
#
#
# Elastic Compliance Matrix: (Units=1/GPa)
#
#
# Indices 1 2 3 4 5 6 
#
# 1 0.027505 -0.000060 -0.007515 0.000000 0.000000 0.000000
# 2 -0.000060 0.010077 -0.001759 0.000000 0.000000 0.000000
# 3 -0.007515 -0.001759 0.014622 0.000000 0.000000 0.000000
# 4 0.000000 0.000000 0.000000 0.104866 0.000000 0.000000
# 5 0.000000 0.000000 0.000000 0.000000 0.147136 0.000000
# 6 0.000000 0.000000 0.000000 0.000000 0.000000 0.041758
#
#
# Mechanical properties :
#
#
# Convention : Reuss Voigt Hill
#
# Bulk Modulus (GPa) = 29.81836 34.16982 31.99409
# Shear Modulus (GPa) = 13.30456 20.38785 16.84620
#
# Velocity S-wave (km/s) = 2.54604 3.15174 2.86494
# Velocity P-wave (km/s) = 4.81366 5.46745 5.15094
#
# Compressibility (1/GPa) = 0.03353638
#
# Stress axis : x y z
#
# Youngs Moduli (GPa) = 36.35687 99.23509 68.39156
#
# Poissons Ratio (x) = 0.00596 0.51393
# Poissons Ratio (y) = 0.00218 0.12031
# Poissons Ratio (z) = 0.27321 0.17457
#
# Static dielectric constant tensor:
#      x y z
#    x 1.721240 0.000000 0.000000 
#    y 0.000000 1.756680 0.000000 
#    z 0.000000 0.000000 1.746900 
# 
# From -- ./inp_files/4957.got.cif
#   From: 2010.05.17/outbox.cif.g08.bks.cpg/sg19_3_cif.got.tgz:4957.got - 2010.06.03 22:46:19.
