data_PCOD9314001
_publ_section_title
;
Structure prediction by ZEFSAII (Michael W. Deem and Ramdas Pophale) SiO2 
 PCOD9314001
Probable space group: P 21 21 21
;
_chemical_formula_sum "Si O2"
_cell_formula_units_Z 24
_cell_length_a 5.296187
_cell_length_b 14.239995
_cell_length_c 12.911195
_cell_angle_alpha 90.000000
_cell_angle_beta 90.000000
_cell_angle_gamma 90.000000
_cell_volume 973.732326
_symmetry_space_group_name_H-M "P 21 21 21"
_symmetry_group_IT_number 19
_symmetry_cell_setting 'orthorhombic'
loop_
_space_group_symop_operation_xyz
x,y,z
1/2-x,-y,1/2+z
1/2+x,1/2-y,-z
-x,1/2+y,1/2-z
loop_
_atom_site_type_symbol
_atom_site_label
_atom_site_fract_x
_atom_site_fract_y
_atom_site_fract_z
Si Si1 0.918009 0.430526 0.330977
Si Si2 0.531266 0.408485 0.174000
Si Si3 0.860526 0.446945 0.984232
Si Si4 0.153247 0.553178 0.145708
Si Si5 0.305229 0.243204 0.061390
Si Si6 0.462636 0.751779 0.931406
O O1 0.654893 0.392643 0.284026
O O2 0.846454 0.489593 0.430836
O O3 0.077900 0.340808 0.362406
O O4 0.023883 0.499638 0.242800
O O5 0.435472 0.515819 0.164278
O O6 0.333037 0.328461 0.141625
O O7 0.744824 0.400107 0.086786
O O8 0.911314 0.359861 0.907611
O O9 0.081697 0.508282 0.033082
O O10 0.062524 0.659507 0.135465
O O11 0.012468 0.232821 0.028760
O O12 0.200194 0.770590 0.991634
#
# Coordination Sequence:
#
# PCOD9314001 Si02
#       6
#     4   4   4   4   4   4
#     4  11  26  44  70 107 143 189 250 302 366 442
#     4  10  23  41  67 101 142 180 238 298 363 440
#     4  10  21  44  65  98 137 189 229 296 363 439
#     4  11  24  45  73 101 148 191 246 308 368 445
#     4  10  20  39  67  94 131 175 224 285 354 417
#     4  12  28  51  78 107 153 206 249 309 380 455
#
# _framework density 24.647428999999999
#
# number of rings (size 3 to 8) (size 9 to 14) (size 15 to 20)
#    0.000    1.333    3.333    1.000    4.667    4.000 
#    6.000    0.000    0.000    0.000    0.000    0.000 
#    0.000    0.000    0.000    0.000    0.000    0.000 
#
# Total GULP energy -133914.439103 kJ/mol
# GULP energy per Si atom -5579.768296 kJ/mol
# Density = 2.459133 g / cm^3
# Si number density = 24.647429 Si / 1000 Ang^3
#
#
#
# Elastic Constant Matrix: (Units=GPa)
#
#
# Indices 1 2 3 4 5 6 
#
# 1 66.0453 -24.3210 11.4964 0.0000 0.0000 0.0000
# 2 -24.3210 97.6423 13.3960 0.0000 0.0000 0.0000
# 3 11.4964 13.3960 59.1878 0.0000 0.0000 0.0000
# 4 0.0000 0.0000 0.0000 18.4302 0.0000 0.0000
# 5 0.0000 0.0000 0.0000 0.0000 31.4519 0.0000
# 6 0.0000 0.0000 0.0000 0.0000 0.0000 29.4103
#
#
#
# Elastic Compliance Matrix: (Units=1/GPa)
#
#
# Indices 1 2 3 4 5 6 
#
# 1 0.017809 0.005068 -0.004606 0.000000 0.000000 0.000000
# 2 0.005068 0.012012 -0.003703 0.000000 0.000000 0.000000
# 3 -0.004606 -0.003703 0.018628 0.000000 0.000000 0.000000
# 4 0.000000 0.000000 0.000000 0.054259 0.000000 0.000000
# 5 0.000000 0.000000 0.000000 0.000000 0.031795 0.000000
# 6 0.000000 0.000000 0.000000 0.000000 0.000000 0.034002
#
#
# Mechanical properties :
#
#
# Convention : Reuss Voigt Hill
#
# Bulk Modulus (GPa) = 23.82851 24.89090 24.35970
# Shear Modulus (GPa) = 26.45842 30.67874 28.56858
#
# Velocity S-wave (km/s) = 3.27995 3.53186 3.40823
# Velocity P-wave (km/s) = 4.90233 5.17231 5.03913
#
# Compressibility (1/GPa) = 0.04196654
#
# Stress axis : x y z
#
# Youngs Moduli (GPa) = 56.15083 83.25126 53.68208
#
# Poissons Ratio (x) = -0.42191 0.24727
# Poissons Ratio (y) = -0.28457 0.19879
# Poissons Ratio (z) = 0.25864 0.30828
#
# Static dielectric constant tensor:
#      x y z
#    x 2.054420 0.000000 0.000000 
#    y 0.000000 2.042830 0.000000 
#    z 0.000000 0.000000 1.956510 
# 
# From -- ./inp_files/937.got.cif
#   From: 2010.05.17/outbox.cif.g08.bks.cpg/sg19_1_cif.got.tgz:937.got - 2010.06.03 22:46:19.
