data_PCOD9314226
_publ_section_title
;
Structure prediction by ZEFSAII (Michael W. Deem and Ramdas Pophale) SiO2 
 PCOD9314226
Probable space group: P 21 21 21
;
_chemical_formula_sum "Si O2"
_cell_formula_units_Z 32
_cell_length_a 9.476820
_cell_length_b 21.245351
_cell_length_c 7.944717
_cell_angle_alpha 90.000000
_cell_angle_beta 90.000000
_cell_angle_gamma 90.000000
_cell_volume 1599.576349
_symmetry_space_group_name_H-M "P 21 21 21"
_symmetry_group_IT_number 19
_symmetry_cell_setting 'orthorhombic'
loop_
_space_group_symop_operation_xyz
x,y,z
1/2-x,-y,1/2+z
1/2+x,1/2-y,-z
-x,1/2+y,1/2-z
loop_
_atom_site_type_symbol
_atom_site_label
_atom_site_fract_x
_atom_site_fract_y
_atom_site_fract_z
Si Si1 0.379110 0.468226 0.833684
Si Si2 0.514953 0.916709 0.331504
Si Si3 0.937357 0.680215 0.920847
Si Si4 0.831619 0.894572 0.227734
Si Si5 0.745309 0.194739 0.429273
Si Si6 0.628464 0.114699 0.118546
Si Si7 0.133447 0.962590 0.668854
Si Si8 0.892337 0.556097 0.113583
O O1 0.410022 0.542352 0.835686
O O2 0.218274 0.449779 0.861767
O O3 0.442267 0.445613 0.657934
O O4 0.458876 0.427314 0.973103
O O5 0.460065 0.849265 0.266416
O O6 0.670787 0.917779 0.250879
O O7 0.427694 0.977174 0.270429
O O8 0.829898 0.737666 0.923158
O O9 0.870350 0.619763 0.012758
O O10 0.088585 0.696051 0.012743
O O11 0.873208 0.871387 0.416841
O O12 0.831007 0.844010 0.079845
O O13 0.707669 0.161689 0.248559
O O14 0.472429 0.096152 0.177346
O O15 0.286320 0.944525 0.732177
O O16 0.138511 0.991818 0.484007
#
# Coordination Sequence:
#
# PCOD9314226 Si02
#       8
#     4   4   4   4   4   4   4   4
#     4  11  19  38  65  98 126 156 204 270 328 387
#     4   9  20  36  63  92 127 162 203 262 328 378
#     4  10  24  45  63  89 126 179 224 263 320 387
#     4  10  21  37  66 100 124 164 216 263 315 394
#     4  11  24  45  64  90 130 174 221 270 314 376
#     4  11  22  38  67  95 123 167 212 262 318 392
#     4  11  21  36  58  93 128 164 199 259 330 393
#     4  11  23  39  60  93 136 162 207 263 333 385
#
# _framework density 20.005296000000001
#
# number of rings (size 3 to 8) (size 9 to 14) (size 15 to 20)
#    0.000    1.500    3.750    1.500    3.500    0.000 
#    4.500    0.000    0.000    0.000    0.000    0.000 
#    0.000    0.000    0.000    0.000    0.000    0.000 
#
# Total GULP energy -178253.387580 kJ/mol
# GULP energy per Si atom -5570.418362 kJ/mol
# Density = 1.995976 g / cm^3
# Si number density = 20.005296 Si / 1000 Ang^3
#
#
#
# Elastic Constant Matrix: (Units=GPa)
#
#
# Indices 1 2 3 4 5 6 
#
# 1 49.2044 1.7975 5.5702 0.0000 0.0000 0.0000
# 2 1.7975 65.6733 16.1067 0.0000 0.0000 0.0000
# 3 5.5702 16.1067 77.1427 0.0000 0.0000 0.0000
# 4 0.0000 0.0000 0.0000 16.2937 0.0000 0.0000
# 5 0.0000 0.0000 0.0000 0.0000 22.1424 0.0000
# 6 0.0000 0.0000 0.0000 0.0000 0.0000 29.7044
#
#
#
# Elastic Compliance Matrix: (Units=1/GPa)
#
#
# Indices 1 2 3 4 5 6 
#
# 1 0.020494 -0.000209 -0.001436 0.000000 0.000000 0.000000
# 2 -0.000209 0.016051 -0.003336 0.000000 0.000000 0.000000
# 3 -0.001436 -0.003336 0.013763 0.000000 0.000000 0.000000
# 4 0.000000 0.000000 0.000000 0.061374 0.000000 0.000000
# 5 0.000000 0.000000 0.000000 0.000000 0.045162 0.000000
# 6 0.000000 0.000000 0.000000 0.000000 0.000000 0.033665
#
#
# Mechanical properties :
#
#
# Convention : Reuss Voigt Hill
#
# Bulk Modulus (GPa) = 24.78591 26.55213 25.66902
# Shear Modulus (GPa) = 23.37331 24.86448 24.11889
#
# Velocity S-wave (km/s) = 3.42183 3.52930 3.47598
# Velocity P-wave (km/s) = 5.29419 5.46894 5.38227
#
# Compressibility (1/GPa) = 0.04034550
#
# Stress axis : x y z
#
# Youngs Moduli (GPa) = 48.79576 62.30206 72.65716
#
# Poissons Ratio (x) = 0.01300 0.10435
# Poissons Ratio (y) = 0.01018 0.24240
# Poissons Ratio (z) = 0.07008 0.20785
#
# Static dielectric constant tensor:
#      x y z
#    x 1.721830 0.000000 0.000000 
#    y 0.000000 1.684200 0.000000 
#    z 0.000000 0.000000 1.803380 
# 
# From -- ./inp_files/3148.got.cif
#   From: 2010.05.17/outbox.cif.g08.bks.cpg/sg19_2_cif.got.tgz:3148.got - 2010.06.03 22:46:19.
