data_PCOD9314081
_publ_section_title
;
Structure prediction by ZEFSAII (Michael W. Deem and Ramdas Pophale) SiO2 
 PCOD9314081
Probable space group: P 21 21 21
;
_chemical_formula_sum "Si O2"
_cell_formula_units_Z 28
_cell_length_a 6.975394
_cell_length_b 7.314040
_cell_length_c 23.708646
_cell_angle_alpha 90.000000
_cell_angle_beta 90.000000
_cell_angle_gamma 90.000000
_cell_volume 1209.575069
_symmetry_space_group_name_H-M "P 21 21 21"
_symmetry_group_IT_number 19
_symmetry_cell_setting 'orthorhombic'
loop_
_space_group_symop_operation_xyz
x,y,z
1/2-x,-y,1/2+z
1/2+x,1/2-y,-z
-x,1/2+y,1/2-z
loop_
_atom_site_type_symbol
_atom_site_label
_atom_site_fract_x
_atom_site_fract_y
_atom_site_fract_z
Si Si1 0.703291 0.195494 0.320031
Si Si2 0.432346 0.465912 0.015497
Si Si3 0.905553 0.792332 0.423020
Si Si4 0.001301 0.810706 0.608389
Si Si5 0.574313 0.404174 0.214037
Si Si6 0.935098 0.215682 0.575746
Si Si7 0.386135 0.897397 0.855097
O O1 0.623177 0.342583 0.276325
O O2 0.596187 0.217591 0.379405
O O3 0.629952 0.001915 0.294913
O O4 0.928948 0.201294 0.329413
O O5 0.214576 0.427235 0.034924
O O6 0.504750 0.673360 0.019797
O O7 0.482533 0.357456 0.959212
O O8 0.045347 0.142899 0.934069
O O9 0.733340 0.693421 0.389634
O O10 0.033338 0.918180 0.383804
O O11 0.941952 0.998999 0.580178
O O12 0.920568 0.764061 0.669682
O O13 0.733045 0.547285 0.192427
O O14 0.730347 0.281058 0.599009
#
# Coordination Sequence:
#
# PCOD9314081 Si02
#       7
#     4   4   4   4   4   4   4
#     4  11  22  43  63  94 133 177 221 281 334 402
#     4  10  20  41  66  94 132 178 213 276 338 395
#     4  10  20  42  69  90 140 175 221 276 343 402
#     4  10  22  43  63  96 132 173 220 275 338 393
#     4  11  23  40  66  88 134 176 217 276 342 392
#     4  11  22  44  66  96 138 170 222 285 331 399
#     4  11  21  43  67  94 135 175 224 281 332 413
#
# _framework density 23.148627000000001
#
# number of rings (size 3 to 8) (size 9 to 14) (size 15 to 20)
#    0.857    0.571    5.714    1.714    0.000    3.429 
#    7.714    0.000    0.000    0.000    0.000    0.000 
#    0.000    0.000    0.000    0.000    0.000    0.000 
#
# Total GULP energy -156532.180962 kJ/mol
# GULP energy per Si atom -5590.435034 kJ/mol
# Density = 2.309594 g / cm^3
# Si number density = 23.148627 Si / 1000 Ang^3
#
#
#
# Elastic Constant Matrix: (Units=GPa)
#
#
# Indices 1 2 3 4 5 6 
#
# 1 89.0474 21.6474 -3.5391 0.0000 0.0000 0.0000
# 2 21.6474 84.3146 -7.0888 0.0000 0.0000 0.0000
# 3 -3.5391 -7.0888 23.5932 0.0000 0.0000 0.0000
# 4 0.0000 0.0000 0.0000 32.9477 0.0000 0.0000
# 5 0.0000 0.0000 0.0000 0.0000 20.3193 0.0000
# 6 0.0000 0.0000 0.0000 0.0000 0.0000 27.9353
#
#
#
# Elastic Compliance Matrix: (Units=1/GPa)
#
#
# Indices 1 2 3 4 5 6 
#
# 1 0.011996 -0.003005 0.000897 0.000000 0.000000 0.000000
# 2 -0.003005 0.012920 0.003431 0.000000 0.000000 0.000000
# 3 0.000897 0.003431 0.043551 0.000000 0.000000 0.000000
# 4 0.000000 0.000000 0.000000 0.030351 0.000000 0.000000
# 5 0.000000 0.000000 0.000000 0.000000 0.049214 0.000000
# 6 0.000000 0.000000 0.000000 0.000000 0.000000 0.035797
#
#
# Mechanical properties :
#
#
# Convention : Reuss Voigt Hill
#
# Bulk Modulus (GPa) = 14.06198 24.33270 19.19734
# Shear Modulus (GPa) = 24.40371 28.63616 26.51994
#
# Velocity S-wave (km/s) = 3.25040 3.52100 3.38840
# Velocity P-wave (km/s) = 4.49161 5.20233 4.85998
#
# Compressibility (1/GPa) = 0.07111376
#
# Stress axis : x y z
#
# Youngs Moduli (GPa) = 83.36098 77.39802 22.96181
#
# Poissons Ratio (x) = 0.23254 -0.02059
# Poissons Ratio (y) = 0.25046 -0.07879
# Poissons Ratio (z) = -0.07475 -0.26558
#
# Static dielectric constant tensor:
#      x y z
#    x 1.860520 0.000000 0.000000 
#    y 0.000000 1.904290 0.000000 
#    z 0.000000 0.000000 1.860070 
# 
# From -- ./inp_files/7446.got.cif
#   From: 2010.05.17/outbox.cif.g08.bks.cpg/sg19_4_cif.got.tgz:7446.got - 2010.06.03 22:46:19.
