data_PCOD9314879
_publ_section_title
;
Structure prediction by ZEFSAII (Michael W. Deem and Ramdas Pophale) SiO2 
 PCOD9314879
Probable space group: P 21 21 21
;
_chemical_formula_sum "Si O2"
_cell_formula_units_Z 32
_cell_length_a 14.477091
_cell_length_b 10.709462
_cell_length_c 8.517971
_cell_angle_alpha 90.000000
_cell_angle_beta 90.000000
_cell_angle_gamma 90.000000
_cell_volume 1320.642033
_symmetry_space_group_name_H-M "P 21 21 21"
_symmetry_group_IT_number 19
_symmetry_cell_setting 'orthorhombic'
loop_
_space_group_symop_operation_xyz
x,y,z
1/2-x,-y,1/2+z
1/2+x,1/2-y,-z
-x,1/2+y,1/2-z
loop_
_atom_site_type_symbol
_atom_site_label
_atom_site_fract_x
_atom_site_fract_y
_atom_site_fract_z
Si Si1 0.636397 0.757122 0.849243
Si Si2 0.345362 0.733988 0.067910
Si Si3 0.173723 0.506495 0.742152
Si Si4 0.145151 0.453879 0.084337
Si Si5 0.315912 0.929145 0.827193
Si Si6 0.502969 0.824119 0.295694
Si Si7 0.874647 0.489169 0.513923
Si Si8 0.552166 0.645608 0.559563
O O1 0.746153 0.727675 0.855488
O O2 0.591232 0.647506 0.954421
O O3 0.597835 0.746303 0.674449
O O4 0.626150 0.897612 0.905050
O O5 0.347416 0.586227 0.097115
O O6 0.430707 0.790155 0.161900
O O7 0.340140 0.794158 0.897117
O O8 0.270511 0.569186 0.700895
O O9 0.093277 0.605083 0.760230
O O10 0.175982 0.428676 0.904236
O O11 0.050057 0.386505 0.119062
O O12 0.336768 0.945654 0.644611
O O13 0.382093 0.026065 0.921448
O O14 0.210587 0.963663 0.868946
O O15 0.449567 0.920071 0.410852
O O16 0.536836 0.701044 0.387691
#
# Coordination Sequence:
#
# PCOD9314879 Si02
#       8
#     4   4   4   4   4   4   4   4
#     4   9  23  43  70  97 134 177 227 281 339 412
#     4  10  22  48  67  96 140 176 232 283 338 416
#     4  11  27  47  69 101 137 189 227 291 350 413
#     4  11  25  49  69 100 144 182 236 287 353 413
#     4  10  22  44  70  98 135 174 223 286 338 408
#     4  12  25  41  67  99 137 178 228 282 338 409
#     4  10  22  43  68 102 130 177 225 281 344 406
#     4  11  24  41  68  99 133 183 220 283 338 411
#
# _framework density 24.230639
#
# number of rings (size 3 to 8) (size 9 to 14) (size 15 to 20)
#    0.000    1.500    1.250    3.000    7.000    3.000 
#   15.750    0.000    0.000    0.000    0.000    0.000 
#    0.000    0.000    0.000    0.000    0.000    0.000 
#
# Total GULP energy -179274.648453 kJ/mol
# GULP energy per Si atom -5602.332764 kJ/mol
# Density = 2.417549 g / cm^3
# Si number density = 24.230639 Si / 1000 Ang^3
#
#
#
# Elastic Constant Matrix: (Units=GPa)
#
#
# Indices 1 2 3 4 5 6 
#
# 1 88.3625 16.2065 18.5595 0.0000 0.0000 0.0000
# 2 16.2065 63.2930 20.9146 0.0000 0.0000 0.0000
# 3 18.5595 20.9146 63.5718 0.0000 0.0000 0.0000
# 4 0.0000 0.0000 0.0000 33.7483 0.0000 0.0000
# 5 0.0000 0.0000 0.0000 0.0000 19.1547 0.0000
# 6 0.0000 0.0000 0.0000 0.0000 0.0000 44.6455
#
#
#
# Elastic Compliance Matrix: (Units=1/GPa)
#
#
# Indices 1 2 3 4 5 6 
#
# 1 0.012325 -0.002207 -0.002872 0.000000 0.000000 0.000000
# 2 -0.002207 0.018122 -0.005318 0.000000 0.000000 0.000000
# 3 -0.002872 -0.005318 0.018318 0.000000 0.000000 0.000000
# 4 0.000000 0.000000 0.000000 0.029631 0.000000 0.000000
# 5 0.000000 0.000000 0.000000 0.000000 0.052207 0.000000
# 6 0.000000 0.000000 0.000000 0.000000 0.000000 0.022399
#
#
# Mechanical properties :
#
#
# Convention : Reuss Voigt Hill
#
# Bulk Modulus (GPa) = 35.75041 36.28763 36.01902
# Shear Modulus (GPa) = 27.30469 30.14612 28.72541
#
# Velocity S-wave (km/s) = 3.36052 3.53105 3.44684
# Velocity P-wave (km/s) = 5.46294 5.62431 5.54421
#
# Compressibility (1/GPa) = 0.02797170
#
# Stress axis : x y z
#
# Youngs Moduli (GPa) = 81.13562 55.18224 54.59039
#
# Poissons Ratio (x) = 0.12178 0.15680
# Poissons Ratio (y) = 0.17905 0.29029
# Poissons Ratio (z) = 0.23304 0.29344
#
# Static dielectric constant tensor:
#      x y z
#    x 1.884440 0.000000 0.000000 
#    y 0.000000 1.938480 0.000000 
#    z 0.000000 0.000000 1.901490 
# 
# From -- ./inp_files/3920.got.cif
#   From: 2010.05.17/outbox.cif.g08.bks.cpg/sg19_2_cif.got.tgz:3920.got - 2010.06.03 22:46:19.
