data_PCOD9314356
_publ_section_title
;
Structure prediction by ZEFSAII (Michael W. Deem and Ramdas Pophale) SiO2 
 PCOD9314356
Probable space group: P 21 21 21
;
_chemical_formula_sum "Si O2"
_cell_formula_units_Z 32
_cell_length_a 11.180885
_cell_length_b 15.281942
_cell_length_c 8.548913
_cell_angle_alpha 90.000000
_cell_angle_beta 90.000000
_cell_angle_gamma 90.000000
_cell_volume 1460.715458
_symmetry_space_group_name_H-M "P 21 21 21"
_symmetry_group_IT_number 19
_symmetry_cell_setting 'orthorhombic'
loop_
_space_group_symop_operation_xyz
x,y,z
1/2-x,-y,1/2+z
1/2+x,1/2-y,-z
-x,1/2+y,1/2-z
loop_
_atom_site_type_symbol
_atom_site_label
_atom_site_fract_x
_atom_site_fract_y
_atom_site_fract_z
Si Si1 0.855988 0.940717 0.567501
Si Si2 0.528104 0.407268 0.998356
Si Si3 0.672740 0.328695 0.250001
Si Si4 0.155821 0.992970 0.249999
Si Si5 0.894098 0.197253 0.250000
Si Si6 0.433828 0.641024 0.750000
Si Si7 0.144012 0.440717 0.567501
Si Si8 0.528104 0.407269 0.501645
O O1 0.750000 0.000000 0.500000
O O2 0.970057 0.006601 0.574885
O O3 0.872619 0.873192 0.421173
O O4 0.835510 0.912220 0.750000
O O5 0.638703 0.443254 0.896111
O O6 0.421849 0.364555 0.896818
O O7 0.583370 0.332284 0.105067
O O8 0.470057 0.493398 0.074886
O O9 0.737553 0.424416 0.250001
O O10 0.775089 0.255899 0.250002
O O11 0.583369 0.332285 0.394935
O O12 0.138704 0.056745 0.396111
O O13 0.035450 0.934258 0.250000
O O14 0.002305 0.266513 0.250000
O O15 0.921851 0.135443 0.396815
O O16 0.372619 0.626808 0.921174
#
# Coordination Sequence:
#
# PCOD9314356 Si02
#       8
#     4   4   4   4   4   4   4   4
#     4  11  21  38  64  94 118 163 218 266 317 365
#     4  10  21  40  61  90 125 159 206 257 309 384
#     4  11  20  39  64  88 118 165 208 253 314 378
#     4   8  18  36  65  85 114 156 199 265 315 350
#     4  10  24  42  57  87 134 166 197 257 323 378
#     4   9  20  39  58  88 130 159 204 265 314 378
#     4  11  21  38  64  94 118 163 218 266 317 365
#     4  10  21  40  61  90 125 159 206 257 309 384
#
# _framework density 21.907073
#
# number of rings (size 3 to 8) (size 9 to 14) (size 15 to 20)
#    0.000    2.000    2.500    1.500    0.000    2.000 
#    2.250    2.500    0.000    0.000    0.000    0.000 
#    0.000    0.000    0.000    0.000    0.000    0.000 
#
# Total GULP energy -178270.004761 kJ/mol
# GULP energy per Si atom -5570.937649 kJ/mol
# Density = 2.185721 g / cm^3
# Si number density = 21.907073 Si / 1000 Ang^3
#
#
#
# Elastic Constant Matrix: (Units=GPa)
#
#
# Indices 1 2 3 4 5 6 
#
# 1 69.0272 14.8909 38.8945 0.0000 0.0000 0.0000
# 2 14.8909 87.4385 41.4390 0.0000 0.0000 0.0000
# 3 38.8945 41.4390 168.2926 0.0000 0.0000 0.0000
# 4 0.0000 0.0000 0.0000 19.4311 0.0000 0.0000
# 5 0.0000 0.0000 0.0000 0.0000 17.5981 0.0000
# 6 0.0000 0.0000 0.0000 0.0000 0.0000 50.3089
#
#
#
# Elastic Compliance Matrix: (Units=1/GPa)
#
#
# Indices 1 2 3 4 5 6 
#
# 1 0.016758 -0.001153 -0.003589 0.000000 0.000000 0.000000
# 2 -0.001153 0.013027 -0.002941 0.000000 0.000000 0.000000
# 3 -0.003589 -0.002941 0.007496 0.000000 0.000000 0.000000
# 4 0.000000 0.000000 0.000000 0.051464 0.000000 0.000000
# 5 0.000000 0.000000 0.000000 0.000000 0.056824 0.000000
# 6 0.000000 0.000000 0.000000 0.000000 0.000000 0.019877
#
#
# Mechanical properties :
#
#
# Convention : Reuss Voigt Hill
#
# Bulk Modulus (GPa) = 45.63253 57.24522 51.43887
# Shear Modulus (GPa) = 26.57921 32.76991 29.67456
#
# Velocity S-wave (km/s) = 3.48698 3.87183 3.68443
# Velocity P-wave (km/s) = 6.08994 6.79527 6.45225
#
# Compressibility (1/GPa) = 0.02191419
#
# Stress axis : x y z
#
# Youngs Moduli (GPa) = 59.67265 76.76463 133.40940
#
# Poissons Ratio (x) = 0.08851 0.47882
# Poissons Ratio (y) = 0.06880 0.39238
# Poissons Ratio (z) = 0.21417 0.22578
#
# Static dielectric constant tensor:
#      x y z
#    x 1.801040 0.000000 0.000000 
#    y 0.000000 1.785940 0.000000 
#    z 0.000000 0.000000 1.942320 
# 
# From -- ./inp_files/3631.got.cif
#   From: 2010.05.17/outbox.cif.g08.bks.cpg/sg19_2_cif.got.tgz:3631.got - 2010.06.03 22:46:19.
