data_PCOD9314172
_publ_section_title
;
Structure prediction by ZEFSAII (Michael W. Deem and Ramdas Pophale) SiO2 
 PCOD9314172
Probable space group: P 21 21 21
;
_chemical_formula_sum "Si O2"
_cell_formula_units_Z 32
_cell_length_a 19.487346
_cell_length_b 12.416538
_cell_length_c 4.879679
_cell_angle_alpha 90.000000
_cell_angle_beta 90.000000
_cell_angle_gamma 90.000000
_cell_volume 1180.713345
_symmetry_space_group_name_H-M "P 21 21 21"
_symmetry_group_IT_number 19
_symmetry_cell_setting 'orthorhombic'
loop_
_space_group_symop_operation_xyz
x,y,z
1/2-x,-y,1/2+z
1/2+x,1/2-y,-z
-x,1/2+y,1/2-z
loop_
_atom_site_type_symbol
_atom_site_label
_atom_site_fract_x
_atom_site_fract_y
_atom_site_fract_z
Si Si1 0.468056 0.678489 0.601469
Si Si2 0.193024 0.833939 0.686190
Si Si3 0.713860 0.105902 0.181739
Si Si4 0.850252 0.197811 0.315135
Si Si5 0.093052 0.530722 0.814874
Si Si6 0.327342 0.732350 0.830395
Si Si7 0.406969 0.028095 0.864260
Si Si8 0.036555 0.094510 0.878022
O O1 0.433603 0.576216 0.461776
O O2 0.409082 0.725156 0.799696
O O3 0.542559 0.632530 0.686833
O O4 0.473995 0.778953 0.399064
O O5 0.166854 0.800426 0.988474
O O6 0.275561 0.826068 0.723214
O O7 0.161723 0.935734 0.526221
O O8 0.158939 0.740642 0.493408
O O9 0.789579 0.108337 0.302586
O O10 0.668292 0.005806 0.276692
O O11 0.702402 0.136516 0.865260
O O12 0.685252 0.210193 0.351038
O O13 0.907696 0.131966 0.478956
O O14 0.040223 0.549032 0.568694
O O15 0.409897 0.959987 0.586488
O O16 0.443389 0.949826 0.083162
#
# Coordination Sequence:
#
# PCOD9314172 Si02
#       8
#     4   4   4   4   4   4   4   4
#     4  10  23  42  62  87 123 157 198 252 300 361
#     4  10  21  40  62  91 125 158 201 253 299 361
#     4   9  19  34  55  87 120 150 191 240 299 368
#     4  10  21  35  61  93 124 158 197 243 307 377
#     4  10  22  39  60  88 123 162 199 248 310 363
#     4   9  19  37  60  85 117 158 194 240 304 354
#     4  11  24  42  65  89 120 160 204 253 304 358
#     4  11  25  41  61  90 118 159 210 249 301 364
#
# _framework density 27.102257000000002
#
# number of rings (size 3 to 8) (size 9 to 14) (size 15 to 20)
#    0.000    2.000    0.000    2.250    0.000   16.000 
#    0.000    1.250    0.000    0.000    0.000    0.000 
#    0.000    0.000    0.000    0.000    0.000    0.000 
#
# Total GULP energy -178627.403709 kJ/mol
# GULP energy per Si atom -5582.106366 kJ/mol
# Density = 2.704057 g / cm^3
# Si number density = 27.102257 Si / 1000 Ang^3
#
#
#
# Elastic Constant Matrix: (Units=GPa)
#
#
# Indices 1 2 3 4 5 6 
#
# 1 54.0884 -7.5195 14.8278 0.0000 0.0000 0.0000
# 2 -7.5195 70.5620 1.0533 0.0000 0.0000 0.0000
# 3 14.8278 1.0533 121.2710 0.0000 0.0000 0.0000
# 4 0.0000 0.0000 0.0000 33.9604 0.0000 0.0000
# 5 0.0000 0.0000 0.0000 0.0000 26.0727 0.0000
# 6 0.0000 0.0000 0.0000 0.0000 0.0000 38.0905
#
#
#
# Elastic Compliance Matrix: (Units=1/GPa)
#
#
# Indices 1 2 3 4 5 6 
#
# 1 0.019438 0.002107 -0.002395 0.000000 0.000000 0.000000
# 2 0.002107 0.014402 -0.000383 0.000000 0.000000 0.000000
# 3 -0.002395 -0.000383 0.008542 0.000000 0.000000 0.000000
# 4 0.000000 0.000000 0.000000 0.029446 0.000000 0.000000
# 5 0.000000 0.000000 0.000000 0.000000 0.038354 0.000000
# 6 0.000000 0.000000 0.000000 0.000000 0.000000 0.026253
#
#
# Mechanical properties :
#
#
# Convention : Reuss Voigt Hill
#
# Bulk Modulus (GPa) = 24.36588 29.18273 26.77430
# Shear Modulus (GPa) = 33.01264 35.46204 34.23734
#
# Velocity S-wave (km/s) = 3.49388 3.62118 3.55810
# Velocity P-wave (km/s) = 5.02853 5.31742 5.17499
#
# Compressibility (1/GPa) = 0.04104100
#
# Stress axis : x y z
#
# Youngs Moduli (GPa) = 51.44633 69.43387 117.06656
#
# Poissons Ratio (x) = -0.14631 0.28037
# Poissons Ratio (y) = -0.10840 0.04480
# Poissons Ratio (z) = 0.12321 0.02657
#
# Static dielectric constant tensor:
#      x y z
#    x 2.272990 0.000000 0.000000 
#    y 0.000000 2.149950 0.000000 
#    z 0.000000 0.000000 2.042280 
# 
# From -- ./inp_files/2045.got.cif
#   From: 2010.05.17/outbox.cif.g08.bks.cpg/sg19_2_cif.got.tgz:2045.got - 2010.06.03 22:46:19.
