data_PCOD9314376
_publ_section_title
;
Structure prediction by ZEFSAII (Michael W. Deem and Ramdas Pophale) SiO2 
 PCOD9314376
Probable space group: P 21 21 21
;
_chemical_formula_sum "Si O2"
_cell_formula_units_Z 28
_cell_length_a 5.786018
_cell_length_b 12.056820
_cell_length_c 16.952681
_cell_angle_alpha 90.000000
_cell_angle_beta 90.000000
_cell_angle_gamma 90.000000
_cell_volume 1182.635599
_symmetry_space_group_name_H-M "P 21 21 21"
_symmetry_group_IT_number 19
_symmetry_cell_setting 'orthorhombic'
loop_
_space_group_symop_operation_xyz
x,y,z
1/2-x,-y,1/2+z
1/2+x,1/2-y,-z
-x,1/2+y,1/2-z
loop_
_atom_site_type_symbol
_atom_site_label
_atom_site_fract_x
_atom_site_fract_y
_atom_site_fract_z
Si Si1 0.820638 0.568451 0.313325
Si Si2 0.500608 0.149770 0.307735
Si Si3 0.750596 0.660596 0.886133
Si Si4 0.474384 0.120901 0.973898
Si Si5 0.614394 0.309687 0.565412
Si Si6 0.115916 0.501452 0.162660
Si Si7 0.028352 0.624367 0.472443
O O1 0.637936 0.650760 0.273664
O O2 0.708611 0.462026 0.355501
O O3 0.979927 0.621826 0.379557
O O4 0.967563 0.523902 0.239859
O O5 0.671632 0.252904 0.318869
O O6 0.337359 0.163015 0.383383
O O7 0.623506 0.029987 0.314259
O O8 0.484064 0.691113 0.905931
O O9 0.863278 0.683025 0.971841
O O10 0.457473 0.248392 0.001140
O O11 0.536623 0.108342 0.881539
O O12 0.212429 0.075336 0.989947
O O13 0.715584 0.075508 0.011912
O O14 0.439818 0.403761 0.596918
#
# Coordination Sequence:
#
# PCOD9314376 Si02
#       7
#     4   4   4   4   4   4   4
#     4  11  26  40  66 101 138 177 227 285 364 417
#     4  10  24  43  61  99 134 173 223 284 347 418
#     4  11  22  41  69  96 133 178 229 289 348 414
#     4  10  23  44  72  95 133 183 233 288 341 409
#     4  10  21  40  65  96 126 172 232 279 334 418
#     4  10  24  41  65  96 135 178 220 289 350 417
#     4  10  24  45  68 101 131 181 238 286 338 425
#
# _framework density 23.675933000000001
#
# number of rings (size 3 to 8) (size 9 to 14) (size 15 to 20)
#    0.000    1.714    1.429    0.857    8.000    5.714 
#    2.571    0.000    0.000    0.000    0.000    0.000 
#    0.000    0.000    0.000    0.000    0.000    0.000 
#
# Total GULP energy -156163.751056 kJ/mol
# GULP energy per Si atom -5577.276823 kJ/mol
# Density = 2.362205 g / cm^3
# Si number density = 23.675933 Si / 1000 Ang^3
#
#
#
# Elastic Constant Matrix: (Units=GPa)
#
#
# Indices 1 2 3 4 5 6 
#
# 1 81.7636 -4.6824 16.1396 0.0000 0.0000 0.0000
# 2 -4.6824 31.0206 -4.5650 0.0000 0.0000 0.0000
# 3 16.1396 -4.5650 85.6578 0.0000 0.0000 0.0000
# 4 0.0000 0.0000 0.0000 31.1376 0.0000 0.0000
# 5 0.0000 0.0000 0.0000 0.0000 33.6884 0.0000
# 6 0.0000 0.0000 0.0000 0.0000 0.0000 20.8293
#
#
#
# Elastic Compliance Matrix: (Units=1/GPa)
#
#
# Indices 1 2 3 4 5 6 
#
# 1 0.012780 0.001587 -0.002323 0.000000 0.000000 0.000000
# 2 0.001587 0.032689 0.001443 0.000000 0.000000 0.000000
# 3 -0.002323 0.001443 0.012189 0.000000 0.000000 0.000000
# 4 0.000000 0.000000 0.000000 0.032116 0.000000 0.000000
# 5 0.000000 0.000000 0.000000 0.000000 0.029684 0.000000
# 6 0.000000 0.000000 0.000000 0.000000 0.000000 0.048009
#
#
# Mechanical properties :
#
#
# Convention : Reuss Voigt Hill
#
# Bulk Modulus (GPa) = 16.92876 23.58072 20.25474
# Shear Modulus (GPa) = 26.91891 29.90104 28.40998
#
# Velocity S-wave (km/s) = 3.37556 3.55763 3.46779
# Velocity P-wave (km/s) = 4.72845 5.18238 4.96061
#
# Compressibility (1/GPa) = 0.05907107
#
# Stress axis : x y z
#
# Youngs Moduli (GPa) = 78.24794 30.59173 82.04092
#
# Poissons Ratio (x) = -0.04855 0.19061
# Poissons Ratio (y) = -0.12419 -0.11839
# Poissons Ratio (z) = 0.18180 -0.04415
#
# Static dielectric constant tensor:
#      x y z
#    x 2.022690 0.000000 0.000000 
#    y 0.000000 1.971900 0.000000 
#    z 0.000000 0.000000 1.852090 
# 
# From -- ./inp_files/5691.got.cif
#   From: 2010.05.17/outbox.cif.g08.bks.cpg/sg19_3_cif.got.tgz:5691.got - 2010.06.03 22:46:19.
