data_PCOD9314950
_publ_section_title
;
Structure prediction by ZEFSAII (Michael W. Deem and Ramdas Pophale) SiO2 
 PCOD9314950
Probable space group: P 21 21 21
;
_chemical_formula_sum "Si O2"
_cell_formula_units_Z 32
_cell_length_a 17.168471
_cell_length_b 8.342417
_cell_length_c 9.498546
_cell_angle_alpha 90.000000
_cell_angle_beta 90.000000
_cell_angle_gamma 90.000000
_cell_volume 1360.443920
_symmetry_space_group_name_H-M "P 21 21 21"
_symmetry_group_IT_number 19
_symmetry_cell_setting 'orthorhombic'
loop_
_space_group_symop_operation_xyz
x,y,z
1/2-x,-y,1/2+z
1/2+x,1/2-y,-z
-x,1/2+y,1/2-z
loop_
_atom_site_type_symbol
_atom_site_label
_atom_site_fract_x
_atom_site_fract_y
_atom_site_fract_z
Si Si1 0.623699 0.743501 0.357565
Si Si2 0.803653 0.734837 0.277603
Si Si3 0.616360 0.376013 0.032726
Si Si4 0.454975 0.462442 0.953432
Si Si5 0.673992 0.450419 0.514256
Si Si6 0.059892 0.783534 0.923628
Si Si7 0.760988 0.694060 0.727522
Si Si8 0.126712 0.571365 0.172391
O O1 0.710427 0.739378 0.290451
O O2 0.618420 0.891472 0.464987
O O3 0.612847 0.577268 0.445318
O O4 0.560901 0.778018 0.235009
O O5 0.838948 0.607309 0.385628
O O6 0.837032 0.897096 0.344005
O O7 0.837535 0.695909 0.123843
O O8 0.613049 0.556261 0.093702
O O9 0.526855 0.344433 0.994229
O O10 0.660325 0.261749 0.141887
O O11 0.482868 0.635124 0.010694
O O12 0.440905 0.450977 0.788247
O O13 0.723752 0.566714 0.617810
O O14 0.713285 0.375507 0.376969
O O15 0.095625 0.659237 0.033704
O O16 0.695721 0.823927 0.759003
#
# Coordination Sequence:
#
# PCOD9314950 Si02
#       8
#     4   4   4   4   4   4   4   4
#     4  12  23  47  73 109 148 194 253 312 368 449
#     4  12  26  43  74 110 144 190 252 312 374 442
#     4  10  22  45  68 102 137 194 245 290 369 449
#     4  10  26  45  68 105 146 193 247 295 379 448
#     4  12  21  41  75 107 140 188 246 301 373 432
#     4  10  25  48  72 102 149 196 242 303 376 452
#     4  12  21  41  74 103 142 189 245 302 364 443
#     4  12  26  46  72 108 146 192 246 321 361 449
#
# _framework density 23.521733000000001
#
# number of rings (size 3 to 8) (size 9 to 14) (size 15 to 20)
#    0.750    0.000    5.000    2.250    1.750    4.000 
#    9.000    0.000    0.000    0.000    0.000    0.000 
#    0.000    0.000    0.000    0.000    0.000    0.000 
#
# Total GULP energy -178539.248458 kJ/mol
# GULP energy per Si atom -5579.351514 kJ/mol
# Density = 2.346820 g / cm^3
# Si number density = 23.521733 Si / 1000 Ang^3
#
#
#
# Elastic Constant Matrix: (Units=GPa)
#
#
# Indices 1 2 3 4 5 6 
#
# 1 48.5067 3.2293 6.1127 0.0000 0.0000 0.0000
# 2 3.2293 44.5556 7.8117 0.0000 0.0000 0.0000
# 3 6.1127 7.8117 138.7351 0.0000 0.0000 0.0000
# 4 0.0000 0.0000 0.0000 8.9190 0.0000 0.0000
# 5 0.0000 0.0000 0.0000 0.0000 21.2810 0.0000
# 6 0.0000 0.0000 0.0000 0.0000 0.0000 32.2408
#
#
#
# Elastic Compliance Matrix: (Units=1/GPa)
#
#
# Indices 1 2 3 4 5 6 
#
# 1 0.020812 -0.001361 -0.000840 0.000000 0.000000 0.000000
# 2 -0.001361 0.022757 -0.001221 0.000000 0.000000 0.000000
# 3 -0.000840 -0.001221 0.007314 0.000000 0.000000 0.000000
# 4 0.000000 0.000000 0.000000 0.112121 0.000000 0.000000
# 5 0.000000 0.000000 0.000000 0.000000 0.046990 0.000000
# 6 0.000000 0.000000 0.000000 0.000000 0.000000 0.031017
#
#
# Mechanical properties :
#
#
# Convention : Reuss Voigt Hill
#
# Bulk Modulus (GPa) = 22.70816 29.56719 26.13767
# Shear Modulus (GPa) = 19.04509 26.79774 22.92142
#
# Velocity S-wave (km/s) = 2.84858 3.37898 3.12505
# Velocity P-wave (km/s) = 4.52706 5.27454 4.91503
#
# Compressibility (1/GPa) = 0.04403703
#
# Stress axis : x y z
#
# Youngs Moduli (GPa) = 48.04871 43.94320 136.72819
#
# Poissons Ratio (x) = 0.05981 0.11490
# Poissons Ratio (y) = 0.06540 0.16700
# Poissons Ratio (z) = 0.04038 0.05367
#
# Static dielectric constant tensor:
#      x y z
#    x 1.972480 0.000000 0.000000 
#    y 0.000000 2.012040 0.000000 
#    z 0.000000 0.000000 1.917070 
# 
# From -- ./inp_files/4315.got.cif
#   From: 2010.05.17/outbox.cif.g08.bks.cpg/sg19_3_cif.got.tgz:4315.got - 2010.06.03 22:46:19.
