data_PCOD9314471
_publ_section_title
;
Structure prediction by ZEFSAII (Michael W. Deem and Ramdas Pophale) SiO2 
 PCOD9314471
Probable space group: P 21 21 21
;
_chemical_formula_sum "Si O2"
_cell_formula_units_Z 32
_cell_length_a 9.227130
_cell_length_b 13.448390
_cell_length_c 11.328148
_cell_angle_alpha 90.000000
_cell_angle_beta 90.000000
_cell_angle_gamma 90.000000
_cell_volume 1405.710370
_symmetry_space_group_name_H-M "P 21 21 21"
_symmetry_group_IT_number 19
_symmetry_cell_setting 'orthorhombic'
loop_
_space_group_symop_operation_xyz
x,y,z
1/2-x,-y,1/2+z
1/2+x,1/2-y,-z
-x,1/2+y,1/2-z
loop_
_atom_site_type_symbol
_atom_site_label
_atom_site_fract_x
_atom_site_fract_y
_atom_site_fract_z
Si Si1 0.023762 0.061706 0.290525
Si Si2 0.392105 0.751979 0.911331
Si Si3 0.991648 0.332325 0.940961
Si Si4 0.144652 0.368894 0.178210
Si Si5 0.262694 0.337451 0.815493
Si Si6 0.296215 0.960358 0.561559
Si Si7 0.282870 0.188587 0.622782
Si Si8 0.571613 0.883790 0.439604
O O1 0.095560 0.129295 0.389568
O O2 0.124641 0.080050 0.178524
O O3 0.863491 0.106212 0.276112
O O4 0.985983 0.946478 0.299579
O O5 0.329480 0.697944 0.793968
O O6 0.551740 0.706810 0.915131
O O7 0.310515 0.742847 0.034119
O O8 0.847341 0.395542 0.962323
O O9 0.961654 0.224475 0.887491
O O10 0.105994 0.379822 0.849399
O O11 0.082576 0.313251 0.062051
O O12 0.293976 0.422184 0.138193
O O13 0.258242 0.227938 0.756491
O O14 0.354961 0.353394 0.934920
O O15 0.425533 0.946826 0.463867
O O16 0.255739 0.072658 0.598158
#
# Coordination Sequence:
#
# PCOD9314471 Si02
#       8
#     4   4   4   4   4   4   4   4
#     4  10  21  42  64  92 131 177 221 272 335 414
#     4  11  24  43  67  95 139 182 223 278 348 403
#     4  11  21  41  69  97 129 167 225 291 333 384
#     4  11  22  43  67  92 131 182 218 277 346 397
#     4   9  22  43  63  89 134 176 213 272 341 405
#     4  11  22  40  69 106 128 169 234 285 331 403
#     4  11  24  44  65  96 140 181 223 277 344 418
#     4  10  22  40  70  95 128 174 227 274 334 398
#
# _framework density 22.764291
#
# number of rings (size 3 to 8) (size 9 to 14) (size 15 to 20)
#    0.000    1.500    1.250    5.250    0.000    4.000 
#   11.250    0.000    0.000    0.000    0.000    0.000 
#    0.000    0.000    0.000    0.000    0.000    0.000 
#
# Total GULP energy -178319.263097 kJ/mol
# GULP energy per Si atom -5572.476972 kJ/mol
# Density = 2.271248 g / cm^3
# Si number density = 22.764291 Si / 1000 Ang^3
#
#
#
# Elastic Constant Matrix: (Units=GPa)
#
#
# Indices 1 2 3 4 5 6 
#
# 1 111.1144 1.1536 23.7152 0.0000 0.0000 0.0000
# 2 1.1536 61.1450 1.1415 0.0000 0.0000 0.0000
# 3 23.7152 1.1415 25.2652 0.0000 0.0000 0.0000
# 4 0.0000 0.0000 0.0000 21.6883 0.0000 0.0000
# 5 0.0000 0.0000 0.0000 0.0000 36.2434 0.0000
# 6 0.0000 0.0000 0.0000 0.0000 0.0000 25.4989
#
#
#
# Elastic Compliance Matrix: (Units=1/GPa)
#
#
# Indices 1 2 3 4 5 6 
#
# 1 0.011254 -0.000015 -0.010563 0.000000 0.000000 0.000000
# 2 -0.000015 0.016368 -0.000725 0.000000 0.000000 0.000000
# 3 -0.010563 -0.000725 0.049528 0.000000 0.000000 0.000000
# 4 0.000000 0.000000 0.000000 0.046108 0.000000 0.000000
# 5 0.000000 0.000000 0.000000 0.000000 0.027591 0.000000
# 6 0.000000 0.000000 0.000000 0.000000 0.000000 0.039217
#
#
# Mechanical properties :
#
#
# Convention : Reuss Voigt Hill
#
# Bulk Modulus (GPa) = 18.33399 27.72726 23.03062
# Shear Modulus (GPa) = 21.65850 28.12041 24.88946
#
# Velocity S-wave (km/s) = 3.08786 3.51848 3.31018
# Velocity P-wave (km/s) = 4.55900 5.35844 4.97480
#
# Compressibility (1/GPa) = 0.05454351
#
# Stress axis : x y z
#
# Youngs Moduli (GPa) = 88.85390 61.09337 20.19048
#
# Poissons Ratio (x) = 0.00092 0.21328
# Poissons Ratio (y) = 0.00134 0.01464
# Poissons Ratio (z) = 0.93859 0.04431
#
# Static dielectric constant tensor:
#      x y z
#    x 1.862000 0.000000 0.000000 
#    y 0.000000 1.936990 0.000000 
#    z 0.000000 0.000000 1.878670 
# 
# From -- ./inp_files/4679.got.cif
#   From: 2010.05.17/outbox.cif.g08.bks.cpg/sg19_3_cif.got.tgz:4679.got - 2010.06.03 22:46:19.
