data_PCOD9314618
_publ_section_title
;
Structure prediction by ZEFSAII (Michael W. Deem and Ramdas Pophale) SiO2 
 PCOD9314618
Probable space group: P 21 21 21
;
_chemical_formula_sum "Si O2"
_cell_formula_units_Z 32
_cell_length_a 5.462759
_cell_length_b 14.159050
_cell_length_c 18.033356
_cell_angle_alpha 90.000000
_cell_angle_beta 90.000000
_cell_angle_gamma 90.000000
_cell_volume 1394.834603
_symmetry_space_group_name_H-M "P 21 21 21"
_symmetry_group_IT_number 19
_symmetry_cell_setting 'orthorhombic'
loop_
_space_group_symop_operation_xyz
x,y,z
1/2-x,-y,1/2+z
1/2+x,1/2-y,-z
-x,1/2+y,1/2-z
loop_
_atom_site_type_symbol
_atom_site_label
_atom_site_fract_x
_atom_site_fract_y
_atom_site_fract_z
Si Si1 0.686549 0.561972 0.694556
Si Si2 0.058760 0.448634 0.783886
Si Si3 0.797170 0.590968 0.402858
Si Si4 0.465256 0.749708 0.952703
Si Si5 0.190708 0.585546 0.142512
Si Si6 0.156820 0.275060 0.039855
Si Si7 0.566642 0.088223 0.667422
Si Si8 0.492906 0.444988 0.062021
O O1 0.459733 0.509909 0.657236
O O2 0.591354 0.624509 0.762573
O O3 0.857916 0.601489 0.630323
O O4 0.830178 0.475447 0.732700
O O5 0.220359 0.388516 0.725962
O O6 0.177334 0.551144 0.800901
O O7 0.966619 0.410412 0.862523
O O8 0.891894 0.698717 0.395164
O O9 0.844364 0.558615 0.487948
O O10 0.951003 0.510640 0.360569
O O11 0.531281 0.837944 0.899710
O O12 0.422380 0.660536 0.899089
O O13 0.214742 0.764733 0.999063
O O14 0.408918 0.548813 0.088368
O O15 0.255745 0.379982 0.048643
O O16 0.405060 0.228777 0.004991
#
# Coordination Sequence:
#
# PCOD9314618 Si02
#       8
#     4   4   4   4   4   4   4   4
#     4   9  21  42  67  94 127 183 230 286 356 428
#     4   9  21  42  68  96 129 184 234 286 359 426
#     4  10  22  38  68  95 135 175 229 293 360 420
#     4  12  30  45  71 112 149 193 250 304 364 430
#     4  10  23  44  68  98 142 187 245 290 364 438
#     4  10  24  39  57  97 131 163 216 276 344 416
#     4  10  23  44  66  98 139 186 238 292 359 432
#     4  10  22  38  67  96 132 177 228 295 358 430
#
# _framework density 22.941787999999999
#
# number of rings (size 3 to 8) (size 9 to 14) (size 15 to 20)
#    0.000    2.000    0.000    0.750   15.750    1.000 
#    0.000   11.250    0.000    0.000    0.000    0.000 
#    0.000    0.000    0.000    0.000    0.000    0.000 
#
# Total GULP energy -178265.667750 kJ/mol
# GULP energy per Si atom -5570.802117 kJ/mol
# Density = 2.288957 g / cm^3
# Si number density = 22.941788 Si / 1000 Ang^3
#
#
#
# Elastic Constant Matrix: (Units=GPa)
#
#
# Indices 1 2 3 4 5 6 
#
# 1 81.5019 8.0659 47.1620 0.0000 0.0000 0.0000
# 2 8.0659 31.9521 30.3742 0.0000 0.0000 0.0000
# 3 47.1620 30.3742 124.5857 0.0000 0.0000 0.0000
# 4 0.0000 0.0000 0.0000 22.1808 0.0000 0.0000
# 5 0.0000 0.0000 0.0000 0.0000 41.4877 0.0000
# 6 0.0000 0.0000 0.0000 0.0000 0.0000 17.4106
#
#
#
# Elastic Compliance Matrix: (Units=1/GPa)
#
#
# Indices 1 2 3 4 5 6 
#
# 1 0.015831 0.002214 -0.006532 0.000000 0.000000 0.000000
# 2 0.002214 0.041048 -0.010845 0.000000 0.000000 0.000000
# 3 -0.006532 -0.010845 0.013144 0.000000 0.000000 0.000000
# 4 0.000000 0.000000 0.000000 0.045084 0.000000 0.000000
# 5 0.000000 0.000000 0.000000 0.000000 0.024104 0.000000
# 6 0.000000 0.000000 0.000000 0.000000 0.000000 0.057436
#
#
# Mechanical properties :
#
#
# Convention : Reuss Voigt Hill
#
# Bulk Modulus (GPa) = 25.19304 45.47153 35.33229
# Shear Modulus (GPa) = 20.81548 26.37833 23.59690
#
# Velocity S-wave (km/s) = 3.01544 3.39454 3.21059
# Velocity P-wave (km/s) = 4.80926 5.93526 5.40168
#
# Compressibility (1/GPa) = 0.03969350
#
# Stress axis : x y z
#
# Youngs Moduli (GPa) = 63.16880 24.36177 76.08280
#
# Poissons Ratio (x) = -0.05393 0.49700
# Poissons Ratio (y) = -0.13983 0.82515
# Poissons Ratio (z) = 0.41264 0.26422
#
# Static dielectric constant tensor:
#      x y z
#    x 1.968890 0.000000 0.000000 
#    y 0.000000 1.887550 0.000000 
#    z 0.000000 0.000000 1.909500 
# 
# From -- ./inp_files/6477.got.cif
#   From: 2010.05.17/outbox.cif.g08.bks.cpg/sg19_4_cif.got.tgz:6477.got - 2010.06.03 22:46:19.
