data_PCOD9314361
_publ_section_title
;
Structure prediction by ZEFSAII (Michael W. Deem and Ramdas Pophale) SiO2 
 PCOD9314361
Probable space group: P 21 21 21
;
_chemical_formula_sum "Si O2"
_cell_formula_units_Z 20
_cell_length_a 9.915137
_cell_length_b 7.006243
_cell_length_c 11.431051
_cell_angle_alpha 90.000000
_cell_angle_beta 90.000000
_cell_angle_gamma 90.000000
_cell_volume 794.090641
_symmetry_space_group_name_H-M "P 21 21 21"
_symmetry_group_IT_number 19
_symmetry_cell_setting 'orthorhombic'
loop_
_space_group_symop_operation_xyz
x,y,z
1/2-x,-y,1/2+z
1/2+x,1/2-y,-z
-x,1/2+y,1/2-z
loop_
_atom_site_type_symbol
_atom_site_label
_atom_site_fract_x
_atom_site_fract_y
_atom_site_fract_z
Si Si1 0.907159 0.108869 0.726750
Si Si2 0.257395 0.684335 0.968712
Si Si3 0.068643 0.090002 0.285657
Si Si4 0.175593 0.353789 0.118462
Si Si5 0.797727 0.689476 0.771626
O O1 0.834966 0.903090 0.730868
O O2 0.881119 0.211694 0.603505
O O3 0.813802 0.214799 0.820033
O O4 0.061285 0.086344 0.754792
O O5 0.238182 0.462935 0.007495
O O6 0.276720 0.799696 0.088006
O O7 0.372662 0.749677 0.876177
O O8 0.080806 0.173950 0.153252
O O9 0.173019 0.913903 0.288634
O O10 0.923058 0.019727 0.327490
#
# Coordination Sequence:
#
# PCOD9314361 Si02
#       5
#     4   4   4   4   4
#     4  10  21  40  63  91 128 169 213 266 322 384
#     4  10  22  40  64  92 126 168 216 262 318 384
#     4  11  23  41  66  96 131 172 218 270 325 390
#     4  10  21  40  63  91 128 169 213 266 322 384
#     4  11  23  41  66  96 131 172 218 270 325 390
#
# _framework density 25.186040999999999
#
# number of rings (size 3 to 8) (size 9 to 14) (size 15 to 20)
#    0.000    1.600    0.000    6.000    0.000    4.800 
#    0.000   16.000    0.000    0.000    0.000    0.000 
#    0.000    0.000    0.000    0.000    0.000    0.000 
#
# Total GULP energy -111349.426035 kJ/mol
# GULP energy per Si atom -5567.471302 kJ/mol
# Density = 2.512872 g / cm^3
# Si number density = 25.186041 Si / 1000 Ang^3
#
#
#
# Elastic Constant Matrix: (Units=GPa)
#
#
# Indices 1 2 3 4 5 6 
#
# 1 143.9807 22.6542 10.5010 0.0000 0.0000 0.0000
# 2 22.6542 45.5455 -14.7874 0.0000 0.0000 0.0000
# 3 10.5010 -14.7874 70.5592 0.0000 0.0000 0.0000
# 4 0.0000 0.0000 0.0000 35.6407 0.0000 0.0000
# 5 0.0000 0.0000 0.0000 0.0000 24.6132 0.0000
# 6 0.0000 0.0000 0.0000 0.0000 0.0000 52.5855
#
#
#
# Elastic Compliance Matrix: (Units=1/GPa)
#
#
# Indices 1 2 3 4 5 6 
#
# 1 0.007821 -0.004580 -0.002124 0.000000 0.000000 0.000000
# 2 -0.004580 0.026241 0.006181 0.000000 0.000000 0.000000
# 3 -0.002124 0.006181 0.015784 0.000000 0.000000 0.000000
# 4 0.000000 0.000000 0.000000 0.028058 0.000000 0.000000
# 5 0.000000 0.000000 0.000000 0.000000 0.040629 0.000000
# 6 0.000000 0.000000 0.000000 0.000000 0.000000 0.019017
#
#
# Mechanical properties :
#
#
# Convention : Reuss Voigt Hill
#
# Bulk Modulus (GPa) = 20.49147 32.98011 26.73579
# Shear Modulus (GPa) = 32.28722 38.68239 35.48481
#
# Velocity S-wave (km/s) = 3.58432 3.92326 3.75761
# Velocity P-wave (km/s) = 5.02827 5.80049 5.42813
#
# Compressibility (1/GPa) = 0.04880078
#
# Stress axis : x y z
#
# Youngs Moduli (GPa) = 127.86386 38.10876 63.35565
#
# Poissons Ratio (x) = 0.17452 0.13455
# Poissons Ratio (y) = 0.58556 -0.39160
# Poissons Ratio (z) = 0.27154 -0.23555
#
# Static dielectric constant tensor:
#      x y z
#    x 1.956990 0.000000 0.000000 
#    y 0.000000 2.136900 0.000000 
#    z 0.000000 0.000000 2.128560 
# 
# From -- ./inp_files/807.got.cif
#   From: 2010.05.17/outbox.cif.g08.bks.cpg/sg19_1_cif.got.tgz:807.got - 2010.06.03 22:46:19.
