data_PCOD9314835
_publ_section_title
;
Structure prediction by ZEFSAII (Michael W. Deem and Ramdas Pophale) SiO2 
 PCOD9314835
Probable space group: P 21 21 21
;
_chemical_formula_sum "Si O2"
_cell_formula_units_Z 20
_cell_length_a 13.423669
_cell_length_b 5.171028
_cell_length_c 11.001385
_cell_angle_alpha 90.000000
_cell_angle_beta 90.000000
_cell_angle_gamma 90.000000
_cell_volume 763.651990
_symmetry_space_group_name_H-M "P 21 21 21"
_symmetry_group_IT_number 19
_symmetry_cell_setting 'orthorhombic'
loop_
_space_group_symop_operation_xyz
x,y,z
1/2-x,-y,1/2+z
1/2+x,1/2-y,-z
-x,1/2+y,1/2-z
loop_
_atom_site_type_symbol
_atom_site_label
_atom_site_fract_x
_atom_site_fract_y
_atom_site_fract_z
Si Si1 0.910399 0.390805 0.620958
Si Si2 0.392313 0.851072 0.131346
Si Si3 0.751120 0.031428 0.718077
Si Si4 0.803305 0.568961 0.426122
Si Si5 0.066637 0.728046 0.242661
O O1 0.929890 0.456798 0.762359
O O2 0.816874 0.196152 0.625347
O O3 0.867714 0.632312 0.544653
O O4 0.012879 0.278153 0.571162
O O5 0.327394 0.644282 0.206331
O O6 0.310684 0.990774 0.049213
O O7 0.704945 0.227986 0.817698
O O8 0.655621 0.874827 0.669438
O O9 0.867991 0.331773 0.370678
O O10 0.995680 0.481495 0.218230
#
# Coordination Sequence:
#
# PCOD9314835 Si02
#       5
#     4   4   4   4   4
#     4  11  22  44  72 102 144 193 240 302 361 435
#     4  10  22  42  68  99 143 191 240 296 357 426
#     4  10  22  44  66 101 145 185 246 293 357 434
#     4  10  24  42  69 107 140 185 248 297 356 441
#     4  11  22  44  71  99 148 192 232 298 365 424
#
# _framework density 26.189941999999999
#
# number of rings (size 3 to 8) (size 9 to 14) (size 15 to 20)
#    0.000    1.600    4.000    0.000    0.000    4.800 
#    0.000    6.000    0.000    0.000    0.000    0.000 
#    0.000    0.000    0.000    0.000    0.000    0.000 
#
# Total GULP energy -111830.126397 kJ/mol
# GULP energy per Si atom -5591.506320 kJ/mol
# Density = 2.613033 g / cm^3
# Si number density = 26.189942 Si / 1000 Ang^3
#
#
#
# Elastic Constant Matrix: (Units=GPa)
#
#
# Indices 1 2 3 4 5 6 
#
# 1 183.3460 66.7169 50.7540 0.0000 0.0000 0.0000
# 2 66.7169 122.0313 16.9228 0.0000 0.0000 0.0000
# 3 50.7540 16.9228 60.1072 0.0000 0.0000 0.0000
# 4 0.0000 0.0000 0.0000 22.7884 0.0000 0.0000
# 5 0.0000 0.0000 0.0000 0.0000 31.5056 0.0000
# 6 0.0000 0.0000 0.0000 0.0000 0.0000 54.5643
#
#
#
# Elastic Compliance Matrix: (Units=1/GPa)
#
#
# Indices 1 2 3 4 5 6 
#
# 1 0.008543 -0.003820 -0.006139 0.000000 0.000000 0.000000
# 2 -0.003820 0.010235 0.000344 0.000000 0.000000 0.000000
# 3 -0.006139 0.000344 0.021724 0.000000 0.000000 0.000000
# 4 0.000000 0.000000 0.000000 0.043882 0.000000 0.000000
# 5 0.000000 0.000000 0.000000 0.000000 0.031740 0.000000
# 6 0.000000 0.000000 0.000000 0.000000 0.000000 0.018327
#
#
# Mechanical properties :
#
#
# Convention : Reuss Voigt Hill
#
# Bulk Modulus (GPa) = 47.00796 70.47465 58.74130
# Shear Modulus (GPa) = 31.10003 37.17771 34.13887
#
# Velocity S-wave (km/s) = 3.44972 3.77177 3.61433
# Velocity P-wave (km/s) = 5.81853 6.77759 6.31629
#
# Compressibility (1/GPa) = 0.02127299
#
# Stress axis : x y z
#
# Youngs Moduli (GPa) = 117.05051 97.70207 46.03296
#
# Poissons Ratio (x) = 0.37318 0.28258
# Poissons Ratio (y) = 0.44708 -0.01581
# Poissons Ratio (z) = 0.71852 -0.03356
#
# Static dielectric constant tensor:
#      x y z
#    x 2.001060 0.000000 0.000000 
#    y 0.000000 2.145890 0.000000 
#    z 0.000000 0.000000 2.201430 
# 
# From -- ./inp_files/872.got.cif
#   From: 2010.05.17/outbox.cif.g08.bks.cpg/sg19_1_cif.got.tgz:872.got - 2010.06.03 22:46:19.
