data_PCOD9314821
_publ_section_title
;
Structure prediction by ZEFSAII (Michael W. Deem and Ramdas Pophale) SiO2 
 PCOD9314821
Probable space group: P 21 21 21
;
_chemical_formula_sum "Si O2"
_cell_formula_units_Z 32
_cell_length_a 15.279352
_cell_length_b 8.919429
_cell_length_c 10.584867
_cell_angle_alpha 90.000000
_cell_angle_beta 90.000000
_cell_angle_gamma 90.000000
_cell_volume 1442.538438
_symmetry_space_group_name_H-M "P 21 21 21"
_symmetry_group_IT_number 19
_symmetry_cell_setting 'orthorhombic'
loop_
_space_group_symop_operation_xyz
x,y,z
1/2-x,-y,1/2+z
1/2+x,1/2-y,-z
-x,1/2+y,1/2-z
loop_
_atom_site_type_symbol
_atom_site_label
_atom_site_fract_x
_atom_site_fract_y
_atom_site_fract_z
Si Si1 0.023825 0.215607 0.001307
Si Si2 0.060611 0.414686 0.604974
Si Si3 0.493304 0.348308 0.717534
Si Si4 0.407814 0.260370 0.478949
Si Si5 0.137744 0.429771 0.881008
Si Si6 0.219310 0.214811 0.548483
Si Si7 0.113128 0.944239 0.457648
Si Si8 0.810438 0.168354 0.196316
O O1 0.033924 0.214832 0.153210
O O2 0.957768 0.349812 0.964570
O O3 0.111744 0.265830 0.932223
O O4 0.980920 0.061115 0.958520
O O5 0.099091 0.452809 0.741853
O O6 0.139233 0.332173 0.528928
O O7 0.978769 0.300916 0.618319
O O8 0.455242 0.229375 0.614332
O O9 0.560633 0.454645 0.644925
O O10 0.399967 0.414459 0.765022
O O11 0.397599 0.438799 0.469171
O O12 0.308349 0.204320 0.465408
O O13 0.242150 0.436597 0.874109
O O14 0.260337 0.267150 0.681440
O O15 0.172518 0.054322 0.539421
O O16 0.164495 0.812626 0.386205
#
# Coordination Sequence:
#
# PCOD9314821 Si02
#       8
#     4   4   4   4   4   4   4   4
#     4  11  25  39  75  96 130 178 224 275 336 410
#     4  11  24  43  67  96 136 176 231 275 340 407
#     4  10  22  42  67  95 133 176 224 271 342 395
#     4  11  23  43  69  94 138 179 224 277 350 403
#     4  11  23  46  63 101 134 181 215 291 337 407
#     4  10  23  43  65  94 134 178 220 289 333 405
#     4  11  22  44  65  97 132 180 225 283 337 405
#     4   9  24  40  65  97 137 166 233 283 335 404
#
# _framework density 22.183116999999999
#
# number of rings (size 3 to 8) (size 9 to 14) (size 15 to 20)
#    0.000    1.500    2.500    0.750   10.500    1.000 
#    2.250    0.000    0.000    0.000    0.000    0.000 
#    0.000    0.000    0.000    0.000    0.000    0.000 
#
# Total GULP energy -178531.617905 kJ/mol
# GULP energy per Si atom -5579.113060 kJ/mol
# Density = 2.213263 g / cm^3
# Si number density = 22.183117 Si / 1000 Ang^3
#
#
#
# Elastic Constant Matrix: (Units=GPa)
#
#
# Indices 1 2 3 4 5 6 
#
# 1 94.5920 12.5415 6.4683 0.0000 0.0000 0.0000
# 2 12.5415 53.9307 1.7856 0.0000 0.0000 0.0000
# 3 6.4683 1.7856 43.3140 0.0000 0.0000 0.0000
# 4 0.0000 0.0000 0.0000 25.0881 0.0000 0.0000
# 5 0.0000 0.0000 0.0000 0.0000 30.7374 0.0000
# 6 0.0000 0.0000 0.0000 0.0000 0.0000 38.3125
#
#
#
# Elastic Compliance Matrix: (Units=1/GPa)
#
#
# Indices 1 2 3 4 5 6 
#
# 1 0.011010 -0.002509 -0.001541 0.000000 0.000000 0.000000
# 2 -0.002509 0.019140 -0.000414 0.000000 0.000000 0.000000
# 3 -0.001541 -0.000414 0.023334 0.000000 0.000000 0.000000
# 4 0.000000 0.000000 0.000000 0.039859 0.000000 0.000000
# 5 0.000000 0.000000 0.000000 0.000000 0.032534 0.000000
# 6 0.000000 0.000000 0.000000 0.000000 0.000000 0.026101
#
#
# Mechanical properties :
#
#
# Convention : Reuss Voigt Hill
#
# Bulk Modulus (GPa) = 22.44410 25.93640 24.19025
# Shear Modulus (GPa) = 28.44816 30.23037 29.33927
#
# Velocity S-wave (km/s) = 3.58498 3.69557 3.64069
# Velocity P-wave (km/s) = 5.22262 5.47056 5.34802
#
# Compressibility (1/GPa) = 0.04455513
#
# Stress axis : x y z
#
# Youngs Moduli (GPa) = 90.82847 52.24783 42.85518
#
# Poissons Ratio (x) = 0.13110 0.06603
# Poissons Ratio (y) = 0.22791 0.01775
# Poissons Ratio (z) = 0.13994 0.02165
#
# Static dielectric constant tensor:
#      x y z
#    x 1.899850 0.000000 0.000000 
#    y 0.000000 1.796910 0.000000 
#    z 0.000000 0.000000 1.836230 
# 
# From -- ./inp_files/3584.got.cif
#   From: 2010.05.17/outbox.cif.g08.bks.cpg/sg19_2_cif.got.tgz:3584.got - 2010.06.03 22:46:19.
