data_PCOD9314503
_publ_section_title
;
Structure prediction by ZEFSAII (Michael W. Deem and Ramdas Pophale) SiO2 
 PCOD9314503
Probable space group: P 21 21 21
;
_chemical_formula_sum "Si O2"
_cell_formula_units_Z 32
_cell_length_a 7.644623
_cell_length_b 5.329902
_cell_length_c 26.982743
_cell_angle_alpha 90.000000
_cell_angle_beta 90.000000
_cell_angle_gamma 90.000000
_cell_volume 1099.414330
_symmetry_space_group_name_H-M "P 21 21 21"
_symmetry_group_IT_number 19
_symmetry_cell_setting 'orthorhombic'
loop_
_space_group_symop_operation_xyz
x,y,z
1/2-x,-y,1/2+z
1/2+x,1/2-y,-z
-x,1/2+y,1/2-z
loop_
_atom_site_type_symbol
_atom_site_label
_atom_site_fract_x
_atom_site_fract_y
_atom_site_fract_z
Si Si1 0.695533 0.990759 0.490755
Si Si2 0.938721 0.987261 0.721461
Si Si3 0.177933 0.126105 0.279139
Si Si4 0.972519 0.018002 0.094959
Si Si5 0.818296 0.280060 0.320204
Si Si6 0.907206 0.508210 0.976794
Si Si7 0.496535 0.907542 0.347224
Si Si8 0.212440 0.019339 0.409261
O O1 0.545533 0.983829 0.534220
O O2 0.665680 0.232426 0.457250
O O3 0.681803 0.742563 0.457784
O O4 0.883827 0.999467 0.517904
O O5 0.739430 0.079813 0.721278
O O6 0.836636 0.922117 0.833721
O O7 0.985503 0.741489 0.753663
O O8 0.005729 0.886005 0.668549
O O9 0.985282 0.119879 0.301140
O O10 0.193152 0.987928 0.225494
O O11 0.319351 0.000550 0.316816
O O12 0.831904 0.799180 0.107792
O O13 0.129999 0.929725 0.129836
O O14 0.910431 0.293974 0.109691
O O15 0.831873 0.519014 0.032795
O O16 0.411345 0.945246 0.400308
#
# Coordination Sequence:
#
# PCOD9314503 Si02
#       8
#     4   4   4   4   4   4   4   4
#     4  10  21  42  79 115 164 200 254 317 387 484
#     4  12  25  47  76 103 146 201 267 339 402 457
#     4  12  28  47  75 109 153 200 280 346 385 474
#     4  10  23  50  72 111 159 206 255 326 400 464
#     4  12  29  49  81 113 148 221 277 332 410 463
#     4  10  21  42  76 121 154 208 250 312 393 473
#     4  12  26  50  74 109 156 209 265 340 404 462
#     4  10  23  47  75 103 166 201 248 328 393 467
#
# _framework density 29.106407999999998
#
# number of rings (size 3 to 8) (size 9 to 14) (size 15 to 20)
#    0.000    1.000    2.500    3.000    5.250    0.000 
#    2.250   16.250    0.000    0.000    3.250    0.000 
#    0.000    0.000    0.000    0.000    0.000    0.000 
#
# Total GULP energy -178850.215671 kJ/mol
# GULP energy per Si atom -5589.069240 kJ/mol
# Density = 2.904016 g / cm^3
# Si number density = 29.106408 Si / 1000 Ang^3
#
#
#
# Elastic Constant Matrix: (Units=GPa)
#
#
# Indices 1 2 3 4 5 6 
#
# 1 177.8609 56.3482 54.7292 0.0000 0.0000 0.0000
# 2 56.3482 211.4388 24.5673 0.0000 0.0000 0.0000
# 3 54.7292 24.5673 110.8084 0.0000 0.0000 0.0000
# 4 0.0000 0.0000 0.0000 46.6088 0.0000 0.0000
# 5 0.0000 0.0000 0.0000 0.0000 63.2639 0.0000
# 6 0.0000 0.0000 0.0000 0.0000 0.0000 59.8143
#
#
#
# Elastic Compliance Matrix: (Units=1/GPa)
#
#
# Indices 1 2 3 4 5 6 
#
# 1 0.007075 -0.001519 -0.003158 0.000000 0.000000 0.000000
# 2 -0.001519 0.005181 -0.000399 0.000000 0.000000 0.000000
# 3 -0.003158 -0.000399 0.010673 0.000000 0.000000 0.000000
# 4 0.000000 0.000000 0.000000 0.021455 0.000000 0.000000
# 5 0.000000 0.000000 0.000000 0.000000 0.015807 0.000000
# 6 0.000000 0.000000 0.000000 0.000000 0.000000 0.016718
#
#
# Mechanical properties :
#
#
# Convention : Reuss Voigt Hill
#
# Bulk Modulus (GPa) = 78.25684 85.71085 81.98385
# Shear Modulus (GPa) = 54.75371 58.23494 56.49433
#
# Velocity S-wave (km/s) = 4.34194 4.47784 4.41041
# Velocity P-wave (km/s) = 7.21674 7.49974 7.35960
#
# Compressibility (1/GPa) = 0.01277844
#
# Stress axis : x y z
#
# Youngs Moduli (GPa) = 141.33952 193.03102 93.69783
#
# Poissons Ratio (x) = 0.29314 0.29588
# Poissons Ratio (y) = 0.21464 0.03734
# Poissons Ratio (z) = 0.44632 0.07693
#
# Static dielectric constant tensor:
#      x y z
#    x 2.405700 0.000000 0.000000 
#    y 0.000000 2.620020 0.000000 
#    z 0.000000 0.000000 2.535610 
# 
# From -- ./inp_files/2507.got.cif
#   From: 2010.05.17/outbox.cif.g08.bks.cpg/sg19_2_cif.got.tgz:2507.got - 2010.06.03 22:46:19.
