data_PCOD9314744
_publ_section_title
;
Structure prediction by ZEFSAII (Michael W. Deem and Ramdas Pophale) SiO2 
 PCOD9314744
Probable space group: P 21 21 21
;
_chemical_formula_sum "Si O2"
_cell_formula_units_Z 32
_cell_length_a 4.990661
_cell_length_b 18.641824
_cell_length_c 14.592809
_cell_angle_alpha 90.000000
_cell_angle_beta 90.000000
_cell_angle_gamma 90.000000
_cell_volume 1357.642336
_symmetry_space_group_name_H-M "P 21 21 21"
_symmetry_group_IT_number 19
_symmetry_cell_setting 'orthorhombic'
loop_
_space_group_symop_operation_xyz
x,y,z
1/2-x,-y,1/2+z
1/2+x,1/2-y,-z
-x,1/2+y,1/2-z
loop_
_atom_site_type_symbol
_atom_site_label
_atom_site_fract_x
_atom_site_fract_y
_atom_site_fract_z
Si Si1 0.908296 0.040989 0.612820
Si Si2 0.144442 0.484894 0.195207
Si Si3 0.762151 0.826081 0.305234
Si Si4 0.095334 0.423300 0.551530
Si Si5 0.785406 0.451321 0.033781
Si Si6 0.372670 0.216030 0.962296
Si Si7 0.912089 0.269787 0.548405
Si Si8 0.222471 0.171795 0.691717
O O1 0.714241 0.015938 0.696524
O O2 0.788871 0.092903 0.533754
O O3 0.135256 0.091506 0.659845
O O4 0.019003 0.976899 0.549102
O O5 0.262084 0.408262 0.160700
O O6 0.267249 0.554417 0.146359
O O7 0.866110 0.476309 0.138464
O O8 0.461312 0.808749 0.279431
O O9 0.931882 0.778803 0.374364
O O10 0.966872 0.829052 0.218654
O O11 0.909271 0.355053 0.564610
O O12 0.961962 0.496634 0.516488
O O13 0.773769 0.366125 0.029546
O O14 0.605126 0.236300 0.035938
O O15 0.108508 0.255419 0.461770
O O16 0.092681 0.227773 0.621718
#
# Coordination Sequence:
#
# PCOD9314744 Si02
#       8
#     4   4   4   4   4   4   4   4
#     4  10  22  41  66  98 132 178 223 276 340 408
#     4   9  23  40  66  97 128 177 223 283 331 409
#     4  10  23  42  70  94 132 177 232 269 338 415
#     4  11  24  43  66 101 138 178 232 288 338 417
#     4  10  24  41  70  96 133 178 231 285 345 412
#     4  11  25  45  70  95 132 177 228 290 347 407
#     4  12  25  43  66 100 141 183 225 281 346 409
#     4  11  22  41  68  99 132 182 224 274 331 419
#
# _framework density 23.570271999999999
#
# number of rings (size 3 to 8) (size 9 to 14) (size 15 to 20)
#    0.000    1.500    1.250    2.250   19.250    0.000 
#    4.500    0.000    0.000    0.000    0.000    0.000 
#    0.000    0.000    0.000    0.000    0.000    0.000 
#
# Total GULP energy -178262.000914 kJ/mol
# GULP energy per Si atom -5570.687529 kJ/mol
# Density = 2.351663 g / cm^3
# Si number density = 23.570272 Si / 1000 Ang^3
#
#
#
# Elastic Constant Matrix: (Units=GPa)
#
#
# Indices 1 2 3 4 5 6 
#
# 1 88.3874 12.9438 8.5739 0.0000 0.0000 0.0000
# 2 12.9438 64.3830 13.2880 0.0000 0.0000 0.0000
# 3 8.5739 13.2880 107.5469 0.0000 0.0000 0.0000
# 4 0.0000 0.0000 0.0000 28.6038 0.0000 0.0000
# 5 0.0000 0.0000 0.0000 0.0000 37.7629 0.0000
# 6 0.0000 0.0000 0.0000 0.0000 0.0000 16.3357
#
#
#
# Elastic Compliance Matrix: (Units=1/GPa)
#
#
# Indices 1 2 3 4 5 6 
#
# 1 0.011702 -0.002217 -0.000659 0.000000 0.000000 0.000000
# 2 -0.002217 0.016358 -0.001844 0.000000 0.000000 0.000000
# 3 -0.000659 -0.001844 0.009579 0.000000 0.000000 0.000000
# 4 0.000000 0.000000 0.000000 0.034960 0.000000 0.000000
# 5 0.000000 0.000000 0.000000 0.000000 0.026481 0.000000
# 6 0.000000 0.000000 0.000000 0.000000 0.000000 0.061216
#
#
# Mechanical properties :
#
#
# Convention : Reuss Voigt Hill
#
# Bulk Modulus (GPa) = 35.46211 36.65873 36.06042
# Shear Modulus (GPa) = 27.91169 31.57459 29.74314
#
# Velocity S-wave (km/s) = 3.44494 3.66402 3.55617
# Velocity P-wave (km/s) = 5.55890 5.78677 5.67398
#
# Compressibility (1/GPa) = 0.02819911
#
# Stress axis : x y z
#
# Youngs Moduli (GPa) = 85.45271 61.13081 104.39827
#
# Poissons Ratio (x) = 0.13551 0.06881
# Poissons Ratio (y) = 0.18942 0.19256
# Poissons Ratio (z) = 0.05632 0.11275
#
# Static dielectric constant tensor:
#      x y z
#    x 1.975550 0.000000 0.000000 
#    y 0.000000 1.883980 0.000000 
#    z 0.000000 0.000000 2.141610 
# 
# From -- ./inp_files/1548.got.cif
#   From: 2010.05.17/outbox.cif.g08.bks.cpg/sg19_1_cif.got.tgz:1548.got - 2010.06.03 22:46:19.
