data_PCOD9314337
_publ_section_title
;
Structure prediction by ZEFSAII (Michael W. Deem and Ramdas Pophale) SiO2 
 PCOD9314337
Probable space group: P 21 21 21
;
_chemical_formula_sum "Si O2"
_cell_formula_units_Z 28
_cell_length_a 5.592614
_cell_length_b 10.863081
_cell_length_c 17.212871
_cell_angle_alpha 90.000000
_cell_angle_beta 90.000000
_cell_angle_gamma 90.000000
_cell_volume 1045.733877
_symmetry_space_group_name_H-M "P 21 21 21"
_symmetry_group_IT_number 19
_symmetry_cell_setting 'orthorhombic'
loop_
_space_group_symop_operation_xyz
x,y,z
1/2-x,-y,1/2+z
1/2+x,1/2-y,-z
-x,1/2+y,1/2-z
loop_
_atom_site_type_symbol
_atom_site_label
_atom_site_fract_x
_atom_site_fract_y
_atom_site_fract_z
Si Si1 0.888115 0.354353 0.910149
Si Si2 0.251098 0.186794 0.820402
Si Si3 0.104174 0.387292 0.061706
Si Si4 0.379121 0.496823 0.197375
Si Si5 0.496588 0.927321 0.685131
Si Si6 0.553871 0.228869 0.395925
Si Si7 0.558731 0.136459 0.572745
O O1 0.690084 0.256417 0.943153
O O2 0.782194 0.420855 0.834965
O O3 0.099271 0.276092 0.874811
O O4 0.996403 0.430996 0.980673
O O5 0.385453 0.098319 0.879522
O O6 0.442526 0.286012 0.790666
O O7 0.072323 0.102002 0.772977
O O8 0.310957 0.450103 0.110563
O O9 0.145364 0.497175 0.251861
O O10 0.455139 0.635502 0.177175
O O11 0.564654 0.995812 0.603575
O O12 0.553857 0.159709 0.480274
O O13 0.304820 0.303103 0.396888
O O14 0.809355 0.302092 0.395606
#
# Coordination Sequence:
#
# PCOD9314337 Si02
#       7
#     4   4   4   4   4   4   4
#     4  10  21  39  68 104 139 178 237 303 368 436
#     4  10  24  42  68 104 144 188 238 296 378 426
#     4  10  21  39  68 104 139 178 237 303 368 436
#     4  11  27  43  70 105 147 193 242 307 374 455
#     4  11  27  43  70 105 147 193 242 307 374 455
#     4  10  25  47  74 104 143 200 259 313 369 444
#     4  10  25  47  74 104 143 200 259 313 369 444
#
# _framework density 26.775455999999998
#
# number of rings (size 3 to 8) (size 9 to 14) (size 15 to 20)
#    0.000    1.714    1.429    0.000   10.000    5.714 
#    0.000    0.000    0.000    0.000    0.000    0.000 
#    0.000    0.000    0.000    0.000    0.000    0.000 
#
# Total GULP energy -156313.459704 kJ/mol
# GULP energy per Si atom -5582.623561 kJ/mol
# Density = 2.671451 g / cm^3
# Si number density = 26.775456 Si / 1000 Ang^3
#
#
#
# Elastic Constant Matrix: (Units=GPa)
#
#
# Indices 1 2 3 4 5 6 
#
# 1 109.1078 34.4090 25.3188 0.0000 0.0000 0.0000
# 2 34.4090 97.4445 30.5935 0.0000 0.0000 0.0000
# 3 25.3188 30.5935 76.6692 0.0000 0.0000 0.0000
# 4 0.0000 0.0000 0.0000 40.3738 0.0000 0.0000
# 5 0.0000 0.0000 0.0000 0.0000 37.1492 0.0000
# 6 0.0000 0.0000 0.0000 0.0000 0.0000 30.9801
#
#
#
# Elastic Compliance Matrix: (Units=1/GPa)
#
#
# Indices 1 2 3 4 5 6 
#
# 1 0.010659 -0.003040 -0.002307 0.000000 0.000000 0.000000
# 2 -0.003040 0.012599 -0.004024 0.000000 0.000000 0.000000
# 3 -0.002307 -0.004024 0.015410 0.000000 0.000000 0.000000
# 4 0.000000 0.000000 0.000000 0.024769 0.000000 0.000000
# 5 0.000000 0.000000 0.000000 0.000000 0.026918 0.000000
# 6 0.000000 0.000000 0.000000 0.000000 0.000000 0.032279
#
#
# Mechanical properties :
#
#
# Convention : Reuss Voigt Hill
#
# Bulk Modulus (GPa) = 50.18080 51.54043 50.86061
# Shear Modulus (GPa) = 33.77978 34.56062 34.17020
#
# Velocity S-wave (km/s) = 3.55575 3.59661 3.57624
# Velocity P-wave (km/s) = 5.96991 6.04470 6.00742
#
# Compressibility (1/GPa) = 0.01992794
#
# Stress axis : x y z
#
# Youngs Moduli (GPa) = 93.81555 79.37263 64.89091
#
# Poissons Ratio (x) = 0.24126 0.14971
# Poissons Ratio (y) = 0.28516 0.26109
# Poissons Ratio (z) = 0.21645 0.31936
#
# Static dielectric constant tensor:
#      x y z
#    x 2.187190 0.000000 0.000000 
#    y 0.000000 2.213640 0.000000 
#    z 0.000000 0.000000 2.081730 
# 
# From -- ./inp_files/6426.got.cif
#   From: 2010.05.17/outbox.cif.g08.bks.cpg/sg19_4_cif.got.tgz:6426.got - 2010.06.03 22:46:19.
