data_PCOD9314716
_publ_section_title
;
Structure prediction by ZEFSAII (Michael W. Deem and Ramdas Pophale) SiO2 
 PCOD9314716
Probable space group: P 21 21 21
;
_chemical_formula_sum "Si O2"
_cell_formula_units_Z 28
_cell_length_a 19.666290
_cell_length_b 5.123705
_cell_length_c 10.770047
_cell_angle_alpha 90.000000
_cell_angle_beta 90.000000
_cell_angle_gamma 90.000000
_cell_volume 1085.235907
_symmetry_space_group_name_H-M "P 21 21 21"
_symmetry_group_IT_number 19
_symmetry_cell_setting 'orthorhombic'
loop_
_space_group_symop_operation_xyz
x,y,z
1/2-x,-y,1/2+z
1/2+x,1/2-y,-z
-x,1/2+y,1/2-z
loop_
_atom_site_type_symbol
_atom_site_label
_atom_site_fract_x
_atom_site_fract_y
_atom_site_fract_z
Si Si1 0.635006 0.905376 0.589837
Si Si2 0.293218 0.564155 0.679387
Si Si3 0.042186 0.956786 0.770381
Si Si4 0.250094 0.934112 0.494898
Si Si5 0.454808 0.045504 0.746694
Si Si6 0.121396 0.813971 0.002426
Si Si7 0.654542 0.213703 0.372893
O O1 0.653025 0.077690 0.710091
O O2 0.710801 0.799626 0.564387
O O3 0.588334 0.673216 0.642106
O O4 0.611004 0.011547 0.456744
O O5 0.272094 0.848333 0.633314
O O6 0.336615 0.423291 0.567622
O O7 0.218872 0.423254 0.697246
O O8 0.106667 0.080196 0.695809
O O9 0.999551 0.726053 0.703077
O O10 0.066162 0.800566 0.894521
O O11 0.318376 0.027432 0.434871
O O12 0.194248 0.149323 0.514490
O O13 0.511765 0.269721 0.722926
O O14 0.412642 0.040102 0.618967
#
# Coordination Sequence:
#
# PCOD9314716 Si02
#       7
#     4   4   4   4   4   4   4
#     4  10  23  42  72 104 145 186 249 306 376 434
#     4   9  21  42  72 109 137 188 236 321 377 429
#     4  12  31  49  73 104 150 211 245 294 359 451
#     4  10  22  40  75 102 145 182 238 316 370 437
#     4  11  28  46  76 109 146 197 246 310 365 440
#     4  10  25  47  71 105 146 190 249 306 372 437
#     4  10  24  44  69 107 141 192 247 305 367 444
#
# _framework density 25.800840999999998
#
# number of rings (size 3 to 8) (size 9 to 14) (size 15 to 20)
#    0.000    1.714    0.000    0.857   14.000    5.714 
#    0.000    0.000    0.000    0.000    0.000    0.000 
#    0.000    0.000    0.000    0.000    0.000    0.000 
#
# Total GULP energy -156270.417359 kJ/mol
# GULP energy per Si atom -5581.086334 kJ/mol
# Density = 2.574212 g / cm^3
# Si number density = 25.800841 Si / 1000 Ang^3
#
#
#
# Elastic Constant Matrix: (Units=GPa)
#
#
# Indices 1 2 3 4 5 6 
#
# 1 123.3259 40.4914 44.6929 0.0000 0.0000 0.0000
# 2 40.4914 76.5606 27.0660 0.0000 0.0000 0.0000
# 3 44.6929 27.0660 67.2880 0.0000 0.0000 0.0000
# 4 0.0000 0.0000 0.0000 20.9049 0.0000 0.0000
# 5 0.0000 0.0000 0.0000 0.0000 33.5568 0.0000
# 6 0.0000 0.0000 0.0000 0.0000 0.0000 43.2560
#
#
#
# Elastic Compliance Matrix: (Units=1/GPa)
#
#
# Indices 1 2 3 4 5 6 
#
# 1 0.011638 -0.003990 -0.006125 0.000000 0.000000 0.000000
# 2 -0.003990 0.016595 -0.004025 0.000000 0.000000 0.000000
# 3 -0.006125 -0.004025 0.020549 0.000000 0.000000 0.000000
# 4 0.000000 0.000000 0.000000 0.047836 0.000000 0.000000
# 5 0.000000 0.000000 0.000000 0.000000 0.029800 0.000000
# 6 0.000000 0.000000 0.000000 0.000000 0.000000 0.023118
#
#
# Mechanical properties :
#
#
# Convention : Reuss Voigt Hill
#
# Bulk Modulus (GPa) = 48.77666 54.63059 51.70363
# Shear Modulus (GPa) = 27.07822 29.87182 28.47502
#
# Velocity S-wave (km/s) = 3.24313 3.40632 3.32572
# Velocity P-wave (km/s) = 5.74195 6.05727 5.90172
#
# Compressibility (1/GPa) = 0.02050161
#
# Stress axis : x y z
#
# Youngs Moduli (GPa) = 85.92253 60.26051 48.66418
#
# Poissons Ratio (x) = 0.24043 0.29809
# Poissons Ratio (y) = 0.34282 0.19587
# Poissons Ratio (z) = 0.52631 0.24255
#
# Static dielectric constant tensor:
#      x y z
#    x 2.051530 0.000000 0.000000 
#    y 0.000000 2.071680 0.000000 
#    z 0.000000 0.000000 2.062060 
# 
# From -- ./inp_files/5460.got.cif
#   From: 2010.05.17/outbox.cif.g08.bks.cpg/sg19_3_cif.got.tgz:5460.got - 2010.06.03 22:46:19.
