data_PCOD9314088
_publ_section_title
;
Structure prediction by ZEFSAII (Michael W. Deem and Ramdas Pophale) SiO2 
 PCOD9314088
Probable space group: P 21 21 21
;
_chemical_formula_sum "Si O2"
_cell_formula_units_Z 24
_cell_length_a 19.678888
_cell_length_b 8.927715
_cell_length_c 5.131998
_cell_angle_alpha 90.000000
_cell_angle_beta 90.000000
_cell_angle_gamma 90.000000
_cell_volume 901.627917
_symmetry_space_group_name_H-M "P 21 21 21"
_symmetry_group_IT_number 19
_symmetry_cell_setting 'orthorhombic'
loop_
_space_group_symop_operation_xyz
x,y,z
1/2-x,-y,1/2+z
1/2+x,1/2-y,-z
-x,1/2+y,1/2-z
loop_
_atom_site_type_symbol
_atom_site_label
_atom_site_fract_x
_atom_site_fract_y
_atom_site_fract_z
Si Si1 0.950839 0.224849 0.268607
Si Si2 0.293591 0.012349 0.202316
Si Si3 0.318733 0.640381 0.055904
Si Si4 0.254531 0.309192 0.054127
Si Si5 0.436256 0.463806 0.250739
Si Si6 0.432647 0.960217 0.953577
O O1 0.987423 0.489863 0.827816
O O2 0.937239 0.141724 0.998646
O O3 0.932688 0.398949 0.244665
O O4 0.030222 0.184934 0.330025
O O5 0.308136 0.188998 0.152643
O O6 0.360467 0.933447 0.087028
O O7 0.230038 0.997667 0.000306
O O8 0.286708 0.472278 0.052974
O O9 0.307087 0.693391 0.762134
O O10 0.390968 0.606632 0.184002
O O11 0.271952 0.726433 0.265243
O O12 0.412847 0.369449 0.505038
#
# Coordination Sequence:
#
# PCOD9314088 Si02
#       6
#     4   4   4   4   4   4
#     4  10  24  43  72 105 137 185 227 305 357 425
#     4  12  28  47  69  99 145 203 233 287 355 448
#     4  10  20  41  68 104 131 175 233 296 353 397
#     4  10  22  40  67  97 139 181 232 285 344 430
#     4  10  23  40  70 103 138 179 229 303 354 414
#     4  10  27  47  74 104 148 183 252 288 373 422
#
# _framework density 26.618521000000001
#
# number of rings (size 3 to 8) (size 9 to 14) (size 15 to 20)
#    1.000    0.667    0.000    3.000    4.667    5.333 
#    6.000    0.000    0.000    0.000    0.000    0.000 
#    0.000    0.000    0.000    0.000    0.000    0.000 
#
# Total GULP energy -134323.103701 kJ/mol
# GULP energy per Si atom -5596.795988 kJ/mol
# Density = 2.655794 g / cm^3
# Si number density = 26.618521 Si / 1000 Ang^3
#
#
#
# Elastic Constant Matrix: (Units=GPa)
#
#
# Indices 1 2 3 4 5 6 
#
# 1 102.2132 5.1755 22.8439 0.0000 0.0000 0.0000
# 2 5.1755 45.0156 27.3657 0.0000 0.0000 0.0000
# 3 22.8439 27.3657 151.4898 0.0000 0.0000 0.0000
# 4 0.0000 0.0000 0.0000 52.0235 0.0000 0.0000
# 5 0.0000 0.0000 0.0000 0.0000 42.7249 0.0000
# 6 0.0000 0.0000 0.0000 0.0000 0.0000 42.1479
#
#
#
# Elastic Compliance Matrix: (Units=1/GPa)
#
#
# Indices 1 2 3 4 5 6 
#
# 1 0.010128 -0.000265 -0.001479 0.000000 0.000000 0.000000
# 2 -0.000265 0.024962 -0.004469 0.000000 0.000000 0.000000
# 3 -0.001479 -0.004469 0.007632 0.000000 0.000000 0.000000
# 4 0.000000 0.000000 0.000000 0.019222 0.000000 0.000000
# 5 0.000000 0.000000 0.000000 0.000000 0.023406 0.000000
# 6 0.000000 0.000000 0.000000 0.000000 0.000000 0.023726
#
#
# Mechanical properties :
#
#
# Convention : Reuss Voigt Hill
#
# Bulk Modulus (GPa) = 33.01016 45.49876 39.25446
# Shear Modulus (GPa) = 37.99402 43.60150 40.79776
#
# Velocity S-wave (km/s) = 3.78213 4.05163 3.91920
# Velocity P-wave (km/s) = 5.61256 6.24641 5.93795
#
# Compressibility (1/GPa) = 0.03029371
#
# Stress axis : x y z
#
# Youngs Moduli (GPa) = 98.74095 40.06104 131.03554
#
# Poissons Ratio (x) = 0.01062 0.19384
# Poissons Ratio (y) = 0.02617 0.58563
# Poissons Ratio (z) = 0.14607 0.17904
#
# Static dielectric constant tensor:
#      x y z
#    x 2.096250 0.000000 0.000000 
#    y 0.000000 2.209200 0.000000 
#    z 0.000000 0.000000 1.992110 
# 
# From -- ./inp_files/2105.got.cif
#   From: 2010.05.17/outbox.cif.g08.bks.cpg/sg19_2_cif.got.tgz:2105.got - 2010.06.03 22:46:19.
