data_PCOD9314723
_publ_section_title
;
Structure prediction by ZEFSAII (Michael W. Deem and Ramdas Pophale) SiO2 
 PCOD9314723
Probable space group: P 21 21 21
;
_chemical_formula_sum "Si O2"
_cell_formula_units_Z 24
_cell_length_a 6.409554
_cell_length_b 27.259438
_cell_length_c 5.447847
_cell_angle_alpha 90.000000
_cell_angle_beta 90.000000
_cell_angle_gamma 90.000000
_cell_volume 951.852403
_symmetry_space_group_name_H-M "P 21 21 21"
_symmetry_group_IT_number 19
_symmetry_cell_setting 'orthorhombic'
loop_
_space_group_symop_operation_xyz
x,y,z
1/2-x,-y,1/2+z
1/2+x,1/2-y,-z
-x,1/2+y,1/2-z
loop_
_atom_site_type_symbol
_atom_site_label
_atom_site_fract_x
_atom_site_fract_y
_atom_site_fract_z
Si Si1 0.711447 0.770674 0.217002
Si Si2 0.445761 0.179914 0.000017
Si Si3 0.772658 0.066947 0.684513
Si Si4 0.218181 0.655872 0.146211
Si Si5 0.102614 0.998985 0.393315
Si Si6 0.540925 0.361748 0.042009
O O1 0.653587 0.717013 0.300685
O O2 0.557835 0.812032 0.336862
O O3 0.938685 0.784601 0.314064
O O4 0.717039 0.787844 0.937257
O O5 0.624095 0.149662 0.132639
O O6 0.279068 0.143517 0.889996
O O7 0.710370 0.117895 0.554854
O O8 0.934842 0.087643 0.885105
O O9 0.924148 0.037289 0.496633
O O10 0.565349 0.041257 0.788244
O O11 0.992711 0.643024 0.250799
O O12 0.253525 0.009972 0.147852
#
# Coordination Sequence:
#
# PCOD9314723 Si02
#       6
#     4   4   4   4   4   4
#     4  10  22  41  63  98 145 194 262 313 378 461
#     4  11  22  41  69 102 144 209 258 318 397 468
#     4  11  28  56  75 118 163 195 274 339 407 514
#     4  10  26  42  70 104 150 197 253 331 394 477
#     4  12  30  53  93 123 159 221 270 343 433 510
#     4  10  24  45  70 101 151 198 247 332 387 470
#
# _framework density 25.213996999999999
#
# number of rings (size 3 to 8) (size 9 to 14) (size 15 to 20)
#    0.000    1.333    1.667    1.000    9.333    8.000 
#    0.000    0.000    0.000    0.000    0.000    0.000 
#    0.000    0.000    0.000    0.000    0.000    0.000 
#
# Total GULP energy -133803.398384 kJ/mol
# GULP energy per Si atom -5575.141599 kJ/mol
# Density = 2.515661 g / cm^3
# Si number density = 25.213997 Si / 1000 Ang^3
#
#
#
# Elastic Constant Matrix: (Units=GPa)
#
#
# Indices 1 2 3 4 5 6 
#
# 1 112.8413 35.9124 44.5784 0.0000 0.0000 0.0000
# 2 35.9124 84.0116 24.2723 0.0000 0.0000 0.0000
# 3 44.5784 24.2723 91.5709 0.0000 0.0000 0.0000
# 4 0.0000 0.0000 0.0000 51.6318 0.0000 0.0000
# 5 0.0000 0.0000 0.0000 0.0000 39.1364 0.0000
# 6 0.0000 0.0000 0.0000 0.0000 0.0000 44.2339
#
#
#
# Elastic Compliance Matrix: (Units=1/GPa)
#
#
# Indices 1 2 3 4 5 6 
#
# 1 0.011954 -0.003713 -0.004835 0.000000 0.000000 0.000000
# 2 -0.003713 0.014044 -0.001915 0.000000 0.000000 0.000000
# 3 -0.004835 -0.001915 0.013782 0.000000 0.000000 0.000000
# 4 0.000000 0.000000 0.000000 0.019368 0.000000 0.000000
# 5 0.000000 0.000000 0.000000 0.000000 0.025552 0.000000
# 6 0.000000 0.000000 0.000000 0.000000 0.000000 0.022607
#
#
# Mechanical properties :
#
#
# Convention : Reuss Voigt Hill
#
# Bulk Modulus (GPa) = 53.04136 55.32778 54.18457
# Shear Modulus (GPa) = 37.17020 39.24448 38.20734
#
# Velocity S-wave (km/s) = 3.84368 3.94947 3.89694
# Velocity P-wave (km/s) = 6.38597 6.54131 6.46411
#
# Compressibility (1/GPa) = 0.01885321
#
# Stress axis : x y z
#
# Youngs Moduli (GPa) = 83.65533 71.20717 72.55879
#
# Poissons Ratio (x) = 0.26439 0.35083
# Poissons Ratio (y) = 0.31061 0.13895
# Poissons Ratio (z) = 0.40449 0.13636
#
# Static dielectric constant tensor:
#      x y z
#    x 2.042350 0.000000 0.000000 
#    y 0.000000 1.971250 0.000000 
#    z 0.000000 0.000000 2.173710 
# 
# From -- ./inp_files/240.got.cif
#   From: 2010.05.17/outbox.cif.g08.bks.cpg/sg19_1_cif.got.tgz:240.got - 2010.06.03 22:46:19.
