data_PCOD9314883
_publ_section_title
;
Structure prediction by ZEFSAII (Michael W. Deem and Ramdas Pophale) SiO2 
 PCOD9314883
Probable space group: P 21 21 21
;
_chemical_formula_sum "Si O2"
_cell_formula_units_Z 20
_cell_length_a 8.272897
_cell_length_b 11.009045
_cell_length_c 8.611078
_cell_angle_alpha 90.000000
_cell_angle_beta 90.000000
_cell_angle_gamma 90.000000
_cell_volume 784.268528
_symmetry_space_group_name_H-M "P 21 21 21"
_symmetry_group_IT_number 19
_symmetry_cell_setting 'orthorhombic'
loop_
_space_group_symop_operation_xyz
x,y,z
1/2-x,-y,1/2+z
1/2+x,1/2-y,-z
-x,1/2+y,1/2-z
loop_
_atom_site_type_symbol
_atom_site_label
_atom_site_fract_x
_atom_site_fract_y
_atom_site_fract_z
Si Si1 0.507126 0.105794 0.797868
Si Si2 0.740506 0.731807 0.145063
Si Si3 0.108181 0.992704 0.993864
Si Si4 0.459298 0.738943 0.395597
Si Si5 0.732134 0.102528 0.354653
O O1 0.592612 0.221336 0.715116
O O2 0.385542 0.051370 0.671612
O O3 0.644462 0.003374 0.817042
O O4 0.471130 0.152043 0.970220
O O5 0.600598 0.758958 0.269926
O O6 0.735991 0.591741 0.095116
O O7 0.705909 0.809228 0.989980
O O8 0.934748 0.951100 0.923534
O O9 0.105698 0.135659 0.966286
O O10 0.315243 0.673328 0.301940
#
# Coordination Sequence:
#
# PCOD9314883 Si02
#       5
#     4   4   4   4   4
#     4  11  23  41  69  97 132 183 224 270 347 396
#     4  10  23  41  63 100 137 173 222 283 330 398
#     4  10  23  40  63  99 131 175 223 277 323 404
#     4  11  23  41  70 101 131 180 230 274 336 403
#     4  10  22  43  69  91 135 179 221 272 342 399
#
# _framework density 25.501469
#
# number of rings (size 3 to 8) (size 9 to 14) (size 15 to 20)
#    0.000    1.600    2.000    2.400    5.600    1.600 
#    0.000    0.000    0.000    0.000    0.000    0.000 
#    0.000    0.000    0.000    0.000    0.000    0.000 
#
# Total GULP energy -112201.436444 kJ/mol
# GULP energy per Si atom -5610.071822 kJ/mol
# Density = 2.544343 g / cm^3
# Si number density = 25.501469 Si / 1000 Ang^3
#
#
#
# Elastic Constant Matrix: (Units=GPa)
#
#
# Indices 1 2 3 4 5 6 
#
# 1 55.2733 30.6634 49.8485 0.0000 0.0000 0.0000
# 2 30.6634 157.2123 96.7526 0.0000 0.0000 0.0000
# 3 49.8485 96.7526 194.2388 0.0000 0.0000 0.0000
# 4 0.0000 0.0000 0.0000 58.1872 0.0000 0.0000
# 5 0.0000 0.0000 0.0000 0.0000 51.2855 0.0000
# 6 0.0000 0.0000 0.0000 0.0000 0.0000 26.3357
#
#
#
# Elastic Compliance Matrix: (Units=1/GPa)
#
#
# Indices 1 2 3 4 5 6 
#
# 1 0.023714 -0.001269 -0.005454 0.000000 0.000000 0.000000
# 2 -0.001269 0.009241 -0.004277 0.000000 0.000000 0.000000
# 3 -0.005454 -0.004277 0.008679 0.000000 0.000000 0.000000
# 4 0.000000 0.000000 0.000000 0.017186 0.000000 0.000000
# 5 0.000000 0.000000 0.000000 0.000000 0.019499 0.000000
# 6 0.000000 0.000000 0.000000 0.000000 0.000000 0.037971
#
#
# Mechanical properties :
#
#
# Convention : Reuss Voigt Hill
#
# Bulk Modulus (GPa) = 50.93320 84.58372 67.75846
# Shear Modulus (GPa) = 34.52225 42.45900 38.49063
#
# Velocity S-wave (km/s) = 3.68331 4.08482 3.88925
# Velocity P-wave (km/s) = 6.17293 7.44902 6.84079
#
# Compressibility (1/GPa) = 0.01963356
#
# Stress axis : x y z
#
# Youngs Moduli (GPa) = 42.16830 108.21773 115.22719
#
# Poissons Ratio (x) = 0.13732 0.62844
# Poissons Ratio (y) = 0.05351 0.49285
# Poissons Ratio (z) = 0.22998 0.46287
#
# Static dielectric constant tensor:
#      x y z
#    x 2.043970 0.000000 0.000000 
#    y 0.000000 1.974960 0.000000 
#    z 0.000000 0.000000 1.978220 
# 
# From -- ./inp_files/2598.got.cif
#   From: 2010.05.17/outbox.cif.g08.bks.cpg/sg19_2_cif.got.tgz:2598.got - 2010.06.03 22:46:19.
