data_PCOD9314104
_publ_section_title
;
Structure prediction by ZEFSAII (Michael W. Deem and Ramdas Pophale) SiO2 
 PCOD9314104
Probable space group: P 21 21 21
;
_chemical_formula_sum "Si O2"
_cell_formula_units_Z 24
_cell_length_a 11.374538
_cell_length_b 4.906620
_cell_length_c 21.742015
_cell_angle_alpha 90.000000
_cell_angle_beta 90.000000
_cell_angle_gamma 90.000000
_cell_volume 1213.433503
_symmetry_space_group_name_H-M "P 21 21 21"
_symmetry_group_IT_number 19
_symmetry_cell_setting 'orthorhombic'
loop_
_space_group_symop_operation_xyz
x,y,z
1/2-x,-y,1/2+z
1/2+x,1/2-y,-z
-x,1/2+y,1/2-z
loop_
_atom_site_type_symbol
_atom_site_label
_atom_site_fract_x
_atom_site_fract_y
_atom_site_fract_z
Si Si1 0.324135 0.297249 0.464897
Si Si2 0.042476 0.964584 0.590294
Si Si3 0.874530 0.014130 0.300194
Si Si4 0.202144 0.455772 0.589646
Si Si5 0.187265 0.230838 0.883810
Si Si6 0.644334 0.486993 0.717484
O O1 0.457641 0.414792 0.463197
O O2 0.265701 0.327986 0.530516
O O3 0.259501 0.499007 0.415890
O O4 0.325757 0.996070 0.437179
O O5 0.127520 0.721168 0.571316
O O6 0.943502 0.832872 0.634907
O O7 0.115611 0.219862 0.614908
O O8 0.796129 0.959535 0.359252
O O9 0.854516 0.320438 0.277271
O O10 0.013813 0.980047 0.310910
O O11 0.840943 0.816653 0.243365
O O12 0.260098 0.094941 0.829945
#
# Coordination Sequence:
#
# PCOD9314104 Si02
#       6
#     4   4   4   4   4   4
#     4  10  22  38  61  90 120 167 200 247 318 365
#     4  10  22  40  58  89 131 153 206 261 295 377
#     4  10  23  38  63  95 118 166 196 273 303 355
#     4  12  22  39  64  91 131 157 205 260 320 364
#     4  10  20  42  63  86 120 167 202 255 303 363
#     4  10  21  43  63  87 128 152 221 246 305 380
#
# _framework density 19.778589
#
# number of rings (size 3 to 8) (size 9 to 14) (size 15 to 20)
#    1.000    0.667    1.667    3.000    0.000    2.667 
#    0.000    3.333    0.000    0.000    0.000    0.000 
#    0.000    0.000    0.000    0.000    0.000    0.000 
#
# Total GULP energy -133772.384391 kJ/mol
# GULP energy per Si atom -5573.849350 kJ/mol
# Density = 1.973357 g / cm^3
# Si number density = 19.778589 Si / 1000 Ang^3
#
#
#
# Elastic Constant Matrix: (Units=GPa)
#
#
# Indices 1 2 3 4 5 6 
#
# 1 98.0946 13.2136 60.2806 0.0000 0.0000 0.0000
# 2 13.2136 86.7268 -2.0798 0.0000 0.0000 0.0000
# 3 60.2806 -2.0798 77.0421 0.0000 0.0000 0.0000
# 4 0.0000 0.0000 0.0000 14.1183 0.0000 0.0000
# 5 0.0000 0.0000 0.0000 0.0000 16.3518 0.0000
# 6 0.0000 0.0000 0.0000 0.0000 0.0000 30.6717
#
#
#
# Elastic Compliance Matrix: (Units=1/GPa)
#
#
# Indices 1 2 3 4 5 6 
#
# 1 0.020666 -0.003539 -0.016266 0.000000 0.000000 0.000000
# 2 -0.003539 0.012144 0.003097 0.000000 0.000000 0.000000
# 3 -0.016266 0.003097 0.025790 0.000000 0.000000 0.000000
# 4 0.000000 0.000000 0.000000 0.070830 0.000000 0.000000
# 5 0.000000 0.000000 0.000000 0.000000 0.061155 0.000000
# 6 0.000000 0.000000 0.000000 0.000000 0.000000 0.032603
#
#
# Mechanical properties :
#
#
# Convention : Reuss Voigt Hill
#
# Bulk Modulus (GPa) = 39.70593 44.96582 42.33587
# Shear Modulus (GPa) = 18.86790 24.92496 21.89643
#
# Velocity S-wave (km/s) = 3.09197 3.55378 3.33089
# Velocity P-wave (km/s) = 5.73287 6.29469 6.02034
#
# Compressibility (1/GPa) = 0.02518515
#
# Stress axis : x y z
#
# Youngs Moduli (GPa) = 48.38760 82.34596 38.77407
#
# Poissons Ratio (x) = 0.29141 0.63069
# Poissons Ratio (y) = 0.17123 -0.12007
# Poissons Ratio (z) = 0.78706 -0.25500
#
# Static dielectric constant tensor:
#      x y z
#    x 1.719350 0.000000 0.000000 
#    y 0.000000 1.697810 0.000000 
#    z 0.000000 0.000000 1.660990 
# 
# From -- ./inp_files/7110.got.cif
#   From: 2010.05.17/outbox.cif.g08.bks.cpg/sg19_4_cif.got.tgz:7110.got - 2010.06.03 22:46:19.
