data_PCOD9314872
_publ_section_title
;
Structure prediction by ZEFSAII (Michael W. Deem and Ramdas Pophale) SiO2 
 PCOD9314872
Probable space group: P 21 21 21
;
_chemical_formula_sum "Si O2"
_cell_formula_units_Z 28
_cell_length_a 8.924019
_cell_length_b 14.132655
_cell_length_c 10.435183
_cell_angle_alpha 90.000000
_cell_angle_beta 90.000000
_cell_angle_gamma 90.000000
_cell_volume 1316.086133
_symmetry_space_group_name_H-M "P 21 21 21"
_symmetry_group_IT_number 19
_symmetry_cell_setting 'orthorhombic'
loop_
_space_group_symop_operation_xyz
x,y,z
1/2-x,-y,1/2+z
1/2+x,1/2-y,-z
-x,1/2+y,1/2-z
loop_
_atom_site_type_symbol
_atom_site_label
_atom_site_fract_x
_atom_site_fract_y
_atom_site_fract_z
Si Si1 0.554959 0.537358 0.927286
Si Si2 0.006670 0.355500 0.952540
Si Si3 0.161100 0.173981 0.048710
Si Si4 0.913346 0.003165 0.333362
Si Si5 0.407747 0.808004 0.842564
Si Si6 0.221441 0.791957 0.086768
Si Si7 0.894870 0.880112 0.825548
O O1 0.584119 0.428377 0.959117
O O2 0.444270 0.541182 0.806053
O O3 0.703019 0.596505 0.886841
O O4 0.491188 0.588356 0.052779
O O5 0.022972 0.393758 0.808726
O O6 0.833756 0.339667 0.984851
O O7 0.087800 0.254714 0.963538
O O8 0.079068 0.426964 0.054403
O O9 0.140067 0.206958 0.196368
O O10 0.756581 0.058002 0.329906
O O11 0.043203 0.081921 0.355035
O O12 0.558730 0.751318 0.879677
O O13 0.275647 0.782373 0.940019
O O14 0.341963 0.729000 0.161820
#
# Coordination Sequence:
#
# PCOD9314872 Si02
#       7
#     4   4   4   4   4   4   4
#     4  11  23  47  71 100 141 188 237 293 357 424
#     4  12  27  47  69 108 144 190 242 294 368 423
#     4  11  28  45  72 103 150 192 239 301 360 433
#     4  10  24  43  74  99 144 183 235 299 356 425
#     4  10  22  43  67 105 139 185 241 293 358 423
#     4  11  21  41  71 101 138 182 235 293 354 419
#     4  11  25  44  72 106 138 186 243 295 357 429
#
# _framework density 21.275203999999999
#
# number of rings (size 3 to 8) (size 9 to 14) (size 15 to 20)
#    0.000    1.143    1.429    3.429   10.000    1.143 
#    2.571    0.000    0.000    0.000    0.000    0.000 
#    0.000    0.000    0.000    0.000    0.000    0.000 
#
# Total GULP energy -156573.984406 kJ/mol
# GULP energy per Si atom -5591.928014 kJ/mol
# Density = 2.122678 g / cm^3
# Si number density = 21.275204 Si / 1000 Ang^3
#
#
#
# Elastic Constant Matrix: (Units=GPa)
#
#
# Indices 1 2 3 4 5 6 
#
# 1 30.1820 -6.1890 -4.5660 0.0000 0.0000 0.0000
# 2 -6.1890 78.7000 40.3307 0.0000 0.0000 0.0000
# 3 -4.5660 40.3307 78.5933 0.0000 0.0000 0.0000
# 4 0.0000 0.0000 0.0000 3.9646 0.0000 0.0000
# 5 0.0000 0.0000 0.0000 0.0000 31.4771 0.0000
# 6 0.0000 0.0000 0.0000 0.0000 0.0000 26.2906
#
#
#
# Elastic Compliance Matrix: (Units=1/GPa)
#
#
# Indices 1 2 3 4 5 6 
#
# 1 0.033713 0.002235 0.000812 0.000000 0.000000 0.000000
# 2 0.002235 0.017388 -0.008793 0.000000 0.000000 0.000000
# 3 0.000812 -0.008793 0.017283 0.000000 0.000000 0.000000
# 4 0.000000 0.000000 0.000000 0.252235 0.000000 0.000000
# 5 0.000000 0.000000 0.000000 0.000000 0.031769 0.000000
# 6 0.000000 0.000000 0.000000 0.000000 0.000000 0.038036
#
#
# Mechanical properties :
#
#
# Convention : Reuss Voigt Hill
#
# Bulk Modulus (GPa) = 17.57698 27.40296 22.48997
# Shear Modulus (GPa) = 11.87982 22.87309 17.37646
#
# Velocity S-wave (km/s) = 2.36559 3.28244 2.86098
# Velocity P-wave (km/s) = 3.96749 5.22246 4.63762
#
# Compressibility (1/GPa) = 0.05689261
#
# Stress axis : x y z
#
# Youngs Moduli (GPa) = 29.66171 57.50968 57.85990
#
# Poissons Ratio (x) = -0.12855 -0.04696
# Poissons Ratio (y) = -0.06630 0.50877
# Poissons Ratio (z) = -0.02407 0.50569
#
# Static dielectric constant tensor:
#      x y z
#    x 1.752210 0.000000 0.000000 
#    y 0.000000 1.798890 0.000000 
#    z 0.000000 0.000000 1.747510 
# 
# From -- ./inp_files/2856.got.cif
#   From: 2010.05.17/outbox.cif.g08.bks.cpg/sg19_2_cif.got.tgz:2856.got - 2010.06.03 22:46:19.
