data_PCOD9314704
_publ_section_title
;
Structure prediction by ZEFSAII (Michael W. Deem and Ramdas Pophale) SiO2 
 PCOD9314704
Probable space group: P 21 21 21
;
_chemical_formula_sum "Si O2"
_cell_formula_units_Z 32
_cell_length_a 19.417790
_cell_length_b 12.707929
_cell_length_c 5.160200
_cell_angle_alpha 90.000000
_cell_angle_beta 90.000000
_cell_angle_gamma 90.000000
_cell_volume 1273.330419
_symmetry_space_group_name_H-M "P 21 21 21"
_symmetry_group_IT_number 19
_symmetry_cell_setting 'orthorhombic'
loop_
_space_group_symop_operation_xyz
x,y,z
1/2-x,-y,1/2+z
1/2+x,1/2-y,-z
-x,1/2+y,1/2-z
loop_
_atom_site_type_symbol
_atom_site_label
_atom_site_fract_x
_atom_site_fract_y
_atom_site_fract_z
Si Si1 0.486129 0.700028 0.994562
Si Si2 0.870216 0.971563 0.029369
Si Si3 0.161214 0.687253 0.643853
Si Si4 0.772048 0.362270 0.537240
Si Si5 0.191109 0.379021 0.971602
Si Si6 0.423455 0.796836 0.506624
Si Si7 0.890293 0.372532 0.183109
Si Si8 0.856240 0.537903 0.835776
O O1 0.438654 0.597713 0.951939
O O2 0.462943 0.785039 0.777092
O O3 0.561958 0.660702 0.921154
O O4 0.469327 0.745748 0.275855
O O5 0.834051 0.964193 0.312232
O O6 0.883498 0.081733 0.882960
O O7 0.822450 0.913338 0.820508
O O8 0.198076 0.748087 0.882282
O O9 0.229743 0.649294 0.496640
O O10 0.115745 0.774472 0.505899
O O11 0.812455 0.389437 0.276794
O O12 0.802740 0.449200 0.733615
O O13 0.691121 0.376551 0.486566
O O14 0.144205 0.277167 0.026641
O O15 0.395972 0.907547 0.400099
O O16 0.908651 0.476424 0.023234
#
# Coordination Sequence:
#
# PCOD9314704 Si02
#       8
#     4   4   4   4   4   4   4   4
#     4  10  25  47  67 100 138 184 244 286 338 426
#     4  10  23  44  67  99 136 182 228 286 350 422
#     4  11  25  39  68 101 140 179 229 296 363 423
#     4  11  25  42  67 105 142 179 240 294 371 431
#     4  10  22  40  69 102 134 173 227 287 353 422
#     4  10  24  43  73  97 134 183 234 286 346 422
#     4  11  26  44  67  99 144 190 237 305 349 430
#     4  11  24  43  70 103 140 188 235 298 370 428
#
# _framework density 25.130949000000001
#
# number of rings (size 3 to 8) (size 9 to 14) (size 15 to 20)
#    0.000    1.500    1.250    1.500   15.750    1.000 
#    0.000    0.000    0.000    0.000    0.000    0.000 
#    0.000    0.000    0.000    0.000    0.000    0.000 
#
# Total GULP energy -178992.877877 kJ/mol
# GULP energy per Si atom -5593.527434 kJ/mol
# Density = 2.507375 g / cm^3
# Si number density = 25.130949 Si / 1000 Ang^3
#
#
#
# Elastic Constant Matrix: (Units=GPa)
#
#
# Indices 1 2 3 4 5 6 
#
# 1 69.2377 15.6694 0.1057 0.0000 0.0000 0.0000
# 2 15.6694 100.6766 18.1921 0.0000 0.0000 0.0000
# 3 0.1057 18.1921 66.5903 0.0000 0.0000 0.0000
# 4 0.0000 0.0000 0.0000 38.0144 0.0000 0.0000
# 5 0.0000 0.0000 0.0000 0.0000 34.1811 0.0000
# 6 0.0000 0.0000 0.0000 0.0000 0.0000 8.0079
#
#
#
# Elastic Compliance Matrix: (Units=1/GPa)
#
#
# Indices 1 2 3 4 5 6 
#
# 1 0.014997 -0.002451 0.000646 0.000000 0.000000 0.000000
# 2 -0.002451 0.010849 -0.002960 0.000000 0.000000 0.000000
# 3 0.000646 -0.002960 0.015825 0.000000 0.000000 0.000000
# 4 0.000000 0.000000 0.000000 0.026306 0.000000 0.000000
# 5 0.000000 0.000000 0.000000 0.000000 0.029256 0.000000
# 6 0.000000 0.000000 0.000000 0.000000 0.000000 0.124877
#
#
# Mechanical properties :
#
#
# Convention : Reuss Voigt Hill
#
# Bulk Modulus (GPa) = 31.11341 33.82654 32.46998
# Shear Modulus (GPa) = 20.63103 29.54317 25.08710
#
# Velocity S-wave (km/s) = 2.86832 3.43238 3.16295
# Velocity P-wave (km/s) = 4.83498 5.40348 5.12712
#
# Compressibility (1/GPa) = 0.03214048
#
# Stress axis : x y z
#
# Youngs Moduli (GPa) = 66.68157 92.17347 63.19177
#
# Poissons Ratio (x) = 0.22590 -0.04081
# Poissons Ratio (y) = 0.16342 0.18705
# Poissons Ratio (z) = -0.04306 0.27284
#
# Static dielectric constant tensor:
#      x y z
#    x 1.941170 0.000000 0.000000 
#    y 0.000000 2.100650 0.000000 
#    z 0.000000 0.000000 2.015550 
# 
# From -- ./inp_files/2036.got.cif
#   From: 2010.05.17/outbox.cif.g08.bks.cpg/sg19_2_cif.got.tgz:2036.got - 2010.06.03 22:46:19.
