data_PCOD9314011
_publ_section_title
;
Structure prediction by ZEFSAII (Michael W. Deem and Ramdas Pophale) SiO2 
 PCOD9314011
Probable space group: P 21 21 21
;
_chemical_formula_sum "Si O2"
_cell_formula_units_Z 28
_cell_length_a 7.654713
_cell_length_b 21.584445
_cell_length_c 6.694006
_cell_angle_alpha 90.000000
_cell_angle_beta 90.000000
_cell_angle_gamma 90.000000
_cell_volume 1106.001958
_symmetry_space_group_name_H-M "P 21 21 21"
_symmetry_group_IT_number 19
_symmetry_cell_setting 'orthorhombic'
loop_
_space_group_symop_operation_xyz
x,y,z
1/2-x,-y,1/2+z
1/2+x,1/2-y,-z
-x,1/2+y,1/2-z
loop_
_atom_site_type_symbol
_atom_site_label
_atom_site_fract_x
_atom_site_fract_y
_atom_site_fract_z
Si Si1 0.530700 0.543594 0.955811
Si Si2 0.583115 0.933729 0.333599
Si Si3 0.057401 0.826349 0.877833
Si Si4 0.273434 0.674654 0.475940
Si Si5 0.071372 0.003875 0.479263
Si Si6 0.454949 0.231317 0.772523
Si Si7 0.264281 0.125511 0.031664
O O1 0.732619 0.531747 0.016390
O O2 0.511162 0.511489 0.742052
O O3 0.502445 0.615843 0.982208
O O4 0.605412 0.566216 0.439002
O O5 0.732206 0.891034 0.424107
O O6 0.544024 0.946738 0.101311
O O7 0.407905 0.904125 0.433879
O O8 0.596199 0.003931 0.407490
O O9 0.912940 0.820493 0.704254
O O10 0.230418 0.843782 0.751206
O O11 0.070369 0.770705 0.034921
O O12 0.351512 0.714778 0.656321
O O13 0.104069 0.706458 0.382212
O O14 0.336484 0.176346 0.874456
#
# Coordination Sequence:
#
# PCOD9314011 Si02
#       7
#     4   4   4   4   4   4   4
#     4  11  19  36  64 104 140 176 230 279 340 424
#     4  11  22  40  64 104 144 174 234 279 348 422
#     4  11  23  44  69 102 137 184 233 291 355 412
#     4  11  28  45  68 102 136 191 233 298 361 416
#     4  11  18  34  69 104 137 181 223 279 349 412
#     4  11  24  48  70  94 139 179 244 293 352 423
#     4  10  20  39  72 102 135 185 231 287 343 417
#
# _framework density 25.316410999999999
#
# number of rings (size 3 to 8) (size 9 to 14) (size 15 to 20)
#    0.000    1.143    5.714    1.714    0.000    4.571 
#    2.571    0.000    0.000    0.000    0.000    0.000 
#    0.000    0.000    0.000    0.000    0.000    0.000 
#
# Total GULP energy -156540.757010 kJ/mol
# GULP energy per Si atom -5590.741322 kJ/mol
# Density = 2.525879 g / cm^3
# Si number density = 25.316411 Si / 1000 Ang^3
#
#
#
# Elastic Constant Matrix: (Units=GPa)
#
#
# Indices 1 2 3 4 5 6 
#
# 1 64.0308 3.1948 16.0956 0.0000 0.0000 0.0000
# 2 3.1948 62.5475 1.3551 0.0000 0.0000 0.0000
# 3 16.0956 1.3551 136.9566 0.0000 0.0000 0.0000
# 4 0.0000 0.0000 0.0000 48.7152 0.0000 0.0000
# 5 0.0000 0.0000 0.0000 0.0000 24.7845 0.0000
# 6 0.0000 0.0000 0.0000 0.0000 0.0000 36.1315
#
#
#
# Elastic Compliance Matrix: (Units=1/GPa)
#
#
# Indices 1 2 3 4 5 6 
#
# 1 0.016131 -0.000783 -0.001888 0.000000 0.000000 0.000000
# 2 -0.000783 0.016029 -0.000067 0.000000 0.000000 0.000000
# 3 -0.001888 -0.000067 0.007524 0.000000 0.000000 0.000000
# 4 0.000000 0.000000 0.000000 0.020527 0.000000 0.000000
# 5 0.000000 0.000000 0.000000 0.000000 0.040348 0.000000
# 6 0.000000 0.000000 0.000000 0.000000 0.000000 0.027677
#
#
# Mechanical properties :
#
#
# Convention : Reuss Voigt Hill
#
# Bulk Modulus (GPa) = 29.23186 33.86955 31.55071
# Shear Modulus (GPa) = 34.45544 38.11884 36.28714
#
# Velocity S-wave (km/s) = 3.69317 3.88454 3.79006
# Velocity P-wave (km/s) = 5.45506 5.79026 5.62515
#
# Compressibility (1/GPa) = 0.03420925
#
# Stress axis : x y z
#
# Youngs Moduli (GPa) = 61.99185 62.38580 132.90566
#
# Poissons Ratio (x) = 0.04885 0.25093
# Poissons Ratio (y) = 0.04854 0.00885
# Poissons Ratio (z) = 0.11704 0.00415
#
# Static dielectric constant tensor:
#      x y z
#    x 2.101630 0.000000 0.000000 
#    y 0.000000 1.988480 0.000000 
#    z 0.000000 0.000000 2.034540 
# 
# From -- ./inp_files/611.got.cif
#   From: 2010.05.17/outbox.cif.g08.bks.cpg/sg19_1_cif.got.tgz:611.got - 2010.06.03 22:46:19.
