data_PCOD9314889
_publ_section_title
;
Structure prediction by ZEFSAII (Michael W. Deem and Ramdas Pophale) SiO2 
 PCOD9314889
Probable space group: P 21 21 21
;
_chemical_formula_sum "Si O2"
_cell_formula_units_Z 32
_cell_length_a 9.492287
_cell_length_b 14.837926
_cell_length_c 9.817383
_cell_angle_alpha 90.000000
_cell_angle_beta 90.000000
_cell_angle_gamma 90.000000
_cell_volume 1382.737674
_symmetry_space_group_name_H-M "P 21 21 21"
_symmetry_group_IT_number 19
_symmetry_cell_setting 'orthorhombic'
loop_
_space_group_symop_operation_xyz
x,y,z
1/2-x,-y,1/2+z
1/2+x,1/2-y,-z
-x,1/2+y,1/2-z
loop_
_atom_site_type_symbol
_atom_site_label
_atom_site_fract_x
_atom_site_fract_y
_atom_site_fract_z
Si Si1 0.426102 0.859633 0.360695
Si Si2 0.691265 0.093943 0.215028
Si Si3 0.403962 0.331430 0.401481
Si Si4 0.994473 0.831185 0.527764
Si Si5 0.449301 0.482724 0.916286
Si Si6 0.924969 0.806285 0.076975
Si Si7 0.167689 0.783494 0.290848
Si Si8 0.605936 0.993549 0.884969
O O1 0.551052 0.855435 0.251315
O O2 0.420184 0.762427 0.435809
O O3 0.453153 0.931363 0.477864
O O4 0.282298 0.862559 0.272086
O O5 0.532518 0.112312 0.167926
O O6 0.983804 0.028233 0.246101
O O7 0.760845 0.189509 0.252996
O O8 0.735296 0.023211 0.328638
O O9 0.509650 0.255850 0.459457
O O10 0.242826 0.296338 0.405076
O O11 0.419246 0.419883 0.497619
O O12 0.130749 0.795568 0.450629
O O13 0.933118 0.905382 0.424117
O O14 0.447119 0.587852 0.947991
O O15 0.290854 0.440188 0.910052
O O16 0.023142 0.785301 0.207233
#
# Coordination Sequence:
#
# PCOD9314889 Si02
#       8
#     4   4   4   4   4   4   4   4
#     4  11  27  46  72 114 145 190 249 310 365 461
#     4   9  20  39  68  99 139 181 247 286 357 438
#     4  12  28  45  72 107 152 193 252 312 379 443
#     4  11  21  41  73 104 141 190 240 304 367 431
#     4  10  22  45  75 101 142 185 250 295 375 444
#     4  12  25  46  75 102 146 200 243 306 377 438
#     4  11  21  45  71 101 152 187 237 306 376 433
#     4  10  22  43  70 106 139 190 238 307 360 446
#
# _framework density 23.142495
#
# number of rings (size 3 to 8) (size 9 to 14) (size 15 to 20)
#    0.750    0.500    3.750    1.500    3.500    2.000 
#    4.500    0.000    0.000    0.000    0.000    0.000 
#    0.000    0.000    0.000    0.000    0.000    0.000 
#
# Total GULP energy -178304.654133 kJ/mol
# GULP energy per Si atom -5572.020442 kJ/mol
# Density = 2.308982 g / cm^3
# Si number density = 23.142495 Si / 1000 Ang^3
#
#
#
# Elastic Constant Matrix: (Units=GPa)
#
#
# Indices 1 2 3 4 5 6 
#
# 1 85.7561 29.5396 46.7638 0.0000 0.0000 0.0000
# 2 29.5396 81.0859 42.4165 0.0000 0.0000 0.0000
# 3 46.7638 42.4165 117.6153 0.0000 0.0000 0.0000
# 4 0.0000 0.0000 0.0000 41.9054 0.0000 0.0000
# 5 0.0000 0.0000 0.0000 0.0000 29.8063 0.0000
# 6 0.0000 0.0000 0.0000 0.0000 0.0000 18.9292
#
#
#
# Elastic Compliance Matrix: (Units=1/GPa)
#
#
# Indices 1 2 3 4 5 6 
#
# 1 0.015451 -0.002977 -0.005070 0.000000 0.000000 0.000000
# 2 -0.002977 0.015774 -0.004505 0.000000 0.000000 0.000000
# 3 -0.005070 -0.004505 0.012143 0.000000 0.000000 0.000000
# 4 0.000000 0.000000 0.000000 0.023863 0.000000 0.000000
# 5 0.000000 0.000000 0.000000 0.000000 0.033550 0.000000
# 6 0.000000 0.000000 0.000000 0.000000 0.000000 0.052828
#
#
# Mechanical properties :
#
#
# Convention : Reuss Voigt Hill
#
# Bulk Modulus (GPa) = 54.75184 57.98858 56.37021
# Shear Modulus (GPa) = 27.05626 29.17734 28.11680
#
# Velocity S-wave (km/s) = 3.42294 3.55458 3.48938
# Velocity P-wave (km/s) = 6.27152 6.47752 6.37536
#
# Compressibility (1/GPa) = 0.01826423
#
# Stress axis : x y z
#
# Youngs Moduli (GPa) = 64.72087 63.39696 82.35397
#
# Poissons Ratio (x) = 0.18872 0.41752
# Poissons Ratio (y) = 0.19266 0.37100
# Poissons Ratio (z) = 0.32812 0.28560
#
# Static dielectric constant tensor:
#      x y z
#    x 1.987910 0.000000 0.000000 
#    y 0.000000 1.848150 0.000000 
#    z 0.000000 0.000000 2.067120 
# 
# From -- ./inp_files/4724.got.cif
#   From: 2010.05.17/outbox.cif.g08.bks.cpg/sg19_3_cif.got.tgz:4724.got - 2010.06.03 22:46:19.
