data_PCOD9314026
_publ_section_title
;
Structure prediction by ZEFSAII (Michael W. Deem and Ramdas Pophale) SiO2 
 PCOD9314026
Probable space group: P 21 21 21
;
_chemical_formula_sum "Si O2"
_cell_formula_units_Z 28
_cell_length_a 8.437295
_cell_length_b 11.778380
_cell_length_c 12.149846
_cell_angle_alpha 90.000000
_cell_angle_beta 90.000000
_cell_angle_gamma 90.000000
_cell_volume 1207.423346
_symmetry_space_group_name_H-M "P 21 21 21"
_symmetry_group_IT_number 19
_symmetry_cell_setting 'orthorhombic'
loop_
_space_group_symop_operation_xyz
x,y,z
1/2-x,-y,1/2+z
1/2+x,1/2-y,-z
-x,1/2+y,1/2-z
loop_
_atom_site_type_symbol
_atom_site_label
_atom_site_fract_x
_atom_site_fract_y
_atom_site_fract_z
Si Si1 0.905380 0.160400 0.348920
Si Si2 0.389097 0.040499 0.819839
Si Si3 0.543899 0.119283 0.591234
Si Si4 0.656523 0.968048 0.414795
Si Si5 0.100083 0.609891 0.834408
Si Si6 0.647778 0.284408 0.216580
Si Si7 0.432223 0.620281 0.466931
O O1 0.787743 0.066476 0.395418
O O2 0.804793 0.210766 0.246622
O O3 0.946898 0.265760 0.425983
O O4 0.069051 0.092200 0.330588
O O5 0.478828 0.071216 0.706675
O O6 0.213898 0.089754 0.807763
O O7 0.459207 0.107545 0.925639
O O8 0.529576 0.028749 0.493235
O O9 0.729289 0.142586 0.617146
O O10 0.621499 0.923365 0.294146
O O11 0.752187 0.877202 0.487215
O O12 0.046581 0.496143 0.897631
O O13 0.963991 0.704785 0.823798
O O14 0.556274 0.224578 0.116823
#
# Coordination Sequence:
#
# PCOD9314026 Si02
#       7
#     4   4   4   4   4   4   4
#     4  10  20  42  62  89 131 166 214 261 316 388
#     4  10  22  43  62  94 126 176 214 259 327 382
#     4  10  21  39  68  86 123 179 209 260 330 384
#     4  10  20  40  63  89 128 168 206 268 323 377
#     4  11  22  42  63  99 125 166 216 271 322 379
#     4  11  24  39  67  97 127 169 222 261 326 384
#     4  10  21  41  65  86 136 162 209 268 314 390
#
# _framework density 23.189879999999999
#
# number of rings (size 3 to 8) (size 9 to 14) (size 15 to 20)
#    0.000    1.714    4.286    0.857    2.000    4.571 
#    7.714    0.000    0.000    0.000    0.000    0.000 
#    0.000    0.000    0.000    0.000    0.000    0.000 
#
# Total GULP energy -156230.233483 kJ/mol
# GULP energy per Si atom -5579.651196 kJ/mol
# Density = 2.313710 g / cm^3
# Si number density = 23.189880 Si / 1000 Ang^3
#
#
#
# Elastic Constant Matrix: (Units=GPa)
#
#
# Indices 1 2 3 4 5 6 
#
# 1 42.6414 10.4900 7.6364 0.0000 0.0000 0.0000
# 2 10.4900 25.5184 15.0807 0.0000 0.0000 0.0000
# 3 7.6364 15.0807 97.2314 0.0000 0.0000 0.0000
# 4 0.0000 0.0000 0.0000 27.7343 0.0000 0.0000
# 5 0.0000 0.0000 0.0000 0.0000 21.2799 0.0000
# 6 0.0000 0.0000 0.0000 0.0000 0.0000 33.8962
#
#
#
# Elastic Compliance Matrix: (Units=1/GPa)
#
#
# Indices 1 2 3 4 5 6 
#
# 1 0.026106 -0.010480 -0.000425 0.000000 0.000000 0.000000
# 2 -0.010480 0.047349 -0.006521 0.000000 0.000000 0.000000
# 3 -0.000425 -0.006521 0.011329 0.000000 0.000000 0.000000
# 4 0.000000 0.000000 0.000000 0.036056 0.000000 0.000000
# 5 0.000000 0.000000 0.000000 0.000000 0.046993 0.000000
# 6 0.000000 0.000000 0.000000 0.000000 0.000000 0.029502
#
#
# Mechanical properties :
#
#
# Convention : Reuss Voigt Hill
#
# Bulk Modulus (GPa) = 20.02702 25.75614 22.89158
# Shear Modulus (GPa) = 20.09391 25.39435 22.74413
#
# Velocity S-wave (km/s) = 2.94682 3.31276 3.13514
# Velocity P-wave (km/s) = 4.49813 5.07575 4.79565
#
# Compressibility (1/GPa) = 0.04993254
#
# Stress axis : x y z
#
# Youngs Moduli (GPa) = 38.30581 21.11963 88.26529
#
# Poissons Ratio (x) = 0.22134 0.03749
# Poissons Ratio (y) = 0.40146 0.57556
# Poissons Ratio (z) = 0.01627 0.13772
#
# Static dielectric constant tensor:
#      x y z
#    x 1.917490 0.000000 0.000000 
#    y 0.000000 1.926040 0.000000 
#    z 0.000000 0.000000 1.867170 
# 
# From -- ./inp_files/3422.got.cif
#   From: 2010.05.17/outbox.cif.g08.bks.cpg/sg19_2_cif.got.tgz:3422.got - 2010.06.03 22:46:19.
