data_PCOD9314360
_publ_section_title
;
Structure prediction by ZEFSAII (Michael W. Deem and Ramdas Pophale) SiO2 
 PCOD9314360
Probable space group: P 21 21 21
;
_chemical_formula_sum "Si O2"
_cell_formula_units_Z 32
_cell_length_a 12.928010
_cell_length_b 5.589135
_cell_length_c 19.895413
_cell_angle_alpha 90.000000
_cell_angle_beta 90.000000
_cell_angle_gamma 90.000000
_cell_volume 1437.570784
_symmetry_space_group_name_H-M "P 21 21 21"
_symmetry_group_IT_number 19
_symmetry_cell_setting 'orthorhombic'
loop_
_space_group_symop_operation_xyz
x,y,z
1/2-x,-y,1/2+z
1/2+x,1/2-y,-z
-x,1/2+y,1/2-z
loop_
_atom_site_type_symbol
_atom_site_label
_atom_site_fract_x
_atom_site_fract_y
_atom_site_fract_z
Si Si1 0.039250 0.105277 0.961732
Si Si2 0.492922 0.213132 0.575317
Si Si3 0.131712 0.050191 0.322924
Si Si4 0.865370 0.256279 0.865858
Si Si5 0.414464 0.746500 0.207499
Si Si6 0.150970 0.399829 0.077779
Si Si7 0.130524 0.948937 0.827748
Si Si8 0.982474 0.683180 0.312356
O O1 0.960457 0.257810 0.917451
O O2 0.113639 0.988611 0.906651
O O3 0.099422 0.253143 0.017592
O O4 0.976081 0.914129 0.006321
O O5 0.584971 0.377052 0.604700
O O6 0.381001 0.330671 0.560364
O O7 0.474311 0.037288 0.637612
O O8 0.250670 0.115747 0.315154
O O9 0.065170 0.154706 0.260769
O O10 0.101122 0.770977 0.313611
O O11 0.867592 0.514294 0.828671
O O12 0.762518 0.201530 0.907592
O O13 0.876052 0.011149 0.820505
O O14 0.538425 0.727990 0.195632
O O15 0.391288 0.807601 0.285064
O O16 0.088764 0.372536 0.148206
#
# Coordination Sequence:
#
# PCOD9314360 Si02
#       8
#     4   4   4   4   4   4   4   4
#     4  10  25  44  63 104 144 187 245 309 357 465
#     4  10  23  43  63 102 142 181 241 301 363 459
#     4  11  22  41  72 104 142 191 233 313 375 440
#     4  11  26  47  77 102 148 197 247 310 380 438
#     4  11  26  50  71 112 143 190 257 319 360 452
#     4  10  24  41  73  94 141 198 238 296 379 451
#     4  11  25  46  74 104 149 193 252 313 381 441
#     4  10  21  40  63 104 139 175 241 299 361 446
#
# _framework density 22.259775000000001
#
# number of rings (size 3 to 8) (size 9 to 14) (size 15 to 20)
#    0.000    1.500    1.250    2.250    8.750    4.000 
#    9.000    0.000    0.000    0.000    0.000    0.000 
#    0.000    0.000    0.000    0.000    0.000    0.000 
#
# Total GULP energy -178396.817303 kJ/mol
# GULP energy per Si atom -5574.900541 kJ/mol
# Density = 2.220911 g / cm^3
# Si number density = 22.259775 Si / 1000 Ang^3
#
#
#
# Elastic Constant Matrix: (Units=GPa)
#
#
# Indices 1 2 3 4 5 6 
#
# 1 66.3128 -4.5049 9.4464 0.0000 0.0000 0.0000
# 2 -4.5049 64.5948 32.3823 0.0000 0.0000 0.0000
# 3 9.4464 32.3823 135.9596 0.0000 0.0000 0.0000
# 4 0.0000 0.0000 0.0000 27.7592 0.0000 0.0000
# 5 0.0000 0.0000 0.0000 0.0000 23.0987 0.0000
# 6 0.0000 0.0000 0.0000 0.0000 0.0000 14.0228
#
#
#
# Elastic Compliance Matrix: (Units=1/GPa)
#
#
# Indices 1 2 3 4 5 6 
#
# 1 0.015419 0.001831 -0.001507 0.000000 0.000000 0.000000
# 2 0.001831 0.017798 -0.004366 0.000000 0.000000 0.000000
# 3 -0.001507 -0.004366 0.008500 0.000000 0.000000 0.000000
# 4 0.000000 0.000000 0.000000 0.036024 0.000000 0.000000
# 5 0.000000 0.000000 0.000000 0.000000 0.043293 0.000000
# 6 0.000000 0.000000 0.000000 0.000000 0.000000 0.071312
#
#
# Mechanical properties :
#
#
# Convention : Reuss Voigt Hill
#
# Bulk Modulus (GPa) = 29.73407 37.94609 33.84008
# Shear Modulus (GPa) = 23.62490 28.27903 25.95197
#
# Velocity S-wave (km/s) = 3.26134 3.56815 3.41819
# Velocity P-wave (km/s) = 5.25057 5.83605 5.55104
#
# Compressibility (1/GPa) = 0.03363146
#
# Stress axis : x y z
#
# Youngs Moduli (GPa) = 64.85431 56.18720 117.65000
#
# Poissons Ratio (x) = -0.10288 0.17735
# Poissons Ratio (y) = -0.11875 0.51368
# Poissons Ratio (z) = 0.09776 0.24532
#
# Static dielectric constant tensor:
#      x y z
#    x 1.837470 0.000000 0.000000 
#    y 0.000000 2.056510 0.000000 
#    z 0.000000 0.000000 1.802820 
# 
# From -- ./inp_files/7183.got.cif
#   From: 2010.05.17/outbox.cif.g08.bks.cpg/sg19_4_cif.got.tgz:7183.got - 2010.06.03 22:46:19.
