data_PCOD9314826
_publ_section_title
;
Structure prediction by ZEFSAII (Michael W. Deem and Ramdas Pophale) SiO2 
 PCOD9314826
Probable space group: P 21 21 21
;
_chemical_formula_sum "Si O2"
_cell_formula_units_Z 28
_cell_length_a 8.520064
_cell_length_b 18.637957
_cell_length_c 8.001956
_cell_angle_alpha 90.000000
_cell_angle_beta 90.000000
_cell_angle_gamma 90.000000
_cell_volume 1270.683298
_symmetry_space_group_name_H-M "P 21 21 21"
_symmetry_group_IT_number 19
_symmetry_cell_setting 'orthorhombic'
loop_
_space_group_symop_operation_xyz
x,y,z
1/2-x,-y,1/2+z
1/2+x,1/2-y,-z
-x,1/2+y,1/2-z
loop_
_atom_site_type_symbol
_atom_site_label
_atom_site_fract_x
_atom_site_fract_y
_atom_site_fract_z
Si Si1 0.968275 0.840676 0.003513
Si Si2 0.013720 0.161113 0.217000
Si Si3 0.029196 0.326267 0.133052
Si Si4 0.307213 0.892428 0.394410
Si Si5 0.040261 0.492831 0.672551
Si Si6 0.760296 0.919033 0.575062
Si Si7 0.667810 0.304541 0.429057
O O1 0.896114 0.846078 0.188297
O O2 0.147809 0.815584 0.034647
O O3 0.967887 0.915800 0.914005
O O4 0.876478 0.778341 0.909927
O O5 0.080413 0.167955 0.403764
O O6 0.985249 0.242413 0.148240
O O7 0.862873 0.109940 0.211250
O O8 0.131246 0.128037 0.078186
O O9 0.876533 0.375716 0.109263
O O10 0.150489 0.349098 0.992860
O O11 0.375208 0.843807 0.242953
O O12 0.369925 0.970581 0.342630
O O13 0.157653 0.544200 0.569770
O O14 0.116017 0.475742 0.851380
#
# Coordination Sequence:
#
# PCOD9314826 Si02
#       7
#     4   4   4   4   4   4   4
#     4  10  24  43  67 100 134 173 235 276 346 399
#     4  10  23  42  68 100 130 174 229 285 339 402
#     4  10  22  42  67  98 128 176 224 285 336 409
#     4  10  24  43  65  96 139 173 228 276 347 405
#     4  11  26  43  63 101 132 185 219 281 347 408
#     4  11  25  42  68  95 139 180 224 284 340 417
#     4  10  24  43  70 100 132 183 227 291 327 414
#
# _framework density 22.035387
#
# number of rings (size 3 to 8) (size 9 to 14) (size 15 to 20)
#    0.000    1.714    0.000    1.714   12.000    6.857 
#    5.143    0.000    0.000    0.000    0.000    0.000 
#    0.000    0.000    0.000    0.000    0.000    0.000 
#
# Total GULP energy -156485.806257 kJ/mol
# GULP energy per Si atom -5588.778795 kJ/mol
# Density = 2.198523 g / cm^3
# Si number density = 22.035387 Si / 1000 Ang^3
#
#
#
# Elastic Constant Matrix: (Units=GPa)
#
#
# Indices 1 2 3 4 5 6 
#
# 1 13.1347 9.0936 -15.4419 0.0000 0.0000 0.0000
# 2 9.0936 61.1648 3.8336 0.0000 0.0000 0.0000
# 3 -15.4419 3.8336 50.3177 0.0000 0.0000 0.0000
# 4 0.0000 0.0000 0.0000 24.6221 0.0000 0.0000
# 5 0.0000 0.0000 0.0000 0.0000 29.3522 0.0000
# 6 0.0000 0.0000 0.0000 0.0000 0.0000 18.7630
#
#
#
# Elastic Compliance Matrix: (Units=1/GPa)
#
#
# Indices 1 2 3 4 5 6 
#
# 1 0.150082 -0.025321 0.047987 0.000000 0.000000 0.000000
# 2 -0.025321 0.020700 -0.009348 0.000000 0.000000 0.000000
# 3 0.047987 -0.009348 0.035313 0.000000 0.000000 0.000000
# 4 0.000000 0.000000 0.000000 0.040614 0.000000 0.000000
# 5 0.000000 0.000000 0.000000 0.000000 0.034069 0.000000
# 6 0.000000 0.000000 0.000000 0.000000 0.000000 0.053296
#
#
# Mechanical properties :
#
#
# Convention : Reuss Voigt Hill
#
# Bulk Modulus (GPa) = 4.29680 13.28753 8.79216
# Shear Modulus (GPa) = 12.98658 23.02293 18.00476
#
# Velocity S-wave (km/s) = 2.43029 3.23587 2.86157
# Velocity P-wave (km/s) = 3.13517 4.47262 3.86223
#
# Compressibility (1/GPa) = 0.23273149
#
# Stress axis : x y z
#
# Youngs Moduli (GPa) = 6.66304 48.30985 28.31847
#
# Poissons Ratio (x) = 1.22325 -1.35893
# Poissons Ratio (y) = 0.16871 0.26471
# Poissons Ratio (z) = -0.31974 0.45159
#
# Static dielectric constant tensor:
#      x y z
#    x 1.826370 0.000000 0.000000 
#    y 0.000000 1.790040 0.000000 
#    z 0.000000 0.000000 1.822420 
# 
# From -- ./inp_files/2957.got.cif
#   From: 2010.05.17/outbox.cif.g08.bks.cpg/sg19_2_cif.got.tgz:2957.got - 2010.06.03 22:46:19.
