data_PCOD9314856
_publ_section_title
;
Structure prediction by ZEFSAII (Michael W. Deem and Ramdas Pophale) SiO2 
 PCOD9314856
Probable space group: P 21 21 21
;
_chemical_formula_sum "Si O2"
_cell_formula_units_Z 32
_cell_length_a 14.251357
_cell_length_b 9.286061
_cell_length_c 12.173507
_cell_angle_alpha 90.000000
_cell_angle_beta 90.000000
_cell_angle_gamma 90.000000
_cell_volume 1611.029383
_symmetry_space_group_name_H-M "P 21 21 21"
_symmetry_group_IT_number 19
_symmetry_cell_setting 'orthorhombic'
loop_
_space_group_symop_operation_xyz
x,y,z
1/2-x,-y,1/2+z
1/2+x,1/2-y,-z
-x,1/2+y,1/2-z
loop_
_atom_site_type_symbol
_atom_site_label
_atom_site_fract_x
_atom_site_fract_y
_atom_site_fract_z
Si Si1 0.700615 0.113182 0.219899
Si Si2 0.167002 0.193245 0.989391
Si Si3 0.627405 0.599998 0.442970
Si Si4 0.923715 0.112533 0.223768
Si Si5 0.925372 0.715223 0.884201
Si Si6 0.527538 0.139946 0.872548
Si Si7 0.495446 0.510307 0.007675
Si Si8 0.090985 0.655934 0.714409
O O1 0.661798 0.198467 0.113790
O O2 0.812097 0.124515 0.220730
O O3 0.655114 0.194311 0.323225
O O4 0.666770 0.947234 0.226995
O O5 0.274024 0.148326 0.006145
O O6 0.100502 0.052985 0.978912
O O7 0.123392 0.281824 0.091529
O O8 0.619219 0.429465 0.430689
O O9 0.541073 0.641946 0.522341
O O10 0.619231 0.685478 0.327498
O O11 0.974642 0.265888 0.219111
O O12 0.953871 0.017250 0.326788
O O13 0.957537 0.034670 0.111394
O O14 0.977991 0.822138 0.968202
O O15 0.002456 0.669260 0.794058
O O16 0.438079 0.425943 0.102491
#
# Coordination Sequence:
#
# PCOD9314856 Si02
#       8
#     4   4   4   4   4   4   4   4
#     4  11  22  41  69  97 128 166 228 269 330 402
#     4  11  21  44  68  96 131 176 218 275 333 394
#     4  12  23  43  68  97 133 174 219 273 335 396
#     4  11  24  43  64  92 132 178 213 272 325 404
#     4  11  24  40  66  98 129 169 222 276 329 389
#     4  11  24  43  67  90 135 176 217 266 336 391
#     4  10  22  43  62  92 134 167 215 276 327 383
#     4  11  20  41  68  96 126 170 216 273 333 381
#
# _framework density 19.863077000000001
#
# number of rings (size 3 to 8) (size 9 to 14) (size 15 to 20)
#    0.000    1.000    5.000    3.000    1.750    3.000 
#    2.250    0.000    0.000    0.000    0.000    0.000 
#    0.000    0.000    0.000    0.000    0.000    0.000 
#
# Total GULP energy -178757.846042 kJ/mol
# GULP energy per Si atom -5586.182689 kJ/mol
# Density = 1.981787 g / cm^3
# Si number density = 19.863077 Si / 1000 Ang^3
#
#
#
# Elastic Constant Matrix: (Units=GPa)
#
#
# Indices 1 2 3 4 5 6 
#
# 1 84.2278 24.5262 19.1022 0.0000 0.0000 0.0000
# 2 24.5262 90.3500 8.8628 0.0000 0.0000 0.0000
# 3 19.1022 8.8628 32.0000 0.0000 0.0000 0.0000
# 4 0.0000 0.0000 0.0000 33.8826 0.0000 0.0000
# 5 0.0000 0.0000 0.0000 0.0000 23.3035 0.0000
# 6 0.0000 0.0000 0.0000 0.0000 0.0000 25.7354
#
#
#
# Elastic Compliance Matrix: (Units=1/GPa)
#
#
# Indices 1 2 3 4 5 6 
#
# 1 0.014574 -0.003189 -0.007816 0.000000 0.000000 0.000000
# 2 -0.003189 0.012075 -0.001440 0.000000 0.000000 0.000000
# 3 -0.007816 -0.001440 0.036315 0.000000 0.000000 0.000000
# 4 0.000000 0.000000 0.000000 0.029514 0.000000 0.000000
# 5 0.000000 0.000000 0.000000 0.000000 0.042912 0.000000
# 6 0.000000 0.000000 0.000000 0.000000 0.000000 0.038857
#
#
# Mechanical properties :
#
#
# Convention : Reuss Voigt Hill
#
# Bulk Modulus (GPa) = 26.26650 34.61780 30.44215
# Shear Modulus (GPa) = 23.60382 26.85672 25.23027
#
# Velocity S-wave (km/s) = 3.45095 3.68107 3.56787
# Velocity P-wave (km/s) = 5.39734 5.96096 5.68614
#
# Compressibility (1/GPa) = 0.03807131
#
# Stress axis : x y z
#
# Youngs Moduli (GPa) = 68.61526 82.81459 27.53690
#
# Poissons Ratio (x) = 0.26413 0.21524
# Poissons Ratio (y) = 0.21885 0.03967
# Poissons Ratio (z) = 0.53633 0.11929
#
# Static dielectric constant tensor:
#      x y z
#    x 1.662480 0.000000 0.000000 
#    y 0.000000 1.723430 0.000000 
#    z 0.000000 0.000000 1.695720 
# 
# From -- ./inp_files/4669.got.cif
#   From: 2010.05.17/outbox.cif.g08.bks.cpg/sg19_3_cif.got.tgz:4669.got - 2010.06.03 22:46:19.
