data_PCOD9314590
_publ_section_title
;
Structure prediction by ZEFSAII (Michael W. Deem and Ramdas Pophale) SiO2 
 PCOD9314590
Probable space group: P 21 21 21
;
_chemical_formula_sum "Si O2"
_cell_formula_units_Z 28
_cell_length_a 14.580191
_cell_length_b 14.580212
_cell_length_c 6.327196
_cell_angle_alpha 90.000000
_cell_angle_beta 90.000000
_cell_angle_gamma 90.000000
_cell_volume 1345.049725
_symmetry_space_group_name_H-M "P 21 21 21"
_symmetry_group_IT_number 19
_symmetry_cell_setting 'orthorhombic'
loop_
_space_group_symop_operation_xyz
x,y,z
1/2-x,-y,1/2+z
1/2+x,1/2-y,-z
-x,1/2+y,1/2-z
loop_
_atom_site_type_symbol
_atom_site_label
_atom_site_fract_x
_atom_site_fract_y
_atom_site_fract_z
Si Si1 0.365242 0.059903 0.552327
Si Si2 0.354732 0.255827 0.738540
Si Si3 0.809903 0.615241 0.197670
Si Si4 0.288782 0.686319 0.888612
Si Si5 0.505826 0.895270 0.988544
Si Si6 0.063682 0.461218 0.361386
Si Si7 0.870035 0.120035 0.875003
O O1 0.361820 0.146085 0.715842
O O2 0.290028 0.086993 0.382845
O O3 0.471675 0.050949 0.501775
O O4 0.336995 0.959972 0.632847
O O5 0.261217 0.285456 0.610749
O O6 0.439019 0.310983 0.624999
O O7 0.362256 0.290859 0.977357
O O8 0.800949 0.721673 0.248222
O O9 0.896084 0.611819 0.034152
O O10 0.384167 0.634167 0.875001
O O11 0.215270 0.620213 0.780318
O O12 0.535455 0.988785 0.860752
O O13 0.540860 0.887746 0.227360
O O14 0.129788 0.534731 0.469674
#
# Coordination Sequence:
#
# PCOD9314590 Si02
#       7
#     4   4   4   4   4   4   4
#     4  10  22  39  61  85 124 161 206 251 297 360
#     4   9  20  40  59  93 123 157 202 249 299 363
#     4  10  22  39  61  85 124 161 206 251 297 360
#     4  10  22  38  61  91 123 159 198 255 304 360
#     4   9  20  40  59  93 123 157 202 249 299 363
#     4  10  22  38  61  91 123 159 198 255 304 360
#     4  10  22  36  66  88 120 158 200 246 310 358
#
# _framework density 20.817074999999999
#
# number of rings (size 3 to 8) (size 9 to 14) (size 15 to 20)
#    0.000    2.286    0.000    0.857   10.000    0.000 
#    0.000    5.714    0.000    0.000    0.000    0.000 
#    0.000    0.000    0.000    0.000    0.000    0.000 
#
# Total GULP energy -155963.783968 kJ/mol
# GULP energy per Si atom -5570.135142 kJ/mol
# Density = 2.076969 g / cm^3
# Si number density = 20.817075 Si / 1000 Ang^3
#
#
#
# Elastic Constant Matrix: (Units=GPa)
#
#
# Indices 1 2 3 4 5 6 
#
# 1 87.3721 41.9666 1.4546 0.0000 0.0000 0.0000
# 2 41.9666 87.3732 1.4546 0.0000 0.0000 0.0000
# 3 1.4546 1.4546 40.1412 0.0000 0.0000 0.0000
# 4 0.0000 0.0000 0.0000 13.2288 0.0000 0.0000
# 5 0.0000 0.0000 0.0000 0.0000 13.2274 0.0000
# 6 0.0000 0.0000 0.0000 0.0000 0.0000 27.8080
#
#
#
# Elastic Compliance Matrix: (Units=1/GPa)
#
#
# Indices 1 2 3 4 5 6 
#
# 1 0.014881 -0.007143 -0.000280 0.000000 0.000000 0.000000
# 2 -0.007143 0.014881 -0.000280 0.000000 0.000000 0.000000
# 3 -0.000280 -0.000280 0.024932 0.000000 0.000000 0.000000
# 4 0.000000 0.000000 0.000000 0.075593 0.000000 0.000000
# 5 0.000000 0.000000 0.000000 0.000000 0.075601 0.000000
# 6 0.000000 0.000000 0.000000 0.000000 0.000000 0.035961
#
#
# Mechanical properties :
#
#
# Convention : Reuss Voigt Hill
#
# Bulk Modulus (GPa) = 25.45398 33.84870 29.65134
# Shear Modulus (GPa) = 18.49450 22.18689 20.34070
#
# Velocity S-wave (km/s) = 2.98389 3.26820 3.12928
# Velocity P-wave (km/s) = 4.91177 5.52602 5.22792
#
# Compressibility (1/GPa) = 0.03928658
#
# Stress axis : x y z
#
# Youngs Moduli (GPa) = 67.20073 67.20153 40.10848
#
# Poissons Ratio (x) = 0.48001 0.01125
# Poissons Ratio (y) = 0.48000 0.01125
# Poissons Ratio (z) = 0.01884 0.01884
#
# Static dielectric constant tensor:
#      x y z
#    x 1.789970 0.000000 0.000000 
#    y 0.000000 1.789970 0.000000 
#    z 0.000000 0.000000 1.791350 
# 
# From -- ./inp_files/1489.got.cif
#   From: 2010.05.17/outbox.cif.g08.bks.cpg/sg19_1_cif.got.tgz:1489.got - 2010.06.03 22:46:19.
