data_PCOD9314909
_publ_section_title
;
Structure prediction by ZEFSAII (Michael W. Deem and Ramdas Pophale) SiO2 
 PCOD9314909
Probable space group: P 21 21 21
;
_chemical_formula_sum "Si O2"
_cell_formula_units_Z 32
_cell_length_a 12.325473
_cell_length_b 8.404425
_cell_length_c 13.428075
_cell_angle_alpha 90.000000
_cell_angle_beta 90.000000
_cell_angle_gamma 90.000000
_cell_volume 1390.994327
_symmetry_space_group_name_H-M "P 21 21 21"
_symmetry_group_IT_number 19
_symmetry_cell_setting 'orthorhombic'
loop_
_space_group_symop_operation_xyz
x,y,z
1/2-x,-y,1/2+z
1/2+x,1/2-y,-z
-x,1/2+y,1/2-z
loop_
_atom_site_type_symbol
_atom_site_label
_atom_site_fract_x
_atom_site_fract_y
_atom_site_fract_z
Si Si1 0.063305 0.813642 0.243076
Si Si2 0.253674 0.625405 0.479318
Si Si3 0.250247 0.038836 0.324312
Si Si4 0.437356 0.818172 0.386327
Si Si5 0.460012 0.532429 0.949639
Si Si6 0.916959 0.994534 0.373086
Si Si7 0.844544 0.353273 0.861724
Si Si8 0.891846 0.632750 0.993215
O O1 0.164062 0.903083 0.293211
O O2 0.084094 0.635617 0.207402
O O3 0.028956 0.905206 0.142367
O O4 0.962851 0.837866 0.318513
O O5 0.351185 0.680972 0.410412
O O6 0.156772 0.540238 0.422677
O O7 0.305322 0.522075 0.568461
O O8 0.204902 0.776486 0.538064
O O9 0.367326 0.956636 0.335710
O O10 0.264594 0.156419 0.231493
O O11 0.205127 0.120275 0.424723
O O12 0.544287 0.741050 0.338942
O O13 0.477723 0.899582 0.488362
O O14 0.430282 0.686178 0.017264
O O15 0.007813 0.042162 0.454282
O O16 0.863114 0.536580 0.894145
#
# Coordination Sequence:
#
# PCOD9314909 Si02
#       8
#     4   4   4   4   4   4   4   4
#     4  10  24  41  68  98 131 175 223 281 322 401
#     4  11  23  42  68  96 131 179 221 272 339 399
#     4  11  25  43  69  98 134 176 225 272 344 395
#     4  11  24  45  66  95 134 179 218 273 338 409
#     4  10  25  41  68  99 133 176 223 279 327 397
#     4  10  23  39  65  99 132 166 231 275 328 394
#     4  11  24  43  68  92 136 178 218 279 337 401
#     4  10  22  44  66  99 129 175 227 277 325 400
#
# _framework density 23.005125
#
# number of rings (size 3 to 8) (size 9 to 14) (size 15 to 20)
#    0.000    1.500    2.500    0.750   10.500    2.000 
#    4.500    0.000    0.000    0.000    0.000    0.000 
#    0.000    0.000    0.000    0.000    0.000    0.000 
#
# Total GULP energy -178977.505038 kJ/mol
# GULP energy per Si atom -5593.047032 kJ/mol
# Density = 2.295276 g / cm^3
# Si number density = 23.005125 Si / 1000 Ang^3
#
#
#
# Elastic Constant Matrix: (Units=GPa)
#
#
# Indices 1 2 3 4 5 6 
#
# 1 81.3438 0.6639 15.9735 0.0000 0.0000 0.0000
# 2 0.6639 41.1932 3.9011 0.0000 0.0000 0.0000
# 3 15.9735 3.9011 51.5731 0.0000 0.0000 0.0000
# 4 0.0000 0.0000 0.0000 30.9452 0.0000 0.0000
# 5 0.0000 0.0000 0.0000 0.0000 33.4944 0.0000
# 6 0.0000 0.0000 0.0000 0.0000 0.0000 34.9658
#
#
#
# Elastic Compliance Matrix: (Units=1/GPa)
#
#
# Indices 1 2 3 4 5 6 
#
# 1 0.013091 0.000174 -0.004068 0.000000 0.000000 0.000000
# 2 0.000174 0.024453 -0.001904 0.000000 0.000000 0.000000
# 3 -0.004068 -0.001904 0.020794 0.000000 0.000000 0.000000
# 4 0.000000 0.000000 0.000000 0.032315 0.000000 0.000000
# 5 0.000000 0.000000 0.000000 0.000000 0.029856 0.000000
# 6 0.000000 0.000000 0.000000 0.000000 0.000000 0.028599
#
#
# Mechanical properties :
#
#
# Convention : Reuss Voigt Hill
#
# Bulk Modulus (GPa) = 21.39328 23.90968 22.65148
# Shear Modulus (GPa) = 28.36333 30.11918 29.24126
#
# Velocity S-wave (km/s) = 3.51510 3.62226 3.56908
# Velocity P-wave (km/s) = 5.07879 5.28301 5.18190
#
# Compressibility (1/GPa) = 0.04674365
#
# Stress axis : x y z
#
# Youngs Moduli (GPa) = 76.38916 40.89423 48.09119
#
# Poissons Ratio (x) = -0.00713 0.19562
# Poissons Ratio (y) = -0.01331 0.09155
# Poissons Ratio (z) = 0.31073 0.07785
#
# Static dielectric constant tensor:
#      x y z
#    x 1.837460 0.000000 0.000000 
#    y 0.000000 1.884450 0.000000 
#    z 0.000000 0.000000 1.855920 
# 
# From -- ./inp_files/3969.got.cif
#   From: 2010.05.17/outbox.cif.g08.bks.cpg/sg19_2_cif.got.tgz:3969.got - 2010.06.03 22:46:19.
