data_PCOD9314416
_publ_section_title
;
Structure prediction by ZEFSAII (Michael W. Deem and Ramdas Pophale) SiO2 
 PCOD9314416
Probable space group: P 21 21 21
;
_chemical_formula_sum "Si O2"
_cell_formula_units_Z 28
_cell_length_a 26.007185
_cell_length_b 8.063208
_cell_length_c 5.772184
_cell_angle_alpha 90.000000
_cell_angle_beta 90.000000
_cell_angle_gamma 90.000000
_cell_volume 1210.434732
_symmetry_space_group_name_H-M "P 21 21 21"
_symmetry_group_IT_number 19
_symmetry_cell_setting 'orthorhombic'
loop_
_space_group_symop_operation_xyz
x,y,z
1/2-x,-y,1/2+z
1/2+x,1/2-y,-z
-x,1/2+y,1/2-z
loop_
_atom_site_type_symbol
_atom_site_label
_atom_site_fract_x
_atom_site_fract_y
_atom_site_fract_z
Si Si1 0.997870 0.555367 0.016824
Si Si2 0.652343 0.190373 0.966939
Si Si3 0.243173 0.731383 0.298356
Si Si4 0.962445 0.182200 0.983474
Si Si5 0.293710 0.904832 0.925247
Si Si6 0.891586 0.702908 0.871858
Si Si7 0.639444 0.947995 0.599980
O O1 0.942561 0.647350 0.996158
O O2 0.026291 0.608281 0.774328
O O3 0.987082 0.361802 0.993220
O O4 0.019582 0.590221 0.276695
O O5 0.676749 0.321444 0.788066
O O6 0.632391 0.021139 0.857824
O O7 0.703251 0.155568 0.117053
O O8 0.605178 0.276373 0.097159
O O9 0.196971 0.619847 0.389011
O O10 0.232144 0.918634 0.389099
O O11 0.252710 0.772663 0.026848
O O12 0.900850 0.187640 0.019061
O O13 0.342229 0.916780 0.099088
O O14 0.874244 0.886188 0.955720
#
# Coordination Sequence:
#
# PCOD9314416 Si02
#       7
#     4   4   4   4   4   4   4
#     4  12  27  52  83 112 155 196 254 316 385 454
#     4  10  24  41  67  98 140 184 239 298 364 437
#     4  11  22  41  65  97 137 188 240 297 369 437
#     4  12  28  51  79 117 149 200 251 315 383 458
#     4  10  21  41  63  97 135 184 235 297 357 437
#     4  10  24  44  71 103 141 189 240 302 372 444
#     4  11  26  42  70 102 147 185 247 297 380 437
#
# _framework density 23.132185
#
# number of rings (size 3 to 8) (size 9 to 14) (size 15 to 20)
#    0.000    1.143    1.429    3.429   14.000    0.000 
#    2.571    0.000    0.000    0.000    0.000    0.000 
#    0.000    0.000    0.000    0.000    0.000    0.000 
#
# Total GULP energy -156115.377739 kJ/mol
# GULP energy per Si atom -5575.549205 kJ/mol
# Density = 2.307953 g / cm^3
# Si number density = 23.132185 Si / 1000 Ang^3
#
#
#
# Elastic Constant Matrix: (Units=GPa)
#
#
# Indices 1 2 3 4 5 6 
#
# 1 83.7439 -2.6920 12.6649 0.0000 0.0000 0.0000
# 2 -2.6920 59.2580 13.7844 0.0000 0.0000 0.0000
# 3 12.6649 13.7844 84.0698 0.0000 0.0000 0.0000
# 4 0.0000 0.0000 0.0000 29.5622 0.0000 0.0000
# 5 0.0000 0.0000 0.0000 0.0000 28.2463 0.0000
# 6 0.0000 0.0000 0.0000 0.0000 0.0000 31.9138
#
#
#
# Elastic Compliance Matrix: (Units=1/GPa)
#
#
# Indices 1 2 3 4 5 6 
#
# 1 0.012279 0.001027 -0.002018 0.000000 0.000000 0.000000
# 2 0.001027 0.017630 -0.003046 0.000000 0.000000 0.000000
# 3 -0.002018 -0.003046 0.012698 0.000000 0.000000 0.000000
# 4 0.000000 0.000000 0.000000 0.033827 0.000000 0.000000
# 5 0.000000 0.000000 0.000000 0.000000 0.035403 0.000000
# 6 0.000000 0.000000 0.000000 0.000000 0.000000 0.031334
#
#
# Mechanical properties :
#
#
# Convention : Reuss Voigt Hill
#
# Bulk Modulus (GPa) = 28.95601 30.50960 29.73280
# Shear Modulus (GPa) = 30.72062 31.49875 31.10968
#
# Velocity S-wave (km/s) = 3.64819 3.69411 3.67122
# Velocity P-wave (km/s) = 5.50368 5.60474 5.55444
#
# Compressibility (1/GPa) = 0.03453515
#
# Stress axis : x y z
#
# Youngs Moduli (GPa) = 81.43697 56.72004 78.75076
#
# Poissons Ratio (x) = -0.05827 0.15894
# Poissons Ratio (y) = -0.08366 0.23984
# Poissons Ratio (z) = 0.16437 0.17274
#
# Static dielectric constant tensor:
#      x y z
#    x 1.870760 0.000000 0.000000 
#    y 0.000000 1.840050 0.000000 
#    z 0.000000 0.000000 2.156400 
# 
# From -- ./inp_files/2243.got.cif
#   From: 2010.05.17/outbox.cif.g08.bks.cpg/sg19_2_cif.got.tgz:2243.got - 2010.06.03 22:46:19.
