data_PCOD9314076
_publ_section_title
;
Structure prediction by ZEFSAII (Michael W. Deem and Ramdas Pophale) SiO2 
 PCOD9314076
Probable space group: P 21 21 21
;
_chemical_formula_sum "Si O2"
_cell_formula_units_Z 32
_cell_length_a 8.152018
_cell_length_b 12.753059
_cell_length_c 12.461584
_cell_angle_alpha 90.000000
_cell_angle_beta 90.000000
_cell_angle_gamma 90.000000
_cell_volume 1295.545733
_symmetry_space_group_name_H-M "P 21 21 21"
_symmetry_group_IT_number 19
_symmetry_cell_setting 'orthorhombic'
loop_
_space_group_symop_operation_xyz
x,y,z
1/2-x,-y,1/2+z
1/2+x,1/2-y,-z
-x,1/2+y,1/2-z
loop_
_atom_site_type_symbol
_atom_site_label
_atom_site_fract_x
_atom_site_fract_y
_atom_site_fract_z
Si Si1 0.539821 0.044680 0.827299
Si Si2 0.644318 0.359928 0.451224
Si Si3 0.531334 0.052477 0.168102
Si Si4 0.110867 0.129793 0.101110
Si Si5 0.313038 0.337448 0.576713
Si Si6 0.629705 0.055497 0.609361
Si Si7 0.942965 0.311000 0.998880
Si Si8 0.272416 0.078042 0.321737
O O1 0.557606 0.108401 0.935296
O O2 0.628933 0.931333 0.843762
O O3 0.595356 0.109350 0.724072
O O4 0.346067 0.022781 0.821125
O O5 0.592993 0.467955 0.391041
O O6 0.472022 0.320026 0.501162
O O7 0.739011 0.272163 0.382097
O O8 0.749433 0.376797 0.560038
O O9 0.709425 0.011232 0.141553
O O10 0.458510 0.055965 0.287450
O O11 0.511409 0.169343 0.120426
O O12 0.187550 0.141009 0.221025
O O13 0.029385 0.016131 0.092622
O O14 0.965405 0.206142 0.064551
O O15 0.254913 0.156643 0.017680
O O16 0.177426 0.380723 0.494165
#
# Coordination Sequence:
#
# PCOD9314076 Si02
#       8
#     4   4   4   4   4   4   4   4
#     4  10  21  41  61  85 130 167 208 264 318 374
#     4  10  21  40  63  92 127 168 214 260 321 374
#     4  10  20  41  65  89 134 161 216 268 310 382
#     4  10  23  36  66  91 123 165 210 260 320 384
#     4  10  22  40  64  90 129 168 210 267 312 382
#     4  10  21  42  62  93 125 167 206 266 320 374
#     4  11  20  40  63  89 123 168 208 262 316 377
#     4   9  20  40  60  93 123 172 210 263 315 381
#
# _framework density 24.700015
#
# number of rings (size 3 to 8) (size 9 to 14) (size 15 to 20)
#    0.000    2.000    3.750    0.750    1.750    4.000 
#    6.750    0.000    2.750    0.000    0.000    0.000 
#    0.000    0.000    0.000    0.000    0.000    0.000 
#
# Total GULP energy -178470.202861 kJ/mol
# GULP energy per Si atom -5577.193839 kJ/mol
# Density = 2.464380 g / cm^3
# Si number density = 24.700015 Si / 1000 Ang^3
#
#
#
# Elastic Constant Matrix: (Units=GPa)
#
#
# Indices 1 2 3 4 5 6 
#
# 1 82.4276 12.3774 23.5812 0.0000 0.0000 0.0000
# 2 12.3774 52.7576 17.9664 0.0000 0.0000 0.0000
# 3 23.5812 17.9664 88.2179 0.0000 0.0000 0.0000
# 4 0.0000 0.0000 0.0000 11.2897 0.0000 0.0000
# 5 0.0000 0.0000 0.0000 0.0000 47.6641 0.0000
# 6 0.0000 0.0000 0.0000 0.0000 0.0000 37.4193
#
#
#
# Elastic Compliance Matrix: (Units=1/GPa)
#
#
# Indices 1 2 3 4 5 6 
#
# 1 0.013341 -0.002058 -0.003147 0.000000 0.000000 0.000000
# 2 -0.002058 0.020685 -0.003662 0.000000 0.000000 0.000000
# 3 -0.003147 -0.003662 0.012923 0.000000 0.000000 0.000000
# 4 0.000000 0.000000 0.000000 0.088576 0.000000 0.000000
# 5 0.000000 0.000000 0.000000 0.000000 0.020980 0.000000
# 6 0.000000 0.000000 0.000000 0.000000 0.000000 0.026724
#
#
# Mechanical properties :
#
#
# Convention : Reuss Voigt Hill
#
# Bulk Modulus (GPa) = 34.23113 36.80591 35.51852
# Shear Modulus (GPa) = 23.73014 30.57317 27.15165
#
# Velocity S-wave (km/s) = 3.10293 3.52203 3.31910
# Velocity P-wave (km/s) = 5.16976 5.61009 5.39442
#
# Compressibility (1/GPa) = 0.02921318
#
# Stress axis : x y z
#
# Youngs Moduli (GPa) = 74.95559 48.34486 77.38332
#
# Poissons Ratio (x) = 0.09951 0.24353
# Poissons Ratio (y) = 0.15428 0.28341
# Poissons Ratio (z) = 0.23589 0.17706
#
# Static dielectric constant tensor:
#      x y z
#    x 1.993480 0.000000 0.000000 
#    y 0.000000 2.043980 0.000000 
#    z 0.000000 0.000000 2.011410 
# 
# From -- ./inp_files/5916.got.cif
#   From: 2010.05.17/outbox.cif.g08.bks.cpg/sg19_3_cif.got.tgz:5916.got - 2010.06.03 22:46:19.
