data_PCOD9314781
_publ_section_title
;
Structure prediction by ZEFSAII (Michael W. Deem and Ramdas Pophale) SiO2 
 PCOD9314781
Probable space group: P 21 21 21
;
_chemical_formula_sum "Si O2"
_cell_formula_units_Z 32
_cell_length_a 13.798326
_cell_length_b 14.047321
_cell_length_c 7.609670
_cell_angle_alpha 90.000000
_cell_angle_beta 90.000000
_cell_angle_gamma 90.000000
_cell_volume 1474.978642
_symmetry_space_group_name_H-M "P 21 21 21"
_symmetry_group_IT_number 19
_symmetry_cell_setting 'orthorhombic'
loop_
_space_group_symop_operation_xyz
x,y,z
1/2-x,-y,1/2+z
1/2+x,1/2-y,-z
-x,1/2+y,1/2-z
loop_
_atom_site_type_symbol
_atom_site_label
_atom_site_fract_x
_atom_site_fract_y
_atom_site_fract_z
Si Si1 0.721892 0.680741 0.053846
Si Si2 0.082617 0.641157 0.911716
Si Si3 0.381200 0.849049 0.239852
Si Si4 0.275752 0.386049 0.945533
Si Si5 0.563395 0.525569 0.056858
Si Si6 0.520058 0.862264 0.697416
Si Si7 0.666344 0.269128 0.881088
Si Si8 0.859184 0.961502 0.829265
O O1 0.644924 0.599590 0.006020
O O2 0.767915 0.670397 0.248171
O O3 0.664462 0.780211 0.057177
O O4 0.809480 0.674677 0.917133
O O5 0.044485 0.610614 0.103626
O O6 0.117919 0.551335 0.798635
O O7 0.990254 0.683981 0.806387
O O8 0.339365 0.807725 0.420782
O O9 0.396148 0.961230 0.282514
O O10 0.215666 0.333267 0.096404
O O11 0.303588 0.491993 0.007274
O O12 0.379166 0.338968 0.900933
O O13 0.208910 0.390980 0.775011
O O14 0.463558 0.576353 0.113430
O O15 0.530646 0.449459 0.907663
O O16 0.443079 0.776444 0.690396
#
# Coordination Sequence:
#
# PCOD9314781 Si02
#       8
#     4   4   4   4   4   4   4   4
#     4  12  24  44  70  99 128 180 228 267 340 411
#     4  11  22  44  66  94 138 170 221 285 329 398
#     4  10  24  42  65  96 134 173 215 282 339 388
#     4  11  22  41  69  94 132 178 221 275 341 396
#     4   9  24  42  68  97 134 171 223 279 334 406
#     4  10  22  45  64  97 137 170 218 281 338 392
#     4  11  24  42  69  96 133 176 219 277 332 403
#     4  10  22  42  61  97 128 174 217 274 333 398
#
# _framework density 21.695229999999999
#
# number of rings (size 3 to 8) (size 9 to 14) (size 15 to 20)
#    0.000    1.500    2.500    2.250    5.250    0.000 
#   11.250    0.000    0.000    0.000    0.000    0.000 
#    0.000    0.000    0.000    0.000    0.000    0.000 
#
# Total GULP energy -178800.697024 kJ/mol
# GULP energy per Si atom -5587.521782 kJ/mol
# Density = 2.164585 g / cm^3
# Si number density = 21.695230 Si / 1000 Ang^3
#
#
#
# Elastic Constant Matrix: (Units=GPa)
#
#
# Indices 1 2 3 4 5 6 
#
# 1 137.5631 29.8331 38.0152 0.0000 0.0000 0.0000
# 2 29.8331 30.8446 -0.9027 0.0000 0.0000 0.0000
# 3 38.0152 -0.9027 96.0025 0.0000 0.0000 0.0000
# 4 0.0000 0.0000 0.0000 16.0670 0.0000 0.0000
# 5 0.0000 0.0000 0.0000 0.0000 38.3352 0.0000
# 6 0.0000 0.0000 0.0000 0.0000 0.0000 20.4763
#
#
#
# Elastic Compliance Matrix: (Units=1/GPa)
#
#
# Indices 1 2 3 4 5 6 
#
# 1 0.010758 -0.010533 -0.004359 0.000000 0.000000 0.000000
# 2 -0.010533 0.042742 0.004573 0.000000 0.000000 0.000000
# 3 -0.004359 0.004573 0.012186 0.000000 0.000000 0.000000
# 4 0.000000 0.000000 0.000000 0.062239 0.000000 0.000000
# 5 0.000000 0.000000 0.000000 0.000000 0.026086 0.000000
# 6 0.000000 0.000000 0.000000 0.000000 0.000000 0.048837
#
#
# Mechanical properties :
#
#
# Convention : Reuss Voigt Hill
#
# Bulk Modulus (GPa) = 22.19899 44.25571 33.22735
# Shear Modulus (GPa) = 20.96414 28.14001 24.55207
#
# Velocity S-wave (km/s) = 3.11191 3.60538 3.36770
# Velocity P-wave (km/s) = 4.81315 6.14612 5.52002
#
# Compressibility (1/GPa) = 0.04504710
#
# Stress axis : x y z
#
# Youngs Moduli (GPa) = 92.95131 23.39612 82.06462
#
# Poissons Ratio (x) = 0.24643 0.35773
# Poissons Ratio (y) = 0.97906 -0.37526
# Poissons Ratio (z) = 0.40519 -0.10699
#
# Static dielectric constant tensor:
#      x y z
#    x 1.792470 0.000000 0.000000 
#    y 0.000000 1.805070 0.000000 
#    z 0.000000 0.000000 1.799250 
# 
# From -- ./inp_files/3601.got.cif
#   From: 2010.05.17/outbox.cif.g08.bks.cpg/sg19_2_cif.got.tgz:3601.got - 2010.06.03 22:46:19.
