data_PCOD9314105
_publ_section_title
;
Structure prediction by ZEFSAII (Michael W. Deem and Ramdas Pophale) SiO2 
 PCOD9314105
Probable space group: P 21 21 21
;
_chemical_formula_sum "Si O2"
_cell_formula_units_Z 32
_cell_length_a 9.078455
_cell_length_b 9.121833
_cell_length_c 14.500683
_cell_angle_alpha 90.000000
_cell_angle_beta 90.000000
_cell_angle_gamma 90.000000
_cell_volume 1200.832742
_symmetry_space_group_name_H-M "P 21 21 21"
_symmetry_group_IT_number 19
_symmetry_cell_setting 'orthorhombic'
loop_
_space_group_symop_operation_xyz
x,y,z
1/2-x,-y,1/2+z
1/2+x,1/2-y,-z
-x,1/2+y,1/2-z
loop_
_atom_site_type_symbol
_atom_site_label
_atom_site_fract_x
_atom_site_fract_y
_atom_site_fract_z
Si Si1 0.020754 0.245992 0.293494
Si Si2 0.329285 0.300912 0.875526
Si Si3 0.236979 0.071116 0.645816
Si Si4 0.753995 0.109715 0.619366
Si Si5 0.084203 0.082337 0.834153
Si Si6 0.886132 0.869035 0.936787
Si Si7 0.580535 0.954780 0.952086
Si Si8 0.897857 0.304843 0.939706
O O1 0.967708 0.199339 0.192251
O O2 0.894048 0.368553 0.317959
O O3 0.009976 0.117764 0.370017
O O4 0.190165 0.296859 0.297712
O O5 0.233621 0.442861 0.847442
O O6 0.237981 0.151032 0.868304
O O7 0.357454 0.313398 0.983230
O O8 0.118439 0.052702 0.728174
O O9 0.171203 0.206919 0.588070
O O10 0.227695 0.919154 0.590783
O O11 0.614307 0.119278 0.547504
O O12 0.881068 0.142747 0.544850
O O13 0.972777 0.215693 0.857090
O O14 0.024523 0.939640 0.886219
O O15 0.741970 0.965098 0.906820
O O16 0.511005 0.096198 0.998815
#
# Coordination Sequence:
#
# PCOD9314105 Si02
#       8
#     4   4   4   4   4   4   4   4
#     4  10  23  42  63  92 134 162 219 268 326 391
#     4  11  25  40  65  95 129 173 215 275 326 393
#     4  10  23  38  64  96 121 167 210 270 312 394
#     4  10  20  42  64  88 125 173 205 267 329 377
#     4  11  21  42  63  91 130 162 212 268 323 384
#     4   9  19  40  62  85 124 164 204 257 322 365
#     4   9  21  39  65  91 120 170 212 261 318 392
#     4  12  22  39  66  92 125 167 219 256 336 388
#
# _framework density 26.648171999999999
#
# number of rings (size 3 to 8) (size 9 to 14) (size 15 to 20)
#    0.750    1.000    2.500    1.500    3.500    0.000 
#    0.000    0.000    0.000    0.000    0.000    0.000 
#    0.000    0.000    0.000    0.000    0.000    0.000 
#
# Total GULP energy -178668.279035 kJ/mol
# GULP energy per Si atom -5583.383720 kJ/mol
# Density = 2.658752 g / cm^3
# Si number density = 26.648172 Si / 1000 Ang^3
#
#
#
# Elastic Constant Matrix: (Units=GPa)
#
#
# Indices 1 2 3 4 5 6 
#
# 1 59.1637 16.4231 16.5000 0.0000 0.0000 0.0000
# 2 16.4231 90.3629 29.0780 0.0000 0.0000 0.0000
# 3 16.5000 29.0780 63.4948 0.0000 0.0000 0.0000
# 4 0.0000 0.0000 0.0000 21.3016 0.0000 0.0000
# 5 0.0000 0.0000 0.0000 0.0000 31.8288 0.0000
# 6 0.0000 0.0000 0.0000 0.0000 0.0000 32.6069
#
#
#
# Elastic Compliance Matrix: (Units=1/GPa)
#
#
# Indices 1 2 3 4 5 6 
#
# 1 0.018568 -0.002137 -0.003847 0.000000 0.000000 0.000000
# 2 -0.002137 0.013225 -0.005501 0.000000 0.000000 0.000000
# 3 -0.003847 -0.005501 0.019268 0.000000 0.000000 0.000000
# 4 0.000000 0.000000 0.000000 0.046945 0.000000 0.000000
# 5 0.000000 0.000000 0.000000 0.000000 0.031418 0.000000
# 6 0.000000 0.000000 0.000000 0.000000 0.000000 0.030668
#
#
# Mechanical properties :
#
#
# Convention : Reuss Voigt Hill
#
# Bulk Modulus (GPa) = 35.59723 37.44708 36.52216
# Shear Modulus (GPa) = 25.98395 27.21547 26.59971
#
# Velocity S-wave (km/s) = 3.12601 3.19923 3.16283
# Velocity P-wave (km/s) = 5.13969 5.26590 5.20318
#
# Compressibility (1/GPa) = 0.02809208
#
# Stress axis : x y z
#
# Youngs Moduli (GPa) = 53.85547 75.61372 51.89880
#
# Poissons Ratio (x) = 0.16158 0.19963
# Poissons Ratio (y) = 0.11508 0.28551
# Poissons Ratio (z) = 0.20716 0.41597
#
# Static dielectric constant tensor:
#      x y z
#    x 2.180780 0.000000 0.000000 
#    y 0.000000 2.130500 0.000000 
#    z 0.000000 0.000000 2.103210 
# 
# From -- ./inp_files/6181.got.cif
#   From: 2010.05.17/outbox.cif.g08.bks.cpg/sg19_4_cif.got.tgz:6181.got - 2010.06.03 22:46:19.
