data_PCOD9314674
_publ_section_title
;
Structure prediction by ZEFSAII (Michael W. Deem and Ramdas Pophale) SiO2 
 PCOD9314674
Probable space group: P 21 21 21
;
_chemical_formula_sum "Si O2"
_cell_formula_units_Z 24
_cell_length_a 7.856127
_cell_length_b 8.037984
_cell_length_c 14.415242
_cell_angle_alpha 90.000000
_cell_angle_beta 90.000000
_cell_angle_gamma 90.000000
_cell_volume 910.285386
_symmetry_space_group_name_H-M "P 21 21 21"
_symmetry_group_IT_number 19
_symmetry_cell_setting 'orthorhombic'
loop_
_space_group_symop_operation_xyz
x,y,z
1/2-x,-y,1/2+z
1/2+x,1/2-y,-z
-x,1/2+y,1/2-z
loop_
_atom_site_type_symbol
_atom_site_label
_atom_site_fract_x
_atom_site_fract_y
_atom_site_fract_z
Si Si1 0.898791 0.833629 0.874949
Si Si2 0.506162 0.846319 0.300387
Si Si3 0.145268 0.025100 0.301478
Si Si4 0.017460 0.196507 0.121591
Si Si5 0.357564 0.625833 0.448418
Si Si6 0.954539 0.215404 0.449092
O O1 0.006325 0.725100 0.802437
O O2 0.718682 0.746325 0.895051
O O3 0.859945 0.014758 0.830958
O O4 0.989949 0.847110 0.974024
O O5 0.485119 0.690841 0.368846
O O6 0.332554 0.951663 0.311988
O O7 0.099820 0.169174 0.375408
O O8 0.108155 0.087241 0.198701
O O9 0.025273 0.871504 0.328874
O O10 0.832708 0.125048 0.092007
O O11 0.126430 0.238180 0.030603
O O12 0.414632 0.451732 0.491618
#
# Coordination Sequence:
#
# PCOD9314674 Si02
#       6
#     4   4   4   4   4   4
#     4  12  26  44  68  99 136 176 223 279 339 402
#     4  11  25  43  66  96 130 174 223 272 331 396
#     4  10  23  41  64  92 126 168 216 267 327 391
#     4  10  22  40  64  92 124 164 211 266 325 390
#     4  10  22  41  65  93 127 168 217 266 324 391
#     4  11  24  43  67  98 135 176 222 274 334 396
#
# _framework density 26.365355999999998
#
# number of rings (size 3 to 8) (size 9 to 14) (size 15 to 20)
#    0.000    1.333    0.000    5.000    0.000   14.667 
#    0.000    0.000    0.000    0.000    0.000    0.000 
#    0.000    0.000    0.000    0.000    0.000    0.000 
#
# Total GULP energy -134723.299308 kJ/mol
# GULP energy per Si atom -5613.470804 kJ/mol
# Density = 2.630535 g / cm^3
# Si number density = 26.365356 Si / 1000 Ang^3
#
#
#
# Elastic Constant Matrix: (Units=GPa)
#
#
# Indices 1 2 3 4 5 6 
#
# 1 73.0701 3.3113 20.1001 0.0000 0.0000 0.0000
# 2 3.3113 91.7073 49.3213 0.0000 0.0000 0.0000
# 3 20.1001 49.3213 149.2259 0.0000 0.0000 0.0000
# 4 0.0000 0.0000 0.0000 61.9816 0.0000 0.0000
# 5 0.0000 0.0000 0.0000 0.0000 35.0583 0.0000
# 6 0.0000 0.0000 0.0000 0.0000 0.0000 33.5569
#
#
#
# Elastic Compliance Matrix: (Units=1/GPa)
#
#
# Indices 1 2 3 4 5 6 
#
# 1 0.014242 0.000629 -0.002126 0.000000 0.000000 0.000000
# 2 0.000629 0.013289 -0.004477 0.000000 0.000000 0.000000
# 3 -0.002126 -0.004477 0.008467 0.000000 0.000000 0.000000
# 4 0.000000 0.000000 0.000000 0.016134 0.000000 0.000000
# 5 0.000000 0.000000 0.000000 0.000000 0.028524 0.000000
# 6 0.000000 0.000000 0.000000 0.000000 0.000000 0.029800
#
#
# Mechanical properties :
#
#
# Convention : Reuss Voigt Hill
#
# Bulk Modulus (GPa) = 41.57923 51.05208 46.31565
# Shear Modulus (GPa) = 38.33725 42.20408 40.27067
#
# Velocity S-wave (km/s) = 3.81737 4.00527 3.91245
# Velocity P-wave (km/s) = 5.93586 6.38709 6.16560
#
# Compressibility (1/GPa) = 0.02405047
#
# Stress axis : x y z
#
# Youngs Moduli (GPa) = 70.21541 75.24817 118.10006
#
# Poissons Ratio (x) = -0.04736 0.25112
# Poissons Ratio (y) = -0.04419 0.52874
# Poissons Ratio (z) = 0.14930 0.33689
#
# Static dielectric constant tensor:
#      x y z
#    x 2.056160 0.000000 0.000000 
#    y 0.000000 2.129470 0.000000 
#    z 0.000000 0.000000 2.018300 
# 
# From -- ./inp_files/2684.got.cif
#   From: 2010.05.17/outbox.cif.g08.bks.cpg/sg19_2_cif.got.tgz:2684.got - 2010.06.03 22:46:19.
