data_PCOD9314113
_publ_section_title
;
Structure prediction by ZEFSAII (Michael W. Deem and Ramdas Pophale) SiO2 
 PCOD9314113
Probable space group: P 21 21 21
;
_chemical_formula_sum "Si O2"
_cell_formula_units_Z 32
_cell_length_a 9.634364
_cell_length_b 12.169613
_cell_length_c 11.671312
_cell_angle_alpha 90.000000
_cell_angle_beta 90.000000
_cell_angle_gamma 90.000000
_cell_volume 1368.420265
_symmetry_space_group_name_H-M "P 21 21 21"
_symmetry_group_IT_number 19
_symmetry_cell_setting 'orthorhombic'
loop_
_space_group_symop_operation_xyz
x,y,z
1/2-x,-y,1/2+z
1/2+x,1/2-y,-z
-x,1/2+y,1/2-z
loop_
_atom_site_type_symbol
_atom_site_label
_atom_site_fract_x
_atom_site_fract_y
_atom_site_fract_z
Si Si1 0.482668 0.447025 0.863435
Si Si2 0.687524 0.814824 0.277911
Si Si3 0.611226 0.342284 0.658642
Si Si4 0.098160 0.640050 0.978984
Si Si5 0.365313 0.022027 0.440218
Si Si6 0.833652 0.929874 0.850667
Si Si7 0.050817 0.214044 0.949881
Si Si8 0.319978 0.577608 0.406557
O O1 0.512449 0.423181 0.732625
O O2 0.328674 0.484404 0.899217
O O3 0.604900 0.516816 0.922892
O O4 0.486398 0.332579 0.933421
O O5 0.825574 0.746468 0.246901
O O6 0.705276 0.939556 0.328027
O O7 0.575788 0.759867 0.363618
O O8 0.622391 0.818420 0.149250
O O9 0.520587 0.301121 0.551925
O O10 0.737006 0.411214 0.604938
O O11 0.230521 0.633101 0.064365
O O12 0.069931 0.510802 0.951762
O O13 0.508988 0.068454 0.391953
O O14 0.366500 0.893335 0.403946
O O15 0.833788 0.881911 0.723510
O O16 0.153892 0.312628 0.975875
#
# Coordination Sequence:
#
# PCOD9314113 Si02
#       8
#     4   4   4   4   4   4   4   4
#     4  10  23  39  63  98 127 165 228 271 320 397
#     4  10  24  43  65  93 142 174 218 272 341 400
#     4  12  25  43  66 104 133 171 227 286 323 402
#     4  11  24  42  67 101 129 177 224 267 341 398
#     4   9  22  41  63  94 134 160 213 274 334 382
#     4  10  20  42  67  91 128 180 218 257 339 399
#     4   9  22  40  66  96 124 178 217 265 337 385
#     4  11  20  40  69  87 131 173 221 270 317 407
#
# _framework density 23.384627999999999
#
# number of rings (size 3 to 8) (size 9 to 14) (size 15 to 20)
#    0.750    1.000    2.500    0.750    3.500    7.000 
#    0.000    0.000    0.000    0.000    0.000    0.000 
#    0.000    0.000    0.000    0.000    0.000    0.000 
#
# Total GULP energy -178384.391948 kJ/mol
# GULP energy per Si atom -5574.512248 kJ/mol
# Density = 2.333140 g / cm^3
# Si number density = 23.384628 Si / 1000 Ang^3
#
#
#
# Elastic Constant Matrix: (Units=GPa)
#
#
# Indices 1 2 3 4 5 6 
#
# 1 81.4170 22.7297 25.1963 0.0000 0.0000 0.0000
# 2 22.7297 47.0129 -8.4635 0.0000 0.0000 0.0000
# 3 25.1963 -8.4635 101.2880 0.0000 0.0000 0.0000
# 4 0.0000 0.0000 0.0000 18.7762 0.0000 0.0000
# 5 0.0000 0.0000 0.0000 0.0000 45.2040 0.0000
# 6 0.0000 0.0000 0.0000 0.0000 0.0000 20.8135
#
#
#
# Elastic Compliance Matrix: (Units=1/GPa)
#
#
# Indices 1 2 3 4 5 6 
#
# 1 0.016174 -0.008674 -0.004748 0.000000 0.000000 0.000000
# 2 -0.008674 0.026248 0.004351 0.000000 0.000000 0.000000
# 3 -0.004748 0.004351 0.011418 0.000000 0.000000 0.000000
# 4 0.000000 0.000000 0.000000 0.053259 0.000000 0.000000
# 5 0.000000 0.000000 0.000000 0.000000 0.022122 0.000000
# 6 0.000000 0.000000 0.000000 0.000000 0.000000 0.048046
#
#
# Mechanical properties :
#
#
# Convention : Reuss Voigt Hill
#
# Bulk Modulus (GPa) = 28.01419 34.29363 31.15391
# Shear Modulus (GPa) = 24.11882 29.64244 26.88063
#
# Velocity S-wave (km/s) = 3.21502 3.56420 3.39411
# Velocity P-wave (km/s) = 5.07815 5.62450 5.35829
#
# Compressibility (1/GPa) = 0.03569620
#
# Stress axis : x y z
#
# Youngs Moduli (GPa) = 61.82946 38.09831 87.58451
#
# Poissons Ratio (x) = 0.33048 0.41586
# Poissons Ratio (y) = 0.53633 -0.38108
# Poissons Ratio (z) = 0.29357 -0.16577
#
# Static dielectric constant tensor:
#      x y z
#    x 1.890140 0.000000 0.000000 
#    y 0.000000 1.939110 0.000000 
#    z 0.000000 0.000000 1.931550 
# 
# From -- ./inp_files/4673.got.cif
#   From: 2010.05.17/outbox.cif.g08.bks.cpg/sg19_3_cif.got.tgz:4673.got - 2010.06.03 22:46:19.
