data_PCOD9314837
_publ_section_title
;
Structure prediction by ZEFSAII (Michael W. Deem and Ramdas Pophale) SiO2 
 PCOD9314837
Probable space group: P 21 21 21
;
_chemical_formula_sum "Si O2"
_cell_formula_units_Z 24
_cell_length_a 18.052591
_cell_length_b 4.959779
_cell_length_c 10.652314
_cell_angle_alpha 90.000000
_cell_angle_beta 90.000000
_cell_angle_gamma 90.000000
_cell_volume 953.774766
_symmetry_space_group_name_H-M "P 21 21 21"
_symmetry_group_IT_number 19
_symmetry_cell_setting 'orthorhombic'
loop_
_space_group_symop_operation_xyz
x,y,z
1/2-x,-y,1/2+z
1/2+x,1/2-y,-z
-x,1/2+y,1/2-z
loop_
_atom_site_type_symbol
_atom_site_label
_atom_site_fract_x
_atom_site_fract_y
_atom_site_fract_z
Si Si1 0.169039 0.279277 0.189315
Si Si2 0.734626 0.297252 0.334900
Si Si3 0.948507 0.144420 0.888886
Si Si4 0.979679 0.092393 0.331859
Si Si5 0.881998 0.549883 0.044169
Si Si6 0.404364 0.856036 0.285734
O O1 0.233964 0.500287 0.184123
O O2 0.097789 0.447431 0.142429
O O3 0.200591 0.006785 0.129435
O O4 0.149233 0.162806 0.326093
O O5 0.676273 0.338893 0.445798
O O6 0.685049 0.368085 0.210074
O O7 0.929953 0.393367 0.797229
O O8 0.038171 0.142947 0.901851
O O9 0.922522 0.901942 0.800855
O O10 0.899418 0.233424 0.010332
O O11 0.032290 0.153799 0.450767
O O12 0.023223 0.867024 0.247656
#
# Coordination Sequence:
#
# PCOD9314837 Si02
#       6
#     4   4   4   4   4   4
#     4  11  24  42  65 100 138 174 230 288 342 413
#     4  11  23  41  66  97 142 178 220 287 359 407
#     4   9  18  34  61  90 118 168 224 269 326 407
#     4  10  22  42  69  93 127 173 234 288 326 404
#     4  10  23  44  69  95 131 189 223 276 350 407
#     4   9  18  35  58  89 128 164 217 276 331 396
#
# _framework density 25.163174000000001
#
# number of rings (size 3 to 8) (size 9 to 14) (size 15 to 20)
#    0.000    2.000    0.000    4.000    0.000   12.000 
#    6.000    0.000    0.000    0.000    0.000    0.000 
#    0.000    0.000    0.000    0.000    0.000    0.000 
#
# Total GULP energy -133774.005686 kJ/mol
# GULP energy per Si atom -5573.916904 kJ/mol
# Density = 2.510590 g / cm^3
# Si number density = 25.163174 Si / 1000 Ang^3
#
#
#
# Elastic Constant Matrix: (Units=GPa)
#
#
# Indices 1 2 3 4 5 6 
#
# 1 82.3920 31.7317 50.9996 0.0000 0.0000 0.0000
# 2 31.7317 147.8294 16.4166 0.0000 0.0000 0.0000
# 3 50.9996 16.4166 55.5629 0.0000 0.0000 0.0000
# 4 0.0000 0.0000 0.0000 22.2689 0.0000 0.0000
# 5 0.0000 0.0000 0.0000 0.0000 42.5219 0.0000
# 6 0.0000 0.0000 0.0000 0.0000 0.0000 106.2193
#
#
#
# Elastic Compliance Matrix: (Units=1/GPa)
#
#
# Indices 1 2 3 4 5 6 
#
# 1 0.029727 -0.003465 -0.026262 0.000000 0.000000 0.000000
# 2 -0.003465 0.007398 0.000994 0.000000 0.000000 0.000000
# 3 -0.026262 0.000994 0.041809 0.000000 0.000000 0.000000
# 4 0.000000 0.000000 0.000000 0.044906 0.000000 0.000000
# 5 0.000000 0.000000 0.000000 0.000000 0.023517 0.000000
# 6 0.000000 0.000000 0.000000 0.000000 0.000000 0.009414
#
#
# Mechanical properties :
#
#
# Convention : Reuss Voigt Hill
#
# Bulk Modulus (GPa) = 46.57816 53.78669 50.18242
# Shear Modulus (GPa) = 22.58421 46.64444 34.61432
#
# Velocity S-wave (km/s) = 2.99910 4.31011 3.71292
# Velocity P-wave (km/s) = 5.52661 6.79639 6.19412
#
# Compressibility (1/GPa) = 0.02146929
#
# Stress axis : x y z
#
# Youngs Moduli (GPa) = 33.63891 135.17509 23.91813
#
# Poissons Ratio (x) = 0.46832 0.62815
# Poissons Ratio (y) = 0.11654 -0.02378
# Poissons Ratio (z) = 0.88344 -0.13440
#
# Static dielectric constant tensor:
#      x y z
#    x 2.129460 0.000000 0.000000 
#    y 0.000000 2.007470 0.000000 
#    z 0.000000 0.000000 2.095000 
# 
# From -- ./inp_files/5173.got.cif
#   From: 2010.05.17/outbox.cif.g08.bks.cpg/sg19_3_cif.got.tgz:5173.got - 2010.06.03 22:46:19.
