data_PCOD9314169
_publ_section_title
;
Structure prediction by ZEFSAII (Michael W. Deem and Ramdas Pophale) SiO2 
 PCOD9314169
Probable space group: P 21 21 21
;
_chemical_formula_sum "Si O2"
_cell_formula_units_Z 32
_cell_length_a 19.336771
_cell_length_b 13.243296
_cell_length_c 5.670301
_cell_angle_alpha 90.000000
_cell_angle_beta 90.000000
_cell_angle_gamma 90.000000
_cell_volume 1452.065321
_symmetry_space_group_name_H-M "P 21 21 21"
_symmetry_group_IT_number 19
_symmetry_cell_setting 'orthorhombic'
loop_
_space_group_symop_operation_xyz
x,y,z
1/2-x,-y,1/2+z
1/2+x,1/2-y,-z
-x,1/2+y,1/2-z
loop_
_atom_site_type_symbol
_atom_site_label
_atom_site_fract_x
_atom_site_fract_y
_atom_site_fract_z
Si Si1 0.291589 0.869238 0.658610
Si Si2 0.574919 0.577450 0.290238
Si Si3 0.940618 0.710542 0.469322
Si Si4 0.842704 0.273609 0.089403
Si Si5 0.421099 0.426547 0.958761
Si Si6 0.487711 0.724139 0.028610
Si Si7 0.701106 0.592295 0.983213
Si Si8 0.455571 0.447170 0.460544
O O1 0.366148 0.838818 0.571783
O O2 0.230194 0.811071 0.520981
O O3 0.285027 0.991122 0.658162
O O4 0.270623 0.852983 0.929889
O O5 0.593588 0.670574 0.459563
O O6 0.528512 0.621407 0.079643
O O7 0.532470 0.493166 0.427585
O O8 0.649141 0.551584 0.185459
O O9 0.943760 0.761777 0.728005
O O10 0.002965 0.628245 0.469949
O O11 0.953348 0.774527 0.229134
O O12 0.861063 0.157297 0.067649
O O13 0.839883 0.321337 0.346577
O O14 0.423444 0.482888 0.707650
O O15 0.415157 0.473979 0.219443
O O16 0.536270 0.825128 0.027352
#
# Coordination Sequence:
#
# PCOD9314169 Si02
#       8
#     4   4   4   4   4   4   4   4
#     4  11  24  35  55  89 124 175 202 247 309 394
#     4  11  23  36  64  89 125 167 201 262 321 367
#     4  10  21  36  58  78 122 156 205 247 296 347
#     4  11  23  38  58  84 133 168 203 249 315 377
#     4  10  21  40  56  84 119 158 209 255 290 364
#     4  10  21  38  57  88 120 156 205 257 300 366
#     4  11  22  36  52  87 131 166 209 237 311 399
#     4  10  21  35  58  89 116 158 202 254 306 356
#
# _framework density 22.037576000000001
#
# number of rings (size 3 to 8) (size 9 to 14) (size 15 to 20)
#    0.000    1.500    3.750    3.000    8.750    0.000 
#    0.000    0.000    0.000    0.000    0.000    3.500 
#    0.000    0.000    0.000    0.000    0.000    0.000 
#
# Total GULP energy -178412.348803 kJ/mol
# GULP energy per Si atom -5575.385900 kJ/mol
# Density = 2.198742 g / cm^3
# Si number density = 22.037576 Si / 1000 Ang^3
#
#
#
# Elastic Constant Matrix: (Units=GPa)
#
#
# Indices 1 2 3 4 5 6 
#
# 1 56.0879 6.5544 3.8204 0.0000 0.0000 0.0000
# 2 6.5544 32.9050 1.0604 0.0000 0.0000 0.0000
# 3 3.8204 1.0604 131.4004 0.0000 0.0000 0.0000
# 4 0.0000 0.0000 0.0000 16.8361 0.0000 0.0000
# 5 0.0000 0.0000 0.0000 0.0000 27.4158 0.0000
# 6 0.0000 0.0000 0.0000 0.0000 0.0000 25.7086
#
#
#
# Elastic Compliance Matrix: (Units=1/GPa)
#
#
# Indices 1 2 3 4 5 6 
#
# 1 0.018287 -0.003626 -0.000502 0.000000 0.000000 0.000000
# 2 -0.003626 0.031118 -0.000146 0.000000 0.000000 0.000000
# 3 -0.000502 -0.000146 0.007626 0.000000 0.000000 0.000000
# 4 0.000000 0.000000 0.000000 0.059396 0.000000 0.000000
# 5 0.000000 0.000000 0.000000 0.000000 0.036475 0.000000
# 6 0.000000 0.000000 0.000000 0.000000 0.000000 0.038897
#
#
# Mechanical properties :
#
#
# Convention : Reuss Voigt Hill
#
# Bulk Modulus (GPa) = 20.62632 27.02930 23.82781
# Shear Modulus (GPa) = 23.09366 27.92263 25.50814
#
# Velocity S-wave (km/s) = 3.24067 3.56342 3.40587
# Velocity P-wave (km/s) = 4.83555 5.40577 5.12859
#
# Compressibility (1/GPa) = 0.04848174
#
# Stress axis : x y z
#
# Youngs Moduli (GPa) = 54.68311 32.13613 131.12844
#
# Poissons Ratio (x) = 0.11654 0.06588
# Poissons Ratio (y) = 0.19831 0.01910
# Poissons Ratio (z) = 0.02747 0.00468
#
# Static dielectric constant tensor:
#      x y z
#    x 1.799270 0.000000 0.000000 
#    y 0.000000 1.825070 0.000000 
#    z 0.000000 0.000000 2.001760 
# 
# From -- ./inp_files/1549.got.cif
#   From: 2010.05.17/outbox.cif.g08.bks.cpg/sg19_1_cif.got.tgz:1549.got - 2010.06.03 22:46:19.
