data_PCOD9314857
_publ_section_title
;
Structure prediction by ZEFSAII (Michael W. Deem and Ramdas Pophale) SiO2 
 PCOD9314857
Probable space group: P 21 21 21
;
_chemical_formula_sum "Si O2"
_cell_formula_units_Z 32
_cell_length_a 14.985168
_cell_length_b 6.714544
_cell_length_c 14.569565
_cell_angle_alpha 90.000000
_cell_angle_beta 90.000000
_cell_angle_gamma 90.000000
_cell_volume 1465.968794
_symmetry_space_group_name_H-M "P 21 21 21"
_symmetry_group_IT_number 19
_symmetry_cell_setting 'orthorhombic'
loop_
_space_group_symop_operation_xyz
x,y,z
1/2-x,-y,1/2+z
1/2+x,1/2-y,-z
-x,1/2+y,1/2-z
loop_
_atom_site_type_symbol
_atom_site_label
_atom_site_fract_x
_atom_site_fract_y
_atom_site_fract_z
Si Si1 0.925714 0.679572 0.362032
Si Si2 0.567864 0.035793 0.031530
Si Si3 0.903372 0.038920 0.233526
Si Si4 0.253262 0.492476 0.387511
Si Si5 0.360780 0.236476 0.246227
Si Si6 0.178892 0.451440 0.591104
Si Si7 0.947409 0.627642 0.824455
Si Si8 0.137064 0.775481 0.100454
O O1 0.946333 0.824273 0.445737
O O2 0.895551 0.820543 0.278595
O O3 0.856990 0.510972 0.393443
O O4 0.015026 0.564460 0.334768
O O5 0.656807 0.106331 0.084063
O O6 0.484079 0.019162 0.096504
O O7 0.594447 0.816860 0.991688
O O8 0.812849 0.095618 0.182729
O O9 0.920621 0.190943 0.315832
O O10 0.295114 0.305010 0.329440
O O11 0.194239 0.467339 0.480754
O O12 0.327844 0.349074 0.153222
O O13 0.461779 0.313234 0.270990
O O14 0.375767 0.001044 0.232354
O O15 0.269229 0.333160 0.614731
O O16 0.097432 0.315548 0.625921
#
# Coordination Sequence:
#
# PCOD9314857 Si02
#       8
#     4   4   4   4   4   4   4   4
#     4  11  23  40  65  94 128 174 217 271 334 397
#     4   9  24  44  61  95 133 166 220 279 329 394
#     4  11  22  40  65  93 128 172 216 269 332 398
#     4  10  24  44  67  94 139 174 218 288 331 394
#     4  11  23  46  68  99 139 174 225 285 337 403
#     4  11  24  43  67 100 135 177 224 278 343 401
#     4  11  24  42  70  99 129 180 225 274 340 404
#     4  10  22  43  63  92 133 167 217 276 328 399
#
# _framework density 21.828568000000001
#
# number of rings (size 3 to 8) (size 9 to 14) (size 15 to 20)
#    0.000    1.500    3.750    0.000    5.250    0.000 
#    2.250    2.500    0.000    0.000    0.000    0.000 
#    0.000    0.000    0.000    0.000    0.000    0.000 
#
# Total GULP energy -178484.949536 kJ/mol
# GULP energy per Si atom -5577.654673 kJ/mol
# Density = 2.177888 g / cm^3
# Si number density = 21.828568 Si / 1000 Ang^3
#
#
#
# Elastic Constant Matrix: (Units=GPa)
#
#
# Indices 1 2 3 4 5 6 
#
# 1 40.0808 -4.9079 14.6543 0.0000 0.0000 0.0000
# 2 -4.9079 63.8936 18.3866 0.0000 0.0000 0.0000
# 3 14.6543 18.3866 99.4350 0.0000 0.0000 0.0000
# 4 0.0000 0.0000 0.0000 9.6940 0.0000 0.0000
# 5 0.0000 0.0000 0.0000 0.0000 40.2192 0.0000
# 6 0.0000 0.0000 0.0000 0.0000 0.0000 25.0739
#
#
#
# Elastic Compliance Matrix: (Units=1/GPa)
#
#
# Indices 1 2 3 4 5 6 
#
# 1 0.027055 0.003407 -0.004617 0.000000 0.000000 0.000000
# 2 0.003407 0.016960 -0.003638 0.000000 0.000000 0.000000
# 3 -0.004617 -0.003638 0.011410 0.000000 0.000000 0.000000
# 4 0.000000 0.000000 0.000000 0.103157 0.000000 0.000000
# 5 0.000000 0.000000 0.000000 0.000000 0.024864 0.000000
# 6 0.000000 0.000000 0.000000 0.000000 0.000000 0.039882
#
#
# Mechanical properties :
#
#
# Convention : Reuss Voigt Hill
#
# Bulk Modulus (GPa) = 21.86860 28.85283 25.36072
# Shear Modulus (GPa) = 20.13965 26.68251 23.41108
#
# Velocity S-wave (km/s) = 3.04077 3.50003 3.27845
# Velocity P-wave (km/s) = 4.72954 5.43877 5.09650
#
# Compressibility (1/GPa) = 0.04572766
#
# Stress axis : x y z
#
# Youngs Moduli (GPa) = 36.96187 58.96350 87.64234
#
# Poissons Ratio (x) = -0.20088 0.40466
# Poissons Ratio (y) = -0.12592 0.31885
# Poissons Ratio (z) = 0.17066 0.21452
#
# Static dielectric constant tensor:
#      x y z
#    x 1.815650 0.000000 0.000000 
#    y 0.000000 1.818080 0.000000 
#    z 0.000000 0.000000 1.851000 
# 
# From -- ./inp_files/6293.got.cif
#   From: 2010.05.17/outbox.cif.g08.bks.cpg/sg19_4_cif.got.tgz:6293.got - 2010.06.03 22:46:19.
