data_PCOD9314086
_publ_section_title
;
Structure prediction by ZEFSAII (Michael W. Deem and Ramdas Pophale) SiO2 
 PCOD9314086
Probable space group: P 21 21 21
;
_chemical_formula_sum "Si O2"
_cell_formula_units_Z 28
_cell_length_a 5.402415
_cell_length_b 17.912278
_cell_length_c 12.987472
_cell_angle_alpha 90.000000
_cell_angle_beta 90.000000
_cell_angle_gamma 90.000000
_cell_volume 1256.791943
_symmetry_space_group_name_H-M "P 21 21 21"
_symmetry_group_IT_number 19
_symmetry_cell_setting 'orthorhombic'
loop_
_space_group_symop_operation_xyz
x,y,z
1/2-x,-y,1/2+z
1/2+x,1/2-y,-z
-x,1/2+y,1/2-z
loop_
_atom_site_type_symbol
_atom_site_label
_atom_site_fract_x
_atom_site_fract_y
_atom_site_fract_z
Si Si1 0.438938 0.320529 0.414135
Si Si2 0.481470 0.608696 0.657026
Si Si3 0.723459 0.255513 0.933235
Si Si4 0.051174 0.834932 0.956386
Si Si5 0.303363 0.917678 0.549203
Si Si6 0.164294 0.053743 0.696122
Si Si7 0.409996 0.500931 0.106138
O O1 0.469812 0.234947 0.377992
O O2 0.169442 0.318059 0.464080
O O3 0.452079 0.390069 0.338835
O O4 0.675220 0.338167 0.491250
O O5 0.322810 0.684318 0.640356
O O6 0.646709 0.605008 0.552454
O O7 0.616496 0.608845 0.767115
O O8 0.342807 0.529231 0.651982
O O9 0.687750 0.339779 0.889108
O O10 0.498681 0.252132 0.017978
O O11 0.962885 0.914105 0.915954
O O12 0.206493 0.988142 0.614332
O O13 0.550957 0.950597 0.496358
O O14 0.100601 0.017538 0.804190
#
# Coordination Sequence:
#
# PCOD9314086 Si02
#       7
#     4   4   4   4   4   4   4
#     4  10  22  43  67  94 125 177 214 266 322 389
#     4  10  23  40  63  94 133 168 220 269 325 388
#     4  10  20  41  67  92 123 172 213 261 326 382
#     4  10  22  42  70  91 127 173 220 258 327 387
#     4  10  21  42  66  89 130 174 214 264 328 391
#     4  11  24  40  63  99 130 172 218 275 326 380
#     4  11  22  40  64  95 128 172 217 273 318 393
#
# _framework density 22.278949000000001
#
# number of rings (size 3 to 8) (size 9 to 14) (size 15 to 20)
#    0.000    1.714    2.857    0.857    4.000    1.143 
#    5.143    0.000    0.000    0.000    0.000    0.000 
#    0.000    0.000    0.000    0.000    0.000    0.000 
#
# Total GULP energy -155874.003930 kJ/mol
# GULP energy per Si atom -5566.928712 kJ/mol
# Density = 2.222824 g / cm^3
# Si number density = 22.278949 Si / 1000 Ang^3
#
#
#
# Elastic Constant Matrix: (Units=GPa)
#
#
# Indices 1 2 3 4 5 6 
#
# 1 58.8716 -16.9070 1.8302 0.0000 0.0000 0.0000
# 2 -16.9070 147.9158 31.8559 0.0000 0.0000 0.0000
# 3 1.8302 31.8559 27.8015 0.0000 0.0000 0.0000
# 4 0.0000 0.0000 0.0000 12.5895 0.0000 0.0000
# 5 0.0000 0.0000 0.0000 0.0000-3283.9381 0.0000
# 6 0.0000 0.0000 0.0000 0.0000 0.0000 -261.6476
#
#
#
# Elastic Compliance Matrix: (Units=1/GPa)
#
#
# Indices 1 2 3 4 5 6 
#
# 1 0.018015 0.003073 -0.004707 0.000000 0.000000 0.000000
# 2 0.003073 0.009500 -0.011087 0.000000 0.000000 0.000000
# 3 -0.004707 -0.011087 0.048983 0.000000 0.000000 0.000000
# 4 0.000000 0.000000 0.000000 0.079431 0.000000 0.000000
# 5 0.000000 0.000000 0.000000 0.000000 -0.000305 0.000000
# 6 0.000000 0.000000 0.000000 0.000000 0.000000 -0.003822
#
#
# Mechanical properties :
#
#
# Convention : Reuss Voigt Hill
#
# Bulk Modulus (GPa) = 19.58666 29.79412 24.69039
# Shear Modulus (GPa) = 25.73821 -692.07858 -333.17018
#
# Velocity S-wave (km/s) = 3.40261 -17.64417 -12.24212
# Velocity P-wave (km/s) = 4.92419 20.04212 13.73752
#
# Compressibility (1/GPa) = 0.05105515
#
# Stress axis : x y z
#
# Youngs Moduli (GPa) = 55.50955 105.26705 20.41513
#
# Poissons Ratio (x) = -0.32347 0.09609
# Poissons Ratio (y) = -0.17057 0.22635
# Poissons Ratio (z) = 0.26128 1.16713
#
# Static dielectric constant tensor:
#      x y z
#    x 1.935720 0.000000 0.000000 
#    y 0.000000 1.899760 0.000000 
#    z 0.000000 0.000000 3.120490 
# 
# From -- ./inp_files/1036.got.cif
#   From: 2010.05.17/outbox.cif.g08.bks.cpg/sg19_1_cif.got.tgz:1036.got - 2010.06.03 22:46:19.
