data_PCOD9314458
_publ_section_title
;
Structure prediction by ZEFSAII (Michael W. Deem and Ramdas Pophale) SiO2 
 PCOD9314458
Probable space group: P 21 21 21
;
_chemical_formula_sum "Si O2"
_cell_formula_units_Z 28
_cell_length_a 11.534530
_cell_length_b 5.444667
_cell_length_c 19.777027
_cell_angle_alpha 90.000000
_cell_angle_beta 90.000000
_cell_angle_gamma 90.000000
_cell_volume 1242.030419
_symmetry_space_group_name_H-M "P 21 21 21"
_symmetry_group_IT_number 19
_symmetry_cell_setting 'orthorhombic'
loop_
_space_group_symop_operation_xyz
x,y,z
1/2-x,-y,1/2+z
1/2+x,1/2-y,-z
-x,1/2+y,1/2-z
loop_
_atom_site_type_symbol
_atom_site_label
_atom_site_fract_x
_atom_site_fract_y
_atom_site_fract_z
Si Si1 0.699912 0.802836 0.327126
Si Si2 0.586742 0.288495 0.925958
Si Si3 0.225844 0.442752 0.964658
Si Si4 0.437085 0.802309 0.143418
Si Si5 0.541348 0.206307 0.507980
Si Si6 0.640649 0.572936 0.609527
Si Si7 0.303848 0.264814 0.322813
O O1 0.808083 0.723397 0.373786
O O2 0.617139 0.559297 0.330350
O O3 0.733956 0.863124 0.249737
O O4 0.641219 0.057951 0.350414
O O5 0.563245 0.525462 0.972870
O O6 0.465301 0.263148 0.884444
O O7 0.622126 0.081945 0.982058
O O8 0.338037 0.555887 0.999942
O O9 0.269272 0.170924 0.945915
O O10 0.211700 0.572486 0.891269
O O11 0.557849 0.733921 0.179857
O O12 0.466441 0.837038 0.064102
O O13 0.569737 0.355468 0.575326
O O14 0.723538 0.475630 0.667614
#
# Coordination Sequence:
#
# PCOD9314458 Si02
#       7
#     4   4   4   4   4   4   4
#     4  12  29  47  72 108 150 198 245 310 377 445
#     4  11  23  43  72 107 148 186 254 306 376 444
#     4  10  21  41  70 101 140 186 242 305 366 438
#     4  12  26  46  75 105 145 190 249 309 372 444
#     4  10  22  40  69 107 136 187 242 302 374 427
#     4  10  23  42  68 102 141 194 240 302 373 441
#     4  11  26  45  70 102 146 195 252 300 378 453
#
# _framework density 22.543733
#
# number of rings (size 3 to 8) (size 9 to 14) (size 15 to 20)
#    0.000    1.143    1.429    3.429   10.000    2.286 
#    7.714    0.000    0.000    0.000    0.000    0.000 
#    0.000    0.000    0.000    0.000    0.000    0.000 
#
# Total GULP energy -156010.451497 kJ/mol
# GULP energy per Si atom -5571.801839 kJ/mol
# Density = 2.249242 g / cm^3
# Si number density = 22.543733 Si / 1000 Ang^3
#
#
#
# Elastic Constant Matrix: (Units=GPa)
#
#
# Indices 1 2 3 4 5 6 
#
# 1 61.5538 4.1983 1.6370 0.0000 0.0000 0.0000
# 2 4.1983 52.5175 -2.2394 0.0000 0.0000 0.0000
# 3 1.6370 -2.2394 90.9497 0.0000 0.0000 0.0000
# 4 0.0000 0.0000 0.0000 30.1209 0.0000 0.0000
# 5 0.0000 0.0000 0.0000 0.0000 18.3169 0.0000
# 6 0.0000 0.0000 0.0000 0.0000 0.0000 15.6893
#
#
#
# Elastic Compliance Matrix: (Units=1/GPa)
#
#
# Indices 1 2 3 4 5 6 
#
# 1 0.016345 -0.001321 -0.000327 0.000000 0.000000 0.000000
# 2 -0.001321 0.019168 0.000496 0.000000 0.000000 0.000000
# 3 -0.000327 0.000496 0.011013 0.000000 0.000000 0.000000
# 4 0.000000 0.000000 0.000000 0.033200 0.000000 0.000000
# 5 0.000000 0.000000 0.000000 0.000000 0.054594 0.000000
# 6 0.000000 0.000000 0.000000 0.000000 0.000000 0.063738
#
#
# Mechanical properties :
#
#
# Convention : Reuss Voigt Hill
#
# Bulk Modulus (GPa) = 22.61276 23.57920 23.09598
# Shear Modulus (GPa) = 23.24485 26.25377 24.74931
#
# Velocity S-wave (km/s) = 3.21456 3.41628 3.31695
# Velocity P-wave (km/s) = 4.88162 5.10327 4.99368
#
# Compressibility (1/GPa) = 0.04422283
#
# Stress axis : x y z
#
# Youngs Moduli (GPa) = 61.18189 52.17033 90.80034
#
# Poissons Ratio (x) = 0.06889 0.02966
# Poissons Ratio (y) = 0.08079 -0.04501
# Poissons Ratio (z) = 0.01999 -0.02586
#
# Static dielectric constant tensor:
#      x y z
#    x 1.901400 0.000000 0.000000 
#    y 0.000000 2.032080 0.000000 
#    z 0.000000 0.000000 1.894940 
# 
# From -- ./inp_files/1102.got.cif
#   From: 2010.05.17/outbox.cif.g08.bks.cpg/sg19_1_cif.got.tgz:1102.got - 2010.06.03 22:46:19.
