data_PCOD9314379
_publ_section_title
;
Structure prediction by ZEFSAII (Michael W. Deem and Ramdas Pophale) SiO2 
 PCOD9314379
Probable space group: P 21 21 21
;
_chemical_formula_sum "Si O2"
_cell_formula_units_Z 24
_cell_length_a 17.336290
_cell_length_b 4.802770
_cell_length_c 11.289244
_cell_angle_alpha 90.000000
_cell_angle_beta 90.000000
_cell_angle_gamma 90.000000
_cell_volume 939.967444
_symmetry_space_group_name_H-M "P 21 21 21"
_symmetry_group_IT_number 19
_symmetry_cell_setting 'orthorhombic'
loop_
_space_group_symop_operation_xyz
x,y,z
1/2-x,-y,1/2+z
1/2+x,1/2-y,-z
-x,1/2+y,1/2-z
loop_
_atom_site_type_symbol
_atom_site_label
_atom_site_fract_x
_atom_site_fract_y
_atom_site_fract_z
Si Si1 0.408956 0.618888 0.320764
Si Si2 0.015128 0.763512 0.384612
Si Si3 0.500870 0.123722 0.406090
Si Si4 0.819398 0.288450 0.080932
Si Si5 0.278791 0.322866 0.462793
Si Si6 0.616262 0.859729 0.821854
O O1 0.429933 0.934530 0.354836
O O2 0.428366 0.576432 0.183130
O O3 0.330312 0.492873 0.368247
O O4 0.473771 0.437956 0.389947
O O5 0.013224 0.480760 0.461816
O O6 0.093494 0.893226 0.444706
O O7 0.045203 0.781690 0.248707
O O8 0.928071 0.876048 0.376854
O O9 0.764552 0.554059 0.085832
O O10 0.782932 0.056536 0.995659
O O11 0.828756 0.124106 0.206854
O O12 0.334245 0.236900 0.571666
#
# Coordination Sequence:
#
# PCOD9314379 Si02
#       6
#     4   4   4   4   4   4
#     4  10  22  38  67 101 137 187 228 290 361 436
#     4  10  24  46  73 111 135 194 249 312 346 430
#     4  10  21  40  66 102 134 177 243 294 352 419
#     4  10  29  42  69 108 142 189 236 297 371 426
#     4  12  24  48  68 104 148 191 233 298 378 433
#     4  10  26  44  81 104 148 190 253 301 364 432
#
# _framework density 25.532796000000001
#
# number of rings (size 3 to 8) (size 9 to 14) (size 15 to 20)
#    1.000    0.667    1.667    1.000    4.667    5.333 
#    0.000    0.000    0.000    0.000    0.000    0.000 
#    0.000    0.000    0.000    0.000    0.000    0.000 
#
# Total GULP energy -133849.281587 kJ/mol
# GULP energy per Si atom -5577.053399 kJ/mol
# Density = 2.547468 g / cm^3
# Si number density = 25.532796 Si / 1000 Ang^3
#
#
#
# Elastic Constant Matrix: (Units=GPa)
#
#
# Indices 1 2 3 4 5 6 
#
# 1 118.7025 43.7940 49.2402 0.0000 0.0000 0.0000
# 2 43.7940 78.4066 12.6572 0.0000 0.0000 0.0000
# 3 49.2402 12.6572 116.6678 0.0000 0.0000 0.0000
# 4 0.0000 0.0000 0.0000 31.1110 0.0000 0.0000
# 5 0.0000 0.0000 0.0000 0.0000 44.3380 0.0000
# 6 0.0000 0.0000 0.0000 0.0000 0.0000 41.3097
#
#
#
# Elastic Compliance Matrix: (Units=1/GPa)
#
#
# Indices 1 2 3 4 5 6 
#
# 1 0.012702 -0.006340 -0.004673 0.000000 0.000000 0.000000
# 2 -0.006340 0.016146 0.000924 0.000000 0.000000 0.000000
# 3 -0.004673 0.000924 0.010443 0.000000 0.000000 0.000000
# 4 0.000000 0.000000 0.000000 0.032143 0.000000 0.000000
# 5 0.000000 0.000000 0.000000 0.000000 0.022554 0.000000
# 6 0.000000 0.000000 0.000000 0.000000 0.000000 0.024207
#
#
# Mechanical properties :
#
#
# Convention : Reuss Voigt Hill
#
# Bulk Modulus (GPa) = 52.31953 58.35107 55.33530
# Shear Modulus (GPa) = 34.54333 37.22412 35.88372
#
# Velocity S-wave (km/s) = 3.68217 3.82238 3.75293
# Velocity P-wave (km/s) = 6.21397 6.51028 6.36385
#
# Compressibility (1/GPa) = 0.01911332
#
# Stress axis : x y z
#
# Youngs Moduli (GPa) = 78.72675 61.93383 95.75441
#
# Poissons Ratio (x) = 0.39269 0.44747
# Poissons Ratio (y) = 0.49916 -0.08851
# Poissons Ratio (z) = 0.36790 -0.05725
#
# Static dielectric constant tensor:
#      x y z
#    x 2.101940 0.000000 0.000000 
#    y 0.000000 2.079210 0.000000 
#    z 0.000000 0.000000 2.062800 
# 
# From -- ./inp_files/5325.got.cif
#   From: 2010.05.17/outbox.cif.g08.bks.cpg/sg19_3_cif.got.tgz:5325.got - 2010.06.03 22:46:19.
