data_PCOD9314068
_publ_section_title
;
Structure prediction by ZEFSAII (Michael W. Deem and Ramdas Pophale) SiO2 
 PCOD9314068
Probable space group: P 21 21 21
;
_chemical_formula_sum "Si O2"
_cell_formula_units_Z 20
_cell_length_a 9.113486
_cell_length_b 7.133603
_cell_length_c 11.605890
_cell_angle_alpha 90.000000
_cell_angle_beta 90.000000
_cell_angle_gamma 90.000000
_cell_volume 754.522017
_symmetry_space_group_name_H-M "P 21 21 21"
_symmetry_group_IT_number 19
_symmetry_cell_setting 'orthorhombic'
loop_
_space_group_symop_operation_xyz
x,y,z
1/2-x,-y,1/2+z
1/2+x,1/2-y,-z
-x,1/2+y,1/2-z
loop_
_atom_site_type_symbol
_atom_site_label
_atom_site_fract_x
_atom_site_fract_y
_atom_site_fract_z
Si Si1 0.523457 0.300729 0.789017
Si Si2 0.859386 0.913039 0.079380
Si Si3 0.440890 0.529365 0.509612
Si Si4 0.511960 0.394355 0.122637
Si Si5 0.322617 0.061863 0.162597
O O1 0.378135 0.399431 0.839309
O O2 0.650274 0.444826 0.830980
O O3 0.570457 0.247526 0.659276
O O4 0.541786 0.106229 0.861374
O O5 0.693032 0.899367 0.031417
O O6 0.955936 0.952845 0.966332
O O7 0.405624 0.729515 0.445366
O O8 0.596750 0.482084 0.450053
O O9 0.368003 0.281863 0.166788
O O10 0.603649 0.469041 0.227595
#
# Coordination Sequence:
#
# PCOD9314068 Si02
#       5
#     4   4   4   4   4
#     4  11  22  41  62  86 129 156 201 251 305 349
#     4  11  23  41  60  94 120 160 200 255 295 360
#     4   9  20  39  65  82 121 159 196 246 301 356
#     4   9  21  38  62  87 120 155 204 237 301 363
#     4  10  20  41  63  87 120 162 197 247 298 364
#
# _framework density 26.506848999999999
#
# number of rings (size 3 to 8) (size 9 to 14) (size 15 to 20)
#    1.200    0.800    2.000    1.200    2.800    0.000 
#    7.200    0.000    0.000    0.000    0.000    0.000 
#    0.000    0.000    0.000    0.000    0.000    0.000 
#
# Total GULP energy -111775.221300 kJ/mol
# GULP energy per Si atom -5588.761065 kJ/mol
# Density = 2.644652 g / cm^3
# Si number density = 26.506849 Si / 1000 Ang^3
#
#
#
# Elastic Constant Matrix: (Units=GPa)
#
#
# Indices 1 2 3 4 5 6 
#
# 1 92.1342 11.1905 -10.8359 0.0000 0.0000 0.0000
# 2 11.1905 65.9043 0.1396 0.0000 0.0000 0.0000
# 3 -10.8359 0.1396 101.3803 0.0000 0.0000 0.0000
# 4 0.0000 0.0000 0.0000 50.9726 0.0000 0.0000
# 5 0.0000 0.0000 0.0000 0.0000 19.3367 0.0000
# 6 0.0000 0.0000 0.0000 0.0000 0.0000 36.1173
#
#
#
# Elastic Compliance Matrix: (Units=1/GPa)
#
#
# Indices 1 2 3 4 5 6 
#
# 1 0.011227 -0.001909 0.001203 0.000000 0.000000 0.000000
# 2 -0.001909 0.015498 -0.000225 0.000000 0.000000 0.000000
# 3 0.001203 -0.000225 0.009993 0.000000 0.000000 0.000000
# 4 0.000000 0.000000 0.000000 0.019618 0.000000 0.000000
# 5 0.000000 0.000000 0.000000 0.000000 0.051715 0.000000
# 6 0.000000 0.000000 0.000000 0.000000 0.000000 0.027688
#
#
# Mechanical properties :
#
#
# Convention : Reuss Voigt Hill
#
# Bulk Modulus (GPa) = 28.69065 28.93413 28.81239
# Shear Modulus (GPa) = 33.50747 38.54696 36.02722
#
# Velocity S-wave (km/s) = 3.55928 3.81757 3.69069
# Velocity P-wave (km/s) = 5.26675 5.51101 5.39026
#
# Compressibility (1/GPa) = 0.03485456
#
# Stress axis : x y z
#
# Youngs Moduli (GPa) = 89.07083 64.52394 100.07305
#
# Poissons Ratio (x) = 0.12317 -0.12035
# Poissons Ratio (y) = 0.17003 0.02255
# Poissons Ratio (z) = -0.10712 0.01454
#
# Static dielectric constant tensor:
#      x y z
#    x 2.075340 0.000000 0.000000 
#    y 0.000000 2.130850 0.000000 
#    z 0.000000 0.000000 2.096350 
# 
# From -- ./inp_files/3291.got.cif
#   From: 2010.05.17/outbox.cif.g08.bks.cpg/sg19_2_cif.got.tgz:3291.got - 2010.06.03 22:46:19.
