data_PCOD9314579
_publ_section_title
;
Structure prediction by ZEFSAII (Michael W. Deem and Ramdas Pophale) SiO2 
 PCOD9314579
Probable space group: P 21 21 21
;
_chemical_formula_sum "Si O2"
_cell_formula_units_Z 32
_cell_length_a 5.268717
_cell_length_b 12.360648
_cell_length_c 22.747149
_cell_angle_alpha 90.000000
_cell_angle_beta 90.000000
_cell_angle_gamma 90.000000
_cell_volume 1481.402534
_symmetry_space_group_name_H-M "P 21 21 21"
_symmetry_group_IT_number 19
_symmetry_cell_setting 'orthorhombic'
loop_
_space_group_symop_operation_xyz
x,y,z
1/2-x,-y,1/2+z
1/2+x,1/2-y,-z
-x,1/2+y,1/2-z
loop_
_atom_site_type_symbol
_atom_site_label
_atom_site_fract_x
_atom_site_fract_y
_atom_site_fract_z
Si Si1 0.103173 0.911939 0.857842
Si Si2 0.707080 0.041940 0.091423
Si Si3 0.469337 0.687262 0.727688
Si Si4 0.620946 0.450235 0.251950
Si Si5 0.877000 0.961337 0.374609
Si Si6 0.584941 0.181856 0.985030
Si Si7 0.693105 0.397621 0.841110
Si Si8 0.267266 0.328226 0.343448
O O1 0.107982 0.783400 0.863535
O O2 0.062354 0.948920 0.789960
O O3 0.373958 0.963567 0.874977
O O4 0.871720 0.970197 0.890637
O O5 0.472884 0.088733 0.130924
O O6 0.972148 0.095365 0.110826
O O7 0.753253 0.914580 0.104154
O O8 0.634819 0.077642 0.026320
O O9 0.759181 0.650096 0.716185
O O10 0.339221 0.589222 0.690696
O O11 0.360288 0.792213 0.696860
O O12 0.456361 0.706352 0.798240
O O13 0.832665 0.501902 0.295929
O O14 0.424605 0.396838 0.295674
O O15 0.914637 0.861673 0.418783
O O16 0.319863 0.237599 0.002544
#
# Coordination Sequence:
#
# PCOD9314579 Si02
#       8
#     4   4   4   4   4   4   4   4
#     4  11  24  40  60  93 133 170 211 261 321 381
#     4  11  25  43  64  96 124 166 221 269 313 388
#     4  11  21  35  60  88 129 167 208 253 323 383
#     4  10  22  35  57  89 131 169 213 249 308 389
#     4  11  25  42  62  96 127 168 216 273 319 381
#     4  12  25  48  74  96 125 166 217 277 329 375
#     4  11  23  37  61  94 128 163 207 261 319 375
#     4  11  23  38  62  90 131 175 207 255 320 386
#
# _framework density 21.601148999999999
#
# number of rings (size 3 to 8) (size 9 to 14) (size 15 to 20)
#    0.000    1.000    3.750    3.000    3.500    1.000 
#    0.000    1.250    0.000    0.000    0.000    0.000 
#    0.000    0.000    0.000    0.000    0.000    0.000 
#
# Total GULP energy -178444.170021 kJ/mol
# GULP energy per Si atom -5576.380313 kJ/mol
# Density = 2.155198 g / cm^3
# Si number density = 21.601149 Si / 1000 Ang^3
#
#
#
# Elastic Constant Matrix: (Units=GPa)
#
#
# Indices 1 2 3 4 5 6 
#
# 1 78.9137 28.8572 -3.2344 0.0000 0.0000 0.0000
# 2 28.8572 79.8129 20.2112 0.0000 0.0000 0.0000
# 3 -3.2344 20.2112 52.7768 0.0000 0.0000 0.0000
# 4 0.0000 0.0000 0.0000 29.7953 0.0000 0.0000
# 5 0.0000 0.0000 0.0000 0.0000 22.8841 0.0000
# 6 0.0000 0.0000 0.0000 0.0000 0.0000 20.2662
#
#
#
# Elastic Compliance Matrix: (Units=1/GPa)
#
#
# Indices 1 2 3 4 5 6 
#
# 1 0.015118 -0.006313 0.003344 0.000000 0.000000 0.000000
# 2 -0.006313 0.016511 -0.006710 0.000000 0.000000 0.000000
# 3 0.003344 -0.006710 0.021722 0.000000 0.000000 0.000000
# 4 0.000000 0.000000 0.000000 0.033562 0.000000 0.000000
# 5 0.000000 0.000000 0.000000 0.000000 0.043698 0.000000
# 6 0.000000 0.000000 0.000000 0.000000 0.000000 0.049343
#
#
# Mechanical properties :
#
#
# Convention : Reuss Voigt Hill
#
# Bulk Modulus (GPa) = 29.41737 33.68572 31.55154
# Shear Modulus (GPa) = 23.73686 25.63376 24.68531
#
# Velocity S-wave (km/s) = 3.31852 3.44857 3.38417
# Velocity P-wave (km/s) = 5.32273 5.61116 5.46884
#
# Compressibility (1/GPa) = 0.03399352
#
# Stress axis : x y z
#
# Youngs Moduli (GPa) = 66.14828 60.56616 46.03578
#
# Poissons Ratio (x) = 0.38234 -0.15394
# Poissons Ratio (y) = 0.41757 0.30889
# Poissons Ratio (z) = -0.22120 0.40639
#
# Static dielectric constant tensor:
#      x y z
#    x 1.907460 0.000000 0.000000 
#    y 0.000000 1.843710 0.000000 
#    z 0.000000 0.000000 1.858870 
# 
# From -- ./inp_files/1202.got.cif
#   From: 2010.05.17/outbox.cif.g08.bks.cpg/sg19_1_cif.got.tgz:1202.got - 2010.06.03 22:46:19.
