data_PCOD9314321
_publ_section_title
;
Structure prediction by ZEFSAII (Michael W. Deem and Ramdas Pophale) SiO2 
 PCOD9314321
Probable space group: P 21 21 21
;
_chemical_formula_sum "Si O2"
_cell_formula_units_Z 28
_cell_length_a 5.145630
_cell_length_b 14.306604
_cell_length_c 16.904546
_cell_angle_alpha 90.000000
_cell_angle_beta 90.000000
_cell_angle_gamma 90.000000
_cell_volume 1244.453354
_symmetry_space_group_name_H-M "P 21 21 21"
_symmetry_group_IT_number 19
_symmetry_cell_setting 'orthorhombic'
loop_
_space_group_symop_operation_xyz
x,y,z
1/2-x,-y,1/2+z
1/2+x,1/2-y,-z
-x,1/2+y,1/2-z
loop_
_atom_site_type_symbol
_atom_site_label
_atom_site_fract_x
_atom_site_fract_y
_atom_site_fract_z
Si Si1 0.372163 0.281956 0.197213
Si Si2 0.720289 0.079021 0.934447
Si Si3 0.626599 0.945049 0.789729
Si Si4 0.226071 0.017821 0.017214
Si Si5 0.740987 0.306544 0.475524
Si Si6 0.873889 0.442573 0.805839
Si Si7 0.127725 0.779917 0.204180
O O1 0.307117 0.330676 0.114684
O O2 0.366206 0.170222 0.188554
O O3 0.647623 0.308868 0.234673
O O4 0.147624 0.308147 0.259709
O O5 0.705502 0.997285 0.869056
O O6 0.437188 0.082287 0.973226
O O7 0.937449 0.052564 0.998545
O O8 0.341460 0.970816 0.758783
O O9 0.634097 0.833300 0.801261
O O10 0.841080 0.969266 0.723588
O O11 0.257950 0.910540 0.988637
O O12 0.295177 0.019992 0.109223
O O13 0.461685 0.257661 0.484340
O O14 0.817776 0.314616 0.383596
#
# Coordination Sequence:
#
# PCOD9314321 Si02
#       7
#     4   4   4   4   4   4   4
#     4  10  23  40  65  93 120 169 217 259 311 369
#     4  12  25  41  65  94 130 167 215 258 327 378
#     4  10  21  39  65  87 127 162 211 263 309 371
#     4  12  26  41  63  96 131 169 209 265 326 379
#     4  12  25  41  65  94 134 168 209 263 330 390
#     4  10  23  42  63  93 125 166 212 264 315 372
#     4  10  21  40  62  91 121 165 215 260 308 381
#
# _framework density 22.499839999999999
#
# number of rings (size 3 to 8) (size 9 to 14) (size 15 to 20)
#    0.000    1.143    0.000    6.000    4.000    3.429 
#    0.000    0.000    0.000    0.000    0.000    0.000 
#    0.000    0.000    0.000    0.000    0.000    0.000 
#
# Total GULP energy -156878.625347 kJ/mol
# GULP energy per Si atom -5602.808048 kJ/mol
# Density = 2.244863 g / cm^3
# Si number density = 22.499840 Si / 1000 Ang^3
#
#
#
# Elastic Constant Matrix: (Units=GPa)
#
#
# Indices 1 2 3 4 5 6 
#
# 1 63.1148 20.0621 -20.4410 0.0000 0.0000 0.0000
# 2 20.0621 57.0730 -4.3997 0.0000 0.0000 0.0000
# 3 -20.4410 -4.3997 47.4943 0.0000 0.0000 0.0000
# 4 0.0000 0.0000 0.0000 32.8390 0.0000 0.0000
# 5 0.0000 0.0000 0.0000 0.0000 38.2244 0.0000
# 6 0.0000 0.0000 0.0000 0.0000 0.0000 18.3554
#
#
#
# Elastic Compliance Matrix: (Units=1/GPa)
#
#
# Indices 1 2 3 4 5 6 
#
# 1 0.020622 -0.006612 0.008263 0.000000 0.000000 0.000000
# 2 -0.006612 0.019767 -0.001015 0.000000 0.000000 0.000000
# 3 0.008263 -0.001015 0.024517 0.000000 0.000000 0.000000
# 4 0.000000 0.000000 0.000000 0.030452 0.000000 0.000000
# 5 0.000000 0.000000 0.000000 0.000000 0.026161 0.000000
# 6 0.000000 0.000000 0.000000 0.000000 0.000000 0.054480
#
#
# Mechanical properties :
#
#
# Convention : Reuss Voigt Hill
#
# Bulk Modulus (GPa) = 15.11035 17.56942 16.33988
# Shear Modulus (GPa) = 25.40821 29.38113 27.39467
#
# Velocity S-wave (km/s) = 3.36409 3.61756 3.49313
# Velocity P-wave (km/s) = 4.67117 5.02739 4.85255
#
# Compressibility (1/GPa) = 0.06617983
#
# Stress axis : x y z
#
# Youngs Moduli (GPa) = 48.49190 50.58832 40.78724
#
# Poissons Ratio (x) = 0.33449 -0.33702
# Poissons Ratio (y) = 0.32063 0.04138
# Poissons Ratio (z) = -0.40069 0.05132
#
# Static dielectric constant tensor:
#      x y z
#    x 1.780430 0.000000 0.000000 
#    y 0.000000 1.863160 0.000000 
#    z 0.000000 0.000000 1.786900 
# 
# From -- ./inp_files/5687.got.cif
#   From: 2010.05.17/outbox.cif.g08.bks.cpg/sg19_3_cif.got.tgz:5687.got - 2010.06.03 22:46:19.
