data_PCOD9314954
_publ_section_title
;
Structure prediction by ZEFSAII (Michael W. Deem and Ramdas Pophale) SiO2 
 PCOD9314954
Probable space group: P 21 21 21
;
_chemical_formula_sum "Si O2"
_cell_formula_units_Z 32
_cell_length_a 12.380532
_cell_length_b 13.545212
_cell_length_c 8.895192
_cell_angle_alpha 90.000000
_cell_angle_beta 90.000000
_cell_angle_gamma 90.000000
_cell_volume 1491.696396
_symmetry_space_group_name_H-M "P 21 21 21"
_symmetry_group_IT_number 19
_symmetry_cell_setting 'orthorhombic'
loop_
_space_group_symop_operation_xyz
x,y,z
1/2-x,-y,1/2+z
1/2+x,1/2-y,-z
-x,1/2+y,1/2-z
loop_
_atom_site_type_symbol
_atom_site_label
_atom_site_fract_x
_atom_site_fract_y
_atom_site_fract_z
Si Si1 0.029070 0.002760 0.292650
Si Si2 0.229098 0.216185 0.792031
Si Si3 0.394597 0.147821 0.553667
Si Si4 0.635235 0.967754 0.292454
Si Si5 0.828142 0.078191 0.136704
Si Si6 0.550513 0.571067 0.375683
Si Si7 0.023595 0.736714 0.776443
Si Si8 0.769465 0.495004 0.671160
O O1 0.034905 0.911203 0.175871
O O2 0.011946 0.961674 0.460609
O O3 0.150480 0.046186 0.296074
O O4 0.937926 0.076553 0.234258
O O5 0.302108 0.206592 0.642807
O O6 0.271961 0.314538 0.871785
O O7 0.245750 0.109944 0.871956
O O8 0.102409 0.221976 0.757434
O O9 0.459220 0.216968 0.440649
O O10 0.333967 0.066527 0.451548
O O11 0.646538 0.959716 0.470497
O O12 0.590066 0.863846 0.233793
O O13 0.745771 0.003796 0.218394
O O14 0.544209 0.044955 0.241655
O O15 0.568943 0.686698 0.348428
O O16 0.655848 0.511814 0.319958
#
# Coordination Sequence:
#
# PCOD9314954 Si02
#       8
#     4   4   4   4   4   4   4   4
#     4  11  24  42  71 100 144 185 239 296 360 421
#     4  11  24  43  74 103 142 178 247 294 357 434
#     4  10  25  44  71 106 140 188 242 295 351 447
#     4  12  27  48  73 100 148 193 239 304 368 427
#     4  12  28  46  70 108 145 194 235 304 365 443
#     4  11  23  46  71 102 141 189 243 297 354 438
#     4  11  25  44  74 101 140 192 240 294 365 424
#     4  10  22  45  70 100 142 189 235 296 356 420
#
# _framework density 21.452086000000001
#
# number of rings (size 3 to 8) (size 9 to 14) (size 15 to 20)
#    0.000    1.000    2.500    3.750    7.000    0.000 
#    0.000    3.750    0.000    0.000    0.000    0.000 
#    0.000    0.000    0.000    0.000    0.000    0.000 
#
# Total GULP energy -178998.072206 kJ/mol
# GULP energy per Si atom -5593.689756 kJ/mol
# Density = 2.140326 g / cm^3
# Si number density = 21.452086 Si / 1000 Ang^3
#
#
#
# Elastic Constant Matrix: (Units=GPa)
#
#
# Indices 1 2 3 4 5 6 
#
# 1 114.6823 32.6611 27.9911 0.0000 0.0000 0.0000
# 2 32.6611 86.6616 21.2366 0.0000 0.0000 0.0000
# 3 27.9911 21.2366 106.9797 0.0000 0.0000 0.0000
# 4 0.0000 0.0000 0.0000 26.1103 0.0000 0.0000
# 5 0.0000 0.0000 0.0000 0.0000 33.8259 0.0000
# 6 0.0000 0.0000 0.0000 0.0000 0.0000 29.1076
#
#
#
# Elastic Compliance Matrix: (Units=1/GPa)
#
#
# Indices 1 2 3 4 5 6 
#
# 1 0.010158 -0.003339 -0.001995 0.000000 0.000000 0.000000
# 2 -0.003339 0.013227 -0.001752 0.000000 0.000000 0.000000
# 3 -0.001995 -0.001752 0.010217 0.000000 0.000000 0.000000
# 4 0.000000 0.000000 0.000000 0.038299 0.000000 0.000000
# 5 0.000000 0.000000 0.000000 0.000000 0.029563 0.000000
# 6 0.000000 0.000000 0.000000 0.000000 0.000000 0.034355
#
#
# Mechanical properties :
#
#
# Convention : Reuss Voigt Hill
#
# Bulk Modulus (GPa) = 51.46782 52.45568 51.96175
# Shear Modulus (GPa) = 31.95534 32.90442 32.42988
#
# Velocity S-wave (km/s) = 3.86374 3.92070 3.89232
# Velocity P-wave (km/s) = 6.62938 6.70831 6.66896
#
# Compressibility (1/GPa) = 0.01942962
#
# Stress axis : x y z
#
# Youngs Moduli (GPa) = 98.44765 75.60283 97.87328
#
# Poissons Ratio (x) = 0.25247 0.19524
# Poissons Ratio (y) = 0.32876 0.17147
# Poissons Ratio (z) = 0.19639 0.13245
#
# Static dielectric constant tensor:
#      x y z
#    x 1.774600 0.000000 0.000000 
#    y 0.000000 1.786810 0.000000 
#    z 0.000000 0.000000 1.783510 
# 
# From -- ./inp_files/3586.got.cif
#   From: 2010.05.17/outbox.cif.g08.bks.cpg/sg19_2_cif.got.tgz:3586.got - 2010.06.03 22:46:19.
