data_PCOD9314454
_publ_section_title
;
Structure prediction by ZEFSAII (Michael W. Deem and Ramdas Pophale) SiO2 
 PCOD9314454
Probable space group: P 21 21 21
;
_chemical_formula_sum "Si O2"
_cell_formula_units_Z 32
_cell_length_a 5.180964
_cell_length_b 12.671044
_cell_length_c 19.481798
_cell_angle_alpha 90.000000
_cell_angle_beta 90.000000
_cell_angle_gamma 90.000000
_cell_volume 1278.945416
_symmetry_space_group_name_H-M "P 21 21 21"
_symmetry_group_IT_number 19
_symmetry_cell_setting 'orthorhombic'
loop_
_space_group_symop_operation_xyz
x,y,z
1/2-x,-y,1/2+z
1/2+x,1/2-y,-z
-x,1/2+y,1/2-z
loop_
_atom_site_type_symbol
_atom_site_label
_atom_site_fract_x
_atom_site_fract_y
_atom_site_fract_z
Si Si1 0.264031 0.221252 0.537557
Si Si2 0.876794 0.844678 0.230675
Si Si3 0.455432 0.523502 0.906137
Si Si4 0.876587 0.722216 0.540123
Si Si5 0.889382 0.148514 0.337112
Si Si6 0.516863 0.012179 0.259047
Si Si7 0.130882 0.944211 0.366146
Si Si8 0.066172 0.908184 0.616583
O O1 0.482241 0.286814 0.495600
O O2 0.420395 0.111933 0.545443
O O3 0.232397 0.275307 0.612114
O O4 0.976017 0.922481 0.169719
O O5 0.007089 0.870484 0.305122
O O6 0.907864 0.728721 0.199081
O O7 0.591514 0.891766 0.240794
O O8 0.158728 0.486858 0.911187
O O9 0.653498 0.426499 0.915428
O O10 0.655473 0.782437 0.496570
O O11 0.736480 0.619943 0.570076
O O12 0.951908 0.793681 0.605516
O O13 0.957092 0.045369 0.382991
O O14 0.754823 0.088941 0.274317
O O15 0.361622 0.004050 0.328091
O O16 0.386884 0.065431 0.195100
#
# Coordination Sequence:
#
# PCOD9314454 Si02
#       8
#     4   4   4   4   4   4   4   4
#     4  11  25  43  64  99 137 184 234 286 346 416
#     4   9  20  41  66 103 141 170 225 300 364 426
#     4  10  21  41  68  99 134 174 235 286 349 421
#     4  12  30  49  69 101 145 196 242 284 344 435
#     4  10  24  41  68 101 138 180 228 300 366 411
#     4  10  22  41  70 104 135 177 234 295 368 424
#     4  11  24  45  70 102 139 182 238 296 355 434
#     4  11  22  45  71  99 131 187 232 289 350 409
#
# _framework density 25.020616
#
# number of rings (size 3 to 8) (size 9 to 14) (size 15 to 20)
#    0.000    1.500    1.250    2.250    5.250    5.000 
#    0.000    0.000    0.000    0.000    0.000    0.000 
#    0.000    0.000    0.000    0.000    0.000    0.000 
#
# Total GULP energy -178600.859216 kJ/mol
# GULP energy per Si atom -5581.276851 kJ/mol
# Density = 2.496367 g / cm^3
# Si number density = 25.020616 Si / 1000 Ang^3
#
#
#
# Elastic Constant Matrix: (Units=GPa)
#
#
# Indices 1 2 3 4 5 6 
#
# 1 74.6222 -2.5588 3.5050 0.0000 0.0000 0.0000
# 2 -2.5588 56.0893 1.7530 0.0000 0.0000 0.0000
# 3 3.5050 1.7530 46.3354 0.0000 0.0000 0.0000
# 4 0.0000 0.0000 0.0000 34.1317 0.0000 0.0000
# 5 0.0000 0.0000 0.0000 0.0000 27.8046 0.0000
# 6 0.0000 0.0000 0.0000 0.0000 0.0000 27.7490
#
#
#
# Elastic Compliance Matrix: (Units=1/GPa)
#
#
# Indices 1 2 3 4 5 6 
#
# 1 0.013472 0.000647 -0.001044 0.000000 0.000000 0.000000
# 2 0.000647 0.017881 -0.000725 0.000000 0.000000 0.000000
# 3 -0.001044 -0.000725 0.021688 0.000000 0.000000 0.000000
# 4 0.000000 0.000000 0.000000 0.029298 0.000000 0.000000
# 5 0.000000 0.000000 0.000000 0.000000 0.035965 0.000000
# 6 0.000000 0.000000 0.000000 0.000000 0.000000 0.036037
#
#
# Mechanical properties :
#
#
# Convention : Reuss Voigt Hill
#
# Bulk Modulus (GPa) = 19.68602 20.27172 19.97887
# Shear Modulus (GPa) = 28.81543 29.56023 29.18783
#
# Velocity S-wave (km/s) = 3.39730 3.44093 3.41919
# Velocity P-wave (km/s) = 4.82430 4.88940 4.85696
#
# Compressibility (1/GPa) = 0.05079747
#
# Stress axis : x y z
#
# Youngs Moduli (GPa) = 74.22776 55.92555 46.10814
#
# Poissons Ratio (x) = -0.03620 0.04812
# Poissons Ratio (y) = -0.04804 0.03345
# Poissons Ratio (z) = 0.07746 0.04057
#
# Static dielectric constant tensor:
#      x y z
#    x 2.072470 0.000000 0.000000 
#    y 0.000000 1.998990 0.000000 
#    z 0.000000 0.000000 1.922510 
# 
# From -- ./inp_files/6936.got.cif
#   From: 2010.05.17/outbox.cif.g08.bks.cpg/sg19_4_cif.got.tgz:6936.got - 2010.06.03 22:46:19.
