data_PCOD9314571
_publ_section_title
;
Structure prediction by ZEFSAII (Michael W. Deem and Ramdas Pophale) SiO2 
 PCOD9314571
Probable space group: P 21 21 21
;
_chemical_formula_sum "Si O2"
_cell_formula_units_Z 24
_cell_length_a 16.469313
_cell_length_b 5.251916
_cell_length_c 11.174596
_cell_angle_alpha 90.000000
_cell_angle_beta 90.000000
_cell_angle_gamma 90.000000
_cell_volume 966.551692
_symmetry_space_group_name_H-M "P 21 21 21"
_symmetry_group_IT_number 19
_symmetry_cell_setting 'orthorhombic'
loop_
_space_group_symop_operation_xyz
x,y,z
1/2-x,-y,1/2+z
1/2+x,1/2-y,-z
-x,1/2+y,1/2-z
loop_
_atom_site_type_symbol
_atom_site_label
_atom_site_fract_x
_atom_site_fract_y
_atom_site_fract_z
Si Si1 0.302791 0.051133 0.224347
Si Si2 0.364364 0.399987 0.411533
Si Si3 0.262501 0.189430 0.971543
Si Si4 0.939383 0.365580 0.118325
Si Si5 0.479620 0.894282 0.197109
Si Si6 0.045057 0.871275 0.106946
O O1 0.335329 0.318153 0.278975
O O2 0.383665 0.901712 0.183391
O O3 0.263289 0.944068 0.346083
O O4 0.251111 0.079339 0.105158
O O5 0.292311 0.559835 0.467593
O O6 0.452894 0.526645 0.389232
O O7 0.388833 0.183357 0.505805
O O8 0.359911 0.206532 0.957015
O O9 0.919306 0.344746 0.259737
O O10 0.974647 0.651023 0.098902
O O11 0.006377 0.148614 0.097823
O O12 0.493379 0.100246 0.303336
#
# Coordination Sequence:
#
# PCOD9314571 Si02
#       6
#     4   4   4   4   4   4
#     4  11  28  46  74 111 154 204 255 327 391 474
#     4  11  26  44  76 107 155 200 260 318 389 466
#     4  12  28  47  74 113 156 201 257 333 396 459
#     4  10  25  47  74 111 152 202 258 318 388 468
#     4  10  21  46  71 104 142 196 255 303 375 459
#     4  10  24  46  77 106 153 207 255 313 387 476
#
# _framework density 24.830541
#
# number of rings (size 3 to 8) (size 9 to 14) (size 15 to 20)
#    0.000    1.333    1.667    1.000    9.333    6.667 
#    0.000    0.000    0.000    0.000    0.000    0.000 
#    0.000    0.000    0.000    0.000    0.000    0.000 
#
# Total GULP energy -133856.900913 kJ/mol
# GULP energy per Si atom -5577.370871 kJ/mol
# Density = 2.477403 g / cm^3
# Si number density = 24.830541 Si / 1000 Ang^3
#
#
#
# Elastic Constant Matrix: (Units=GPa)
#
#
# Indices 1 2 3 4 5 6 
#
# 1 55.0459 15.2424 67.5673 0.0000 0.0000 0.0000
# 2 15.2424 85.7802 37.7117 0.0000 0.0000 0.0000
# 3 67.5673 37.7117 170.6810 0.0000 0.0000 0.0000
# 4 0.0000 0.0000 0.0000 40.4016 0.0000 0.0000
# 5 0.0000 0.0000 0.0000 0.0000 -30.4320 0.0000
# 6 0.0000 0.0000 0.0000 0.0000 0.0000 33.8504
#
#
#
# Elastic Compliance Matrix: (Units=1/GPa)
#
#
# Indices 1 2 3 4 5 6 
#
# 1 0.035340 -0.000143 -0.013958 0.000000 0.000000 0.000000
# 2 -0.000143 0.012912 -0.002796 0.000000 0.000000 0.000000
# 3 -0.013958 -0.002796 0.012002 0.000000 0.000000 0.000000
# 4 0.000000 0.000000 0.000000 0.024751 0.000000 0.000000
# 5 0.000000 0.000000 0.000000 0.000000 -0.032860 0.000000
# 6 0.000000 0.000000 0.000000 0.000000 0.000000 0.029542
#
#
# Mechanical properties :
#
#
# Convention : Reuss Voigt Hill
#
# Bulk Modulus (GPa) = 37.79412 61.39446 49.59429
# Shear Modulus (GPa) = 40.22444 21.49640 30.86042
#
# Velocity S-wave (km/s) = 4.02924 2.94551 3.52922
# Velocity P-wave (km/s) = 6.07455 6.02886 6.05175
#
# Compressibility (1/GPa) = 0.02645914
#
# Stress axis : x y z
#
# Youngs Moduli (GPa) = 28.29686 77.44440 83.31687
#
# Poissons Ratio (x) = 0.01108 1.16296
# Poissons Ratio (y) = 0.00405 0.23298
# Poissons Ratio (z) = 0.39497 0.21656
#
# Static dielectric constant tensor:
#      x y z
#    x 1.977740 0.000000 0.000000 
#    y 0.000000 2.084450 0.000000 
#    z 0.000000 0.000000 2.107360 
# 
# From -- ./inp_files/5160.got.cif
#   From: 2010.05.17/outbox.cif.g08.bks.cpg/sg19_3_cif.got.tgz:5160.got - 2010.06.03 22:46:19.
