data_PCOD9314769
_publ_section_title
;
Structure prediction by ZEFSAII (Michael W. Deem and Ramdas Pophale) SiO2 
 PCOD9314769
Probable space group: P 21 21 21
;
_chemical_formula_sum "Si O2"
_cell_formula_units_Z 32
_cell_length_a 18.601478
_cell_length_b 12.138880
_cell_length_c 5.652808
_cell_angle_alpha 90.000000
_cell_angle_beta 90.000000
_cell_angle_gamma 90.000000
_cell_volume 1276.410317
_symmetry_space_group_name_H-M "P 21 21 21"
_symmetry_group_IT_number 19
_symmetry_cell_setting 'orthorhombic'
loop_
_space_group_symop_operation_xyz
x,y,z
1/2-x,-y,1/2+z
1/2+x,1/2-y,-z
-x,1/2+y,1/2-z
loop_
_atom_site_type_symbol
_atom_site_label
_atom_site_fract_x
_atom_site_fract_y
_atom_site_fract_z
Si Si1 0.458205 0.756406 0.328579
Si Si2 0.866637 0.956187 0.706689
Si Si3 0.156438 0.706148 0.756129
Si Si4 0.798022 0.387398 0.456013
Si Si5 0.180063 0.366295 0.289539
Si Si6 0.480796 0.727926 0.819210
Si Si7 0.903524 0.399379 0.079420
Si Si8 0.851398 0.575620 0.803815
O O1 0.435722 0.626419 0.311591
O O2 0.496277 0.774191 0.077303
O O3 0.493103 0.792961 0.575027
O O4 0.384326 0.822671 0.330675
O O5 0.820863 0.918390 0.942300
O O6 0.832184 0.942767 0.444151
O O7 0.877467 0.085853 0.745073
O O8 0.159852 0.773541 0.001317
O O9 0.243366 0.689447 0.723407
O O10 0.118739 0.794567 0.581936
O O11 0.829349 0.427116 0.209907
O O12 0.818910 0.479424 0.643753
O O13 0.713504 0.373712 0.451576
O O14 0.104585 0.298480 0.307402
O O15 0.532418 0.624255 0.761580
O O16 0.915358 0.510979 0.934847
#
# Coordination Sequence:
#
# PCOD9314769 Si02
#       8
#     4   4   4   4   4   4   4   4
#     4  10  24  45  75  98 143 189 245 279 362 439
#     4  10  22  42  68 104 135 178 226 290 349 419
#     4  11  25  40  71 104 140 180 232 296 359 419
#     4  11  24  42  71 104 144 179 244 295 365 420
#     4  10  22  41  70  95 138 185 231 280 349 431
#     4  10  24  47  65 100 140 186 237 293 352 426
#     4  11  27  45  68 103 146 180 241 303 362 419
#     4  11  24  44  74 106 138 197 238 304 358 437
#
# _framework density 25.070309000000002
#
# number of rings (size 3 to 8) (size 9 to 14) (size 15 to 20)
#    0.000    1.500    1.250    2.250   12.250    0.000 
#    9.000    0.000    0.000    0.000    0.000    0.000 
#    0.000    0.000    0.000    0.000    0.000    0.000 
#
# Total GULP energy -178332.532467 kJ/mol
# GULP energy per Si atom -5572.891640 kJ/mol
# Density = 2.501325 g / cm^3
# Si number density = 25.070309 Si / 1000 Ang^3
#
#
#
# Elastic Constant Matrix: (Units=GPa)
#
#
# Indices 1 2 3 4 5 6 
#
# 1 67.5361 14.9933 1.7585 0.0000 0.0000 0.0000
# 2 14.9933 81.0758 4.0971 0.0000 0.0000 0.0000
# 3 1.7585 4.0971 135.5378 0.0000 0.0000 0.0000
# 4 0.0000 0.0000 0.0000 9.7729 0.0000 0.0000
# 5 0.0000 0.0000 0.0000 0.0000 28.7739 0.0000
# 6 0.0000 0.0000 0.0000 0.0000 0.0000 35.1900
#
#
#
# Elastic Compliance Matrix: (Units=1/GPa)
#
#
# Indices 1 2 3 4 5 6 
#
# 1 0.015443 -0.002850 -0.000114 0.000000 0.000000 0.000000
# 2 -0.002850 0.012879 -0.000352 0.000000 0.000000 0.000000
# 3 -0.000114 -0.000352 0.007390 0.000000 0.000000 0.000000
# 4 0.000000 0.000000 0.000000 0.102324 0.000000 0.000000
# 5 0.000000 0.000000 0.000000 0.000000 0.034754 0.000000
# 6 0.000000 0.000000 0.000000 0.000000 0.000000 0.028417
#
#
# Mechanical properties :
#
#
# Convention : Reuss Voigt Hill
#
# Bulk Modulus (GPa) = 34.38952 36.20526 35.29739
# Shear Modulus (GPa) = 22.98506 32.30075 27.64290
#
# Velocity S-wave (km/s) = 3.03119 3.59333 3.32417
# Velocity P-wave (km/s) = 5.09881 5.62929 5.37060
#
# Compressibility (1/GPa) = 0.02907863
#
# Stress axis : x y z
#
# Youngs Moduli (GPa) = 64.75600 77.64584 135.31530
#
# Poissons Ratio (x) = 0.22129 0.01545
# Poissons Ratio (y) = 0.18456 0.04768
# Poissons Ratio (z) = 0.00740 0.02736
#
# Static dielectric constant tensor:
#      x y z
#    x 2.050330 0.000000 0.000000 
#    y 0.000000 2.001890 0.000000 
#    z 0.000000 0.000000 2.075530 
# 
# From -- ./inp_files/1228.got.cif
#   From: 2010.05.17/outbox.cif.g08.bks.cpg/sg19_1_cif.got.tgz:1228.got - 2010.06.03 22:46:19.
