data_PCOD9314239
_publ_section_title
;
Structure prediction by ZEFSAII (Michael W. Deem and Ramdas Pophale) SiO2 
 PCOD9314239
Probable space group: P 21 21 21
;
_chemical_formula_sum "Si O2"
_cell_formula_units_Z 32
_cell_length_a 17.417069
_cell_length_b 6.933278
_cell_length_c 13.801337
_cell_angle_alpha 90.000000
_cell_angle_beta 90.000000
_cell_angle_gamma 90.000000
_cell_volume 1666.613315
_symmetry_space_group_name_H-M "P 21 21 21"
_symmetry_group_IT_number 19
_symmetry_cell_setting 'orthorhombic'
loop_
_space_group_symop_operation_xyz
x,y,z
1/2-x,-y,1/2+z
1/2+x,1/2-y,-z
-x,1/2+y,1/2-z
loop_
_atom_site_type_symbol
_atom_site_label
_atom_site_fract_x
_atom_site_fract_y
_atom_site_fract_z
Si Si1 0.604788 0.346017 0.073922
Si Si2 0.339033 0.521669 0.284675
Si Si3 0.835473 0.751868 0.029135
Si Si4 0.664526 0.751867 0.029135
Si Si5 0.839032 0.021670 0.215325
Si Si6 0.070240 0.466416 0.090015
Si Si7 0.070240 0.533585 0.590015
Si Si8 0.895212 0.346018 0.073922
O O1 0.657275 0.525868 0.046898
O O2 0.520678 0.434472 0.094544
O O3 0.633510 0.219910 0.164550
O O4 0.599887 0.200996 0.982513
O O5 0.344359 0.361399 0.368814
O O6 0.250000 0.538708 0.255533
O O7 0.391341 0.462060 0.194874
O O8 0.750000 0.800735 0.991251
O O9 0.842725 0.525868 0.046898
O O10 0.844359 0.861400 0.131186
O O11 0.900935 0.834749 0.958790
O O12 0.599064 0.834749 0.958790
O O13 0.891341 0.962062 0.305126
O O14 0.866489 0.219911 0.164550
O O15 0.979322 0.434472 0.094545
O O16 0.099887 0.700997 0.517487
#
# Coordination Sequence:
#
# PCOD9314239 Si02
#       8
#     4   4   4   4   4   4   4   4
#     4  10  22  39  60  86 118 157 201 244 299 359
#     4  10  22  38  58  88 120 154 198 249 300 351
#     4  10  21  38  60  86 120 154 196 247 297 357
#     4  10  21  38  60  86 120 154 196 247 297 357
#     4  10  22  38  58  88 120 154 198 249 300 351
#     4  10  22  39  60  86 120 157 198 249 297 354
#     4  10  22  39  60  86 120 157 198 249 297 354
#     4  10  22  39  60  86 118 157 201 244 299 359
#
# _framework density 19.200616
#
# number of rings (size 3 to 8) (size 9 to 14) (size 15 to 20)
#    0.000    2.000    0.000    2.250    3.500    5.000 
#    0.000    2.500    0.000    0.000    0.000    0.000 
#    0.000    0.000    0.000    0.000    0.000    0.000 
#
# Total GULP energy -178694.002150 kJ/mol
# GULP energy per Si atom -5584.187567 kJ/mol
# Density = 1.915691 g / cm^3
# Si number density = 19.200616 Si / 1000 Ang^3
#
#
#
# Elastic Constant Matrix: (Units=GPa)
#
#
# Indices 1 2 3 4 5 6 
#
# 1 58.4045 19.1883 14.6858 0.0000 0.0000 0.0000
# 2 19.1883 60.4749 -8.9518 0.0000 0.0000 0.0000
# 3 14.6858 -8.9518 32.1281 0.0000 0.0000 0.0000
# 4 0.0000 0.0000 0.0000 13.8294 0.0000 0.0000
# 5 0.0000 0.0000 0.0000 0.0000 -14.3098 0.0000
# 6 0.0000 0.0000 0.0000 0.0000 0.0000 25.5438
#
#
#
# Elastic Compliance Matrix: (Units=1/GPa)
#
#
# Indices 1 2 3 4 5 6 
#
# 1 0.023616 -0.009482 -0.013437 0.000000 0.000000 0.000000
# 2 -0.009482 0.021054 0.010201 0.000000 0.000000 0.000000
# 3 -0.013437 0.010201 0.040110 0.000000 0.000000 0.000000
# 4 0.000000 0.000000 0.000000 0.072310 0.000000 0.000000
# 5 0.000000 0.000000 0.000000 0.000000 -0.069882 0.000000
# 6 0.000000 0.000000 0.000000 0.000000 0.000000 0.039148
#
#
# Mechanical properties :
#
#
# Convention : Reuss Voigt Hill
#
# Bulk Modulus (GPa) = 16.85115 22.31689 19.58402
# Shear Modulus (GPa) = 29.14195 13.41835 21.28015
#
# Velocity S-wave (km/s) = 3.90007 2.64645 3.33273
# Velocity P-wave (km/s) = 5.39223 4.58110 5.00313
#
# Compressibility (1/GPa) = 0.05934313
#
# Stress axis : x y z
#
# Youngs Moduli (GPa) = 42.34420 47.49606 24.93167
#
# Poissons Ratio (x) = 0.45037 0.33500
# Poissons Ratio (y) = 0.40152 -0.25432
# Poissons Ratio (z) = 0.56898 -0.48449
#
# Static dielectric constant tensor:
#      x y z
#    x 1.662250 0.000000 0.000000 
#    y 0.000000 1.651590 0.000000 
#    z 0.000000 0.000000 1.634510 
# 
# From -- ./inp_files/6297.got.cif
#   From: 2010.05.17/outbox.cif.g08.bks.cpg/sg19_4_cif.got.tgz:6297.got - 2010.06.03 22:46:19.
