data_PCOD9314956
_publ_section_title
;
Structure prediction by ZEFSAII (Michael W. Deem and Ramdas Pophale) SiO2 
 PCOD9314956
Probable space group: P 21 21 21
;
_chemical_formula_sum "Si O2"
_cell_formula_units_Z 32
_cell_length_a 11.254978
_cell_length_b 8.829257
_cell_length_c 14.741707
_cell_angle_alpha 90.000000
_cell_angle_beta 90.000000
_cell_angle_gamma 90.000000
_cell_volume 1464.929025
_symmetry_space_group_name_H-M "P 21 21 21"
_symmetry_group_IT_number 19
_symmetry_cell_setting 'orthorhombic'
loop_
_space_group_symop_operation_xyz
x,y,z
1/2-x,-y,1/2+z
1/2+x,1/2-y,-z
-x,1/2+y,1/2-z
loop_
_atom_site_type_symbol
_atom_site_label
_atom_site_fract_x
_atom_site_fract_y
_atom_site_fract_z
Si Si1 0.100080 0.656132 0.594813
Si Si2 0.340309 0.693730 0.693392
Si Si3 0.418307 0.791813 0.248318
Si Si4 0.255209 0.546579 0.335756
Si Si5 0.414588 0.191533 0.912318
Si Si6 0.073731 0.304916 0.547534
Si Si7 0.831375 0.213575 0.539051
Si Si8 0.745652 0.451111 0.680041
O O1 0.238511 0.672027 0.617852
O O2 0.063169 0.776070 0.517974
O O3 0.069553 0.486732 0.560915
O O4 0.032360 0.688461 0.688531
O O5 0.316718 0.565749 0.769577
O O6 0.465902 0.685667 0.645238
O O7 0.323101 0.852159 0.745720
O O8 0.350792 0.638793 0.277657
O O9 0.442356 0.779472 0.142922
O O10 0.330915 0.929819 0.271018
O O11 0.166097 0.666991 0.379840
O O12 0.319670 0.449260 0.413285
O O13 0.340250 0.042977 0.887126
O O14 0.207304 0.269985 0.514767
O O15 0.957986 0.247167 0.491117
O O16 0.821649 0.337873 0.618661
#
# Coordination Sequence:
#
# PCOD9314956 Si02
#       8
#     4   4   4   4   4   4   4   4
#     4  12  26  43  71 108 140 191 241 299 357 434
#     4  11  24  43  69 100 143 187 239 292 370 432
#     4  11  24  45  73  99 142 188 246 286 354 441
#     4  10  22  45  71 100 139 192 234 298 360 432
#     4  11  25  43  71 103 147 182 238 304 365 431
#     4  12  26  46  74 109 145 192 243 300 367 428
#     4  11  25  46  72 104 148 183 242 303 356 429
#     4  10  24  45  69 105 136 187 241 294 361 429
#
# _framework density 21.844062000000001
#
# number of rings (size 3 to 8) (size 9 to 14) (size 15 to 20)
#    0.000    1.000    3.750    2.250    3.500    4.000 
#    9.000    0.000    0.000    0.000    0.000    0.000 
#    0.000    0.000    0.000    0.000    0.000    0.000 
#
# Total GULP energy -179105.908172 kJ/mol
# GULP energy per Si atom -5597.059630 kJ/mol
# Density = 2.179434 g / cm^3
# Si number density = 21.844062 Si / 1000 Ang^3
#
#
#
# Elastic Constant Matrix: (Units=GPa)
#
#
# Indices 1 2 3 4 5 6 
#
# 1 93.1695 25.1880 11.1691 0.0000 0.0000 0.0000
# 2 25.1880 86.8165 7.0274 0.0000 0.0000 0.0000
# 3 11.1691 7.0274 45.7921 0.0000 0.0000 0.0000
# 4 0.0000 0.0000 0.0000 17.1796 0.0000 0.0000
# 5 0.0000 0.0000 0.0000 0.0000 33.9557 0.0000
# 6 0.0000 0.0000 0.0000 0.0000 0.0000 16.6564
#
#
#
# Elastic Compliance Matrix: (Units=1/GPa)
#
#
# Indices 1 2 3 4 5 6 
#
# 1 0.011902 -0.003259 -0.002403 0.000000 0.000000 0.000000
# 2 -0.003259 0.012556 -0.001132 0.000000 0.000000 0.000000
# 3 -0.002403 -0.001132 0.022598 0.000000 0.000000 0.000000
# 4 0.000000 0.000000 0.000000 0.058208 0.000000 0.000000
# 5 0.000000 0.000000 0.000000 0.000000 0.029450 0.000000
# 6 0.000000 0.000000 0.000000 0.000000 0.000000 0.060037
#
#
# Mechanical properties :
#
#
# Convention : Reuss Voigt Hill
#
# Bulk Modulus (GPa) = 29.87912 34.72744 32.30328
# Shear Modulus (GPa) = 22.77965 25.71792 24.24879
#
# Velocity S-wave (km/s) = 3.23279 3.43496 3.33541
# Velocity P-wave (km/s) = 5.25763 5.62711 5.44550
#
# Compressibility (1/GPa) = 0.03346819
#
# Stress axis : x y z
#
# Youngs Moduli (GPa) = 84.01842 79.64564 44.25241
#
# Poissons Ratio (x) = 0.25954 0.10634
# Poissons Ratio (y) = 0.27379 0.05009
# Poissons Ratio (z) = 0.20189 0.09016
#
# Static dielectric constant tensor:
#      x y z
#    x 1.831140 0.000000 0.000000 
#    y 0.000000 1.781870 0.000000 
#    z 0.000000 0.000000 1.785040 
# 
# From -- ./inp_files/6163.got.cif
#   From: 2010.05.17/outbox.cif.g08.bks.cpg/sg19_4_cif.got.tgz:6163.got - 2010.06.03 22:46:19.
