data_PCOD9314326
_publ_section_title
;
Structure prediction by ZEFSAII (Michael W. Deem and Ramdas Pophale) SiO2 
 PCOD9314326
Probable space group: P 21 21 21
;
_chemical_formula_sum "Si O2"
_cell_formula_units_Z 20
_cell_length_a 29.961367
_cell_length_b 4.836021
_cell_length_c 5.138256
_cell_angle_alpha 90.000000
_cell_angle_beta 90.000000
_cell_angle_gamma 90.000000
_cell_volume 744.501437
_symmetry_space_group_name_H-M "P 21 21 21"
_symmetry_group_IT_number 19
_symmetry_cell_setting 'orthorhombic'
loop_
_space_group_symop_operation_xyz
x,y,z
1/2-x,-y,1/2+z
1/2+x,1/2-y,-z
-x,1/2+y,1/2-z
loop_
_atom_site_type_symbol
_atom_site_label
_atom_site_fract_x
_atom_site_fract_y
_atom_site_fract_z
Si Si1 0.901493 0.251706 0.209788
Si Si2 0.836059 0.040607 0.840085
Si Si3 0.991693 0.406133 0.065464
Si Si4 0.581709 0.245235 0.065493
Si Si5 0.778093 0.520213 0.728659
O O1 0.905759 0.457262 0.453595
O O2 0.939311 0.361539 0.007361
O O3 0.913889 0.950058 0.310740
O O4 0.853034 0.216967 0.086670
O O5 0.813332 0.276978 0.666797
O O6 0.881282 0.886165 0.749419
O O7 0.801209 0.791268 0.851419
O O8 0.029450 0.298955 0.866033
O O9 0.001318 0.705684 0.182123
O O10 0.753616 0.591467 0.459559
#
# Coordination Sequence:
#
# PCOD9314326 Si02
#       5
#     4   4   4   4   4
#     4  10  21  39  66 100 146 190 239 295 354 439
#     4  12  26  44  75 108 134 194 243 306 378 450
#     4   8  16  34  58  92 140 194 230 282 354 414
#     4  10  21  39  66 100 146 190 239 295 354 439
#     4  12  30  52  77 108 146 188 245 320 396 462
#
# _framework density 26.863613000000001
#
# number of rings (size 3 to 8) (size 9 to 14) (size 15 to 20)
#    0.000    1.600    0.000    3.600    8.400    0.000 
#    0.000   14.000    0.000    0.000    0.000    0.000 
#    0.000    0.000    0.000    0.000    0.000    0.000 
#
# Total GULP energy -111957.111426 kJ/mol
# GULP energy per Si atom -5597.855571 kJ/mol
# Density = 2.680247 g / cm^3
# Si number density = 26.863613 Si / 1000 Ang^3
#
#
#
# Elastic Constant Matrix: (Units=GPa)
#
#
# Indices 1 2 3 4 5 6 
#
# 1 90.9178 40.3463 46.7542 0.0000 0.0000 0.0000
# 2 40.3463 133.7061 18.7373 0.0000 0.0000 0.0000
# 3 46.7542 18.7373 107.1933 0.0000 0.0000 0.0000
# 4 0.0000 0.0000 0.0000 22.1253 0.0000 0.0000
# 5 0.0000 0.0000 0.0000 0.0000 45.0204 0.0000
# 6 0.0000 0.0000 0.0000 0.0000 0.0000 51.6510
#
#
#
# Elastic Compliance Matrix: (Units=1/GPa)
#
#
# Indices 1 2 3 4 5 6 
#
# 1 0.015977 -0.003941 -0.006280 0.000000 0.000000 0.000000
# 2 -0.003941 0.008639 0.000209 0.000000 0.000000 0.000000
# 3 -0.006280 0.000209 0.012031 0.000000 0.000000 0.000000
# 4 0.000000 0.000000 0.000000 0.045197 0.000000 0.000000
# 5 0.000000 0.000000 0.000000 0.000000 0.022212 0.000000
# 6 0.000000 0.000000 0.000000 0.000000 0.000000 0.019361
#
#
# Mechanical properties :
#
#
# Convention : Reuss Voigt Hill
#
# Bulk Modulus (GPa) = 60.15534 60.38809 60.27172
# Shear Modulus (GPa) = 33.56080 38.82463 36.19272
#
# Velocity S-wave (km/s) = 3.53838 3.80577 3.67451
# Velocity P-wave (km/s) = 6.25580 6.46840 6.36299
#
# Compressibility (1/GPa) = 0.01662363
#
# Stress axis : x y z
#
# Youngs Moduli (GPa) = 62.58876 115.75317 83.11520
#
# Poissons Ratio (x) = 0.45620 0.52195
# Poissons Ratio (y) = 0.24667 -0.01736
# Poissons Ratio (z) = 0.39305 -0.02418
#
# Static dielectric constant tensor:
#      x y z
#    x 2.265140 0.000000 0.000000 
#    y 0.000000 1.998140 0.000000 
#    z 0.000000 0.000000 2.085390 
# 
# From -- ./inp_files/2219.got.cif
#   From: 2010.05.17/outbox.cif.g08.bks.cpg/sg19_2_cif.got.tgz:2219.got - 2010.06.03 22:46:19.
