data_PCOD9314260
_publ_section_title
;
Structure prediction by ZEFSAII (Michael W. Deem and Ramdas Pophale) SiO2 
 PCOD9314260
Probable space group: P 21 21 21
;
_chemical_formula_sum "Si O2"
_cell_formula_units_Z 24
_cell_length_a 8.857686
_cell_length_b 7.936924
_cell_length_c 13.434567
_cell_angle_alpha 90.000000
_cell_angle_beta 90.000000
_cell_angle_gamma 90.000000
_cell_volume 944.487416
_symmetry_space_group_name_H-M "P 21 21 21"
_symmetry_group_IT_number 19
_symmetry_cell_setting 'orthorhombic'
loop_
_space_group_symop_operation_xyz
x,y,z
1/2-x,-y,1/2+z
1/2+x,1/2-y,-z
-x,1/2+y,1/2-z
loop_
_atom_site_type_symbol
_atom_site_label
_atom_site_fract_x
_atom_site_fract_y
_atom_site_fract_z
Si Si1 0.440101 0.556933 0.097634
Si Si2 0.498955 0.814815 0.709703
Si Si3 0.687445 0.679523 0.403094
Si Si4 0.403830 0.563881 0.317940
Si Si5 0.248130 0.890504 0.384617
Si Si6 0.348033 0.649709 0.880232
O O1 0.372666 0.368770 0.087117
O O2 0.372494 0.614002 0.203461
O O3 0.619596 0.528995 0.114156
O O4 0.391329 0.649409 0.996249
O O5 0.356574 0.804724 0.635994
O O6 0.618626 0.662302 0.693405
O O7 0.425921 0.800034 0.819348
O O8 0.582759 0.982869 0.673925
O O9 0.583274 0.569616 0.330419
O O10 0.672013 0.592009 0.508866
O O11 0.341673 0.713153 0.386747
O O12 0.326956 0.390707 0.353360
#
# Coordination Sequence:
#
# PCOD9314260 Si02
#       6
#     4   4   4   4   4   4
#     4  11  21  38  62  91 128 165 216 270 330 381
#     4  11  22  39  65  95 125 170 220 266 324 387
#     4  11  19  38  64  89 120 171 217 257 321 393
#     4  10  22  36  62  94 124 162 221 275 314 383
#     4  10  21  38  64  92 119 169 225 260 319 400
#     4  11  23  41  65  95 130 175 215 272 326 394
#
# _framework density 25.410608
#
# number of rings (size 3 to 8) (size 9 to 14) (size 15 to 20)
#    0.000    1.333    6.667    1.000    2.333    0.000 
#    0.000    3.333   14.667    0.000    0.000    0.000 
#    0.000    0.000    0.000    0.000    0.000    0.000 
#
# Total GULP energy -134117.974633 kJ/mol
# GULP energy per Si atom -5588.248943 kJ/mol
# Density = 2.535277 g / cm^3
# Si number density = 25.410608 Si / 1000 Ang^3
#
#
#
# Elastic Constant Matrix: (Units=GPa)
#
#
# Indices 1 2 3 4 5 6 
#
# 1 82.1928 5.8523 3.7276 0.0000 0.0000 0.0000
# 2 5.8523 92.8776 -2.3087 0.0000 0.0000 0.0000
# 3 3.7276 -2.3087 137.9133 0.0000 0.0000 0.0000
# 4 0.0000 0.0000 0.0000 24.6351 0.0000 0.0000
# 5 0.0000 0.0000 0.0000 0.0000 31.7966 0.0000
# 6 0.0000 0.0000 0.0000 0.0000 0.0000 9.1934
#
#
#
# Elastic Compliance Matrix: (Units=1/GPa)
#
#
# Indices 1 2 3 4 5 6 
#
# 1 0.012238 -0.000780 -0.000344 0.000000 0.000000 0.000000
# 2 -0.000780 0.010821 0.000202 0.000000 0.000000 0.000000
# 3 -0.000344 0.000202 0.007264 0.000000 0.000000 0.000000
# 4 0.000000 0.000000 0.000000 0.040592 0.000000 0.000000
# 5 0.000000 0.000000 0.000000 0.000000 0.031450 0.000000
# 6 0.000000 0.000000 0.000000 0.000000 0.000000 0.108774
#
#
# Mechanical properties :
#
#
# Convention : Reuss Voigt Hill
#
# Bulk Modulus (GPa) = 35.11267 36.39179 35.75223
# Shear Modulus (GPa) = 22.47454 33.50586 27.99020
#
# Velocity S-wave (km/s) = 2.97721 3.63516 3.32251
# Velocity P-wave (km/s) = 5.06621 5.65436 5.36834
#
# Compressibility (1/GPa) = 0.02847975
#
# Stress axis : x y z
#
# Youngs Moduli (GPa) = 81.71525 92.41284 137.67258
#
# Poissons Ratio (x) = 0.07205 0.04733
# Poissons Ratio (y) = 0.06371 -0.02784
# Poissons Ratio (z) = 0.02810 -0.01869
#
# Static dielectric constant tensor:
#      x y z
#    x 2.097210 0.000000 0.000000 
#    y 0.000000 2.040080 0.000000 
#    z 0.000000 0.000000 2.010680 
# 
# From -- ./inp_files/2807.got.cif
#   From: 2010.05.17/outbox.cif.g08.bks.cpg/sg19_2_cif.got.tgz:2807.got - 2010.06.03 22:46:19.
