data_PCOD9314055
_publ_section_title
;
Structure prediction by ZEFSAII (Michael W. Deem and Ramdas Pophale) SiO2 
 PCOD9314055
Probable space group: P 21 21 21
;
_chemical_formula_sum "Si O2"
_cell_formula_units_Z 32
_cell_length_a 5.010867
_cell_length_b 28.138927
_cell_length_c 8.234021
_cell_angle_alpha 90.000000
_cell_angle_beta 90.000000
_cell_angle_gamma 90.000000
_cell_volume 1161.000425
_symmetry_space_group_name_H-M "P 21 21 21"
_symmetry_group_IT_number 19
_symmetry_cell_setting 'orthorhombic'
loop_
_space_group_symop_operation_xyz
x,y,z
1/2-x,-y,1/2+z
1/2+x,1/2-y,-z
-x,1/2+y,1/2-z
loop_
_atom_site_type_symbol
_atom_site_label
_atom_site_fract_x
_atom_site_fract_y
_atom_site_fract_z
Si Si1 0.395686 0.594821 0.947039
Si Si2 0.248174 0.929677 0.364304
Si Si3 0.979177 0.155989 0.769117
Si Si4 0.708381 0.493872 0.394632
Si Si5 0.119045 0.282721 0.007796
Si Si6 0.030005 0.554064 0.173295
Si Si7 0.339882 0.781162 0.003618
Si Si8 0.268836 0.344817 0.708125
O O1 0.554801 0.584076 0.784398
O O2 0.138376 0.621626 0.868582
O O3 0.797692 0.545381 0.038777
O O4 0.458992 0.634780 0.083572
O O5 0.393646 0.880242 0.398773
O O6 0.110988 0.958220 0.511447
O O7 0.423789 0.969038 0.263752
O O8 0.181762 0.188220 0.667631
O O9 0.748195 0.188665 0.842353
O O10 0.973989 0.516411 0.312525
O O11 0.223704 0.449015 0.549980
O O12 0.137721 0.319445 0.859891
O O13 0.326766 0.239405 0.976638
O O14 0.071169 0.606200 0.244369
O O15 0.512325 0.809473 0.869740
O O16 0.554023 0.739192 0.045559
#
# Coordination Sequence:
#
# PCOD9314055 Si02
#       8
#     4   4   4   4   4   4   4   4
#     4   9  22  43  68  98 135 194 248 297 387 453
#     4  11  22  43  72  99 144 196 240 322 373 469
#     4  11  24  43  68  98 144 179 254 299 384 460
#     4  10  20  40  69 101 146 185 247 306 385 444
#     4  12  27  47  70 111 154 200 256 327 399 473
#     4   9  19  42  65 102 140 190 243 310 373 465
#     4  11  23  38  66  95 128 179 234 298 361 442
#     4   9  21  44  64  98 143 185 248 303 382 464
#
# _framework density 27.562435000000001
#
# number of rings (size 3 to 8) (size 9 to 14) (size 15 to 20)
#    0.750    1.000    1.250    2.250    5.250    0.000 
#    9.000    1.250    0.000    0.000    0.000    0.000 
#    0.000    0.000    0.000    0.000    0.000    0.000 
#
# Total GULP energy -178640.560863 kJ/mol
# GULP energy per Si atom -5582.517527 kJ/mol
# Density = 2.749970 g / cm^3
# Si number density = 27.562435 Si / 1000 Ang^3
#
#
#
# Elastic Constant Matrix: (Units=GPa)
#
#
# Indices 1 2 3 4 5 6 
#
# 1 90.2123 -3.4126 23.2017 0.0000 0.0000 0.0000
# 2 -3.4126 101.7109 32.9279 0.0000 0.0000 0.0000
# 3 23.2017 32.9279 86.4965 0.0000 0.0000 0.0000
# 4 0.0000 0.0000 0.0000 69.5221 0.0000 0.0000
# 5 0.0000 0.0000 0.0000 0.0000 32.7646 0.0000
# 6 0.0000 0.0000 0.0000 0.0000 0.0000 23.6420
#
#
#
# Elastic Compliance Matrix: (Units=1/GPa)
#
#
# Indices 1 2 3 4 5 6 
#
# 1 0.012150 0.001668 -0.003894 0.000000 0.000000 0.000000
# 2 0.001668 0.011443 -0.004804 0.000000 0.000000 0.000000
# 3 -0.003894 -0.004804 0.014434 0.000000 0.000000 0.000000
# 4 0.000000 0.000000 0.000000 0.014384 0.000000 0.000000
# 5 0.000000 0.000000 0.000000 0.000000 0.030521 0.000000
# 6 0.000000 0.000000 0.000000 0.000000 0.000000 0.042298
#
#
# Mechanical properties :
#
#
# Convention : Reuss Voigt Hill
#
# Bulk Modulus (GPa) = 41.72222 42.65039 42.18630
# Shear Modulus (GPa) = 33.94956 40.23259 37.09108
#
# Velocity S-wave (km/s) = 3.51341 3.82473 3.67237
# Velocity P-wave (km/s) = 5.62396 5.91713 5.77241
#
# Compressibility (1/GPa) = 0.02396804
#
# Stress axis : x y z
#
# Youngs Moduli (GPa) = 82.30728 87.39041 69.27899
#
# Poissons Ratio (x) = -0.14580 0.26978
# Poissons Ratio (y) = -0.13732 0.33279
# Poissons Ratio (z) = 0.32051 0.41979
#
# Static dielectric constant tensor:
#      x y z
#    x 2.358010 0.000000 0.000000 
#    y 0.000000 2.321750 0.000000 
#    z 0.000000 0.000000 2.149340 
# 
# From -- ./inp_files/2512.got.cif
#   From: 2010.05.17/outbox.cif.g08.bks.cpg/sg19_2_cif.got.tgz:2512.got - 2010.06.03 22:46:19.
