data_PCOD9314808
_publ_section_title
;
Structure prediction by ZEFSAII (Michael W. Deem and Ramdas Pophale) SiO2 
 PCOD9314808
Probable space group: P 21 21 21
;
_chemical_formula_sum "Si O2"
_cell_formula_units_Z 28
_cell_length_a 12.299152
_cell_length_b 9.047998
_cell_length_c 11.466730
_cell_angle_alpha 90.000000
_cell_angle_beta 90.000000
_cell_angle_gamma 90.000000
_cell_volume 1276.048706
_symmetry_space_group_name_H-M "P 21 21 21"
_symmetry_group_IT_number 19
_symmetry_cell_setting 'orthorhombic'
loop_
_space_group_symop_operation_xyz
x,y,z
1/2-x,-y,1/2+z
1/2+x,1/2-y,-z
-x,1/2+y,1/2-z
loop_
_atom_site_type_symbol
_atom_site_label
_atom_site_fract_x
_atom_site_fract_y
_atom_site_fract_z
Si Si1 0.481786 0.769082 0.804686
Si Si2 0.220725 0.430496 0.339453
Si Si3 0.593646 0.954851 0.333440
Si Si4 0.167890 0.027048 0.466141
Si Si5 0.353807 0.228390 0.496019
Si Si6 0.612393 0.808004 0.579187
Si Si7 0.440246 0.793962 0.165945
O O1 0.399161 0.632025 0.814843
O O2 0.411576 0.898140 0.868732
O O3 0.594022 0.738271 0.875650
O O4 0.514558 0.797872 0.671793
O O5 0.300742 0.390425 0.233677
O O6 0.267877 0.354841 0.457092
O O7 0.209416 0.604272 0.357678
O O8 0.588597 0.908699 0.467203
O O9 0.487942 0.883950 0.273489
O O10 0.601148 0.129706 0.311261
O O11 0.292576 0.079620 0.456102
O O12 0.136631 0.101427 0.589755
O O13 0.147231 0.854174 0.461035
O O14 0.457340 0.260740 0.417130
#
# Coordination Sequence:
#
# PCOD9314808 Si02
#       7
#     4   4   4   4   4   4   4
#     4  10  22  45  70  97 134 180 227 279 346 404
#     4  10  24  44  67 100 133 178 227 280 334 412
#     4  11  24  45  68 100 137 180 227 281 345 402
#     4  10  22  42  66 101 132 173 227 278 342 408
#     4   9  20  43  68  89 133 177 220 279 337 396
#     4  12  24  40  66 101 132 174 227 283 338 408
#     4  10  22  43  69  92 135 180 225 280 336 408
#
# _framework density 21.942734999999999
#
# number of rings (size 3 to 8) (size 9 to 14) (size 15 to 20)
#    0.000    1.714    0.000    4.286    4.000    1.143 
#   18.000    0.000    0.000    0.000    0.000    0.000 
#    0.000    0.000    0.000    0.000    0.000    0.000 
#
# Total GULP energy -156385.686793 kJ/mol
# GULP energy per Si atom -5585.203100 kJ/mol
# Density = 2.189279 g / cm^3
# Si number density = 21.942735 Si / 1000 Ang^3
#
#
#
# Elastic Constant Matrix: (Units=GPa)
#
#
# Indices 1 2 3 4 5 6 
#
# 1 49.9191 30.7529 26.0191 0.0000 0.0000 0.0000
# 2 30.7529 124.8548 33.4102 0.0000 0.0000 0.0000
# 3 26.0191 33.4102 109.5772 0.0000 0.0000 0.0000
# 4 0.0000 0.0000 0.0000 28.0498 0.0000 0.0000
# 5 0.0000 0.0000 0.0000 0.0000 12.6333 0.0000
# 6 0.0000 0.0000 0.0000 0.0000 0.0000 18.4256
#
#
#
# Elastic Compliance Matrix: (Units=1/GPa)
#
#
# Indices 1 2 3 4 5 6 
#
# 1 0.025510 -0.005077 -0.004510 0.000000 0.000000 0.000000
# 2 -0.005077 0.009731 -0.001762 0.000000 0.000000 0.000000
# 3 -0.004510 -0.001762 0.010734 0.000000 0.000000 0.000000
# 4 0.000000 0.000000 0.000000 0.035651 0.000000 0.000000
# 5 0.000000 0.000000 0.000000 0.000000 0.079156 0.000000
# 6 0.000000 0.000000 0.000000 0.000000 0.000000 0.054272
#
#
# Mechanical properties :
#
#
# Convention : Reuss Voigt Hill
#
# Bulk Modulus (GPa) = 42.95579 51.63505 47.29542
# Shear Modulus (GPa) = 20.36574 24.76632 22.56603
#
# Velocity S-wave (km/s) = 3.04983 3.36323 3.21036
# Velocity P-wave (km/s) = 5.65869 6.21808 5.94497
#
# Compressibility (1/GPa) = 0.02327975
#
# Stress axis : x y z
#
# Youngs Moduli (GPa) = 39.19963 102.76301 93.16291
#
# Poissons Ratio (x) = 0.52170 0.42012
# Poissons Ratio (y) = 0.19901 0.16411
# Poissons Ratio (z) = 0.17677 0.18102
#
# Static dielectric constant tensor:
#      x y z
#    x 1.840460 0.000000 0.000000 
#    y 0.000000 1.828970 0.000000 
#    z 0.000000 0.000000 1.837400 
# 
# From -- ./inp_files/4950.got.cif
#   From: 2010.05.17/outbox.cif.g08.bks.cpg/sg19_3_cif.got.tgz:4950.got - 2010.06.03 22:46:19.
