data_PCOD9314786
_publ_section_title
;
Structure prediction by ZEFSAII (Michael W. Deem and Ramdas Pophale) SiO2 
 PCOD9314786
Probable space group: P 21 21 21
;
_chemical_formula_sum "Si O2"
_cell_formula_units_Z 24
_cell_length_a 13.646347
_cell_length_b 8.093403
_cell_length_c 9.187066
_cell_angle_alpha 90.000000
_cell_angle_beta 90.000000
_cell_angle_gamma 90.000000
_cell_volume 1014.669048
_symmetry_space_group_name_H-M "P 21 21 21"
_symmetry_group_IT_number 19
_symmetry_cell_setting 'orthorhombic'
loop_
_space_group_symop_operation_xyz
x,y,z
1/2-x,-y,1/2+z
1/2+x,1/2-y,-z
-x,1/2+y,1/2-z
loop_
_atom_site_type_symbol
_atom_site_label
_atom_site_fract_x
_atom_site_fract_y
_atom_site_fract_z
Si Si1 0.509222 0.712906 0.370957
Si Si2 0.324164 0.167884 0.479639
Si Si3 0.822311 0.826800 0.440952
Si Si4 0.791388 0.475896 0.815824
Si Si5 0.217132 0.462512 0.354713
Si Si6 0.960178 0.904893 0.941499
O O1 0.430456 0.671988 0.494703
O O2 0.604044 0.593607 0.371499
O O3 0.459272 0.692564 0.211730
O O4 0.539067 0.902436 0.395231
O O5 0.300819 0.027504 0.357660
O O6 0.306139 0.337264 0.392187
O O7 0.437309 0.145583 0.516231
O O8 0.249374 0.139666 0.610260
O O9 0.790903 0.658978 0.361452
O O10 0.805056 0.963262 0.315189
O O11 0.748404 0.867565 0.571960
O O12 0.125653 0.387650 0.442525
#
# Coordination Sequence:
#
# PCOD9314786 Si02
#       6
#     4   4   4   4   4   4
#     4  11  24  42  68  93 131 172 214 269 326 390
#     4  10  24  40  65  92 127 167 216 266 321 387
#     4  11  23  43  65  94 129 170 216 268 319 383
#     4  10  22  42  62  93 125 165 215 261 327 377
#     4  11  25  43  66  96 130 169 222 266 323 389
#     4  11  24  44  66  96 130 173 215 270 330 386
#
# _framework density 23.653034999999999
#
# number of rings (size 3 to 8) (size 9 to 14) (size 15 to 20)
#    0.000    1.333    3.333    1.000    9.333    2.667 
#    3.000    0.000    0.000    0.000    0.000    0.000 
#    0.000    0.000    0.000    0.000    0.000    0.000 
#
# Total GULP energy -134323.698167 kJ/mol
# GULP energy per Si atom -5596.820757 kJ/mol
# Density = 2.359920 g / cm^3
# Si number density = 23.653035 Si / 1000 Ang^3
#
#
#
# Elastic Constant Matrix: (Units=GPa)
#
#
# Indices 1 2 3 4 5 6 
#
# 1 100.4325 8.4346 22.4514 0.0000 0.0000 0.0000
# 2 8.4346 39.1167 4.0494 0.0000 0.0000 0.0000
# 3 22.4514 4.0494 80.4238 0.0000 0.0000 0.0000
# 4 0.0000 0.0000 0.0000 32.3470 0.0000 0.0000
# 5 0.0000 0.0000 0.0000 0.0000 43.3675 0.0000
# 6 0.0000 0.0000 0.0000 0.0000 0.0000 20.6059
#
#
#
# Elastic Compliance Matrix: (Units=1/GPa)
#
#
# Indices 1 2 3 4 5 6 
#
# 1 0.010777 -0.002023 -0.002907 0.000000 0.000000 0.000000
# 2 -0.002023 0.026078 -0.000748 0.000000 0.000000 0.000000
# 3 -0.002907 -0.000748 0.013283 0.000000 0.000000 0.000000
# 4 0.000000 0.000000 0.000000 0.030915 0.000000 0.000000
# 5 0.000000 0.000000 0.000000 0.000000 0.023059 0.000000
# 6 0.000000 0.000000 0.000000 0.000000 0.000000 0.048530
#
#
# Mechanical properties :
#
#
# Convention : Reuss Voigt Hill
#
# Bulk Modulus (GPa) = 25.78486 32.20486 28.99486
# Shear Modulus (GPa) = 28.26068 31.59992 29.93030
#
# Velocity S-wave (km/s) = 3.46034 3.65907 3.56109
# Velocity P-wave (km/s) = 5.18558 5.61220 5.40310
#
# Compressibility (1/GPa) = 0.03878244
#
# Stress axis : x y z
#
# Youngs Moduli (GPa) = 92.79386 38.34626 75.28295
#
# Poissons Ratio (x) = 0.07757 0.21882
# Poissons Ratio (y) = 0.18771 0.05634
# Poissons Ratio (z) = 0.26971 0.02870
#
# Static dielectric constant tensor:
#      x y z
#    x 1.872870 0.000000 0.000000 
#    y 0.000000 1.970580 0.000000 
#    z 0.000000 0.000000 1.871600 
# 
# From -- ./inp_files/2676.got.cif
#   From: 2010.05.17/outbox.cif.g08.bks.cpg/sg19_2_cif.got.tgz:2676.got - 2010.06.03 22:46:19.
