data_PCOD9314750
_publ_section_title
;
Structure prediction by ZEFSAII (Michael W. Deem and Ramdas Pophale) SiO2 
 PCOD9314750
Probable space group: P 21 21 21
;
_chemical_formula_sum "Si O2"
_cell_formula_units_Z 32
_cell_length_a 10.942716
_cell_length_b 22.453299
_cell_length_c 5.020155
_cell_angle_alpha 90.000000
_cell_angle_beta 90.000000
_cell_angle_gamma 90.000000
_cell_volume 1233.452456
_symmetry_space_group_name_H-M "P 21 21 21"
_symmetry_group_IT_number 19
_symmetry_cell_setting 'orthorhombic'
loop_
_space_group_symop_operation_xyz
x,y,z
1/2-x,-y,1/2+z
1/2+x,1/2-y,-z
-x,1/2+y,1/2-z
loop_
_atom_site_type_symbol
_atom_site_label
_atom_site_fract_x
_atom_site_fract_y
_atom_site_fract_z
Si Si1 0.125182 0.373091 0.842043
Si Si2 0.152812 0.462084 0.519966
Si Si3 0.446206 0.857095 0.040122
Si Si4 0.349361 0.412033 0.132809
Si Si5 0.738472 0.458419 0.504613
Si Si6 0.054962 0.743473 0.287616
Si Si7 0.322721 0.751309 0.328335
Si Si8 0.548124 0.629061 0.820408
O O1 0.151122 0.445628 0.829826
O O2 0.153664 0.311593 0.683363
O O3 0.249420 0.366343 0.027334
O O4 0.000824 0.369307 0.016297
O O5 0.276133 0.440175 0.385437
O O6 0.113336 0.528319 0.466339
O O7 0.059429 0.405874 0.478752
O O8 0.527361 0.880437 0.283286
O O9 0.376029 0.915148 0.929527
O O10 0.349934 0.807713 0.140324
O O11 0.540747 0.819590 0.860163
O O12 0.783796 0.492909 0.769779
O O13 0.838206 0.413226 0.379524
O O14 0.184387 0.752861 0.434199
O O15 0.062301 0.802370 0.100354
O O16 0.930384 0.746660 0.454694
#
# Coordination Sequence:
#
# PCOD9314750 Si02
#       8
#     4   4   4   4   4   4   4   4
#     4  10  22  41  68 100 142 192 248 320 399 467
#     4  11  21  40  67  98 145 190 246 324 389 485
#     4  12  27  45  77 113 153 205 271 334 412 496
#     4  11  23  39  65 108 141 193 253 320 398 483
#     4  12  30  53  79 113 161 215 274 335 408 497
#     4  11  25  48  76 111 155 207 269 343 414 490
#     4  11  24  47  73 109 153 206 266 338 405 494
#     4  10  24  45  71 102 144 200 259 314 409 474
#
# _framework density 25.943442999999998
#
# number of rings (size 3 to 8) (size 9 to 14) (size 15 to 20)
#    0.000    1.000    2.500    3.000    5.250    3.000 
#    4.500    0.000    0.000    0.000    0.000    0.000 
#    0.000    0.000    0.000    0.000    0.000    0.000 
#
# Total GULP energy -178244.887137 kJ/mol
# GULP energy per Si atom -5570.152723 kJ/mol
# Density = 2.588439 g / cm^3
# Si number density = 25.943443 Si / 1000 Ang^3
#
#
#
# Elastic Constant Matrix: (Units=GPa)
#
#
# Indices 1 2 3 4 5 6 
#
# 1 158.2634 27.7305 34.0735 0.0000 0.0000 0.0000
# 2 27.7305 177.8777 -0.7475 0.0000 0.0000 0.0000
# 3 34.0735 -0.7475 68.2425 0.0000 0.0000 0.0000
# 4 0.0000 0.0000 0.0000 41.3352 0.0000 0.0000
# 5 0.0000 0.0000 0.0000 0.0000 20.1937 0.0000
# 6 0.0000 0.0000 0.0000 0.0000 0.0000 45.1220
#
#
#
# Elastic Compliance Matrix: (Units=1/GPa)
#
#
# Indices 1 2 3 4 5 6 
#
# 1 0.007309 -0.001155 -0.003662 0.000000 0.000000 0.000000
# 2 -0.001155 0.005805 0.000640 0.000000 0.000000 0.000000
# 3 -0.003662 0.000640 0.016489 0.000000 0.000000 0.000000
# 4 0.000000 0.000000 0.000000 0.024192 0.000000 0.000000
# 5 0.000000 0.000000 0.000000 0.000000 0.049521 0.000000
# 6 0.000000 0.000000 0.000000 0.000000 0.000000 0.022162
#
#
# Mechanical properties :
#
#
# Convention : Reuss Voigt Hill
#
# Bulk Modulus (GPa) = 47.06029 58.49964 52.77996
# Shear Modulus (GPa) = 35.48233 44.21864 39.85048
#
# Velocity S-wave (km/s) = 3.70223 4.13295 3.92350
# Velocity P-wave (km/s) = 6.03774 6.73594 6.39637
#
# Compressibility (1/GPa) = 0.02124934
#
# Stress axis : x y z
#
# Youngs Moduli (GPa) = 136.81001 172.27787 60.64579
#
# Poissons Ratio (x) = 0.19896 0.22210
# Poissons Ratio (y) = 0.15800 -0.03883
# Poissons Ratio (z) = 0.50103 -0.11030
#
# Static dielectric constant tensor:
#      x y z
#    x 1.784290 0.000000 0.000000 
#    y 0.000000 2.821020 0.000000 
#    z 0.000000 0.000000 0.972790 
# 
# From -- ./inp_files/1178.got.cif
#   From: 2010.05.17/outbox.cif.g08.bks.cpg/sg19_1_cif.got.tgz:1178.got - 2010.06.03 22:46:19.
