data_PCOD9314418
_publ_section_title
;
Structure prediction by ZEFSAII (Michael W. Deem and Ramdas Pophale) SiO2 
 PCOD9314418
Probable space group: P 21 21 21
;
_chemical_formula_sum "Si O2"
_cell_formula_units_Z 32
_cell_length_a 18.562003
_cell_length_b 6.264504
_cell_length_c 12.167214
_cell_angle_alpha 90.000000
_cell_angle_beta 90.000000
_cell_angle_gamma 90.000000
_cell_volume 1414.824840
_symmetry_space_group_name_H-M "P 21 21 21"
_symmetry_group_IT_number 19
_symmetry_cell_setting 'orthorhombic'
loop_
_space_group_symop_operation_xyz
x,y,z
1/2-x,-y,1/2+z
1/2+x,1/2-y,-z
-x,1/2+y,1/2-z
loop_
_atom_site_type_symbol
_atom_site_label
_atom_site_fract_x
_atom_site_fract_y
_atom_site_fract_z
Si Si1 0.477355 0.046468 0.536890
Si Si2 0.072394 0.176890 0.620845
Si Si3 0.700675 0.285860 0.526468
Si Si4 0.032230 0.331888 0.861244
Si Si5 0.816710 0.947150 0.564302
Si Si6 0.786842 0.339598 0.194953
Si Si7 0.603722 0.027218 0.697175
Si Si8 0.157334 0.133427 0.131330
O O1 0.473623 0.867346 0.442272
O O2 0.525855 0.994881 0.644008
O O3 0.395890 0.042769 0.579567
O O4 0.519957 0.236081 0.476231
O O5 0.154688 0.201343 0.584667
O O6 0.052930 0.284100 0.736040
O O7 0.046101 0.936473 0.635893
O O8 0.702934 0.512883 0.587055
O O9 0.776640 0.164236 0.530053
O O10 0.651990 0.132402 0.601929
O O11 0.099373 0.471461 0.906607
O O12 0.776987 0.825596 0.666076
O O13 0.810669 0.781678 0.463418
O O14 0.856838 0.195561 0.219837
O O15 0.784497 0.512863 0.293001
O O16 0.610906 0.197827 0.795342
#
# Coordination Sequence:
#
# PCOD9314418 Si02
#       8
#     4   4   4   4   4   4   4   4
#     4  10  22  40  61  96 130 167 220 265 335 398
#     4  11  22  41  67  95 133 175 222 277 338 399
#     4   9  21  41  64  92 128 173 219 270 335 392
#     4  11  23  41  65  96 132 175 221 277 337 398
#     4  10  24  42  61  96 137 171 223 284 328 406
#     4  10  21  41  64  89 125 174 224 261 339 398
#     4   9  20  38  60  90 127 163 215 273 319 392
#     4  10  23  38  62  96 130 172 222 275 337 395
#
# _framework density 22.617639
#
# number of rings (size 3 to 8) (size 9 to 14) (size 15 to 20)
#    0.000    2.000    1.250    0.750    1.750    9.000 
#    2.250    0.000    0.000    0.000    0.000    0.000 
#    0.000    0.000    0.000    0.000    0.000    0.000 
#
# Total GULP energy -178568.351744 kJ/mol
# GULP energy per Si atom -5580.260992 kJ/mol
# Density = 2.256616 g / cm^3
# Si number density = 22.617639 Si / 1000 Ang^3
#
#
#
# Elastic Constant Matrix: (Units=GPa)
#
#
# Indices 1 2 3 4 5 6 
#
# 1 38.8348 31.2202 18.6225 0.0000 0.0000 0.0000
# 2 31.2202 53.3946 22.7300 0.0000 0.0000 0.0000
# 3 18.6225 22.7300 101.7400 0.0000 0.0000 0.0000
# 4 0.0000 0.0000 0.0000 28.0745 0.0000 0.0000
# 5 0.0000 0.0000 0.0000 0.0000 13.3409 0.0000
# 6 0.0000 0.0000 0.0000 0.0000 0.0000 11.5432
#
#
#
# Elastic Compliance Matrix: (Units=1/GPa)
#
#
# Indices 1 2 3 4 5 6 
#
# 1 0.049331 -0.027628 -0.002857 0.000000 0.000000 0.000000
# 2 -0.027628 0.036170 -0.003024 0.000000 0.000000 0.000000
# 3 -0.002857 -0.003024 0.011028 0.000000 0.000000 0.000000
# 4 0.000000 0.000000 0.000000 0.035620 0.000000 0.000000
# 5 0.000000 0.000000 0.000000 0.000000 0.074958 0.000000
# 6 0.000000 0.000000 0.000000 0.000000 0.000000 0.086631
#
#
# Mechanical properties :
#
#
# Convention : Reuss Voigt Hill
#
# Bulk Modulus (GPa) = 33.88599 37.67941 35.78270
# Shear Modulus (GPa) = 13.49200 18.68484 16.08842
#
# Velocity S-wave (km/s) = 2.44504 2.87734 2.66995
# Velocity P-wave (km/s) = 4.79433 5.26634 5.03586
#
# Compressibility (1/GPa) = 0.02951072
#
# Stress axis : x y z
#
# Youngs Moduli (GPa) = 20.27138 27.64736 90.68233
#
# Poissons Ratio (x) = 0.76383 0.25909
# Poissons Ratio (y) = 0.56005 0.27421
# Poissons Ratio (z) = 0.05792 0.08360
#
# Static dielectric constant tensor:
#      x y z
#    x 1.831770 0.000000 0.000000 
#    y 0.000000 1.855730 0.000000 
#    z 0.000000 0.000000 1.880600 
# 
# From -- ./inp_files/5472.got.cif
#   From: 2010.05.17/outbox.cif.g08.bks.cpg/sg19_3_cif.got.tgz:5472.got - 2010.06.03 22:46:19.
