data_PCOD9314327
_publ_section_title
;
Structure prediction by ZEFSAII (Michael W. Deem and Ramdas Pophale) SiO2 
 PCOD9314327
Probable space group: P 21 21 21
;
_chemical_formula_sum "Si O2"
_cell_formula_units_Z 32
_cell_length_a 10.024590
_cell_length_b 5.367967
_cell_length_c 24.320971
_cell_angle_alpha 90.000000
_cell_angle_beta 90.000000
_cell_angle_gamma 90.000000
_cell_volume 1308.752024
_symmetry_space_group_name_H-M "P 21 21 21"
_symmetry_group_IT_number 19
_symmetry_cell_setting 'orthorhombic'
loop_
_space_group_symop_operation_xyz
x,y,z
1/2-x,-y,1/2+z
1/2+x,1/2-y,-z
-x,1/2+y,1/2-z
loop_
_atom_site_type_symbol
_atom_site_label
_atom_site_fract_x
_atom_site_fract_y
_atom_site_fract_z
Si Si1 0.960911 0.459035 0.002265
Si Si2 0.941803 0.354326 0.117997
Si Si3 0.014051 0.094968 0.785814
Si Si4 0.206583 0.746085 0.898940
Si Si5 0.948266 0.080490 0.909311
Si Si6 0.266904 0.326814 0.513396
Si Si7 0.241082 0.402200 0.809238
Si Si8 0.569060 0.042570 0.774275
O O1 0.073897 0.660612 0.020614
O O2 0.974748 0.283798 0.055778
O O3 0.984441 0.324477 0.944550
O O4 0.812513 0.568720 0.994266
O O5 0.834243 0.579185 0.112888
O O6 0.870060 0.138750 0.152693
O O7 0.057425 0.436442 0.160153
O O8 0.934419 0.108132 0.843535
O O9 0.168100 0.141525 0.803196
O O10 0.995021 0.343181 0.748807
O O11 0.159970 0.591568 0.846117
O O12 0.077741 0.905681 0.915902
O O13 0.244007 0.571693 0.950843
O O14 0.818524 0.968858 0.940416
O O15 0.284734 0.507741 0.750949
O O16 0.508889 0.291819 0.745587
#
# Coordination Sequence:
#
# PCOD9314327 Si02
#       8
#     4   4   4   4   4   4   4   4
#     4  11  26  45  73 109 148 195 250 315 390 458
#     4  10  22  41  68 107 137 190 250 308 383 460
#     4  12  29  47  72 107 144 204 263 312 378 464
#     4  11  21  42  71 105 138 200 249 306 377 470
#     4  12  26  46  76 105 151 197 256 314 389 459
#     4  11  25  43  72 108 152 189 251 315 389 457
#     4  11  22  43  74  95 148 192 257 306 386 454
#     4  10  21  39  66 104 136 181 238 308 368 442
#
# _framework density 24.450772000000001
#
# number of rings (size 3 to 8) (size 9 to 14) (size 15 to 20)
#    0.000    1.000    3.750    2.250    5.250    1.000 
#    0.000    2.500    0.000    0.000    0.000    0.000 
#    0.000    0.000    0.000    0.000    0.000    0.000 
#
# Total GULP energy -178570.957034 kJ/mol
# GULP energy per Si atom -5580.342407 kJ/mol
# Density = 2.439512 g / cm^3
# Si number density = 24.450772 Si / 1000 Ang^3
#
#
#
# Elastic Constant Matrix: (Units=GPa)
#
#
# Indices 1 2 3 4 5 6 
#
# 1 48.2604 9.5752 33.2962 0.0000 0.0000 0.0000
# 2 9.5752 82.0865 53.4567 0.0000 0.0000 0.0000
# 3 33.2962 53.4567 186.6637 0.0000 0.0000 0.0000
# 4 0.0000 0.0000 0.0000 48.4126 0.0000 0.0000
# 5 0.0000 0.0000 0.0000 0.0000 38.3115 0.0000
# 6 0.0000 0.0000 0.0000 0.0000 0.0000 42.0283
#
#
#
# Elastic Compliance Matrix: (Units=1/GPa)
#
#
# Indices 1 2 3 4 5 6 
#
# 1 0.023629 -0.000014 -0.004211 0.000000 0.000000 0.000000
# 2 -0.000014 0.014975 -0.004286 0.000000 0.000000 0.000000
# 3 -0.004211 -0.004286 0.007336 0.000000 0.000000 0.000000
# 4 0.000000 0.000000 0.000000 0.020656 0.000000 0.000000
# 5 0.000000 0.000000 0.000000 0.000000 0.026102 0.000000
# 6 0.000000 0.000000 0.000000 0.000000 0.000000 0.023793
#
#
# Mechanical properties :
#
#
# Convention : Reuss Voigt Hill
#
# Bulk Modulus (GPa) = 34.58068 56.62965 45.60516
# Shear Modulus (GPa) = 34.92793 40.46265 37.69529
#
# Velocity S-wave (km/s) = 3.78365 4.07241 3.93068
# Velocity P-wave (km/s) = 5.76730 6.73229 6.26839
#
# Compressibility (1/GPa) = 0.02891788
#
# Stress axis : x y z
#
# Youngs Moduli (GPa) = 42.32113 66.77754 136.31853
#
# Poissons Ratio (x) = 0.00094 0.57400
# Poissons Ratio (y) = 0.00060 0.58427
# Poissons Ratio (z) = 0.17820 0.28621
#
# Static dielectric constant tensor:
#      x y z
#    x 2.052610 0.000000 0.000000 
#    y 0.000000 1.952570 0.000000 
#    z 0.000000 0.000000 2.024020 
# 
# From -- ./inp_files/7407.got.cif
#   From: 2010.05.17/outbox.cif.g08.bks.cpg/sg19_4_cif.got.tgz:7407.got - 2010.06.03 22:46:19.
