data_PCOD9314881
_publ_section_title
;
Structure prediction by ZEFSAII (Michael W. Deem and Ramdas Pophale) SiO2 
 PCOD9314881
Probable space group: P 21 21 21
;
_chemical_formula_sum "Si O2"
_cell_formula_units_Z 20
_cell_length_a 9.385632
_cell_length_b 7.243425
_cell_length_c 12.125674
_cell_angle_alpha 90.000000
_cell_angle_beta 90.000000
_cell_angle_gamma 90.000000
_cell_volume 824.353294
_symmetry_space_group_name_H-M "P 21 21 21"
_symmetry_group_IT_number 19
_symmetry_cell_setting 'orthorhombic'
loop_
_space_group_symop_operation_xyz
x,y,z
1/2-x,-y,1/2+z
1/2+x,1/2-y,-z
-x,1/2+y,1/2-z
loop_
_atom_site_type_symbol
_atom_site_label
_atom_site_fract_x
_atom_site_fract_y
_atom_site_fract_z
Si Si1 0.191946 0.248210 0.730572
Si Si2 0.163809 0.314205 0.341034
Si Si3 0.891830 0.346180 0.831387
Si Si4 0.543220 0.579667 0.650640
Si Si5 0.760116 0.946015 0.455269
O O1 0.149563 0.060267 0.666487
O O2 0.316910 0.194502 0.816106
O O3 0.234785 0.402776 0.642213
O O4 0.053401 0.315988 0.796051
O O5 0.291969 0.242409 0.264290
O O6 0.091220 0.125742 0.382327
O O7 0.225544 0.442948 0.435142
O O8 0.043879 0.415421 0.267409
O O9 0.844508 0.225738 0.935607
O O10 0.419476 0.630325 0.564006
#
# Coordination Sequence:
#
# PCOD9314881 Si02
#       5
#     4   4   4   4   4
#     4  11  21  41  67  97 140 184 225 295 352 411
#     4  10  23  42  69  97 136 187 232 291 357 417
#     4  10  23  41  63 101 138 177 230 293 351 406
#     4  10  22  43  68  96 141 183 227 298 348 411
#     4  11  23  43  67  97 139 183 242 277 352 435
#
# _framework density 24.26144
#
# number of rings (size 3 to 8) (size 9 to 14) (size 15 to 20)
#    0.000    1.600    4.000    0.000    2.800    0.000 
#    3.600    2.000    0.000    0.000    0.000    0.000 
#    0.000    0.000    0.000    0.000    0.000    0.000 
#
# Total GULP energy -112026.887355 kJ/mol
# GULP energy per Si atom -5601.344368 kJ/mol
# Density = 2.420622 g / cm^3
# Si number density = 24.261440 Si / 1000 Ang^3
#
#
#
# Elastic Constant Matrix: (Units=GPa)
#
#
# Indices 1 2 3 4 5 6 
#
# 1 191.6139 46.4583 43.3325 0.0000 0.0000 0.0000
# 2 46.4583 153.8261 16.4180 0.0000 0.0000 0.0000
# 3 43.3325 16.4180 65.9329 0.0000 0.0000 0.0000
# 4 0.0000 0.0000 0.0000 38.6368 0.0000 0.0000
# 5 0.0000 0.0000 0.0000 0.0000 27.9191 0.0000
# 6 0.0000 0.0000 0.0000 0.0000 0.0000 47.7599
#
#
#
# Elastic Compliance Matrix: (Units=1/GPa)
#
#
# Indices 1 2 3 4 5 6 
#
# 1 0.006467 -0.001540 -0.003866 0.000000 0.000000 0.000000
# 2 -0.001540 0.007045 -0.000742 0.000000 0.000000 0.000000
# 3 -0.003866 -0.000742 0.017893 0.000000 0.000000 0.000000
# 4 0.000000 0.000000 0.000000 0.025882 0.000000 0.000000
# 5 0.000000 0.000000 0.000000 0.000000 0.035818 0.000000
# 6 0.000000 0.000000 0.000000 0.000000 0.000000 0.020938
#
#
# Mechanical properties :
#
#
# Convention : Reuss Voigt Hill
#
# Bulk Modulus (GPa) = 52.33652 69.31005 60.82328
# Shear Modulus (GPa) = 37.67630 43.20743 40.44186
#
# Velocity S-wave (km/s) = 3.94500 4.22466 4.08722
# Velocity P-wave (km/s) = 6.50918 7.24065 6.88464
#
# Compressibility (1/GPa) = 0.01910712
#
# Stress axis : x y z
#
# Youngs Moduli (GPa) = 154.63861 141.93928 55.88835
#
# Poissons Ratio (x) = 0.21864 0.21609
# Poissons Ratio (y) = 0.23820 0.04147
# Poissons Ratio (z) = 0.59791 0.10531
#
# Static dielectric constant tensor:
#      x y z
#    x 1.913310 0.000000 0.000000 
#    y 0.000000 1.905330 0.000000 
#    z 0.000000 0.000000 1.973170 
# 
# From -- ./inp_files/2578.got.cif
#   From: 2010.05.17/outbox.cif.g08.bks.cpg/sg19_2_cif.got.tgz:2578.got - 2010.06.03 22:46:19.
