data_PCOD9314254
_publ_section_title
;
Structure prediction by ZEFSAII (Michael W. Deem and Ramdas Pophale) SiO2 
 PCOD9314254
Probable space group: P 21 21 21
;
_chemical_formula_sum "Si O2"
_cell_formula_units_Z 32
_cell_length_a 24.421822
_cell_length_b 5.305031
_cell_length_c 11.307099
_cell_angle_alpha 90.000000
_cell_angle_beta 90.000000
_cell_angle_gamma 90.000000
_cell_volume 1464.931043
_symmetry_space_group_name_H-M "P 21 21 21"
_symmetry_group_IT_number 19
_symmetry_cell_setting 'orthorhombic'
loop_
_space_group_symop_operation_xyz
x,y,z
1/2-x,-y,1/2+z
1/2+x,1/2-y,-z
-x,1/2+y,1/2-z
loop_
_atom_site_type_symbol
_atom_site_label
_atom_site_fract_x
_atom_site_fract_y
_atom_site_fract_z
Si Si1 0.724446 0.153862 0.035527
Si Si2 0.891271 0.088607 0.949893
Si Si3 0.502865 0.267994 0.169871
Si Si4 0.152545 0.704848 0.087206
Si Si5 0.112508 0.040479 0.911420
Si Si6 0.149145 0.073943 0.663452
Si Si7 0.675718 0.026987 0.673754
Si Si8 0.233088 0.074604 0.201161
O O1 0.670072 0.317256 0.063743
O O2 0.775229 0.156190 0.125362
O O3 0.745364 0.226764 0.904711
O O4 0.696365 0.884571 0.011062
O O5 0.953749 0.154251 0.918120
O O6 0.862221 0.361480 0.933988
O O7 0.872992 0.853076 0.865481
O O8 0.871939 0.987837 0.077652
O O9 0.503394 0.493857 0.268715
O O10 0.560164 0.280789 0.099052
O O11 0.148849 0.508062 0.195402
O O12 0.180499 0.926102 0.159405
O O13 0.104612 0.824189 0.009287
O O14 0.121027 0.946269 0.778135
O O15 0.212874 0.092162 0.695027
O O16 0.712763 0.278043 0.684275
#
# Coordination Sequence:
#
# PCOD9314254 Si02
#       8
#     4   4   4   4   4   4   4   4
#     4  10  21  38  62  98 131 185 220 285 338 423
#     4  12  26  44  69 104 135 186 227 299 350 415
#     4  12  25  47  72 103 132 176 237 306 354 407
#     4  10  23  40  61  94 137 187 229 281 348 421
#     4  11  24  39  70  94 137 172 239 283 360 411
#     4  12  24  40  69 101 139 175 230 275 356 409
#     4  11  23  39  68  96 152 176 241 272 366 426
#     4  10  22  37  59  98 135 187 217 275 336 422
#
# _framework density 21.844031000000001
#
# number of rings (size 3 to 8) (size 9 to 14) (size 15 to 20)
#    0.000    1.000    3.750    2.250    8.750    2.000 
#    0.000    0.000    8.250    0.000    0.000    0.000 
#    0.000    0.000    0.000    0.000    0.000    0.000 
#
# Total GULP energy -178195.575751 kJ/mol
# GULP energy per Si atom -5568.611742 kJ/mol
# Density = 2.179431 g / cm^3
# Si number density = 21.844031 Si / 1000 Ang^3
#
#
#
# Elastic Constant Matrix: (Units=GPa)
#
#
# Indices 1 2 3 4 5 6 
#
# 1 54.5958 -11.9275 3.1016 0.0000 0.0000 0.0000
# 2 -11.9275 73.4729 2.3458 0.0000 0.0000 0.0000
# 3 3.1016 2.3458 64.8927 0.0000 0.0000 0.0000
# 4 0.0000 0.0000 0.0000 28.5565 0.0000 0.0000
# 5 0.0000 0.0000 0.0000 0.0000 26.6501 0.0000
# 6 0.0000 0.0000 0.0000 0.0000 0.0000 23.0882
#
#
#
# Elastic Compliance Matrix: (Units=1/GPa)
#
#
# Indices 1 2 3 4 5 6 
#
# 1 0.019058 0.003126 -0.001024 0.000000 0.000000 0.000000
# 2 0.003126 0.014139 -0.000661 0.000000 0.000000 0.000000
# 3 -0.001024 -0.000661 0.015483 0.000000 0.000000 0.000000
# 4 0.000000 0.000000 0.000000 0.035018 0.000000 0.000000
# 5 0.000000 0.000000 0.000000 0.000000 0.037523 0.000000
# 6 0.000000 0.000000 0.000000 0.000000 0.000000 0.043312
#
#
# Mechanical properties :
#
#
# Convention : Reuss Voigt Hill
#
# Bulk Modulus (GPa) = 19.39348 20.00012 19.69680
# Shear Modulus (GPa) = 27.95839 28.95507 28.45673
#
# Velocity S-wave (km/s) = 3.58146 3.64474 3.61324
# Velocity P-wave (km/s) = 5.09901 5.18536 5.14237
#
# Compressibility (1/GPa) = 0.05156371
#
# Stress axis : x y z
#
# Youngs Moduli (GPa) = 52.47242 70.72589 64.58753
#
# Poissons Ratio (x) = -0.22112 0.06613
# Poissons Ratio (y) = -0.16405 0.04266
# Poissons Ratio (z) = 0.05373 0.04672
#
# Static dielectric constant tensor:
#      x y z
#    x 1.818230 0.000000 0.000000 
#    y 0.000000 1.903580 0.000000 
#    z 0.000000 0.000000 1.896930 
# 
# From -- ./inp_files/1252.got.cif
#   From: 2010.05.17/outbox.cif.g08.bks.cpg/sg19_1_cif.got.tgz:1252.got - 2010.06.03 22:46:19.
