data_PCOD9314561
_publ_section_title
;
Structure prediction by ZEFSAII (Michael W. Deem and Ramdas Pophale) SiO2 
 PCOD9314561
Probable space group: P 21 21 21
;
_chemical_formula_sum "Si O2"
_cell_formula_units_Z 28
_cell_length_a 14.857450
_cell_length_b 9.499289
_cell_length_c 9.443503
_cell_angle_alpha 90.000000
_cell_angle_beta 90.000000
_cell_angle_gamma 90.000000
_cell_volume 1332.810792
_symmetry_space_group_name_H-M "P 21 21 21"
_symmetry_group_IT_number 19
_symmetry_cell_setting 'orthorhombic'
loop_
_space_group_symop_operation_xyz
x,y,z
1/2-x,-y,1/2+z
1/2+x,1/2-y,-z
-x,1/2+y,1/2-z
loop_
_atom_site_type_symbol
_atom_site_label
_atom_site_fract_x
_atom_site_fract_y
_atom_site_fract_z
Si Si1 0.553937 0.037458 0.436921
Si Si2 0.912780 0.656895 0.026929
Si Si3 0.780265 0.524794 0.825398
Si Si4 0.090033 0.073131 0.154116
Si Si5 0.142633 0.750157 0.577183
Si Si6 0.979575 0.937107 0.630230
Si Si7 0.317984 0.752539 0.411280
O O1 0.599743 0.182258 0.482823
O O2 0.495864 0.065721 0.296077
O O3 0.493675 0.989928 0.569623
O O4 0.617811 0.909582 0.387495
O O5 0.930829 0.634346 0.191869
O O6 0.824329 0.571882 0.974836
O O7 0.994638 0.585734 0.938545
O O8 0.673000 0.535391 0.826212
O O9 0.808887 0.359947 0.814525
O O10 0.822333 0.629141 0.710252
O O11 0.133394 0.188211 0.050594
O O12 0.213499 0.735473 0.449313
O O13 0.046581 0.826658 0.552247
O O14 0.877219 0.883767 0.624766
#
# Coordination Sequence:
#
# PCOD9314561 Si02
#       7
#     4   4   4   4   4   4   4
#     4  12  24  45  68 103 139 182 234 295 348 418
#     4  11  25  40  67 103 134 179 235 284 357 415
#     4  10  21  45  69  97 133 187 234 272 352 429
#     4  11  23  39  69  96 142 179 226 290 347 409
#     4  10  23  40  71 101 135 176 232 288 340 406
#     4  11  22  45  70  96 139 189 234 281 353 429
#     4  11  22  44  70 100 140 186 231 292 347 424
#
# _framework density 21.008233000000001
#
# number of rings (size 3 to 8) (size 9 to 14) (size 15 to 20)
#    0.000    1.143    2.857    5.143    2.000    2.286 
#    7.714    0.000    0.000    0.000    0.000    0.000 
#    0.000    0.000    0.000    0.000    0.000    0.000 
#
# Total GULP energy -156136.304367 kJ/mol
# GULP energy per Si atom -5576.296585 kJ/mol
# Density = 2.096042 g / cm^3
# Si number density = 21.008233 Si / 1000 Ang^3
#
#
#
# Elastic Constant Matrix: (Units=GPa)
#
#
# Indices 1 2 3 4 5 6 
#
# 1 58.0581 18.8710 2.0945 0.0000 0.0000 0.0000
# 2 18.8710 108.3129 10.0885 0.0000 0.0000 0.0000
# 3 2.0945 10.0885 94.9754 0.0000 0.0000 0.0000
# 4 0.0000 0.0000 0.0000 15.5583 0.0000 0.0000
# 5 0.0000 0.0000 0.0000 0.0000 27.2095 0.0000
# 6 0.0000 0.0000 0.0000 0.0000 0.0000 17.7044
#
#
#
# Elastic Compliance Matrix: (Units=1/GPa)
#
#
# Indices 1 2 3 4 5 6 
#
# 1 0.018258 -0.003175 -0.000065 0.000000 0.000000 0.000000
# 2 -0.003175 0.009877 -0.000979 0.000000 0.000000 0.000000
# 3 -0.000065 -0.000979 0.010634 0.000000 0.000000 0.000000
# 4 0.000000 0.000000 0.000000 0.064274 0.000000 0.000000
# 5 0.000000 0.000000 0.000000 0.000000 0.036752 0.000000
# 6 0.000000 0.000000 0.000000 0.000000 0.000000 0.056483
#
#
# Mechanical properties :
#
#
# Convention : Reuss Voigt Hill
#
# Bulk Modulus (GPa) = 32.96981 35.93936 34.45459
# Shear Modulus (GPa) = 23.27435 27.44725 25.36080
#
# Velocity S-wave (km/s) = 3.33208 3.61847 3.47822
# Velocity P-wave (km/s) = 5.52553 5.88237 5.70674
#
# Compressibility (1/GPa) = 0.03033078
#
# Stress axis : x y z
#
# Youngs Moduli (GPa) = 54.76903 101.24649 94.03364
#
# Poissons Ratio (x) = 0.32146 0.00615
# Poissons Ratio (y) = 0.17389 0.09207
# Poissons Ratio (z) = 0.00358 0.09913
#
# Static dielectric constant tensor:
#      x y z
#    x 1.813350 0.000000 0.000000 
#    y 0.000000 1.786180 0.000000 
#    z 0.000000 0.000000 1.768300 
# 
# From -- ./inp_files/4158.got.cif
#   From: 2010.05.17/outbox.cif.g08.bks.cpg/sg19_3_cif.got.tgz:4158.got - 2010.06.03 22:46:19.
