data_PCOD9314730
_publ_section_title
;
Structure prediction by ZEFSAII (Michael W. Deem and Ramdas Pophale) SiO2 
 PCOD9314730
Probable space group: P 21 21 21
;
_chemical_formula_sum "Si O2"
_cell_formula_units_Z 32
_cell_length_a 19.595471
_cell_length_b 11.411599
_cell_length_c 7.205779
_cell_angle_alpha 90.000000
_cell_angle_beta 90.000000
_cell_angle_gamma 90.000000
_cell_volume 1611.325007
_symmetry_space_group_name_H-M "P 21 21 21"
_symmetry_group_IT_number 19
_symmetry_cell_setting 'orthorhombic'
loop_
_space_group_symop_operation_xyz
x,y,z
1/2-x,-y,1/2+z
1/2+x,1/2-y,-z
-x,1/2+y,1/2-z
loop_
_atom_site_type_symbol
_atom_site_label
_atom_site_fract_x
_atom_site_fract_y
_atom_site_fract_z
Si Si1 0.206421 0.384065 0.816765
Si Si2 0.394932 0.885768 0.649776
Si Si3 0.345986 0.041751 0.983005
Si Si4 0.394932 0.614232 0.649776
Si Si5 0.015225 0.618342 0.631245
Si Si6 0.015225 0.881658 0.631246
Si Si7 0.706421 0.384065 0.183235
Si Si8 0.154014 0.541751 0.483005
O O1 0.188637 0.250000 0.773119
O O2 0.189145 0.463624 0.641894
O O3 0.284724 0.392504 0.879653
O O4 0.159117 0.420946 0.990121
O O5 0.381554 0.750000 0.695798
O O6 0.468400 0.893279 0.552061
O O7 0.340882 0.920946 0.490120
O O8 0.383660 0.962101 0.830521
O O9 0.284724 0.107497 0.879653
O O10 0.405353 0.115909 0.078947
O O11 0.310854 0.963624 0.141894
O O12 0.468400 0.606721 0.552061
O O13 0.383660 0.537900 0.830521
O O14 0.998683 0.750000 0.710886
O O15 0.094647 0.615910 0.578946
O O16 0.000000 0.500000 0.750000
#
# Coordination Sequence:
#
# PCOD9314730 Si02
#       8
#     4   4   4   4   4   4   4   4
#     4  11  23  39  62  93 128 165 215 269 322 385
#     4  10  22  41  64  93 126 168 216 269 327 386
#     4  12  22  42  65  94 126 172 214 267 327 387
#     4  10  22  41  64  93 126 168 216 269 327 386
#     4  11  24  43  68  98 134 170 220 275 324 388
#     4  11  24  43  68  98 134 170 220 275 324 388
#     4  11  23  39  62  93 128 165 215 269 322 385
#     4  12  22  42  65  94 126 172 214 267 327 387
#
# _framework density 19.859431000000001
#
# number of rings (size 3 to 8) (size 9 to 14) (size 15 to 20)
#    0.000    1.000    5.000    2.250    0.000    1.000 
#    0.000    5.000    0.000    0.000    0.000    0.000 
#    0.000    0.000    0.000    0.000    0.000    0.000 
#
# Total GULP energy -178663.711217 kJ/mol
# GULP energy per Si atom -5583.240976 kJ/mol
# Density = 1.981423 g / cm^3
# Si number density = 19.859431 Si / 1000 Ang^3
#
#
#
# Elastic Constant Matrix: (Units=GPa)
#
#
# Indices 1 2 3 4 5 6 
#
# 1 114.4682 19.6189 12.6352 0.0000 0.0000 0.0000
# 2 19.6189 109.0802 57.1808 0.0000 0.0000 0.0000
# 3 12.6352 57.1808 57.0015 0.0000 0.0000 0.0000
# 4 0.0000 0.0000 0.0000 21.1797 0.0000 0.0000
# 5 0.0000 0.0000 0.0000 0.0000 36.2094 0.0000
# 6 0.0000 0.0000 0.0000 0.0000 0.0000 20.2263
#
#
#
# Elastic Compliance Matrix: (Units=1/GPa)
#
#
# Indices 1 2 3 4 5 6 
#
# 1 0.009031 -0.001212 -0.000785 0.000000 0.000000 0.000000
# 2 -0.001212 0.019498 -0.019290 0.000000 0.000000 0.000000
# 3 -0.000785 -0.019290 0.037069 0.000000 0.000000 0.000000
# 4 0.000000 0.000000 0.000000 0.047215 0.000000 0.000000
# 5 0.000000 0.000000 0.000000 0.000000 0.027617 0.000000
# 6 0.000000 0.000000 0.000000 0.000000 0.000000 0.049441
#
#
# Mechanical properties :
#
#
# Convention : Reuss Voigt Hill
#
# Bulk Modulus (GPa) = 43.43991 51.04665 47.24328
# Shear Modulus (GPa) = 20.82292 28.26408 24.54350
#
# Velocity S-wave (km/s) = 3.24159 3.77663 3.51930
# Velocity P-wave (km/s) = 5.99431 6.69157 6.35251
#
# Compressibility (1/GPa) = 0.02302031
#
# Stress axis : x y z
#
# Youngs Moduli (GPa) = 110.73515 51.28769 26.97697
#
# Poissons Ratio (x) = 0.06218 0.02119
# Poissons Ratio (y) = 0.13426 0.52040
# Poissons Ratio (z) = 0.08698 0.98936
#
# Static dielectric constant tensor:
#      x y z
#    x 1.712880 0.000000 0.000000 
#    y 0.000000 1.723520 0.000000 
#    z 0.000000 0.000000 1.670600 
# 
# From -- ./inp_files/2050.got.cif
#   From: 2010.05.17/outbox.cif.g08.bks.cpg/sg19_2_cif.got.tgz:2050.got - 2010.06.03 22:46:19.
