data_PCOD9314251
_publ_section_title
;
Structure prediction by ZEFSAII (Michael W. Deem and Ramdas Pophale) SiO2 
 PCOD9314251
Probable space group: P 21 21 21
;
_chemical_formula_sum "Si O2"
_cell_formula_units_Z 32
_cell_length_a 8.103849
_cell_length_b 13.818594
_cell_length_c 13.696580
_cell_angle_alpha 90.000000
_cell_angle_beta 90.000000
_cell_angle_gamma 90.000000
_cell_volume 1533.795064
_symmetry_space_group_name_H-M "P 21 21 21"
_symmetry_group_IT_number 19
_symmetry_cell_setting 'orthorhombic'
loop_
_space_group_symop_operation_xyz
x,y,z
1/2-x,-y,1/2+z
1/2+x,1/2-y,-z
-x,1/2+y,1/2-z
loop_
_atom_site_type_symbol
_atom_site_label
_atom_site_fract_x
_atom_site_fract_y
_atom_site_fract_z
Si Si1 0.814408 0.638566 0.391378
Si Si2 0.972924 0.779122 0.517901
Si Si3 0.204999 0.732443 0.771854
Si Si4 0.297315 0.359074 0.606617
Si Si5 0.435806 0.717396 0.948451
Si Si6 0.359876 0.073227 0.687125
Si Si7 0.142295 0.426063 0.150430
Si Si8 0.835076 0.746783 0.726429
O O1 0.962362 0.676237 0.460711
O O2 0.647572 0.681871 0.441516
O O3 0.820901 0.694629 0.288627
O O4 0.806285 0.526007 0.364777
O O5 0.912902 0.856368 0.437654
O O6 0.852981 0.765395 0.611394
O O7 0.277678 0.725789 0.878404
O O8 0.222434 0.631333 0.713984
O O9 0.018911 0.765241 0.765125
O O10 0.139801 0.316706 0.549555
O O11 0.460812 0.316161 0.555516
O O12 0.296696 0.473535 0.608129
O O13 0.286762 0.318892 0.717062
O O14 0.554852 0.639354 0.896230
O O15 0.493588 0.055296 0.772937
O O16 0.221928 0.139812 0.739717
#
# Coordination Sequence:
#
# PCOD9314251 Si02
#       8
#     4   4   4   4   4   4   4   4
#     4  10  21  38  62  88 118 159 202 252 313 372
#     4  10  22  40  62  90 123 161 204 257 315 373
#     4   9  20  39  59  85 118 151 196 253 308 370
#     4  11  23  39  59  85 118 163 205 252 310 370
#     4  10  22  38  58  83 119 159 201 254 310 370
#     4  10  22  40  62  90 121 159 206 256 314 377
#     4  10  22  38  61  89 118 158 204 250 309 373
#     4  10  22  40  61  88 125 160 204 260 315 377
#
# _framework density 20.863282000000002
#
# number of rings (size 3 to 8) (size 9 to 14) (size 15 to 20)
#    0.000    2.000    0.000    2.250    0.000   13.000 
#    0.000    6.250    0.000    0.000    0.000    0.000 
#    0.000    0.000    0.000    0.000    0.000    0.000 
#
# Total GULP energy -178633.320240 kJ/mol
# GULP energy per Si atom -5582.291257 kJ/mol
# Density = 2.081580 g / cm^3
# Si number density = 20.863282 Si / 1000 Ang^3
#
#
#
# Elastic Constant Matrix: (Units=GPa)
#
#
# Indices 1 2 3 4 5 6 
#
# 1 45.5764 -3.9170 16.0787 0.0000 0.0000 0.0000
# 2 -3.9170 61.9727 9.4137 0.0000 0.0000 0.0000
# 3 16.0787 9.4137 102.0345 0.0000 0.0000 0.0000
# 4 0.0000 0.0000 0.0000 16.0687 0.0000 0.0000
# 5 0.0000 0.0000 0.0000 0.0000 19.1970 0.0000
# 6 0.0000 0.0000 0.0000 0.0000 0.0000 16.2306
#
#
#
# Elastic Compliance Matrix: (Units=1/GPa)
#
#
# Indices 1 2 3 4 5 6 
#
# 1 0.023493 0.002076 -0.003894 0.000000 0.000000 0.000000
# 2 0.002076 0.016549 -0.001854 0.000000 0.000000 0.000000
# 3 -0.003894 -0.001854 0.010585 0.000000 0.000000 0.000000
# 4 0.000000 0.000000 0.000000 0.062233 0.000000 0.000000
# 5 0.000000 0.000000 0.000000 0.000000 0.052092 0.000000
# 6 0.000000 0.000000 0.000000 0.000000 0.000000 0.061612
#
#
# Mechanical properties :
#
#
# Convention : Reuss Voigt Hill
#
# Bulk Modulus (GPa) = 23.10279 28.08161 25.59220
# Shear Modulus (GPa) = 20.13412 22.83314 21.48363
#
# Velocity S-wave (km/s) = 3.10990 3.31179 3.21243
# Velocity P-wave (km/s) = 4.89824 5.30217 5.10420
#
# Compressibility (1/GPa) = 0.04328482
#
# Stress axis : x y z
#
# Youngs Moduli (GPa) = 42.56545 60.42664 94.47131
#
# Poissons Ratio (x) = -0.12547 0.36784
# Poissons Ratio (y) = -0.08838 0.17515
# Poissons Ratio (z) = 0.16574 0.11203
#
# Static dielectric constant tensor:
#      x y z
#    x 1.770070 0.000000 0.000000 
#    y 0.000000 1.776610 0.000000 
#    z 0.000000 0.000000 1.764440 
# 
# From -- ./inp_files/4692.got.cif
#   From: 2010.05.17/outbox.cif.g08.bks.cpg/sg19_3_cif.got.tgz:4692.got - 2010.06.03 22:46:19.
