data_PCOD9314014
_publ_section_title
;
Structure prediction by ZEFSAII (Michael W. Deem and Ramdas Pophale) SiO2 
 PCOD9314014
Probable space group: P 21 21 21
;
_chemical_formula_sum "Si O2"
_cell_formula_units_Z 20
_cell_length_a 9.105444
_cell_length_b 8.153990
_cell_length_c 12.862334
_cell_angle_alpha 90.000000
_cell_angle_beta 90.000000
_cell_angle_gamma 90.000000
_cell_volume 954.972983
_symmetry_space_group_name_H-M "P 21 21 21"
_symmetry_group_IT_number 19
_symmetry_cell_setting 'orthorhombic'
loop_
_space_group_symop_operation_xyz
x,y,z
1/2-x,-y,1/2+z
1/2+x,1/2-y,-z
-x,1/2+y,1/2-z
loop_
_atom_site_type_symbol
_atom_site_label
_atom_site_fract_x
_atom_site_fract_y
_atom_site_fract_z
Si Si1 0.676398 0.551752 0.136473
Si Si2 0.750000 0.851740 1.000000
Si Si3 0.021450 0.935370 0.437296
Si Si4 0.676398 0.448248 0.363527
Si Si5 0.521450 0.435370 0.937296
O O1 0.623852 0.500000 0.250000
O O2 0.590911 0.440021 0.053278
O O3 0.671287 0.734134 0.085765
O O4 0.850663 0.516423 0.130175
O O5 0.828713 0.734134 0.914235
O O6 0.872036 0.962370 0.055918
O O7 0.627964 0.962370 0.944082
O O8 0.000000 0.750000 0.403175
O O9 0.090911 0.940021 0.553278
O O10 0.850663 0.483577 0.369825
#
# Coordination Sequence:
#
# PCOD9314014 Si02
#       5
#     4   4   4   4   4
#     4  10  21  37  57  83 111 148 190 230 279 334
#     4  10  20  40  60  80 116 154 184 234 284 330
#     4  10  21  38  57  82 114 150 188 230 279 336
#     4  10  21  37  57  83 111 148 190 230 279 334
#     4  10  21  38  57  82 114 150 188 230 279 336
#
# _framework density 20.943000000000001
#
# number of rings (size 3 to 8) (size 9 to 14) (size 15 to 20)
#    0.000    2.400    0.000    7.200    0.000    6.400 
#    0.000    6.000    0.000    0.000    0.000    0.000 
#    0.000    0.000    0.000    0.000    0.000    0.000 
#
# Total GULP energy -111527.032710 kJ/mol
# GULP energy per Si atom -5576.351636 kJ/mol
# Density = 2.089533 g / cm^3
# Si number density = 20.943000 Si / 1000 Ang^3
#
#
#
# Elastic Constant Matrix: (Units=GPa)
#
#
# Indices 1 2 3 4 5 6 
#
# 1 72.8003 19.2145 -30.7232 0.0000 0.0000 0.0000
# 2 19.2145 108.9620 -23.1472 0.0000 0.0000 0.0000
# 3 -30.7232 -23.1472 90.8065 0.0000 0.0000 0.0000
# 4 0.0000 0.0000 0.0000 0.6795 0.0000 0.0000
# 5 0.0000 0.0000 0.0000 0.0000 10.5855 0.0000
# 6 0.0000 0.0000 0.0000 0.0000 0.0000 37.3366
#
#
#
# Elastic Compliance Matrix: (Units=1/GPa)
#
#
# Indices 1 2 3 4 5 6 
#
# 1 0.016354 -0.001806 0.005073 0.000000 0.000000 0.000000
# 2 -0.001806 0.009902 0.001913 0.000000 0.000000 0.000000
# 3 0.005073 0.001913 0.013216 0.000000 0.000000 0.000000
# 4 0.000000 0.000000 0.000000 1.471584 0.000000 0.000000
# 5 0.000000 0.000000 0.000000 0.000000 0.094469 0.000000
# 6 0.000000 0.000000 0.000000 0.000000 0.000000 0.026783
#
#
# Mechanical properties :
#
#
# Convention : Reuss Voigt Hill
#
# Bulk Modulus (GPa) = 20.06764 22.58411 21.32587
# Shear Modulus (GPa) = 3.05146 30.20196 16.62671
#
# Velocity S-wave (km/s) = 1.20838 3.80162 2.82069
# Velocity P-wave (km/s) = 3.39849 5.48423 4.56216
#
# Compressibility (1/GPa) = 0.04983146
#
# Stress axis : x y z
#
# Youngs Moduli (GPa) = 61.14826 100.98530 75.66384
#
# Poissons Ratio (x) = 0.18240 -0.38382
# Poissons Ratio (y) = 0.11045 -0.14475
# Poissons Ratio (z) = -0.31018 -0.19319
#
# Static dielectric constant tensor:
#      x y z
#    x 1.767270 0.000000 0.000000 
#    y 0.000000 1.761970 0.000000 
#    z 0.000000 0.000000 1.772200 
# 
# From -- ./inp_files/2712.got.cif
#   From: 2010.05.17/outbox.cif.g08.bks.cpg/sg19_2_cif.got.tgz:2712.got - 2010.06.03 22:46:19.
