data_PCOD9314328
_publ_section_title
;
Structure prediction by ZEFSAII (Michael W. Deem and Ramdas Pophale) SiO2 
 PCOD9314328
Probable space group: P 21 21 21
;
_chemical_formula_sum "Si O2"
_cell_formula_units_Z 32
_cell_length_a 5.416775
_cell_length_b 18.012302
_cell_length_c 15.045345
_cell_angle_alpha 90.000000
_cell_angle_beta 90.000000
_cell_angle_gamma 90.000000
_cell_volume 1467.953055
_symmetry_space_group_name_H-M "P 21 21 21"
_symmetry_group_IT_number 19
_symmetry_cell_setting 'orthorhombic'
loop_
_space_group_symop_operation_xyz
x,y,z
1/2-x,-y,1/2+z
1/2+x,1/2-y,-z
-x,1/2+y,1/2-z
loop_
_atom_site_type_symbol
_atom_site_label
_atom_site_fract_x
_atom_site_fract_y
_atom_site_fract_z
Si Si1 0.643008 0.987946 0.499068
Si Si2 0.348748 0.610250 0.355024
Si Si3 0.242882 0.903670 0.078196
Si Si4 0.001493 0.331876 0.255933
Si Si5 0.231305 0.074293 0.866759
Si Si6 0.988241 0.577678 0.098857
Si Si7 0.888143 0.041669 0.712599
Si Si8 0.367836 0.831498 0.721813
O O1 0.829443 0.932613 0.551006
O O2 0.484998 0.931798 0.438096
O O3 0.454835 0.028854 0.568692
O O4 0.739249 0.058769 0.440306
O O5 0.298835 0.541512 0.288367
O O6 0.614392 0.643430 0.327242
O O7 0.109455 0.660975 0.341113
O O8 0.499420 0.933358 0.119009
O O9 0.143143 0.843818 0.149921
O O10 0.324085 0.883347 0.978498
O O11 0.193634 0.399333 0.254872
O O12 0.138937 0.254220 0.250883
O O13 0.839591 0.347808 0.167007
O O14 0.122335 0.043748 0.775134
O O15 0.411851 0.008862 0.895062
O O16 0.928164 0.620957 0.189057
#
# Coordination Sequence:
#
# PCOD9314328 Si02
#       8
#     4   4   4   4   4   4   4   4
#     4  11  22  40  75 106 136 178 251 314 357 416
#     4  12  24  46  70 104 135 192 244 306 351 420
#     4  10  21  39  66 104 137 181 235 300 361 430
#     4  11  24  44  67  99 146 196 228 294 383 449
#     4  10  22  38  72 101 130 182 241 301 350 432
#     4  11  22  41  67 108 138 181 249 298 353 427
#     4  11  20  42  73  94 133 184 248 287 358 430
#     4  12  29  44  70 104 153 192 236 298 373 448
#
# _framework density 21.799060999999998
#
# number of rings (size 3 to 8) (size 9 to 14) (size 15 to 20)
#    0.000    1.000    3.750    3.000    7.000    0.000 
#    4.500    0.000    5.500    0.000    0.000    0.000 
#    0.000    0.000    0.000    0.000    0.000    0.000 
#
# Total GULP energy -178267.008529 kJ/mol
# GULP energy per Si atom -5570.844017 kJ/mol
# Density = 2.174945 g / cm^3
# Si number density = 21.799061 Si / 1000 Ang^3
#
#
#
# Elastic Constant Matrix: (Units=GPa)
#
#
# Indices 1 2 3 4 5 6 
#
# 1 94.1611 38.3030 22.5227 0.0000 0.0000 0.0000
# 2 38.3030 88.3543 32.6946 0.0000 0.0000 0.0000
# 3 22.5227 32.6946 73.5197 0.0000 0.0000 0.0000
# 4 0.0000 0.0000 0.0000 19.5736 0.0000 0.0000
# 5 0.0000 0.0000 0.0000 0.0000 41.1194 0.0000
# 6 0.0000 0.0000 0.0000 0.0000 0.0000 26.1654
#
#
#
# Elastic Compliance Matrix: (Units=1/GPa)
#
#
# Indices 1 2 3 4 5 6 
#
# 1 0.013085 -0.005015 -0.001779 0.000000 0.000000 0.000000
# 2 -0.005015 0.015469 -0.005343 0.000000 0.000000 0.000000
# 3 -0.001779 -0.005343 0.016523 0.000000 0.000000 0.000000
# 4 0.000000 0.000000 0.000000 0.051089 0.000000 0.000000
# 5 0.000000 0.000000 0.000000 0.000000 0.024319 0.000000
# 6 0.000000 0.000000 0.000000 0.000000 0.000000 0.038218
#
#
# Mechanical properties :
#
#
# Convention : Reuss Voigt Hill
#
# Bulk Modulus (GPa) = 48.06592 49.23063 48.64827
# Shear Modulus (GPa) = 26.32804 28.20600 27.26702
#
# Velocity S-wave (km/s) = 3.47905 3.60100 3.54055
# Velocity P-wave (km/s) = 6.18351 6.31842 6.25133
#
# Compressibility (1/GPa) = 0.02080476
#
# Stress axis : x y z
#
# Youngs Moduli (GPa) = 76.42122 64.64519 60.52264
#
# Poissons Ratio (x) = 0.32416 0.10765
# Poissons Ratio (y) = 0.38322 0.32337
# Poissons Ratio (z) = 0.13593 0.34540
#
# Static dielectric constant tensor:
#      x y z
#    x 1.922050 0.000000 0.000000 
#    y 0.000000 1.777290 0.000000 
#    z 0.000000 0.000000 1.914090 
# 
# From -- ./inp_files/5763.got.cif
#   From: 2010.05.17/outbox.cif.g08.bks.cpg/sg19_3_cif.got.tgz:5763.got - 2010.06.03 22:46:19.
