data_PCOD9314368
_publ_section_title
;
Structure prediction by ZEFSAII (Michael W. Deem and Ramdas Pophale) SiO2 
 PCOD9314368
Probable space group: P 21 21 21
;
_chemical_formula_sum "Si O2"
_cell_formula_units_Z 28
_cell_length_a 9.119537
_cell_length_b 23.360605
_cell_length_c 5.233892
_cell_angle_alpha 90.000000
_cell_angle_beta 90.000000
_cell_angle_gamma 90.000000
_cell_volume 1115.017369
_symmetry_space_group_name_H-M "P 21 21 21"
_symmetry_group_IT_number 19
_symmetry_cell_setting 'orthorhombic'
loop_
_space_group_symop_operation_xyz
x,y,z
1/2-x,-y,1/2+z
1/2+x,1/2-y,-z
-x,1/2+y,1/2-z
loop_
_atom_site_type_symbol
_atom_site_label
_atom_site_fract_x
_atom_site_fract_y
_atom_site_fract_z
Si Si1 0.267382 0.840593 0.293309
Si Si2 0.844768 0.487535 0.710818
Si Si3 0.266885 0.648997 0.665246
Si Si4 0.015136 0.781566 0.021480
Si Si5 0.990121 0.174227 0.176400
Si Si6 0.981876 0.083751 0.542774
Si Si7 0.520157 0.621967 0.356648
O O1 0.177435 0.797092 0.122059
O O2 0.365702 0.813058 0.514531
O O3 0.377188 0.882002 0.149880
O O4 0.139855 0.877019 0.423026
O O5 0.779035 0.509350 0.439134
O O6 0.912694 0.424225 0.664719
O O7 0.978543 0.521893 0.848524
O O8 0.384344 0.687392 0.819283
O O9 0.151799 0.685259 0.497129
O O10 0.168021 0.609390 0.845973
O O11 0.362588 0.610191 0.474059
O O12 0.006753 0.714380 0.074392
O O13 0.008374 0.813484 0.752498
O O14 0.984527 0.106859 0.251562
#
# Coordination Sequence:
#
# PCOD9314368 Si02
#       7
#     4   4   4   4   4   4   4
#     4  10  21  40  64  96 130 176 233 288 346 418
#     4  12  26  48  80 108 140 188 248 310 358 426
#     4  10  25  44  62 102 146 178 233 290 362 428
#     4  11  23  41  67  99 141 187 231 290 355 433
#     4  11  23  41  67  99 141 187 231 290 355 433
#     4  11  24  44  68  99 139 178 239 288 360 422
#     4  11  24  44  68  99 139 178 239 288 360 422
#
# _framework density 25.111716000000001
#
# number of rings (size 3 to 8) (size 9 to 14) (size 15 to 20)
#    0.000    1.143    1.429    4.286    4.000    9.143 
#    5.143    0.000    0.000    0.000    0.000    0.000 
#    0.000    0.000    0.000    0.000    0.000    0.000 
#
# Total GULP energy -156539.300184 kJ/mol
# GULP energy per Si atom -5590.689292 kJ/mol
# Density = 2.505456 g / cm^3
# Si number density = 25.111716 Si / 1000 Ang^3
#
#
#
# Elastic Constant Matrix: (Units=GPa)
#
#
# Indices 1 2 3 4 5 6 
#
# 1 148.8601 12.4754 34.8270 0.0000 0.0000 0.0000
# 2 12.4754 51.8488 -6.2028 0.0000 0.0000 0.0000
# 3 34.8270 -6.2028 68.8147 0.0000 0.0000 0.0000
# 4 0.0000 0.0000 0.0000 25.6571 0.0000 0.0000
# 5 0.0000 0.0000 0.0000 0.0000 36.6008 0.0000
# 6 0.0000 0.0000 0.0000 0.0000 0.0000 27.2858
#
#
#
# Elastic Compliance Matrix: (Units=1/GPa)
#
#
# Indices 1 2 3 4 5 6 
#
# 1 0.007906 -0.002407 -0.004218 0.000000 0.000000 0.000000
# 2 -0.002407 0.020230 0.003042 0.000000 0.000000 0.000000
# 3 -0.004218 0.003042 0.016941 0.000000 0.000000 0.000000
# 4 0.000000 0.000000 0.000000 0.038976 0.000000 0.000000
# 5 0.000000 0.000000 0.000000 0.000000 0.027322 0.000000
# 6 0.000000 0.000000 0.000000 0.000000 0.000000 0.036649
#
#
# Mechanical properties :
#
#
# Convention : Reuss Voigt Hill
#
# Bulk Modulus (GPa) = 26.37850 39.08032 32.72941
# Shear Modulus (GPa) = 29.79251 33.13702 31.46477
#
# Velocity S-wave (km/s) = 3.44815 3.63655 3.54360
# Velocity P-wave (km/s) = 5.13617 5.76446 5.45936
#
# Compressibility (1/GPa) = 0.03790966
#
# Stress axis : x y z
#
# Youngs Moduli (GPa) = 126.48055 49.43187 59.02893
#
# Poissons Ratio (x) = 0.11898 0.24900
# Poissons Ratio (y) = 0.30444 -0.17955
# Poissons Ratio (z) = 0.53354 -0.15035
#
# Static dielectric constant tensor:
#      x y z
#    x 1.925030 0.000000 0.000000 
#    y 0.000000 2.088830 0.000000 
#    z 0.000000 0.000000 2.021080 
# 
# From -- ./inp_files/515.got.cif
#   From: 2010.05.17/outbox.cif.g08.bks.cpg/sg19_1_cif.got.tgz:515.got - 2010.06.03 22:46:19.
