data_PCOD9314960
_publ_section_title
;
Structure prediction by ZEFSAII (Michael W. Deem and Ramdas Pophale) SiO2 
 PCOD9314960
Probable space group: P 21 21 21
;
_chemical_formula_sum "Si O2"
_cell_formula_units_Z 28
_cell_length_a 11.381175
_cell_length_b 5.491310
_cell_length_c 19.148943
_cell_angle_alpha 90.000000
_cell_angle_beta 90.000000
_cell_angle_gamma 90.000000
_cell_volume 1196.762216
_symmetry_space_group_name_H-M "P 21 21 21"
_symmetry_group_IT_number 19
_symmetry_cell_setting 'orthorhombic'
loop_
_space_group_symop_operation_xyz
x,y,z
1/2-x,-y,1/2+z
1/2+x,1/2-y,-z
-x,1/2+y,1/2-z
loop_
_atom_site_type_symbol
_atom_site_label
_atom_site_fract_x
_atom_site_fract_y
_atom_site_fract_z
Si Si1 0.311986 0.273026 0.869564
Si Si2 0.216042 0.925312 0.561099
Si Si3 0.083044 0.162559 0.681430
Si Si4 0.648614 0.605836 0.184579
Si Si5 0.246898 0.570746 0.993080
Si Si6 0.429414 0.641282 0.591318
Si Si7 0.215301 0.489324 0.225262
O O1 0.213790 0.063421 0.870567
O O2 0.434141 0.184517 0.901020
O O3 0.327250 0.336929 0.787986
O O4 0.263385 0.504818 0.912285
O O5 0.142052 0.969846 0.630182
O O6 0.205211 0.168075 0.515212
O O7 0.186497 0.662215 0.528603
O O8 0.354363 0.888915 0.579131
O O9 0.078190 0.063629 0.760171
O O10 0.173618 0.386818 0.686892
O O11 0.954029 0.226178 0.655311
O O12 0.740782 0.751340 0.233093
O O13 0.117895 0.529203 0.028045
O O14 0.380169 0.546642 0.665468
#
# Coordination Sequence:
#
# PCOD9314960 Si02
#       7
#     4   4   4   4   4   4   4
#     4  11  28  43  69 116 147 197 259 315 382 462
#     4  10  22  45  74  96 139 193 253 289 383 437
#     4  11  20  41  67 102 137 192 247 304 370 453
#     4  11  23  39  66 103 149 185 246 313 375 441
#     4  10  24  49  69 104 143 197 248 306 373 451
#     4  10  24  46  74 103 150 197 247 312 382 458
#     4  11  23  41  67 104 145 187 252 307 385 438
#
# _framework density 23.396459
#
# number of rings (size 3 to 8) (size 9 to 14) (size 15 to 20)
#    0.857    0.571    4.286    0.000    4.000    2.286 
#    2.571    0.000    0.000    0.000    0.000    0.000 
#    0.000    0.000    0.000    0.000    0.000    0.000 
#
# Total GULP energy -156438.097533 kJ/mol
# GULP energy per Si atom -5587.074912 kJ/mol
# Density = 2.334321 g / cm^3
# Si number density = 23.396459 Si / 1000 Ang^3
#
#
#
# Elastic Constant Matrix: (Units=GPa)
#
#
# Indices 1 2 3 4 5 6 
#
# 1 91.3013 8.5013 34.2545 0.0000 0.0000 0.0000
# 2 8.5013 87.6457 22.6489 0.0000 0.0000 0.0000
# 3 34.2545 22.6489 101.7183 0.0000 0.0000 0.0000
# 4 0.0000 0.0000 0.0000 55.7229 0.0000 0.0000
# 5 0.0000 0.0000 0.0000 0.0000 12.0716 0.0000
# 6 0.0000 0.0000 0.0000 0.0000 0.0000 25.8964
#
#
#
# Elastic Compliance Matrix: (Units=1/GPa)
#
#
# Indices 1 2 3 4 5 6 
#
# 1 0.012538 -0.000133 -0.004193 0.000000 0.000000 0.000000
# 2 -0.000133 0.012108 -0.002651 0.000000 0.000000 0.000000
# 3 -0.004193 -0.002651 0.011833 0.000000 0.000000 0.000000
# 4 0.000000 0.000000 0.000000 0.017946 0.000000 0.000000
# 5 0.000000 0.000000 0.000000 0.000000 0.082839 0.000000
# 6 0.000000 0.000000 0.000000 0.000000 0.000000 0.038615
#
#
# Mechanical properties :
#
#
# Convention : Reuss Voigt Hill
#
# Bulk Modulus (GPa) = 44.39376 45.71942 45.05659
# Shear Modulus (GPa) = 25.33676 33.08887 29.21281
#
# Velocity S-wave (km/s) = 3.29436 3.76476 3.53739
# Velocity P-wave (km/s) = 5.78673 6.20334 5.99865
#
# Compressibility (1/GPa) = 0.02252569
#
# Stress axis : x y z
#
# Youngs Moduli (GPa) = 79.75654 82.59307 84.50689
#
# Poissons Ratio (x) = 0.01096 0.35432
# Poissons Ratio (y) = 0.01058 0.22405
# Poissons Ratio (z) = 0.33440 0.21897
#
# Static dielectric constant tensor:
#      x y z
#    x 1.840090 0.000000 0.000000 
#    y 0.000000 1.928010 0.000000 
#    z 0.000000 0.000000 1.919330 
# 
# From -- ./inp_files/1931.got.cif
#   From: 2010.05.17/outbox.cif.g08.bks.cpg/sg19_1_cif.got.tgz:1931.got - 2010.06.03 22:46:19.
