data_PCOD9314050
_publ_section_title
;
Structure prediction by ZEFSAII (Michael W. Deem and Ramdas Pophale) SiO2 
 PCOD9314050
Probable space group: P 21 21 21
;
_chemical_formula_sum "Si O2"
_cell_formula_units_Z 32
_cell_length_a 16.247778
_cell_length_b 8.729956
_cell_length_c 10.811602
_cell_angle_alpha 90.000000
_cell_angle_beta 90.000000
_cell_angle_gamma 90.000000
_cell_volume 1533.543435
_symmetry_space_group_name_H-M "P 21 21 21"
_symmetry_group_IT_number 19
_symmetry_cell_setting 'orthorhombic'
loop_
_space_group_symop_operation_xyz
x,y,z
1/2-x,-y,1/2+z
1/2+x,1/2-y,-z
-x,1/2+y,1/2-z
loop_
_atom_site_type_symbol
_atom_site_label
_atom_site_fract_x
_atom_site_fract_y
_atom_site_fract_z
Si Si1 0.213818 0.232673 0.690286
Si Si2 0.038444 0.235885 0.785105
Si Si3 0.001841 0.593460 0.156098
Si Si4 0.891951 0.156406 0.960044
Si Si5 0.361272 0.682322 0.933394
Si Si6 0.065058 0.560570 0.896512
Si Si7 0.384793 0.173327 0.791412
Si Si8 0.223601 0.588947 0.762051
O O1 0.132343 0.180858 0.766539
O O2 0.187359 0.235435 0.546539
O O3 0.296801 0.146128 0.727752
O O4 0.232211 0.409941 0.727880
O O5 0.045106 0.416611 0.808787
O O6 0.981247 0.173507 0.895675
O O7 0.989746 0.196441 0.659716
O O8 0.940034 0.720882 0.103499
O O9 0.946798 0.467913 0.224053
O O10 0.070672 0.678086 0.234738
O O11 0.044266 0.520452 0.035763
O O12 0.823544 0.167245 0.851930
O O13 0.876429 0.284771 0.063557
O O14 0.882574 0.987512 0.017604
O O15 0.306335 0.662594 0.810817
O O16 0.160270 0.596609 0.877204
#
# Coordination Sequence:
#
# PCOD9314050 Si02
#       8
#     4   4   4   4   4   4   4   4
#     4  10  21  40  69  95 132 166 227 280 329 407
#     4  10  20  40  68  99 130 172 222 273 339 395
#     4  12  26  44  67  90 140 176 220 282 341 406
#     4  10  21  41  69  95 134 173 227 273 334 416
#     4  11  21  44  66  99 130 175 225 279 340 407
#     4  10  20  40  67  96 128 175 219 276 332 399
#     4  12  25  46  63  99 133 180 221 283 337 411
#     4   9  20  37  69  97 123 177 219 270 336 407
#
# _framework density 20.866705
#
# number of rings (size 3 to 8) (size 9 to 14) (size 15 to 20)
#    0.000    1.500    3.750    2.250    0.000    0.000 
#    9.000    1.250    0.000    0.000    0.000    0.000 
#    0.000    0.000    0.000    0.000    0.000    0.000 
#
# Total GULP energy -178763.651786 kJ/mol
# GULP energy per Si atom -5586.364118 kJ/mol
# Density = 2.081921 g / cm^3
# Si number density = 20.866705 Si / 1000 Ang^3
#
#
#
# Elastic Constant Matrix: (Units=GPa)
#
#
# Indices 1 2 3 4 5 6 
#
# 1 58.8043 3.4392 29.8654 0.0000 0.0000 0.0000
# 2 3.4392 18.9466 3.9208 0.0000 0.0000 0.0000
# 3 29.8654 3.9208 62.6828 0.0000 0.0000 0.0000
# 4 0.0000 0.0000 0.0000 19.2090 0.0000 0.0000
# 5 0.0000 0.0000 0.0000 0.0000 31.4485 0.0000
# 6 0.0000 0.0000 0.0000 0.0000 0.0000 30.6922
#
#
#
# Elastic Compliance Matrix: (Units=1/GPa)
#
#
# Indices 1 2 3 4 5 6 
#
# 1 0.022501 -0.001890 -0.010602 0.000000 0.000000 0.000000
# 2 -0.001890 0.053631 -0.002454 0.000000 0.000000 0.000000
# 3 -0.010602 -0.002454 0.021158 0.000000 0.000000 0.000000
# 4 0.000000 0.000000 0.000000 0.052059 0.000000 0.000000
# 5 0.000000 0.000000 0.000000 0.000000 0.031798 0.000000
# 6 0.000000 0.000000 0.000000 0.000000 0.000000 0.032582
#
#
# Mechanical properties :
#
#
# Convention : Reuss Voigt Hill
#
# Bulk Modulus (GPa) = 14.83748 23.87603 19.35676
# Shear Modulus (GPa) = 18.79082 23.15050 20.97066
#
# Velocity S-wave (km/s) = 3.00412 3.33445 3.17358
# Velocity P-wave (km/s) = 4.37710 5.12755 4.76711
#
# Compressibility (1/GPa) = 0.06739690
#
# Stress axis : x y z
#
# Youngs Moduli (GPa) = 44.44282 18.64596 47.26266
#
# Poissons Ratio (x) = 0.03525 0.50109
# Poissons Ratio (y) = 0.08401 0.11598
# Poissons Ratio (z) = 0.47120 0.04576
#
# Static dielectric constant tensor:
#      x y z
#    x 1.748970 0.000000 0.000000 
#    y 0.000000 1.739790 0.000000 
#    z 0.000000 0.000000 1.758370 
# 
# From -- ./inp_files/5262.got.cif
#   From: 2010.05.17/outbox.cif.g08.bks.cpg/sg19_3_cif.got.tgz:5262.got - 2010.06.03 22:46:19.
