data_PCOD9314922
_publ_section_title
;
Structure prediction by ZEFSAII (Michael W. Deem and Ramdas Pophale) SiO2 
 PCOD9314922
Probable space group: P 21 21 21
;
_chemical_formula_sum "Si O2"
_cell_formula_units_Z 28
_cell_length_a 8.808932
_cell_length_b 24.371043
_cell_length_c 5.089183
_cell_angle_alpha 90.000000
_cell_angle_beta 90.000000
_cell_angle_gamma 90.000000
_cell_volume 1092.560364
_symmetry_space_group_name_H-M "P 21 21 21"
_symmetry_group_IT_number 19
_symmetry_cell_setting 'orthorhombic'
loop_
_space_group_symop_operation_xyz
x,y,z
1/2-x,-y,1/2+z
1/2+x,1/2-y,-z
-x,1/2+y,1/2-z
loop_
_atom_site_type_symbol
_atom_site_label
_atom_site_fract_x
_atom_site_fract_y
_atom_site_fract_z
Si Si1 0.194958 0.066986 0.352005
Si Si2 0.188986 0.381081 0.752270
Si Si3 0.184486 0.754278 0.113315
Si Si4 0.459943 0.416338 0.023066
Si Si5 0.049554 0.172951 0.588625
Si Si6 0.994887 0.482313 0.806176
Si Si7 0.879111 0.812620 0.252461
O O1 0.161867 0.127317 0.465416
O O2 0.364587 0.046410 0.368641
O O3 0.091600 0.019655 0.481706
O O4 0.134466 0.072952 0.054550
O O5 0.149213 0.360906 0.462521
O O6 0.093342 0.430424 0.879765
O O7 0.358902 0.404105 0.771529
O O8 0.156680 0.331001 0.952170
O O9 0.341841 0.781154 0.223414
O O10 0.054428 0.797153 0.198444
O O11 0.263740 0.736929 0.831344
O O12 0.068477 0.701496 0.113106
O O13 0.456859 0.362840 0.201812
O O14 0.406752 0.472434 0.154248
#
# Coordination Sequence:
#
# PCOD9314922 Si02
#       7
#     4   4   4   4   4   4   4
#     4  11  23  44  66 100 136 185 233 297 344 431
#     4  12  28  45  72 106 146 186 242 297 358 433
#     4  10  22  47  71 101 140 187 236 297 360 424
#     4  11  25  43  67 100 142 183 231 292 354 426
#     4  10  22  44  69 100 139 180 235 291 359 415
#     4  11  26  42  72 100 141 188 241 285 366 425
#     4  11  26  47  71 107 142 187 244 295 363 428
#
# _framework density 25.627872
#
# number of rings (size 3 to 8) (size 9 to 14) (size 15 to 20)
#    0.000    1.143    2.857    1.714    8.000    1.143 
#   10.286    0.000    0.000    0.000    0.000    0.000 
#    0.000    0.000    0.000    0.000    0.000    0.000 
#
# Total GULP energy -156084.369330 kJ/mol
# GULP energy per Si atom -5574.441762 kJ/mol
# Density = 2.556954 g / cm^3
# Si number density = 25.627872 Si / 1000 Ang^3
#
#
#
# Elastic Constant Matrix: (Units=GPa)
#
#
# Indices 1 2 3 4 5 6 
#
# 1 92.1074 25.1406 -6.4400 0.0000 0.0000 0.0000
# 2 25.1406 110.7187 10.0541 0.0000 0.0000 0.0000
# 3 -6.4400 10.0541 46.7043 0.0000 0.0000 0.0000
# 4 0.0000 0.0000 0.0000 37.3514 0.0000 0.0000
# 5 0.0000 0.0000 0.0000 0.0000 19.2989 0.0000
# 6 0.0000 0.0000 0.0000 0.0000 0.0000 42.9834
#
#
#
# Elastic Compliance Matrix: (Units=1/GPa)
#
#
# Indices 1 2 3 4 5 6 
#
# 1 0.011801 -0.002884 0.002248 0.000000 0.000000 0.000000
# 2 -0.002884 0.009917 -0.002532 0.000000 0.000000 0.000000
# 3 0.002248 -0.002532 0.022266 0.000000 0.000000 0.000000
# 4 0.000000 0.000000 0.000000 0.026773 0.000000 0.000000
# 5 0.000000 0.000000 0.000000 0.000000 0.051816 0.000000
# 6 0.000000 0.000000 0.000000 0.000000 0.000000 0.023265
#
#
# Mechanical properties :
#
#
# Convention : Reuss Voigt Hill
#
# Bulk Modulus (GPa) = 26.56185 34.11553 30.33869
# Shear Modulus (GPa) = 30.35381 34.64513 32.49947
#
# Velocity S-wave (km/s) = 3.44525 3.68074 3.56494
# Velocity P-wave (km/s) = 5.11989 5.60398 5.36740
#
# Compressibility (1/GPa) = 0.03764799
#
# Stress axis : x y z
#
# Youngs Moduli (GPa) = 84.73712 100.84022 44.91065
#
# Poissons Ratio (x) = 0.29080 -0.10096
# Poissons Ratio (y) = 0.24437 0.11373
# Poissons Ratio (z) = -0.19049 0.25537
#
# Static dielectric constant tensor:
#      x y z
#    x 2.033950 0.000000 0.000000 
#    y 0.000000 2.079990 0.000000 
#    z 0.000000 0.000000 2.040390 
# 
# From -- ./inp_files/534.got.cif
#   From: 2010.05.17/outbox.cif.g08.bks.cpg/sg19_1_cif.got.tgz:534.got - 2010.06.03 22:46:19.
