data_PCOD9314109
_publ_section_title
;
Structure prediction by ZEFSAII (Michael W. Deem and Ramdas Pophale) SiO2 
 PCOD9314109
Probable space group: P 21 21 21
;
_chemical_formula_sum "Si O2"
_cell_formula_units_Z 32
_cell_length_a 11.445375
_cell_length_b 9.126511
_cell_length_c 14.540092
_cell_angle_alpha 90.000000
_cell_angle_beta 90.000000
_cell_angle_gamma 90.000000
_cell_volume 1518.804806
_symmetry_space_group_name_H-M "P 21 21 21"
_symmetry_group_IT_number 19
_symmetry_cell_setting 'orthorhombic'
loop_
_space_group_symop_operation_xyz
x,y,z
1/2-x,-y,1/2+z
1/2+x,1/2-y,-z
-x,1/2+y,1/2-z
loop_
_atom_site_type_symbol
_atom_site_label
_atom_site_fract_x
_atom_site_fract_y
_atom_site_fract_z
Si Si1 0.153689 0.148831 0.152996
Si Si2 0.285138 0.442999 0.414168
Si Si3 0.490615 0.564029 0.943647
Si Si4 0.948691 0.208076 0.287508
Si Si5 0.886079 0.372804 0.631003
Si Si6 0.101886 0.379890 0.748598
Si Si7 0.242379 0.096802 0.769691
Si Si8 0.793783 0.976101 0.376647
O O1 0.209140 0.301182 0.123916
O O2 0.071097 0.185110 0.239494
O O3 0.237550 0.020110 0.188072
O O4 0.066116 0.079861 0.078982
O O5 0.144504 0.461328 0.417836
O O6 0.319785 0.280268 0.381222
O O7 0.353218 0.550388 0.344296
O O8 0.317738 0.469118 0.520400
O O9 0.535282 0.694168 0.877872
O O10 0.525298 0.608479 0.046288
O O11 0.858319 0.302121 0.225380
O O12 0.892684 0.051488 0.312771
O O13 0.792336 0.503226 0.641206
O O14 0.966526 0.383694 0.722011
O O15 0.141163 0.211340 0.747269
O O16 0.175877 0.462937 0.669396
#
# Coordination Sequence:
#
# PCOD9314109 Si02
#       8
#     4   4   4   4   4   4   4   4
#     4  11  23  41  68  99 132 178 227 282 342 407
#     4  12  25  44  70  99 139 186 229 288 348 414
#     4  11  23  41  67  97 131 179 230 281 341 412
#     4  10  20  42  66  95 129 173 228 279 338 405
#     4  12  24  44  67  98 138 180 225 285 349 407
#     4  11  24  45  68  96 139 181 230 279 344 416
#     4  10  23  40  67  95 128 174 219 278 338 403
#     4  11  22  41  67  99 134 175 232 284 340 418
#
# _framework density 21.069199000000001
#
# number of rings (size 3 to 8) (size 9 to 14) (size 15 to 20)
#    0.000    1.000    2.500    6.000    1.750    0.000 
#    0.000    1.250    0.000    0.000    0.000    0.000 
#    0.000    0.000    0.000    0.000    0.000    0.000 
#
# Total GULP energy -178800.088191 kJ/mol
# GULP energy per Si atom -5587.502756 kJ/mol
# Density = 2.102124 g / cm^3
# Si number density = 21.069199 Si / 1000 Ang^3
#
#
#
# Elastic Constant Matrix: (Units=GPa)
#
#
# Indices 1 2 3 4 5 6 
#
# 1 55.7467 22.9356 37.0201 0.0000 0.0000 0.0000
# 2 22.9356 137.3472 14.5936 0.0000 0.0000 0.0000
# 3 37.0201 14.5936 57.7551 0.0000 0.0000 0.0000
# 4 0.0000 0.0000 0.0000 20.1548 0.0000 0.0000
# 5 0.0000 0.0000 0.0000 0.0000 28.4524 0.0000
# 6 0.0000 0.0000 0.0000 0.0000 0.0000 18.5321
#
#
#
# Elastic Compliance Matrix: (Units=1/GPa)
#
#
# Indices 1 2 3 4 5 6 
#
# 1 0.032640 -0.003317 -0.020084 0.000000 0.000000 0.000000
# 2 -0.003317 0.007819 0.000150 0.000000 0.000000 0.000000
# 3 -0.020084 0.000150 0.030150 0.000000 0.000000 0.000000
# 4 0.000000 0.000000 0.000000 0.049616 0.000000 0.000000
# 5 0.000000 0.000000 0.000000 0.000000 0.035146 0.000000
# 6 0.000000 0.000000 0.000000 0.000000 0.000000 0.053960
#
#
# Mechanical properties :
#
#
# Convention : Reuss Voigt Hill
#
# Bulk Modulus (GPa) = 41.47919 44.43863 42.95891
# Shear Modulus (GPa) = 18.94894 25.18117 22.06506
#
# Velocity S-wave (km/s) = 3.00220 3.46087 3.23966
# Velocity P-wave (km/s) = 5.63449 6.09161 5.86750
#
# Compressibility (1/GPa) = 0.02410848
#
# Stress axis : x y z
#
# Youngs Moduli (GPa) = 30.63744 127.89867 33.16780
#
# Poissons Ratio (x) = 0.42419 0.66613
# Poissons Ratio (y) = 0.10161 -0.00498
# Poissons Ratio (z) = 0.61531 -0.01922
#
# Static dielectric constant tensor:
#      x y z
#    x 1.755170 0.000000 0.000000 
#    y 0.000000 1.746210 0.000000 
#    z 0.000000 0.000000 1.765670 
# 
# From -- ./inp_files/6178.got.cif
#   From: 2010.05.17/outbox.cif.g08.bks.cpg/sg19_4_cif.got.tgz:6178.got - 2010.06.03 22:46:19.
