data_PCOD9314155
_publ_section_title
;
Structure prediction by ZEFSAII (Michael W. Deem and Ramdas Pophale) SiO2 
 PCOD9314155
Probable space group: P 21 21 21
;
_chemical_formula_sum "Si O2"
_cell_formula_units_Z 28
_cell_length_a 5.197769
_cell_length_b 10.631835
_cell_length_c 19.491180
_cell_angle_alpha 90.000000
_cell_angle_beta 90.000000
_cell_angle_gamma 90.000000
_cell_volume 1077.118127
_symmetry_space_group_name_H-M "P 21 21 21"
_symmetry_group_IT_number 19
_symmetry_cell_setting 'orthorhombic'
loop_
_space_group_symop_operation_xyz
x,y,z
1/2-x,-y,1/2+z
1/2+x,1/2-y,-z
-x,1/2+y,1/2-z
loop_
_atom_site_type_symbol
_atom_site_label
_atom_site_fract_x
_atom_site_fract_y
_atom_site_fract_z
Si Si1 0.368619 0.623102 0.855630
Si Si2 0.650370 0.401161 0.844777
Si Si3 0.666004 0.716325 0.035608
Si Si4 0.461510 0.325459 0.103565
Si Si5 0.556593 0.532216 0.585416
Si Si6 0.391329 0.354517 0.704756
Si Si7 0.511706 0.966527 0.258145
O O1 0.467425 0.493041 0.888199
O O2 0.154756 0.696961 0.897458
O O3 0.572272 0.732723 0.841154
O O4 0.258916 0.581150 0.783050
O O5 0.833006 0.310721 0.887972
O O6 0.496882 0.332402 0.782289
O O7 0.812502 0.500756 0.800269
O O8 0.811019 0.583441 0.045391
O O9 0.378965 0.706705 0.008231
O O10 0.742543 0.352949 0.072905
O O11 0.523485 0.369210 0.181659
O O12 0.232371 0.415301 0.074662
O O13 0.533853 0.467820 0.662315
O O14 0.098822 0.400177 0.709695
#
# Coordination Sequence:
#
# PCOD9314155 Si02
#       7
#     4   4   4   4   4   4   4
#     4  10  23  38  58  91 133 164 221 272 321 387
#     4  11  22  32  56  90 131 184 202 252 312 404
#     4  11  25  47  75  97 118 164 227 296 341 369
#     4  11  22  37  60  93 138 174 209 240 321 407
#     4  10  22  41  62  93 126 164 213 273 316 383
#     4   9  19  34  52  86 130 172 207 249 311 376
#     4  10  21  31  55  88 132 176 205 248 310 394
#
# _framework density 25.995291999999999
#
# number of rings (size 3 to 8) (size 9 to 14) (size 15 to 20)
#    0.000    1.714    2.857    0.857    8.000    0.000 
#    0.000    0.000    0.000    3.429    0.000    0.000 
#    0.000    0.000    0.000    0.000    0.000    0.000 
#
# Total GULP energy -156354.246243 kJ/mol
# GULP energy per Si atom -5584.080223 kJ/mol
# Density = 2.593613 g / cm^3
# Si number density = 25.995292 Si / 1000 Ang^3
#
#
#
# Elastic Constant Matrix: (Units=GPa)
#
#
# Indices 1 2 3 4 5 6 
#
# 1 99.6980 17.2656 3.0094 0.0000 0.0000 0.0000
# 2 17.2656 68.9939 -0.0768 0.0000 0.0000 0.0000
# 3 3.0094 -0.0768 19.4231 0.0000 0.0000 0.0000
# 4 0.0000 0.0000 0.0000 8.7416 0.0000 0.0000
# 5 0.0000 0.0000 0.0000 0.0000 26.2654 0.0000
# 6 0.0000 0.0000 0.0000 0.0000 0.0000 41.4426
#
#
#
# Elastic Compliance Matrix: (Units=1/GPa)
#
#
# Indices 1 2 3 4 5 6 
#
# 1 0.010537 -0.002639 -0.001643 0.000000 0.000000 0.000000
# 2 -0.002639 0.015155 0.000469 0.000000 0.000000 0.000000
# 3 -0.001643 0.000469 0.051741 0.000000 0.000000 0.000000
# 4 0.000000 0.000000 0.000000 0.114395 0.000000 0.000000
# 5 0.000000 0.000000 0.000000 0.000000 0.038073 0.000000
# 6 0.000000 0.000000 0.000000 0.000000 0.000000 0.024130
#
#
# Mechanical properties :
#
#
# Convention : Reuss Voigt Hill
#
# Bulk Modulus (GPa) = 14.32514 25.39017 19.85766
# Shear Modulus (GPa) = 17.54840 26.48437 22.01639
#
# Velocity S-wave (km/s) = 2.60101 3.19535 2.91338
# Velocity P-wave (km/s) = 3.81353 4.83757 4.35575
#
# Compressibility (1/GPa) = 0.06980734
#
# Stress axis : x y z
#
# Youngs Moduli (GPa) = 94.90509 65.98538 19.32687
#
# Poissons Ratio (x) = 0.17411 0.03175
# Poissons Ratio (y) = 0.25042 -0.00906
# Poissons Ratio (z) = 0.15593 -0.03093
#
# Static dielectric constant tensor:
#      x y z
#    x 2.151360 0.000000 0.000000 
#    y 0.000000 2.066320 0.000000 
#    z 0.000000 0.000000 2.164740 
# 
# From -- ./inp_files/1095.got.cif
#   From: 2010.05.17/outbox.cif.g08.bks.cpg/sg19_1_cif.got.tgz:1095.got - 2010.06.03 22:46:19.
