data_PCOD9314903
_publ_section_title
;
Structure prediction by ZEFSAII (Michael W. Deem and Ramdas Pophale) SiO2 
 PCOD9314903
Probable space group: P 21 21 21
;
_chemical_formula_sum "Si O2"
_cell_formula_units_Z 24
_cell_length_a 11.546479
_cell_length_b 7.596196
_cell_length_c 11.359851
_cell_angle_alpha 90.000000
_cell_angle_beta 90.000000
_cell_angle_gamma 90.000000
_cell_volume 996.364779
_symmetry_space_group_name_H-M "P 21 21 21"
_symmetry_group_IT_number 19
_symmetry_cell_setting 'orthorhombic'
loop_
_space_group_symop_operation_xyz
x,y,z
1/2-x,-y,1/2+z
1/2+x,1/2-y,-z
-x,1/2+y,1/2-z
loop_
_atom_site_type_symbol
_atom_site_label
_atom_site_fract_x
_atom_site_fract_y
_atom_site_fract_z
Si Si1 0.089700 0.426893 0.142072
Si Si2 0.676198 0.760378 0.426506
Si Si3 0.536718 0.929296 0.602890
Si Si4 0.561862 0.229656 0.217110
Si Si5 0.821102 0.484753 0.555778
Si Si6 0.904128 0.131220 0.600143
O O1 0.213260 0.330166 0.142944
O O2 0.061099 0.503536 0.268199
O O3 0.999409 0.274242 0.113055
O O4 0.085793 0.560087 0.032384
O O5 0.647534 0.916011 0.519208
O O6 0.561145 0.732213 0.351622
O O7 0.716714 0.581331 0.490346
O O8 0.429031 0.019089 0.536283
O O9 0.639612 0.382989 0.160414
O O10 0.521683 0.276012 0.348552
O O11 0.613545 0.039242 0.184864
O O12 0.809412 0.286954 0.601075
#
# Coordination Sequence:
#
# PCOD9314903 Si02
#       6
#     4   4   4   4   4   4
#     4  11  23  42  71  97 142 184 226 278 351 394
#     4  10  22  44  64  99 136 172 232 285 326 412
#     4  10  22  45  67  99 141 176 227 287 331 416
#     4  11  23  43  67  96 137 172 225 283 334 394
#     4  10  22  44  68  94 139 177 221 274 346 400
#     4  12  22  44  67  95 131 185 215 279 340 396
#
# _framework density 24.087561999999998
#
# number of rings (size 3 to 8) (size 9 to 14) (size 15 to 20)
#    0.000    1.333    6.667    1.000    2.333    0.000 
#   15.000    0.000    0.000    0.000    0.000    0.000 
#    0.000    0.000    0.000    0.000    0.000    0.000 
#
# Total GULP energy -134333.200770 kJ/mol
# GULP energy per Si atom -5597.216699 kJ/mol
# Density = 2.403274 g / cm^3
# Si number density = 24.087562 Si / 1000 Ang^3
#
#
#
# Elastic Constant Matrix: (Units=GPa)
#
#
# Indices 1 2 3 4 5 6 
#
# 1 63.1585 13.4686 16.2809 0.0000 0.0000 0.0000
# 2 13.4686 144.7161 29.4850 0.0000 0.0000 0.0000
# 3 16.2809 29.4850 93.0582 0.0000 0.0000 0.0000
# 4 0.0000 0.0000 0.0000 43.5315 0.0000 0.0000
# 5 0.0000 0.0000 0.0000 0.0000 21.3382 0.0000
# 6 0.0000 0.0000 0.0000 0.0000 0.0000 17.5914
#
#
#
# Elastic Compliance Matrix: (Units=1/GPa)
#
#
# Indices 1 2 3 4 5 6 
#
# 1 0.016722 -0.001027 -0.002600 0.000000 0.000000 0.000000
# 2 -0.001027 0.007450 -0.002181 0.000000 0.000000 0.000000
# 3 -0.002600 -0.002181 0.011892 0.000000 0.000000 0.000000
# 4 0.000000 0.000000 0.000000 0.022972 0.000000 0.000000
# 5 0.000000 0.000000 0.000000 0.000000 0.046864 0.000000
# 6 0.000000 0.000000 0.000000 0.000000 0.000000 0.056846
#
#
# Mechanical properties :
#
#
# Convention : Reuss Voigt Hill
#
# Bulk Modulus (GPa) = 40.90202 46.60020 43.75111
# Shear Modulus (GPa) = 27.39554 32.60545 30.00049
#
# Velocity S-wave (km/s) = 3.37609 3.68315 3.53296
# Velocity P-wave (km/s) = 5.67580 6.12173 5.90298
#
# Compressibility (1/GPa) = 0.02444867
#
# Stress axis : x y z
#
# Youngs Moduli (GPa) = 59.79998 134.22889 84.09076
#
# Poissons Ratio (x) = 0.13779 0.21867
# Poissons Ratio (y) = 0.06139 0.18339
# Poissons Ratio (z) = 0.15550 0.29274
#
# Static dielectric constant tensor:
#      x y z
#    x 1.908860 0.000000 0.000000 
#    y 0.000000 1.940040 0.000000 
#    z 0.000000 0.000000 2.014380 
# 
# From -- ./inp_files/4910.got.cif
#   From: 2010.05.17/outbox.cif.g08.bks.cpg/sg19_3_cif.got.tgz:4910.got - 2010.06.03 22:46:19.
