data_PCOD9314598
_publ_section_title
;
Structure prediction by ZEFSAII (Michael W. Deem and Ramdas Pophale) SiO2 
 PCOD9314598
Probable space group: P 21 21 21
;
_chemical_formula_sum "Si O2"
_cell_formula_units_Z 28
_cell_length_a 14.735888
_cell_length_b 14.451099
_cell_length_c 5.984635
_cell_angle_alpha 90.000000
_cell_angle_beta 90.000000
_cell_angle_gamma 90.000000
_cell_volume 1274.426685
_symmetry_space_group_name_H-M "P 21 21 21"
_symmetry_group_IT_number 19
_symmetry_cell_setting 'orthorhombic'
loop_
_space_group_symop_operation_xyz
x,y,z
1/2-x,-y,1/2+z
1/2+x,1/2-y,-z
-x,1/2+y,1/2-z
loop_
_atom_site_type_symbol
_atom_site_label
_atom_site_fract_x
_atom_site_fract_y
_atom_site_fract_z
Si Si1 0.816930 0.728737 0.067776
Si Si2 0.640627 0.815981 0.305995
Si Si3 0.576767 0.122394 0.791235
Si Si4 0.256781 0.045632 0.273637
Si Si5 0.450603 0.133615 0.166364
Si Si6 0.777211 0.831795 0.673146
Si Si7 0.614440 0.022496 0.388190
O O1 0.724275 0.779754 0.154802
O O2 0.903796 0.788851 0.136312
O O3 0.814132 0.628431 0.174986
O O4 0.807477 0.739303 0.801875
O O5 0.559934 0.742737 0.286273
O O6 0.681695 0.815253 0.557993
O O7 0.616625 0.922841 0.276221
O O8 0.600185 0.030394 0.653771
O O9 0.479847 0.121218 0.908143
O O10 0.652322 0.141096 0.979476
O O11 0.355194 0.089781 0.228454
O O12 0.263844 0.997979 0.524623
O O13 0.528506 0.080016 0.298618
O O14 0.794028 0.919504 0.834856
#
# Coordination Sequence:
#
# PCOD9314598 Si02
#       7
#     4   4   4   4   4   4   4
#     4   9  21  41  67  98 132 175 230 290 354 424
#     4  10  22  37  66  93 130 179 223 282 351 413
#     4   9  20  40  63  93 134 173 218 296 344 419
#     4  11  27  45  74 100 139 195 247 294 345 430
#     4  10  24  44  62  95 144 178 237 286 354 423
#     4   9  20  36  65  94 129 163 226 284 353 417
#     4  10  22  39  63  97 134 175 229 292 357 416
#
# _framework density 21.970662999999998
#
# number of rings (size 3 to 8) (size 9 to 14) (size 15 to 20)
#    0.000    2.286    0.000    0.000   14.000    3.429 
#    5.143    0.000    0.000    0.000    0.000    0.000 
#    0.000    0.000    0.000    0.000    0.000    0.000 
#
# Total GULP energy -155874.972018 kJ/mol
# GULP energy per Si atom -5566.963286 kJ/mol
# Density = 2.192066 g / cm^3
# Si number density = 21.970663 Si / 1000 Ang^3
#
#
#
# Elastic Constant Matrix: (Units=GPa)
#
#
# Indices 1 2 3 4 5 6 
#
# 1 41.9308 27.0305 25.5348 0.0000 0.0000 0.0000
# 2 27.0305 100.0836 39.9745 0.0000 0.0000 0.0000
# 3 25.5348 39.9745 81.4345 0.0000 0.0000 0.0000
# 4 0.0000 0.0000 0.0000 26.4812 0.0000 0.0000
# 5 0.0000 0.0000 0.0000 0.0000 35.1032 0.0000
# 6 0.0000 0.0000 0.0000 0.0000 0.0000 16.3829
#
#
#
# Elastic Compliance Matrix: (Units=1/GPa)
#
#
# Indices 1 2 3 4 5 6 
#
# 1 0.031936 -0.005754 -0.007190 0.000000 0.000000 0.000000
# 2 -0.005754 0.013465 -0.004806 0.000000 0.000000 0.000000
# 3 -0.007190 -0.004806 0.016893 0.000000 0.000000 0.000000
# 4 0.000000 0.000000 0.000000 0.037763 0.000000 0.000000
# 5 0.000000 0.000000 0.000000 0.000000 0.028487 0.000000
# 6 0.000000 0.000000 0.000000 0.000000 0.000000 0.061039
#
#
# Mechanical properties :
#
#
# Convention : Reuss Voigt Hill
#
# Bulk Modulus (GPa) = 37.31815 45.39207 41.35511
# Shear Modulus (GPa) = 21.36628 24.32073 22.84350
#
# Velocity S-wave (km/s) = 3.12186 3.33072 3.22798
# Velocity P-wave (km/s) = 5.47878 5.95791 5.72336
#
# Compressibility (1/GPa) = 0.02679661
#
# Stress axis : x y z
#
# Youngs Moduli (GPa) = 31.31242 74.26666 59.19560
#
# Poissons Ratio (x) = 0.42731 0.42559
# Poissons Ratio (y) = 0.18016 0.28447
# Poissons Ratio (z) = 0.22512 0.35689
#
# Static dielectric constant tensor:
#      x y z
#    x 1.786190 0.000000 0.000000 
#    y 0.000000 1.853650 0.000000 
#    z 0.000000 0.000000 2.045020 
# 
# From -- ./inp_files/1509.got.cif
#   From: 2010.05.17/outbox.cif.g08.bks.cpg/sg19_1_cif.got.tgz:1509.got - 2010.06.03 22:46:19.
