data_PCOD9314320
_publ_section_title
;
Structure prediction by ZEFSAII (Michael W. Deem and Ramdas Pophale) SiO2 
 PCOD9314320
Probable space group: P 21 21 21
;
_chemical_formula_sum "Si O2"
_cell_formula_units_Z 32
_cell_length_a 5.203283
_cell_length_b 8.749641
_cell_length_c 31.195417
_cell_angle_alpha 90.000000
_cell_angle_beta 90.000000
_cell_angle_gamma 90.000000
_cell_volume 1420.229328
_symmetry_space_group_name_H-M "P 21 21 21"
_symmetry_group_IT_number 19
_symmetry_cell_setting 'orthorhombic'
loop_
_space_group_symop_operation_xyz
x,y,z
1/2-x,-y,1/2+z
1/2+x,1/2-y,-z
-x,1/2+y,1/2-z
loop_
_atom_site_type_symbol
_atom_site_label
_atom_site_fract_x
_atom_site_fract_y
_atom_site_fract_z
Si Si1 0.269138 0.143504 0.120165
Si Si2 0.652890 0.319692 0.977505
Si Si3 0.386150 0.781279 0.845664
Si Si4 0.840927 0.315795 0.481579
Si Si5 0.884355 0.021029 0.190969
Si Si6 0.476269 0.279857 0.203519
Si Si7 0.412719 0.803867 0.109627
Si Si8 0.727835 0.449167 0.734709
O O1 0.190307 0.206189 0.073789
O O2 0.391766 0.262881 0.153891
O O3 0.034318 0.078548 0.148674
O O4 0.441356 0.990485 0.112027
O O5 0.628049 0.501864 0.983415
O O6 0.401642 0.239635 0.996883
O O7 0.248828 0.634614 0.822796
O O8 0.674512 0.742324 0.859602
O O9 0.402990 0.911295 0.810185
O O10 0.171437 0.794521 0.882654
O O11 0.622424 0.257925 0.514417
O O12 0.706879 0.274190 0.436816
O O13 0.717723 0.163685 0.205827
O O14 0.065459 0.964664 0.229447
O O15 0.535611 0.447135 0.220124
O O16 0.289754 0.199658 0.237277
#
# Coordination Sequence:
#
# PCOD9314320 Si02
#       8
#     4   4   4   4   4   4   4   4
#     4   9  22  41  65  95 125 181 217 275 334 414
#     4  11  25  45  73 104 141 184 232 288 352 426
#     4  11  22  41  63  95 124 172 221 273 323 396
#     4  11  23  45  72 103 138 180 230 284 352 421
#     4  10  21  39  65  87 126 172 231 265 329 397
#     4  11  22  42  62  91 131 172 227 272 334 401
#     4  10  22  42  69  92 130 173 222 265 338 409
#     4  11  25  37  61  93 129 176 218 280 328 392
#
# _framework density 22.531572000000001
#
# number of rings (size 3 to 8) (size 9 to 14) (size 15 to 20)
#    0.000    1.500    1.250    3.000    7.000    3.000 
#    6.750    0.000    0.000    0.000    0.000    0.000 
#    0.000    0.000    0.000    0.000    0.000    0.000 
#
# Total GULP energy -178540.689992 kJ/mol
# GULP energy per Si atom -5579.396562 kJ/mol
# Density = 2.248029 g / cm^3
# Si number density = 22.531572 Si / 1000 Ang^3
#
#
#
# Elastic Constant Matrix: (Units=GPa)
#
#
# Indices 1 2 3 4 5 6 
#
# 1 64.9965 3.1048 9.5652 0.0000 0.0000 0.0000
# 2 3.1048 30.2829 29.9396 0.0000 0.0000 0.0000
# 3 9.5652 29.9396 107.0894 0.0000 0.0000 0.0000
# 4 0.0000 0.0000 0.0000 11.7542 0.0000 0.0000
# 5 0.0000 0.0000 0.0000 0.0000 26.5690 0.0000
# 6 0.0000 0.0000 0.0000 0.0000 0.0000 33.9194
#
#
#
# Elastic Compliance Matrix: (Units=1/GPa)
#
#
# Indices 1 2 3 4 5 6 
#
# 1 0.015592 -0.000306 -0.001307 0.000000 0.000000 0.000000
# 2 -0.000306 0.045642 -0.012733 0.000000 0.000000 0.000000
# 3 -0.001307 -0.012733 0.013015 0.000000 0.000000 0.000000
# 4 0.000000 0.000000 0.000000 0.085076 0.000000 0.000000
# 5 0.000000 0.000000 0.000000 0.000000 0.037638 0.000000
# 6 0.000000 0.000000 0.000000 0.000000 0.000000 0.029482
#
#
# Mechanical properties :
#
#
# Convention : Reuss Voigt Hill
#
# Bulk Modulus (GPa) = 21.95098 31.95423 26.95261
# Shear Modulus (GPa) = 18.49641 25.09912 21.79777
#
# Velocity S-wave (km/s) = 2.86826 3.34122 3.11373
# Velocity P-wave (km/s) = 4.55332 5.39423 4.99151
#
# Compressibility (1/GPa) = 0.04555605
#
# Stress axis : x y z
#
# Youngs Moduli (GPa) = 64.13368 21.90966 76.83688
#
# Poissons Ratio (x) = 0.00671 0.10043
# Poissons Ratio (y) = 0.01965 0.97837
# Poissons Ratio (z) = 0.08383 0.27898
#
# Static dielectric constant tensor:
#      x y z
#    x 1.946540 0.000000 0.000000 
#    y 0.000000 1.845660 0.000000 
#    z 0.000000 0.000000 1.867450 
# 
# From -- ./inp_files/7531.got.cif
#   From: 2010.05.17/outbox.cif.g08.bks.cpg/sg19_4_cif.got.tgz:7531.got - 2010.06.03 22:46:19.
