data_PCOD9314572
_publ_section_title
;
Structure prediction by ZEFSAII (Michael W. Deem and Ramdas Pophale) SiO2 
 PCOD9314572
Probable space group: P 21 21 21
;
_chemical_formula_sum "Si O2"
_cell_formula_units_Z 28
_cell_length_a 9.538086
_cell_length_b 12.847994
_cell_length_c 8.665303
_cell_angle_alpha 90.000000
_cell_angle_beta 90.000000
_cell_angle_gamma 90.000000
_cell_volume 1061.891910
_symmetry_space_group_name_H-M "P 21 21 21"
_symmetry_group_IT_number 19
_symmetry_cell_setting 'orthorhombic'
loop_
_space_group_symop_operation_xyz
x,y,z
1/2-x,-y,1/2+z
1/2+x,1/2-y,-z
-x,1/2+y,1/2-z
loop_
_atom_site_type_symbol
_atom_site_label
_atom_site_fract_x
_atom_site_fract_y
_atom_site_fract_z
Si Si1 0.055551 0.599215 0.973108
Si Si2 0.478070 0.600411 0.864063
Si Si3 0.748475 0.075824 0.072005
Si Si4 0.816754 0.808304 0.874037
Si Si5 0.302781 0.953590 0.805166
Si Si6 0.085386 0.125046 0.830432
Si Si7 0.665079 0.255436 0.879095
O O1 0.126205 0.488544 0.009498
O O2 0.040589 0.604501 0.788242
O O3 0.173317 0.680090 0.030021
O O4 0.909047 0.591359 0.064633
O O5 0.373846 0.503774 0.902437
O O6 0.610759 0.538108 0.797033
O O7 0.424282 0.684015 0.736883
O O8 0.451851 0.667568 0.020986
O O9 0.695335 0.108204 0.239158
O O10 0.767435 0.179001 0.971941
O O11 0.826028 0.701512 0.781928
O O12 0.262085 0.851473 0.707981
O O13 0.169267 0.018571 0.861810
O O14 0.072281 0.187830 0.989079
#
# Coordination Sequence:
#
# PCOD9314572 Si02
#       7
#     4   4   4   4   4   4   4
#     4  11  23  46  70 105 152 192 246 314 369 450
#     4  11  22  44  73 105 141 196 251 304 369 451
#     4  10  21  46  71 106 136 190 257 304 358 460
#     4  10  23  42  72  98 145 191 250 304 373 441
#     4  12  25  44  73 105 156 190 245 314 385 448
#     4  11  27  45  67 110 150 191 252 307 383 450
#     4  11  25  45  70 111 140 202 245 303 381 446
#
# _framework density 26.368034000000002
#
# number of rings (size 3 to 8) (size 9 to 14) (size 15 to 20)
#    0.000    1.143    2.857    2.571    6.000    0.000 
#    7.714    2.857    0.000    0.000    0.000    0.000 
#    0.000    0.000    0.000    0.000    0.000    0.000 
#
# Total GULP energy -156693.150650 kJ/mol
# GULP energy per Si atom -5596.183952 kJ/mol
# Density = 2.630802 g / cm^3
# Si number density = 26.368034 Si / 1000 Ang^3
#
#
#
# Elastic Constant Matrix: (Units=GPa)
#
#
# Indices 1 2 3 4 5 6 
#
# 1 45.3110 33.1451 29.2744 0.0000 0.0000 0.0000
# 2 33.1451 155.8691 52.3349 0.0000 0.0000 0.0000
# 3 29.2744 52.3349 123.1104 0.0000 0.0000 0.0000
# 4 0.0000 0.0000 0.0000 59.4723 0.0000 0.0000
# 5 0.0000 0.0000 0.0000 0.0000 32.0937 0.0000
# 6 0.0000 0.0000 0.0000 0.0000 0.0000 32.5226
#
#
#
# Elastic Compliance Matrix: (Units=1/GPa)
#
#
# Indices 1 2 3 4 5 6 
#
# 1 0.028455 -0.004408 -0.004892 0.000000 0.000000 0.000000
# 2 -0.004408 0.008167 -0.002424 0.000000 0.000000 0.000000
# 3 -0.004892 -0.002424 0.010316 0.000000 0.000000 0.000000
# 4 0.000000 0.000000 0.000000 0.016815 0.000000 0.000000
# 5 0.000000 0.000000 0.000000 0.000000 0.031159 0.000000
# 6 0.000000 0.000000 0.000000 0.000000 0.000000 0.030748
#
#
# Mechanical properties :
#
#
# Convention : Reuss Voigt Hill
#
# Bulk Modulus (GPa) = 42.57111 61.53326 52.05218
# Shear Modulus (GPa) = 31.85975 38.78679 35.32327
#
# Velocity S-wave (km/s) = 3.47979 3.83949 3.66406
# Velocity P-wave (km/s) = 5.68553 6.56068 6.13872
#
# Compressibility (1/GPa) = 0.02349011
#
# Stress axis : x y z
#
# Youngs Moduli (GPa) = 35.14293 122.44762 96.93307
#
# Poissons Ratio (x) = 0.53978 0.47424
# Poissons Ratio (y) = 0.15492 0.23492
# Poissons Ratio (z) = 0.17193 0.29675
#
# Static dielectric constant tensor:
#      x y z
#    x 2.113780 0.000000 0.000000 
#    y 0.000000 2.045620 0.000000 
#    z 0.000000 0.000000 2.085180 
# 
# From -- ./inp_files/3465.got.cif
#   From: 2010.05.17/outbox.cif.g08.bks.cpg/sg19_2_cif.got.tgz:3465.got - 2010.06.03 22:46:19.
