data_PCOD9314609
_publ_section_title
;
Structure prediction by ZEFSAII (Michael W. Deem and Ramdas Pophale) SiO2 
 PCOD9314609
Probable space group: P 21 21 21
;
_chemical_formula_sum "Si O2"
_cell_formula_units_Z 32
_cell_length_a 5.173023
_cell_length_b 8.212672
_cell_length_c 32.853566
_cell_angle_alpha 90.000000
_cell_angle_beta 90.000000
_cell_angle_gamma 90.000000
_cell_volume 1395.762106
_symmetry_space_group_name_H-M "P 21 21 21"
_symmetry_group_IT_number 19
_symmetry_cell_setting 'orthorhombic'
loop_
_space_group_symop_operation_xyz
x,y,z
1/2-x,-y,1/2+z
1/2+x,1/2-y,-z
-x,1/2+y,1/2-z
loop_
_atom_site_type_symbol
_atom_site_label
_atom_site_fract_x
_atom_site_fract_y
_atom_site_fract_z
Si Si1 0.949614 0.514124 0.381177
Si Si2 0.399176 0.808437 0.749108
Si Si3 0.183107 0.384294 0.459086
Si Si4 0.240306 0.504678 0.798352
Si Si5 0.220837 0.984957 0.821666
Si Si6 0.763480 0.148111 0.365090
Si Si7 0.120566 0.791330 0.669516
Si Si8 0.314704 0.656693 0.047562
O O1 0.819310 0.336214 0.375927
O O2 0.750818 0.661160 0.372852
O O3 0.108170 0.508167 0.423126
O O4 0.131693 0.526755 0.341992
O O5 0.352364 0.671082 0.782300
O O6 0.297183 0.730704 0.706814
O O7 0.677582 0.873784 0.735907
O O8 0.267440 0.959346 0.773532
O O9 0.455686 0.292556 0.451829
O O10 0.162726 0.444628 0.505712
O O11 0.961077 0.246323 0.456533
O O12 0.948675 0.466625 0.809717
O O13 0.111008 0.163269 0.832776
O O14 0.482430 0.934394 0.845526
O O15 0.983323 0.870727 0.836236
O O16 0.688239 0.070203 0.408819
#
# Coordination Sequence:
#
# PCOD9314609 Si02
#       8
#     4   4   4   4   4   4   4   4
#     4  10  22  38  63  93 125 167 212 268 324 389
#     4  11  24  39  62  86 125 172 223 273 331 384
#     4   9  18  33  60  97 131 162 204 263 328 383
#     4  11  23  40  60  87 122 165 218 270 325 386
#     4  12  26  41  64  92 131 174 221 270 327 393
#     4  11  23  40  64  95 128 167 215 269 331 388
#     4  11  26  39  60  88 130 173 220 273 325 391
#     4   9  18  34  59  96 134 160 201 268 327 386
#
# _framework density 22.926545000000001
#
# number of rings (size 3 to 8) (size 9 to 14) (size 15 to 20)
#    0.000    1.500    1.250    3.750   10.500    2.000 
#    0.000    0.000    0.000    0.000    3.250    0.000 
#    0.000    0.000    0.000    0.000    0.000    0.000 
#
# Total GULP energy -178454.712441 kJ/mol
# GULP energy per Si atom -5576.709764 kJ/mol
# Density = 2.287436 g / cm^3
# Si number density = 22.926545 Si / 1000 Ang^3
#
#
#
# Elastic Constant Matrix: (Units=GPa)
#
#
# Indices 1 2 3 4 5 6 
#
# 1 91.2620 7.4386 40.6113 0.0000 0.0000 0.0000
# 2 7.4386 55.7819 11.3986 0.0000 0.0000 0.0000
# 3 40.6113 11.3986 112.2685 0.0000 0.0000 0.0000
# 4 0.0000 0.0000 0.0000 16.3912 0.0000 0.0000
# 5 0.0000 0.0000 0.0000 0.0000 34.4078 0.0000
# 6 0.0000 0.0000 0.0000 0.0000 0.0000 25.3239
#
#
#
# Elastic Compliance Matrix: (Units=1/GPa)
#
#
# Indices 1 2 3 4 5 6 
#
# 1 0.013094 -0.000795 -0.004656 0.000000 0.000000 0.000000
# 2 -0.000795 0.018355 -0.001576 0.000000 0.000000 0.000000
# 3 -0.004656 -0.001576 0.010751 0.000000 0.000000 0.000000
# 4 0.000000 0.000000 0.000000 0.061008 0.000000 0.000000
# 5 0.000000 0.000000 0.000000 0.000000 0.029063 0.000000
# 6 0.000000 0.000000 0.000000 0.000000 0.000000 0.039488
#
#
# Mechanical properties :
#
#
# Convention : Reuss Voigt Hill
#
# Bulk Modulus (GPa) = 35.52763 42.02327 38.77545
# Shear Modulus (GPa) = 25.61524 28.54885 27.08204
#
# Velocity S-wave (km/s) = 3.34619 3.53261 3.44066
# Velocity P-wave (km/s) = 5.51899 5.91679 5.72135
#
# Compressibility (1/GPa) = 0.02814710
#
# Stress axis : x y z
#
# Youngs Moduli (GPa) = 76.37032 54.48108 93.01089
#
# Poissons Ratio (x) = 0.04330 0.43305
# Poissons Ratio (y) = 0.06069 0.14659
# Poissons Ratio (z) = 0.35557 0.08587
#
# Static dielectric constant tensor:
#      x y z
#    x 1.969490 0.000000 0.000000 
#    y 0.000000 1.961910 0.000000 
#    z 0.000000 0.000000 1.934480 
# 
# From -- ./inp_files/7560.got.cif
#   From: 2010.05.17/outbox.cif.g08.bks.cpg/sg19_4_cif.got.tgz:7560.got - 2010.06.03 22:46:19.
