data_PCOD9314663
_publ_section_title
;
Structure prediction by ZEFSAII (Michael W. Deem and Ramdas Pophale) SiO2 
 PCOD9314663
Probable space group: P 21 21 21
;
_chemical_formula_sum "Si O2"
_cell_formula_units_Z 24
_cell_length_a 23.952211
_cell_length_b 7.807190
_cell_length_c 4.983291
_cell_angle_alpha 90.000000
_cell_angle_beta 90.000000
_cell_angle_gamma 90.000000
_cell_volume 931.872737
_symmetry_space_group_name_H-M "P 21 21 21"
_symmetry_group_IT_number 19
_symmetry_cell_setting 'orthorhombic'
loop_
_space_group_symop_operation_xyz
x,y,z
1/2-x,-y,1/2+z
1/2+x,1/2-y,-z
-x,1/2+y,1/2-z
loop_
_atom_site_type_symbol
_atom_site_label
_atom_site_fract_x
_atom_site_fract_y
_atom_site_fract_z
Si Si1 0.343406 0.985791 0.800997
Si Si2 0.619123 0.294537 0.220180
Si Si3 0.953043 0.285789 0.120714
Si Si4 0.710967 0.797921 0.522143
Si Si5 0.175751 0.514449 0.979137
Si Si6 0.507350 0.898553 0.144920
O O1 0.395030 0.112123 0.873912
O O2 0.290927 0.104217 0.873140
O O3 0.354087 0.919408 0.503571
O O4 0.348004 0.825470 0.002116
O O5 0.625101 0.102700 0.111621
O O6 0.555680 0.346741 0.271272
O O7 0.997566 0.421069 0.000987
O O8 0.968704 0.227938 0.418303
O O9 0.956742 0.127558 0.914134
O O10 0.771584 0.884719 0.538001
O O11 0.688202 0.830311 0.224373
O O12 0.673639 0.910023 0.726106
#
# Coordination Sequence:
#
# PCOD9314663 Si02
#       6
#     4   4   4   4   4   4
#     4  11  23  40  60  87 119 152 194 240 287 343
#     4  11  23  40  60  87 119 152 194 240 287 343
#     4  11  23  40  59  85 118 153 194 241 288 341
#     4  10  22  40  61  88 119 151 192 239 287 344
#     4  10  22  40  61  88 119 151 192 239 287 344
#     4  11  23  40  59  85 118 153 194 241 288 341
#
# _framework density 25.754587999999998
#
# number of rings (size 3 to 8) (size 9 to 14) (size 15 to 20)
#    0.000    1.333    0.000    7.000    0.000    5.333 
#    0.000    0.000    0.000    0.000    0.000    0.000 
#    0.000    0.000    0.000    0.000    0.000    0.000 
#
# Total GULP energy -134539.611377 kJ/mol
# GULP energy per Si atom -5605.817141 kJ/mol
# Density = 2.569597 g / cm^3
# Si number density = 25.754588 Si / 1000 Ang^3
#
#
#
# Elastic Constant Matrix: (Units=GPa)
#
#
# Indices 1 2 3 4 5 6 
#
# 1 45.7560 15.4004 17.0508 0.0000 0.0000 0.0000
# 2 15.4004 42.3841 -4.0575 0.0000 0.0000 0.0000
# 3 17.0508 -4.0575 110.6854 0.0000 0.0000 0.0000
# 4 0.0000 0.0000 0.0000 45.4351 0.0000 0.0000
# 5 0.0000 0.0000 0.0000 0.0000 28.4271 0.0000
# 6 0.0000 0.0000 0.0000 0.0000 0.0000 48.8535
#
#
#
# Elastic Compliance Matrix: (Units=1/GPa)
#
#
# Indices 1 2 3 4 5 6 
#
# 1 0.026991 -0.010241 -0.004533 0.000000 0.000000 0.000000
# 2 -0.010241 0.027563 0.002588 0.000000 0.000000 0.000000
# 3 -0.004533 0.002588 0.009828 0.000000 0.000000 0.000000
# 4 0.000000 0.000000 0.000000 0.022009 0.000000 0.000000
# 5 0.000000 0.000000 0.000000 0.000000 0.035178 0.000000
# 6 0.000000 0.000000 0.000000 0.000000 0.000000 0.020469
#
#
# Mechanical properties :
#
#
# Convention : Reuss Voigt Hill
#
# Bulk Modulus (GPa) = 24.99468 28.40145 26.69806
# Shear Modulus (GPa) = 27.81669 35.90526 31.86097
#
# Velocity S-wave (km/s) = 3.29000 3.73786 3.52106
# Velocity P-wave (km/s) = 4.91510 5.44797 5.18838
#
# Compressibility (1/GPa) = 0.04000852
#
# Stress axis : x y z
#
# Youngs Moduli (GPa) = 37.04879 36.28087 101.75169
#
# Poissons Ratio (x) = 0.37157 0.46128
# Poissons Ratio (y) = 0.37943 -0.26334
# Poissons Ratio (z) = 0.16796 -0.09390
#
# Static dielectric constant tensor:
#      x y z
#    x 2.070740 0.000000 0.000000 
#    y 0.000000 2.064120 0.000000 
#    z 0.000000 0.000000 1.932500 
# 
# From -- ./inp_files/236.got.cif
#   From: 2010.05.17/outbox.cif.g08.bks.cpg/sg19_1_cif.got.tgz:236.got - 2010.06.03 22:46:19.
