data_PCOD9314023
_publ_section_title
;
Structure prediction by ZEFSAII (Michael W. Deem and Ramdas Pophale) SiO2 
 PCOD9314023
Probable space group: P 21 21 21
;
_chemical_formula_sum "Si O2"
_cell_formula_units_Z 32
_cell_length_a 17.506527
_cell_length_b 12.508088
_cell_length_c 6.667460
_cell_angle_alpha 90.000000
_cell_angle_beta 90.000000
_cell_angle_gamma 90.000000
_cell_volume 1459.994921
_symmetry_space_group_name_H-M "P 21 21 21"
_symmetry_group_IT_number 19
_symmetry_cell_setting 'orthorhombic'
loop_
_space_group_symop_operation_xyz
x,y,z
1/2-x,-y,1/2+z
1/2+x,1/2-y,-z
-x,1/2+y,1/2-z
loop_
_atom_site_type_symbol
_atom_site_label
_atom_site_fract_x
_atom_site_fract_y
_atom_site_fract_z
Si Si1 0.627474 0.824392 0.765551
Si Si2 0.259499 0.706900 0.500325
Si Si3 0.044347 0.895275 0.318817
Si Si4 0.680475 0.338755 0.378020
Si Si5 0.106678 0.297661 0.268187
Si Si6 0.973523 0.591622 0.387425
Si Si7 0.324399 0.195535 0.378089
Si Si8 0.937464 0.478089 0.763788
O O1 0.697656 0.860342 0.626358
O O2 0.600022 0.705631 0.690828
O O3 0.552258 0.893615 0.732786
O O4 0.653260 0.800487 0.992278
O O5 0.325480 0.652680 0.634947
O O6 0.212248 0.773727 0.665997
O O7 0.297482 0.782036 0.330695
O O8 0.022514 0.926172 0.544889
O O9 0.967176 0.869562 0.197085
O O10 0.077425 0.002076 0.221153
O O11 0.637864 0.255401 0.527835
O O12 0.759286 0.363699 0.492840
O O13 0.629018 0.441881 0.339685
O O14 0.071339 0.201833 0.132878
O O15 0.985885 0.550858 0.612444
O O16 0.396953 0.120671 0.347241
#
# Coordination Sequence:
#
# PCOD9314023 Si02
#       8
#     4   4   4   4   4   4   4   4
#     4  10  22  41  62  87 127 163 208 259 317 383
#     4  10  20  40  62  90 120 164 210 256 320 374
#     4  11  23  40  60  91 127 163 210 260 318 384
#     4  10  22  35  61  93 127 165 200 267 323 385
#     4  10  22  41  62  87 127 163 208 259 317 383
#     4  11  23  40  60  91 127 163 210 260 318 384
#     4  10  22  35  61  93 127 165 200 267 323 385
#     4  12  22  36  60  98 126 162 212 262 330 382
#
# _framework density 21.917887
#
# number of rings (size 3 to 8) (size 9 to 14) (size 15 to 20)
#    0.000    1.500    5.000    0.000    1.750    2.000 
#    0.000    0.000   11.000    0.000    0.000    0.000 
#    0.000    0.000    0.000    0.000    0.000    0.000 
#
# Total GULP energy -178603.892269 kJ/mol
# GULP energy per Si atom -5581.371633 kJ/mol
# Density = 2.186800 g / cm^3
# Si number density = 21.917887 Si / 1000 Ang^3
#
#
#
# Elastic Constant Matrix: (Units=GPa)
#
#
# Indices 1 2 3 4 5 6 
#
# 1 75.8362 -7.6129 17.1772 0.0000 0.0000 0.0000
# 2 -7.6129 19.2124 -0.8700 0.0000 0.0000 0.0000
# 3 17.1772 -0.8700 102.7839 0.0000 0.0000 0.0000
# 4 0.0000 0.0000 0.0000 20.7684 0.0000 0.0000
# 5 0.0000 0.0000 0.0000 0.0000 32.2257 0.0000
# 6 0.0000 0.0000 0.0000 0.0000 0.0000 16.8388
#
#
#
# Elastic Compliance Matrix: (Units=1/GPa)
#
#
# Indices 1 2 3 4 5 6 
#
# 1 0.014273 0.005550 -0.002338 0.000000 0.000000 0.000000
# 2 0.005550 0.054228 -0.000468 0.000000 0.000000 0.000000
# 3 -0.002338 -0.000468 0.010116 0.000000 0.000000 0.000000
# 4 0.000000 0.000000 0.000000 0.048150 0.000000 0.000000
# 5 0.000000 0.000000 0.000000 0.000000 0.031031 0.000000
# 6 0.000000 0.000000 0.000000 0.000000 0.000000 0.059387
#
#
# Mechanical properties :
#
#
# Convention : Reuss Voigt Hill
#
# Bulk Modulus (GPa) = 11.89025 23.91346 17.90185
# Shear Modulus (GPa) = 20.85657 26.57579 23.71618
#
# Velocity S-wave (km/s) = 3.08811 3.48590 3.29302
# Velocity P-wave (km/s) = 4.26051 5.20924 4.75858
#
# Compressibility (1/GPa) = 0.08410251
#
# Stress axis : x y z
#
# Youngs Moduli (GPa) = 70.06200 18.44082 98.85362
#
# Poissons Ratio (x) = -0.10234 0.23115
# Poissons Ratio (y) = -0.38883 0.04631
# Poissons Ratio (z) = 0.16383 0.00864
#
# Static dielectric constant tensor:
#      x y z
#    x 1.809750 0.000000 0.000000 
#    y 0.000000 1.759030 0.000000 
#    z 0.000000 0.000000 1.841400 
# 
# From -- ./inp_files/1828.got.cif
#   From: 2010.05.17/outbox.cif.g08.bks.cpg/sg19_1_cif.got.tgz:1828.got - 2010.06.03 22:46:19.
