data_PCOD9314183
_publ_section_title
;
Structure prediction by ZEFSAII (Michael W. Deem and Ramdas Pophale) SiO2 
 PCOD9314183
Probable space group: P 21 21 21
;
_chemical_formula_sum "Si O2"
_cell_formula_units_Z 28
_cell_length_a 20.132198
_cell_length_b 12.807513
_cell_length_c 5.117713
_cell_angle_alpha 90.000000
_cell_angle_beta 90.000000
_cell_angle_gamma 90.000000
_cell_volume 1319.568457
_symmetry_space_group_name_H-M "P 21 21 21"
_symmetry_group_IT_number 19
_symmetry_cell_setting 'orthorhombic'
loop_
_space_group_symop_operation_xyz
x,y,z
1/2-x,-y,1/2+z
1/2+x,1/2-y,-z
-x,1/2+y,1/2-z
loop_
_atom_site_type_symbol
_atom_site_label
_atom_site_fract_x
_atom_site_fract_y
_atom_site_fract_z
Si Si1 0.336105 0.473146 0.804597
Si Si2 0.172062 0.660426 0.819253
Si Si3 0.055174 0.007367 0.651713
Si Si4 0.385950 0.786537 0.195218
Si Si5 0.019779 0.574530 0.344940
Si Si6 0.191870 0.290308 0.196010
Si Si7 0.462178 0.234948 0.168812
O O1 0.310266 0.387341 0.600606
O O2 0.414273 0.480782 0.746215
O O3 0.307042 0.585479 0.748626
O O4 0.331242 0.430377 0.098422
O O5 0.230439 0.738368 0.727186
O O6 0.098697 0.710965 0.823580
O O7 0.112392 0.087948 0.738981
O O8 0.034563 0.052696 0.371172
O O9 0.059923 0.883759 0.628822
O O10 0.000153 0.027651 0.875168
O O11 0.341847 0.734131 0.420638
O O12 0.462984 0.746319 0.215181
O O13 0.353551 0.759466 0.919742
O O14 0.032592 0.696407 0.403301
#
# Coordination Sequence:
#
# PCOD9314183 Si02
#       7
#     4   4   4   4   4   4   4
#     4  11  20  37  61  89 122 156 193 242 306 367
#     4  11  24  39  61  92 122 158 202 242 302 365
#     4  11  22  39  59  88 121 158 202 252 298 352
#     4  11  23  39  61  89 118 158 205 242 298 361
#     4  10  21  36  60  93 119 152 203 248 303 363
#     4  12  23  40  60  89 126 159 194 252 301 354
#     4  10  23  42  64  88 122 159 201 254 298 352
#
# _framework density 21.219059000000001
#
# number of rings (size 3 to 8) (size 9 to 14) (size 15 to 20)
#    0.000    1.143    0.000    8.571    0.000    5.714 
#    0.000    1.429    0.000    0.000    0.000    0.000 
#    0.000    0.000    0.000    0.000    0.000    0.000 
#
# Total GULP energy -156382.914123 kJ/mol
# GULP energy per Si atom -5585.104076 kJ/mol
# Density = 2.117076 g / cm^3
# Si number density = 21.219059 Si / 1000 Ang^3
#
#
#
# Elastic Constant Matrix: (Units=GPa)
#
#
# Indices 1 2 3 4 5 6 
#
# 1 63.3032 -4.1723 17.6222 0.0000 0.0000 0.0000
# 2 -4.1723 101.1092 23.4845 0.0000 0.0000 0.0000
# 3 17.6222 23.4845 62.9083 0.0000 0.0000 0.0000
# 4 0.0000 0.0000 0.0000 18.1699 0.0000 0.0000
# 5 0.0000 0.0000 0.0000 0.0000 25.6852 0.0000
# 6 0.0000 0.0000 0.0000 0.0000 0.0000 16.4031
#
#
#
# Elastic Compliance Matrix: (Units=1/GPa)
#
#
# Indices 1 2 3 4 5 6 
#
# 1 0.017509 0.002038 -0.005666 0.000000 0.000000 0.000000
# 2 0.002038 0.011067 -0.004702 0.000000 0.000000 0.000000
# 3 -0.005666 -0.004702 0.019239 0.000000 0.000000 0.000000
# 4 0.000000 0.000000 0.000000 0.055036 0.000000 0.000000
# 5 0.000000 0.000000 0.000000 0.000000 0.038933 0.000000
# 6 0.000000 0.000000 0.000000 0.000000 0.000000 0.060964
#
#
# Mechanical properties :
#
#
# Convention : Reuss Voigt Hill
#
# Bulk Modulus (GPa) = 32.09769 33.46548 32.78158
# Shear Modulus (GPa) = 21.75892 24.74405 23.25149
#
# Velocity S-wave (km/s) = 3.20573 3.41856 3.31385
# Velocity P-wave (km/s) = 5.37233 5.60248 5.48861
#
# Compressibility (1/GPa) = 0.03115489
#
# Stress axis : x y z
#
# Youngs Moduli (GPa) = 57.11510 90.36186 51.97865
#
# Poissons Ratio (x) = -0.18420 0.29449
# Poissons Ratio (y) = -0.11642 0.24442
# Poissons Ratio (z) = 0.32359 0.42491
#
# Static dielectric constant tensor:
#      x y z
#    x 1.806690 0.000000 0.000000 
#    y 0.000000 1.792700 0.000000 
#    z 0.000000 0.000000 1.757400 
# 
# From -- ./inp_files/1928.got.cif
#   From: 2010.05.17/outbox.cif.g08.bks.cpg/sg19_1_cif.got.tgz:1928.got - 2010.06.03 22:46:19.
