data_PCOD9314701
_publ_section_title
;
Structure prediction by ZEFSAII (Michael W. Deem and Ramdas Pophale) SiO2 
 PCOD9314701
Probable space group: P 21 21 21
;
_chemical_formula_sum "Si O2"
_cell_formula_units_Z 32
_cell_length_a 11.733625
_cell_length_b 8.307601
_cell_length_c 14.319227
_cell_angle_alpha 90.000000
_cell_angle_beta 90.000000
_cell_angle_gamma 90.000000
_cell_volume 1395.813544
_symmetry_space_group_name_H-M "P 21 21 21"
_symmetry_group_IT_number 19
_symmetry_cell_setting 'orthorhombic'
loop_
_space_group_symop_operation_xyz
x,y,z
1/2-x,-y,1/2+z
1/2+x,1/2-y,-z
-x,1/2+y,1/2-z
loop_
_atom_site_type_symbol
_atom_site_label
_atom_site_fract_x
_atom_site_fract_y
_atom_site_fract_z
Si Si1 0.633179 0.558988 0.792176
Si Si2 0.384037 0.415065 0.792386
Si Si3 0.232212 0.586911 0.641704
Si Si4 0.744375 0.581740 0.458539
Si Si5 0.023608 0.735841 0.755509
Si Si6 0.503257 0.024637 0.103113
Si Si7 0.750791 0.069732 0.542743
Si Si8 0.787188 0.407368 0.635598
O O1 0.511385 0.477163 0.807218
O O2 0.620113 0.733987 0.746204
O O3 0.700325 0.550767 0.889884
O O4 0.705683 0.452892 0.720076
O O5 0.325862 0.523104 0.712377
O O6 0.313812 0.448975 0.886986
O O7 0.272273 0.745815 0.586118
O O8 0.123173 0.635599 0.703162
O O9 0.206902 0.456970 0.561583
O O10 0.606638 0.571010 0.456813
O O11 0.790898 0.549222 0.560846
O O12 0.961365 0.831119 0.673584
O O13 0.091566 0.861710 0.820757
O O14 0.962393 0.617208 0.826469
O O15 0.613723 0.967936 0.047453
O O16 0.738852 0.249311 0.583071
#
# Coordination Sequence:
#
# PCOD9314701 Si02
#       8
#     4   4   4   4   4   4   4   4
#     4  12  25  45  70  97 135 181 226 284 344 403
#     4  12  25  45  70  97 135 181 226 284 344 403
#     4  11  22  46  66  99 138 174 229 275 338 402
#     4  11  24  43  66 102 134 178 229 278 340 405
#     4  10  22  44  66  94 140 174 216 286 324 406
#     4  10  22  40  68  96 132 174 220 276 338 394
#     4  11  24  43  66 102 134 178 229 278 340 405
#     4  11  22  46  66  99 138 174 229 275 338 402
#
# _framework density 22.925695000000001
#
# number of rings (size 3 to 8) (size 9 to 14) (size 15 to 20)
#    0.000    1.000    5.000    3.000    3.500    2.000 
#   11.250    0.000    0.000    0.000    0.000    0.000 
#    0.000    0.000    0.000    0.000    0.000    0.000 
#
# Total GULP energy -179187.131559 kJ/mol
# GULP energy per Si atom -5599.597861 kJ/mol
# Density = 2.287352 g / cm^3
# Si number density = 22.925695 Si / 1000 Ang^3
#
#
#
# Elastic Constant Matrix: (Units=GPa)
#
#
# Indices 1 2 3 4 5 6 
#
# 1 41.9787 7.8180 4.9414 0.0000 0.0000 0.0000
# 2 7.8180 57.5567 -11.2527 0.0000 0.0000 0.0000
# 3 4.9414 -11.2527 88.7915 0.0000 0.0000 0.0000
# 4 0.0000 0.0000 0.0000 48.4484 0.0000 0.0000
# 5 0.0000 0.0000 0.0000 0.0000 -29.1010 0.0000
# 6 0.0000 0.0000 0.0000 0.0000 0.0000 29.9242
#
#
#
# Elastic Compliance Matrix: (Units=1/GPa)
#
#
# Indices 1 2 3 4 5 6 
#
# 1 0.024732 -0.003721 -0.001848 0.000000 0.000000 0.000000
# 2 -0.003721 0.018375 0.002536 0.000000 0.000000 0.000000
# 3 -0.001848 0.002536 0.011687 0.000000 0.000000 0.000000
# 4 0.000000 0.000000 0.000000 0.020641 0.000000 0.000000
# 5 0.000000 0.000000 0.000000 0.000000 -0.034363 0.000000
# 6 0.000000 0.000000 0.000000 0.000000 0.000000 0.033418
#
#
# Mechanical properties :
#
#
# Convention : Reuss Voigt Hill
#
# Bulk Modulus (GPa) = 20.52194 21.26005 20.89099
# Shear Modulus (GPa) = 51.65428 22.30900 36.98164
#
# Velocity S-wave (km/s) = 4.75185 3.12284 4.02071
# Velocity P-wave (km/s) = 6.25122 4.72191 5.53959
#
# Compressibility (1/GPa) = 0.04872833
#
# Stress axis : x y z
#
# Youngs Moduli (GPa) = 40.43340 54.42085 85.56848
#
# Poissons Ratio (x) = 0.20248 0.15812
# Poissons Ratio (y) = 0.15044 -0.21698
# Poissons Ratio (z) = 0.07472 -0.13800
#
# Static dielectric constant tensor:
#      x y z
#    x 1.790250 0.000000 0.000000 
#    y 0.000000 1.915190 0.000000 
#    z 0.000000 0.000000 1.828080 
# 
# From -- ./inp_files/6154.got.cif
#   From: 2010.05.17/outbox.cif.g08.bks.cpg/sg19_4_cif.got.tgz:6154.got - 2010.06.03 22:46:19.
