data_PCOD9314681
_publ_section_title
;
Structure prediction by ZEFSAII (Michael W. Deem and Ramdas Pophale) SiO2 
 PCOD9314681
Probable space group: P 21 21 21
;
_chemical_formula_sum "Si O2"
_cell_formula_units_Z 28
_cell_length_a 22.760243
_cell_length_b 5.128128
_cell_length_c 9.319387
_cell_angle_alpha 90.000000
_cell_angle_beta 90.000000
_cell_angle_gamma 90.000000
_cell_volume 1087.734988
_symmetry_space_group_name_H-M "P 21 21 21"
_symmetry_group_IT_number 19
_symmetry_cell_setting 'orthorhombic'
loop_
_space_group_symop_operation_xyz
x,y,z
1/2-x,-y,1/2+z
1/2+x,1/2-y,-z
-x,1/2+y,1/2-z
loop_
_atom_site_type_symbol
_atom_site_label
_atom_site_fract_x
_atom_site_fract_y
_atom_site_fract_z
Si Si1 0.209028 0.806741 0.079722
Si Si2 0.420713 0.828245 0.241152
Si Si3 0.735025 0.939088 0.206201
Si Si4 0.323054 0.102070 0.067917
Si Si5 0.145040 0.099225 0.285717
Si Si6 0.544864 0.832127 0.092323
Si Si7 0.535504 0.064677 0.781465
O O1 0.238989 0.699305 0.225304
O O2 0.256880 0.015650 0.029582
O O3 0.150666 0.945889 0.135329
O O4 0.206748 0.596260 0.951709
O O5 0.475604 0.846770 0.132060
O O6 0.433136 0.046773 0.362653
O O7 0.360825 0.900859 0.162230
O O8 0.423376 0.543392 0.307352
O O9 0.689620 0.839411 0.326703
O O10 0.794661 0.764446 0.203128
O O11 0.357161 0.103955 0.917706
O O12 0.091962 0.301210 0.289796
O O13 0.551401 0.935045 0.932509
O O14 0.493100 0.318592 0.801783
#
# Coordination Sequence:
#
# PCOD9314681 Si02
#       7
#     4   4   4   4   4   4   4
#     4  10  22  41  64  98 136 175 229 290 347 428
#     4  10  22  41  67  96 136 175 225 291 335 415
#     4  10  22  40  67  97 134 179 234 281 360 413
#     4  10  22  40  64  98 127 182 226 278 353 410
#     4  10  24  43  65  94 141 176 229 294 342 421
#     4  10  23  43  65  99 135 178 233 283 347 403
#     4  12  27  46  72 102 139 189 238 287 354 420
#
# _framework density 25.741564
#
# number of rings (size 3 to 8) (size 9 to 14) (size 15 to 20)
#    0.000    1.714    0.000    2.571    6.000    4.571 
#    2.571    0.000    0.000    0.000    0.000    0.000 
#    0.000    0.000    0.000    0.000    0.000    0.000 
#
# Total GULP energy -156631.001924 kJ/mol
# GULP energy per Si atom -5593.964354 kJ/mol
# Density = 2.568297 g / cm^3
# Si number density = 25.741564 Si / 1000 Ang^3
#
#
#
# Elastic Constant Matrix: (Units=GPa)
#
#
# Indices 1 2 3 4 5 6 
#
# 1 105.3281 44.2893 30.4268 0.0000 0.0000 0.0000
# 2 44.2893 88.4738 15.7406 0.0000 0.0000 0.0000
# 3 30.4268 15.7406 102.3104 0.0000 0.0000 0.0000
# 4 0.0000 0.0000 0.0000 23.2489 0.0000 0.0000
# 5 0.0000 0.0000 0.0000 0.0000 32.2103 0.0000
# 6 0.0000 0.0000 0.0000 0.0000 0.0000 53.3530
#
#
#
# Elastic Compliance Matrix: (Units=1/GPa)
#
#
# Indices 1 2 3 4 5 6 
#
# 1 0.012813 -0.005897 -0.002903 0.000000 0.000000 0.000000
# 2 -0.005897 0.014335 -0.000452 0.000000 0.000000 0.000000
# 3 -0.002903 -0.000452 0.010707 0.000000 0.000000 0.000000
# 4 0.000000 0.000000 0.000000 0.043013 0.000000 0.000000
# 5 0.000000 0.000000 0.000000 0.000000 0.031046 0.000000
# 6 0.000000 0.000000 0.000000 0.000000 0.000000 0.018743
#
#
# Mechanical properties :
#
#
# Convention : Reuss Voigt Hill
#
# Bulk Modulus (GPa) = 51.67780 53.00287 52.34033
# Shear Modulus (GPa) = 32.13137 35.47281 33.80209
#
# Velocity S-wave (km/s) = 3.53686 3.71622 3.62765
# Velocity P-wave (km/s) = 6.06617 6.24890 6.15821
#
# Compressibility (1/GPa) = 0.01935067
#
# Stress axis : x y z
#
# Youngs Moduli (GPa) = 78.04847 69.75784 93.39652
#
# Poissons Ratio (x) = 0.41139 0.27114
# Poissons Ratio (y) = 0.46028 0.04218
# Poissons Ratio (z) = 0.22658 0.03151
#
# Static dielectric constant tensor:
#      x y z
#    x 2.048070 0.000000 0.000000 
#    y 0.000000 2.015370 0.000000 
#    z 0.000000 0.000000 2.044910 
# 
# From -- ./inp_files/2135.got.cif
#   From: 2010.05.17/outbox.cif.g08.bks.cpg/sg19_2_cif.got.tgz:2135.got - 2010.06.03 22:46:19.
