data_PCOD9314486
_publ_section_title
;
Structure prediction by ZEFSAII (Michael W. Deem and Ramdas Pophale) SiO2 
 PCOD9314486
Probable space group: P 21 21 21
;
_chemical_formula_sum "Si O2"
_cell_formula_units_Z 32
_cell_length_a 17.503694
_cell_length_b 13.765416
_cell_length_c 6.109610
_cell_angle_alpha 90.000000
_cell_angle_beta 90.000000
_cell_angle_gamma 90.000000
_cell_volume 1472.083827
_symmetry_space_group_name_H-M "P 21 21 21"
_symmetry_group_IT_number 19
_symmetry_cell_setting 'orthorhombic'
loop_
_space_group_symop_operation_xyz
x,y,z
1/2-x,-y,1/2+z
1/2+x,1/2-y,-z
-x,1/2+y,1/2-z
loop_
_atom_site_type_symbol
_atom_site_label
_atom_site_fract_x
_atom_site_fract_y
_atom_site_fract_z
Si Si1 0.671385 0.944672 0.329713
Si Si2 0.545369 0.251761 0.729882
Si Si3 0.575416 0.427018 0.038216
Si Si4 0.277364 0.027870 0.626556
Si Si5 0.246484 0.362647 0.823230
Si Si6 0.667716 0.312465 0.380885
Si Si7 0.593879 0.857727 0.943269
Si Si8 0.056089 0.468327 0.347945
O O1 0.726523 0.862507 0.426977
O O2 0.713098 0.028593 0.196671
O O3 0.633694 0.006312 0.525608
O O4 0.610064 0.885573 0.191168
O O5 0.546837 0.324969 0.934544
O O6 0.619849 0.280943 0.589791
O O7 0.465793 0.272394 0.601783
O O8 0.550801 0.136777 0.756714
O O9 0.639361 0.480980 0.892177
O O10 0.507683 0.504878 0.028581
O O11 0.615733 0.394237 0.261874
O O12 0.250907 0.138941 0.589220
O O13 0.242659 0.986996 0.389052
O O14 0.184209 0.282656 0.764000
O O15 0.322891 0.348371 0.674252
O O16 0.552018 0.951128 0.839317
#
# Coordination Sequence:
#
# PCOD9314486 Si02
#       8
#     4   4   4   4   4   4   4   4
#     4  11  21  41  59  90 127 166 211 280 335 389
#     4  11  22  41  66  91 125 176 219 268 335 417
#     4  10  23  41  61  92 132 167 220 280 333 411
#     4  10  21  42  67  96 133 174 222 284 341 398
#     4  11  23  37  63  92 126 166 224 272 335 401
#     4  11  23  39  64  94 127 175 225 271 339 408
#     4  10  24  41  61  94 131 163 217 277 328 402
#     4  10  23  40  65  89 125 171 216 272 336 410
#
# _framework density 21.737893
#
# number of rings (size 3 to 8) (size 9 to 14) (size 15 to 20)
#    0.000    1.500    3.750    0.750    3.500    1.000 
#    0.000    0.000    0.000    0.000    0.000    0.000 
#    0.000    0.000    0.000    0.000    0.000    0.000 
#
# Total GULP energy -178144.529268 kJ/mol
# GULP energy per Si atom -5567.016540 kJ/mol
# Density = 2.168842 g / cm^3
# Si number density = 21.737893 Si / 1000 Ang^3
#
#
#
# Elastic Constant Matrix: (Units=GPa)
#
#
# Indices 1 2 3 4 5 6 
#
# 1 41.6865 1.6248 -11.2694 0.0000 0.0000 0.0000
# 2 1.6248 50.8632 -7.8615 0.0000 0.0000 0.0000
# 3 -11.2694 -7.8615 33.2535 0.0000 0.0000 0.0000
# 4 0.0000 0.0000 0.0000 17.6185 0.0000 0.0000
# 5 0.0000 0.0000 0.0000 0.0000 27.0988 0.0000
# 6 0.0000 0.0000 0.0000 0.0000 0.0000 27.8383
#
#
#
# Elastic Compliance Matrix: (Units=1/GPa)
#
#
# Indices 1 2 3 4 5 6 
#
# 1 0.026423 0.000560 0.009087 0.000000 0.000000 0.000000
# 2 0.000560 0.020418 0.005017 0.000000 0.000000 0.000000
# 3 0.009087 0.005017 0.034338 0.000000 0.000000 0.000000
# 4 0.000000 0.000000 0.000000 0.056759 0.000000 0.000000
# 5 0.000000 0.000000 0.000000 0.000000 0.036902 0.000000
# 6 0.000000 0.000000 0.000000 0.000000 0.000000 0.035922
#
#
# Mechanical properties :
#
#
# Convention : Reuss Voigt Hill
#
# Bulk Modulus (GPa) = 9.04905 10.08786 9.56846
# Shear Modulus (GPa) = 22.90760 24.06508 23.48634
#
# Velocity S-wave (km/s) = 3.24976 3.33086 3.29056
# Velocity P-wave (km/s) = 4.27237 4.40948 4.34147
#
# Compressibility (1/GPa) = 0.11050878
#
# Stress axis : x y z
#
# Youngs Moduli (GPa) = 37.84530 48.97606 29.12248
#
# Poissons Ratio (x) = -0.02745 -0.26464
# Poissons Ratio (y) = -0.02121 -0.14611
# Poissons Ratio (z) = -0.34391 -0.24571
#
# Static dielectric constant tensor:
#      x y z
#    x 1.879180 0.000000 0.000000 
#    y 0.000000 1.774580 0.000000 
#    z 0.000000 0.000000 1.878580 
# 
# From -- ./inp_files/1615.got.cif
#   From: 2010.05.17/outbox.cif.g08.bks.cpg/sg19_1_cif.got.tgz:1615.got - 2010.06.03 22:46:19.
