data_PCOD9314442
_publ_section_title
;
Structure prediction by ZEFSAII (Michael W. Deem and Ramdas Pophale) SiO2 
 PCOD9314442
Probable space group: P 21 21 21
;
_chemical_formula_sum "Si O2"
_cell_formula_units_Z 32
_cell_length_a 18.870520
_cell_length_b 8.522710
_cell_length_c 7.393784
_cell_angle_alpha 90.000000
_cell_angle_beta 90.000000
_cell_angle_gamma 90.000000
_cell_volume 1189.127268
_symmetry_space_group_name_H-M "P 21 21 21"
_symmetry_group_IT_number 19
_symmetry_cell_setting 'orthorhombic'
loop_
_space_group_symop_operation_xyz
x,y,z
1/2-x,-y,1/2+z
1/2+x,1/2-y,-z
-x,1/2+y,1/2-z
loop_
_atom_site_type_symbol
_atom_site_label
_atom_site_fract_x
_atom_site_fract_y
_atom_site_fract_z
Si Si1 0.543448 0.149616 0.212213
Si Si2 0.790462 0.197672 0.152920
Si Si3 0.143915 0.027841 0.452341
Si Si4 0.919872 0.195826 0.617340
Si Si5 0.988759 0.690062 0.224064
Si Si6 0.280571 0.194740 0.447047
Si Si7 0.155863 0.125345 0.874799
Si Si8 0.911244 0.964849 0.097610
O O1 0.462793 0.191770 0.249870
O O2 0.580825 0.292691 0.112056
O O3 0.554663 0.980899 0.131531
O O4 0.580125 0.128599 0.410468
O O5 0.835600 0.349854 0.091489
O O6 0.777371 0.211221 0.367377
O O7 0.712370 0.238057 0.080244
O O8 0.833998 0.040839 0.113395
O O9 0.067740 0.072611 0.372499
O O10 0.205518 0.142214 0.369437
O O11 0.156721 0.063588 0.665671
O O12 0.837570 0.207782 0.665700
O O13 0.948019 0.239380 0.416820
O O14 0.032146 0.605444 0.381426
O O15 0.939745 0.843382 0.248334
O O16 0.322381 0.029588 0.483053
#
# Coordination Sequence:
#
# PCOD9314442 Si02
#       8
#     4   4   4   4   4   4   4   4
#     4  11  25  42  63  91 128 168 210 263 320 378
#     4  10  22  40  66  95 126 164 213 260 316 381
#     4  10  21  41  67  90 125 167 209 260 317 378
#     4  11  23  41  63  93 123 168 212 260 315 377
#     4  11  23  41  63  92 125 165 211 261 321 371
#     4  10  22  41  65  92 127 163 211 262 309 382
#     4  10  21  44  64  91 128 169 210 258 319 380
#     4  11  23  42  63  94 126 166 206 268 315 379
#
# _framework density 26.910492000000001
#
# number of rings (size 3 to 8) (size 9 to 14) (size 15 to 20)
#    0.000    1.500    3.750    1.500    3.500    2.000 
#    2.250    0.000    0.000    0.000    0.000    0.000 
#    0.000    0.000    0.000    0.000    0.000    0.000 
#
# Total GULP energy -179154.808247 kJ/mol
# GULP energy per Si atom -5598.587758 kJ/mol
# Density = 2.684924 g / cm^3
# Si number density = 26.910492 Si / 1000 Ang^3
#
#
#
# Elastic Constant Matrix: (Units=GPa)
#
#
# Indices 1 2 3 4 5 6 
#
# 1 97.8003 -8.8544 12.5579 0.0000 0.0000 0.0000
# 2 -8.8544 50.4296 3.4700 0.0000 0.0000 0.0000
# 3 12.5579 3.4700 52.6919 0.0000 0.0000 0.0000
# 4 0.0000 0.0000 0.0000 32.5099 0.0000 0.0000
# 5 0.0000 0.0000 0.0000 0.0000 23.8276 0.0000
# 6 0.0000 0.0000 0.0000 0.0000 0.0000 52.6629
#
#
#
# Elastic Compliance Matrix: (Units=1/GPa)
#
#
# Indices 1 2 3 4 5 6 
#
# 1 0.010760 0.002075 -0.002701 0.000000 0.000000 0.000000
# 2 0.002075 0.020320 -0.001833 0.000000 0.000000 0.000000
# 3 -0.002701 -0.001833 0.019743 0.000000 0.000000 0.000000
# 4 0.000000 0.000000 0.000000 0.030760 0.000000 0.000000
# 5 0.000000 0.000000 0.000000 0.000000 0.041968 0.000000
# 6 0.000000 0.000000 0.000000 0.000000 0.000000 0.018989
#
#
# Mechanical properties :
#
#
# Convention : Reuss Voigt Hill
#
# Bulk Modulus (GPa) = 21.78413 23.91878 22.85145
# Shear Modulus (GPa) = 30.72043 34.71661 32.71852
#
# Velocity S-wave (km/s) = 3.38239 3.59566 3.49065
# Velocity P-wave (km/s) = 4.83391 5.11331 4.97557
#
# Compressibility (1/GPa) = 0.04590498
#
# Stress axis : x y z
#
# Youngs Moduli (GPa) = 92.94033 49.21248 50.65171
#
# Poissons Ratio (x) = -0.10212 0.13681
# Poissons Ratio (y) = -0.19285 0.09283
# Poissons Ratio (z) = 0.25103 0.09019
#
# Static dielectric constant tensor:
#      x y z
#    x 2.086140 0.000000 0.000000 
#    y 0.000000 2.084060 0.000000 
#    z 0.000000 0.000000 2.204200 
# 
# From -- ./inp_files/4325.got.cif
#   From: 2010.05.17/outbox.cif.g08.bks.cpg/sg19_3_cif.got.tgz:4325.got - 2010.06.03 22:46:19.
