data_PCOD9314712
_publ_section_title
;
Structure prediction by ZEFSAII (Michael W. Deem and Ramdas Pophale) SiO2 
 PCOD9314712
Probable space group: P 21 21 21
;
_chemical_formula_sum "Si O2"
_cell_formula_units_Z 24
_cell_length_a 12.468178
_cell_length_b 13.992444
_cell_length_c 5.235694
_cell_angle_alpha 90.000000
_cell_angle_beta 90.000000
_cell_angle_gamma 90.000000
_cell_volume 913.420654
_symmetry_space_group_name_H-M "P 21 21 21"
_symmetry_group_IT_number 19
_symmetry_cell_setting 'orthorhombic'
loop_
_space_group_symop_operation_xyz
x,y,z
1/2-x,-y,1/2+z
1/2+x,1/2-y,-z
-x,1/2+y,1/2-z
loop_
_atom_site_type_symbol
_atom_site_label
_atom_site_fract_x
_atom_site_fract_y
_atom_site_fract_z
Si Si1 0.759284 0.113219 0.378283
Si Si2 0.964323 0.361484 0.221261
Si Si3 0.817869 0.776964 0.382261
Si Si4 0.774144 0.375744 0.578733
Si Si5 0.091795 0.029025 0.682973
Si Si6 0.591321 0.971285 0.521013
O O1 0.736690 0.165343 0.644324
O O2 0.698323 0.011179 0.390925
O O3 0.707270 0.174329 0.150074
O O4 0.877026 0.088178 0.270081
O O5 0.860696 0.329248 0.384330
O O6 0.052918 0.282476 0.146974
O O7 0.030329 0.431491 0.407947
O O8 0.939164 0.436808 0.992206
O O9 0.753917 0.678644 0.340394
O O10 0.657470 0.390351 0.460456
O O11 0.823281 0.480621 0.623643
O O12 0.990163 0.074275 0.823361
#
# Coordination Sequence:
#
# PCOD9314712 Si02
#       6
#     4   4   4   4   4   4
#     4  11  23  42  70 102 142 179 228 291 360 420
#     4  10  22  44  66 100 138 184 234 299 353 421
#     4  11  26  44  67 104 147 180 229 303 367 412
#     4  11  25  43  69  98 139 191 238 296 353 429
#     4  11  22  43  71 100 135 191 251 283 347 438
#     4  10  22  40  71 100 135 185 236 284 352 428
#
# _framework density 26.274856
#
# number of rings (size 3 to 8) (size 9 to 14) (size 15 to 20)
#    0.000    1.333    3.333    2.000    4.667    1.333 
#    0.000    0.000    0.000    0.000    0.000    0.000 
#    0.000    0.000    0.000    0.000    0.000    0.000 
#
# Total GULP energy -134228.294701 kJ/mol
# GULP energy per Si atom -5592.845613 kJ/mol
# Density = 2.621505 g / cm^3
# Si number density = 26.274856 Si / 1000 Ang^3
#
#
#
# Elastic Constant Matrix: (Units=GPa)
#
#
# Indices 1 2 3 4 5 6 
#
# 1 85.2814 26.9476 27.7844 0.0000 0.0000 0.0000
# 2 26.9476 59.3915 26.0867 0.0000 0.0000 0.0000
# 3 27.7844 26.0867 106.7006 0.0000 0.0000 0.0000
# 4 0.0000 0.0000 0.0000 52.0974 0.0000 0.0000
# 5 0.0000 0.0000 0.0000 0.0000 42.4360 0.0000
# 6 0.0000 0.0000 0.0000 0.0000 0.0000 36.6239
#
#
#
# Elastic Compliance Matrix: (Units=1/GPa)
#
#
# Indices 1 2 3 4 5 6 
#
# 1 0.014208 -0.005401 -0.002379 0.000000 0.000000 0.000000
# 2 -0.005401 0.020917 -0.003707 0.000000 0.000000 0.000000
# 3 -0.002379 -0.003707 0.010898 0.000000 0.000000 0.000000
# 4 0.000000 0.000000 0.000000 0.019195 0.000000 0.000000
# 5 0.000000 0.000000 0.000000 0.000000 0.023565 0.000000
# 6 0.000000 0.000000 0.000000 0.000000 0.000000 0.027305
#
#
# Mechanical properties :
#
#
# Convention : Reuss Voigt Hill
#
# Bulk Modulus (GPa) = 43.39035 45.89010 44.64023
# Shear Modulus (GPa) = 34.07286 37.60179 35.83732
#
# Velocity S-wave (km/s) = 3.60500 3.78708 3.69716
# Velocity P-wave (km/s) = 5.82047 6.05194 5.93733
#
# Compressibility (1/GPa) = 0.02304660
#
# Stress axis : x y z
#
# Youngs Moduli (GPa) = 70.38408 47.80890 91.76087
#
# Poissons Ratio (x) = 0.25824 0.21830
# Poissons Ratio (y) = 0.38018 0.34018
# Poissons Ratio (z) = 0.16745 0.17724
#
# Static dielectric constant tensor:
#      x y z
#    x 2.115600 0.000000 0.000000 
#    y 0.000000 2.057170 0.000000 
#    z 0.000000 0.000000 2.126230 
# 
# From -- ./inp_files/958.got.cif
#   From: 2010.05.17/outbox.cif.g08.bks.cpg/sg19_1_cif.got.tgz:958.got - 2010.06.03 22:46:19.
