data_PCOD9314968
_publ_section_title
;
Structure prediction by ZEFSAII (Michael W. Deem and Ramdas Pophale) SiO2 
 PCOD9314968
Probable space group: P 21 21 21
;
_chemical_formula_sum "Si O2"
_cell_formula_units_Z 32
_cell_length_a 5.193620
_cell_length_b 11.679860
_cell_length_c 21.785554
_cell_angle_alpha 90.000000
_cell_angle_beta 90.000000
_cell_angle_gamma 90.000000
_cell_volume 1321.528143
_symmetry_space_group_name_H-M "P 21 21 21"
_symmetry_group_IT_number 19
_symmetry_cell_setting 'orthorhombic'
loop_
_space_group_symop_operation_xyz
x,y,z
1/2-x,-y,1/2+z
1/2+x,1/2-y,-z
-x,1/2+y,1/2-z
loop_
_atom_site_type_symbol
_atom_site_label
_atom_site_fract_x
_atom_site_fract_y
_atom_site_fract_z
Si Si1 0.118208 0.559742 0.867723
Si Si2 0.107859 0.682667 0.753100
Si Si3 0.959152 0.458875 0.528648
Si Si4 0.386784 0.177924 0.586970
Si Si5 0.634643 0.151273 0.936649
Si Si6 0.380001 0.118216 0.817281
Si Si7 0.610341 0.632126 0.444241
Si Si8 0.691308 0.368003 0.651320
O O1 0.908954 0.642786 0.901953
O O2 0.062406 0.440176 0.898650
O O3 0.060346 0.571871 0.796485
O O4 0.414542 0.593832 0.877244
O O5 0.365028 0.663996 0.714973
O O6 0.157536 0.783276 0.802530
O O7 0.861150 0.684947 0.710024
O O8 0.980151 0.348392 0.482860
O O9 0.202054 0.536235 0.550076
O O10 0.788813 0.544406 0.484566
O O11 0.846988 0.409910 0.591608
O O12 0.455474 0.298165 0.619245
O O13 0.402308 0.129053 0.890733
O O14 0.762510 0.264092 0.908925
O O15 0.559919 0.191153 0.004031
O O16 0.375161 0.980775 0.810070
#
# Coordination Sequence:
#
# PCOD9314968 Si02
#       8
#     4   4   4   4   4   4   4   4
#     4  10  22  46  73 105 146 188 245 305 359 439
#     4  11  27  51  74 105 146 199 260 305 367 430
#     4  11  23  43  71 112 147 188 236 302 374 457
#     4  10  23  42  72 111 144 182 230 297 382 443
#     4  12  24  43  74 106 153 196 244 300 379 441
#     4  12  28  49  74 108 146 198 256 304 359 449
#     4  11  23  43  70 109 151 189 240 302 377 443
#     4  11  26  49  76 104 145 194 245 311 369 436
#
# _framework density 24.214392
#
# number of rings (size 3 to 8) (size 9 to 14) (size 15 to 20)
#    0.000    1.000    3.750    2.250    0.000   12.000 
#    0.000    7.500    0.000    0.000    0.000    0.000 
#    0.000    0.000    0.000    0.000    0.000    0.000 
#
# Total GULP energy -178770.124657 kJ/mol
# GULP energy per Si atom -5586.566396 kJ/mol
# Density = 2.415928 g / cm^3
# Si number density = 24.214392 Si / 1000 Ang^3
#
#
#
# Elastic Constant Matrix: (Units=GPa)
#
#
# Indices 1 2 3 4 5 6 
#
# 1 80.7199 25.5472 28.9960 0.0000 0.0000 0.0000
# 2 25.5472 91.3920 33.5700 0.0000 0.0000 0.0000
# 3 28.9960 33.5700 73.3909 0.0000 0.0000 0.0000
# 4 0.0000 0.0000 0.0000 31.8939 0.0000 0.0000
# 5 0.0000 0.0000 0.0000 0.0000 45.3476 0.0000
# 6 0.0000 0.0000 0.0000 0.0000 0.0000 34.1597
#
#
#
# Elastic Compliance Matrix: (Units=1/GPa)
#
#
# Indices 1 2 3 4 5 6 
#
# 1 0.014863 -0.002401 -0.004774 0.000000 0.000000 0.000000
# 2 -0.002401 0.013539 -0.005244 0.000000 0.000000 0.000000
# 3 -0.004774 -0.005244 0.017911 0.000000 0.000000 0.000000
# 4 0.000000 0.000000 0.000000 0.031354 0.000000 0.000000
# 5 0.000000 0.000000 0.000000 0.000000 0.022052 0.000000
# 6 0.000000 0.000000 0.000000 0.000000 0.000000 0.029274
#
#
# Mechanical properties :
#
#
# Convention : Reuss Voigt Hill
#
# Bulk Modulus (GPa) = 46.56752 46.85881 46.71316
# Shear Modulus (GPa) = 31.05759 32.77287 31.91523
#
# Velocity S-wave (km/s) = 3.58524 3.68291 3.63440
# Velocity P-wave (km/s) = 6.03421 6.12199 6.07826
#
# Compressibility (1/GPa) = 0.02147420
#
# Stress axis : x y z
#
# Youngs Moduli (GPa) = 67.27931 73.85806 55.83247
#
# Poissons Ratio (x) = 0.17735 0.26655
# Poissons Ratio (y) = 0.16155 0.29281
# Poissons Ratio (z) = 0.32119 0.38734
#
# Static dielectric constant tensor:
#      x y z
#    x 2.002900 0.000000 0.000000 
#    y 0.000000 2.037250 0.000000 
#    z 0.000000 0.000000 1.900720 
# 
# From -- ./inp_files/6905.got.cif
#   From: 2010.05.17/outbox.cif.g08.bks.cpg/sg19_4_cif.got.tgz:6905.got - 2010.06.03 22:46:19.
