data_PCOD9314565
_publ_section_title
;
Structure prediction by ZEFSAII (Michael W. Deem and Ramdas Pophale) SiO2 
 PCOD9314565
Probable space group: P 21 21 21
;
_chemical_formula_sum "Si O2"
_cell_formula_units_Z 32
_cell_length_a 20.772067
_cell_length_b 11.111692
_cell_length_c 5.128356
_cell_angle_alpha 90.000000
_cell_angle_beta 90.000000
_cell_angle_gamma 90.000000
_cell_volume 1183.690263
_symmetry_space_group_name_H-M "P 21 21 21"
_symmetry_group_IT_number 19
_symmetry_cell_setting 'orthorhombic'
loop_
_space_group_symop_operation_xyz
x,y,z
1/2-x,-y,1/2+z
1/2+x,1/2-y,-z
-x,1/2+y,1/2-z
loop_
_atom_site_type_symbol
_atom_site_label
_atom_site_fract_x
_atom_site_fract_y
_atom_site_fract_z
Si Si1 0.513782 0.250181 0.154758
Si Si2 0.366663 0.841481 0.070720
Si Si3 0.207293 0.524305 0.902186
Si Si4 0.937220 0.439041 0.148160
Si Si5 0.623048 0.158880 0.783902
Si Si6 0.755291 0.584255 0.608871
Si Si7 0.941492 0.055412 0.073097
Si Si8 0.851567 0.247407 0.354528
O O1 0.565552 0.276511 0.374885
O O2 0.465140 0.141537 0.090324
O O3 0.562765 0.228717 0.911577
O O4 0.471188 0.371375 0.164063
O O5 0.324914 0.859337 0.327030
O O6 0.332495 0.754668 0.863192
O O7 0.383735 0.970503 0.955618
O O8 0.261726 0.507706 0.126146
O O9 0.155119 0.425188 0.996655
O O10 0.179061 0.661076 0.922866
O O11 0.904127 0.355664 0.371089
O O12 0.996248 0.514074 0.263961
O O13 0.599728 0.063675 0.565162
O O14 0.750328 0.521635 0.329128
O O15 0.704284 0.688077 0.685678
O O16 0.894312 0.150665 0.202490
#
# Coordination Sequence:
#
# PCOD9314565 Si02
#       8
#     4   4   4   4   4   4   4   4
#     4  10  23  39  70  96 141 183 240 299 368 429
#     4  12  25  41  72 103 143 190 240 311 360 442
#     4  11  26  48  74 104 141 188 241 294 356 433
#     4  10  21  46  65 108 140 186 250 299 380 431
#     4  10  23  42  67  97 135 183 236 289 363 424
#     4  12  29  49  73 106 148 192 246 301 365 442
#     4   9  20  44  71  96 144 185 238 307 360 449
#     4  10  23  47  72 106 146 195 241 308 366 440
#
# _framework density 27.034099999999999
#
# number of rings (size 3 to 8) (size 9 to 14) (size 15 to 20)
#    0.000    1.500    2.500    0.750    8.750    1.000 
#    2.250    0.000    0.000    0.000    0.000    0.000 
#    0.000    0.000    0.000    0.000    0.000    0.000 
#
# Total GULP energy -179008.115227 kJ/mol
# GULP energy per Si atom -5594.003601 kJ/mol
# Density = 2.697257 g / cm^3
# Si number density = 27.034100 Si / 1000 Ang^3
#
#
#
# Elastic Constant Matrix: (Units=GPa)
#
#
# Indices 1 2 3 4 5 6 
#
# 1 121.0509 45.5582 39.3551 0.0000 0.0000 0.0000
# 2 45.5582 143.6752 39.5059 0.0000 0.0000 0.0000
# 3 39.3551 39.5059 53.6179 0.0000 0.0000 0.0000
# 4 0.0000 0.0000 0.0000-2156.9588 0.0000 0.0000
# 5 0.0000 0.0000 0.0000 0.0000 35.2937 0.0000
# 6 0.0000 0.0000 0.0000 0.0000 0.0000 29.3607
#
#
#
# Elastic Compliance Matrix: (Units=1/GPa)
#
#
# Indices 1 2 3 4 5 6 
#
# 1 0.011140 -0.001610 -0.006990 0.000000 0.000000 0.000000
# 2 -0.001610 0.008961 -0.005421 0.000000 0.000000 0.000000
# 3 -0.006990 -0.005421 0.027775 0.000000 0.000000 0.000000
# 4 0.000000 0.000000 0.000000 -0.000464 0.000000 0.000000
# 5 0.000000 0.000000 0.000000 0.000000 0.028334 0.000000
# 6 0.000000 0.000000 0.000000 0.000000 0.000000 0.034059
#
#
# Mechanical properties :
#
#
# Convention : Reuss Voigt Hill
#
# Bulk Modulus (GPa) = 50.41847 63.02027 56.71937
# Shear Modulus (GPa) = 34.61210 -405.53257 -185.46023
#
# Velocity S-wave (km/s) = 3.58203 -12.26105 -8.29164
# Velocity P-wave (km/s) = 5.98317 13.30724 8.40489
#
# Compressibility (1/GPa) = 0.01983400
#
# Stress axis : x y z
#
# Youngs Moduli (GPa) = 89.77054 111.59117 36.00357
#
# Poissons Ratio (x) = 0.17969 0.25166
# Poissons Ratio (y) = 0.14455 0.19517
# Poissons Ratio (z) = 0.62748 0.60491
#
# Static dielectric constant tensor:
#      x y z
#    x 12.883330 0.000000 0.000000 
#    y 0.000000 2.159540 0.000000 
#    z 0.000000 0.000000 2.086350 
# 
# From -- ./inp_files/2032.got.cif
#   From: 2010.05.17/outbox.cif.g08.bks.cpg/sg19_2_cif.got.tgz:2032.got - 2010.06.03 22:46:19.
