data_PCOD9314741
_publ_section_title
;
Structure prediction by ZEFSAII (Michael W. Deem and Ramdas Pophale) SiO2 
 PCOD9314741
Probable space group: P 21 21 21
;
_chemical_formula_sum "Si O2"
_cell_formula_units_Z 32
_cell_length_a 12.105382
_cell_length_b 5.042260
_cell_length_c 20.504620
_cell_angle_alpha 90.000000
_cell_angle_beta 90.000000
_cell_angle_gamma 90.000000
_cell_volume 1251.570908
_symmetry_space_group_name_H-M "P 21 21 21"
_symmetry_group_IT_number 19
_symmetry_cell_setting 'orthorhombic'
loop_
_space_group_symop_operation_xyz
x,y,z
1/2-x,-y,1/2+z
1/2+x,1/2-y,-z
-x,1/2+y,1/2-z
loop_
_atom_site_type_symbol
_atom_site_label
_atom_site_fract_x
_atom_site_fract_y
_atom_site_fract_z
Si Si1 0.132592 0.264323 0.529457
Si Si2 0.927777 0.863933 0.512333
Si Si3 0.834428 0.178080 0.397700
Si Si4 0.455645 0.490041 0.912190
Si Si5 0.561720 0.661854 0.719014
Si Si6 0.113319 0.488115 0.850909
Si Si7 0.529244 0.006504 0.349517
Si Si8 0.234531 0.372662 0.731372
O O1 0.235702 0.142892 0.571189
O O2 0.093727 0.490198 0.581595
O O3 0.141615 0.362962 0.453691
O O4 0.033235 0.053032 0.525613
O O5 0.975463 0.617696 0.474008
O O6 0.863200 0.849790 0.579804
O O7 0.850116 0.990921 0.458765
O O8 0.951723 0.313283 0.383515
O O9 0.797424 0.023407 0.332774
O O10 0.433865 0.265233 0.857005
O O11 0.496135 0.405953 0.742900
O O12 0.687046 0.631258 0.746868
O O13 0.213413 0.508095 0.800471
O O14 0.069034 0.784267 0.857829
O O15 0.015551 0.281092 0.829167
O O16 0.612176 0.139402 0.297869
#
# Coordination Sequence:
#
# PCOD9314741 Si02
#       8
#     4   4   4   4   4   4   4   4
#     4   9  21  40  66  97 127 172 222 271 346 401
#     4  10  22  41  66  96 136 169 223 289 337 394
#     4  10  22  44  65  96 130 182 224 271 342 409
#     4  11  22  43  68  90 137 174 220 286 326 403
#     4  12  28  48  66  98 135 184 235 278 333 405
#     4  11  23  43  70 107 137 174 225 295 343 410
#     4  10  22  44  69 101 141 168 223 285 352 406
#     4  11  24  45  70 101 137 187 228 279 347 414
#
# _framework density 25.567865999999999
#
# number of rings (size 3 to 8) (size 9 to 14) (size 15 to 20)
#    0.000    1.500    2.500    1.500    3.500    3.000 
#   11.250    0.000    0.000    0.000    0.000    0.000 
#    0.000    0.000    0.000    0.000    0.000    0.000 
#
# Total GULP energy -178231.241088 kJ/mol
# GULP energy per Si atom -5569.726284 kJ/mol
# Density = 2.550967 g / cm^3
# Si number density = 25.567866 Si / 1000 Ang^3
#
#
#
# Elastic Constant Matrix: (Units=GPa)
#
#
# Indices 1 2 3 4 5 6 
#
# 1 48.0510 5.3715 21.0125 0.0000 0.0000 0.0000
# 2 5.3715 81.7252 10.3070 0.0000 0.0000 0.0000
# 3 21.0125 10.3070 166.2901 0.0000 0.0000 0.0000
# 4 0.0000 0.0000 0.0000 -8.9226 0.0000 0.0000
# 5 0.0000 0.0000 0.0000 0.0000 37.4670 0.0000
# 6 0.0000 0.0000 0.0000 0.0000 0.0000 -13.3968
#
#
#
# Elastic Compliance Matrix: (Units=1/GPa)
#
#
# Indices 1 2 3 4 5 6 
#
# 1 0.022128 -0.001110 -0.002727 0.000000 0.000000 0.000000
# 2 -0.001110 0.012388 -0.000628 0.000000 0.000000 0.000000
# 3 -0.002727 -0.000628 0.006397 0.000000 0.000000 0.000000
# 4 0.000000 0.000000 0.000000 -0.112075 0.000000 0.000000
# 5 0.000000 0.000000 0.000000 0.000000 0.026690 0.000000
# 6 0.000000 0.000000 0.000000 0.000000 0.000000 -0.074645
#
#
# Mechanical properties :
#
#
# Convention : Reuss Voigt Hill
#
# Bulk Modulus (GPa) = 31.26676 41.04982 36.15829
# Shear Modulus (GPa) = -50.23889 20.32120 -14.95885
#
# Velocity S-wave (km/s) = -4.43755 2.82227 -2.42143
# Velocity P-wave (km/s) = 3.74171 5.16821 2.52091
#
# Compressibility (1/GPa) = 0.03198285
#
# Stress axis : x y z
#
# Youngs Moduli (GPa) = 45.19163 80.72159 156.32072
#
# Poissons Ratio (x) = 0.08964 0.42633
# Poissons Ratio (y) = 0.05018 0.09810
# Poissons Ratio (z) = 0.12325 0.05066
#
# Static dielectric constant tensor:
#      x y z
#    x 2.279280 0.000000 0.000000 
#    y 0.000000 2.061680 0.000000 
#    z 0.000000 0.000000 2.243890 
# 
# From -- ./inp_files/7154.got.cif
#   From: 2010.05.17/outbox.cif.g08.bks.cpg/sg19_4_cif.got.tgz:7154.got - 2010.06.03 22:46:19.
