data_PCOD9314948
_publ_section_title
;
Structure prediction by ZEFSAII (Michael W. Deem and Ramdas Pophale) SiO2 
 PCOD9314948
Probable space group: P 21 21 21
;
_chemical_formula_sum "Si O2"
_cell_formula_units_Z 28
_cell_length_a 23.984310
_cell_length_b 5.241151
_cell_length_c 10.545011
_cell_angle_alpha 90.000000
_cell_angle_beta 90.000000
_cell_angle_gamma 90.000000
_cell_volume 1325.564724
_symmetry_space_group_name_H-M "P 21 21 21"
_symmetry_group_IT_number 19
_symmetry_cell_setting 'orthorhombic'
loop_
_space_group_symop_operation_xyz
x,y,z
1/2-x,-y,1/2+z
1/2+x,1/2-y,-z
-x,1/2+y,1/2-z
loop_
_atom_site_type_symbol
_atom_site_label
_atom_site_fract_x
_atom_site_fract_y
_atom_site_fract_z
Si Si1 0.401560 0.172593 0.949850
Si Si2 0.304241 0.871403 0.860443
Si Si3 0.812135 0.123016 0.553538
Si Si4 0.166352 0.739158 0.686724
Si Si5 0.777791 0.746806 0.738803
Si Si6 0.488014 0.671987 0.669822
Si Si7 0.632155 0.983619 0.802580
O O1 0.378821 0.296708 0.078528
O O2 0.467605 0.134617 0.943438
O O3 0.388860 0.330897 0.821414
O O4 0.361173 0.926613 0.936009
O O5 0.249576 0.747791 0.926805
O O6 0.324442 0.691850 0.747924
O O7 0.281286 0.139571 0.806179
O O8 0.710475 0.995144 0.317411
O O9 0.805116 0.830373 0.602834
O O10 0.851677 0.230572 0.665892
O O11 0.196140 0.012718 0.683814
O O12 0.661821 0.839954 0.917896
O O13 0.507089 0.456060 0.772145
O O14 0.423780 0.614154 0.642125
#
# Coordination Sequence:
#
# PCOD9314948 Si02
#       7
#     4   4   4   4   4   4   4
#     4  11  24  39  70  97 133 176 235 277 333 397
#     4  11  22  38  63 102 131 180 216 272 338 406
#     4   9  23  42  63  98 140 172 214 272 341 416
#     4   9  22  42  64  89 136 173 212 266 332 395
#     4   9  21  41  58  89 136 171 206 257 324 409
#     4  10  22  45  66  99 133 172 234 286 331 389
#     4  11  24  43  68 100 135 180 225 288 337 396
#
# _framework density 21.123075
#
# number of rings (size 3 to 8) (size 9 to 14) (size 15 to 20)
#    0.857    1.143    1.429    0.857    2.000   10.286 
#    0.000    0.000    3.143    0.000    0.000    0.000 
#    0.000    0.000    0.000    0.000    0.000    0.000 
#
# Total GULP energy -155885.123636 kJ/mol
# GULP energy per Si atom -5567.325844 kJ/mol
# Density = 2.107500 g / cm^3
# Si number density = 21.123075 Si / 1000 Ang^3
#
#
#
# Elastic Constant Matrix: (Units=GPa)
#
#
# Indices 1 2 3 4 5 6 
#
# 1 64.1229 3.2309 24.7835 0.0000 0.0000 0.0000
# 2 3.2309 88.1992 10.9479 0.0000 0.0000 0.0000
# 3 24.7835 10.9479 99.1272 0.0000 0.0000 0.0000
# 4 0.0000 0.0000 0.0000 23.6804 0.0000 0.0000
# 5 0.0000 0.0000 0.0000 0.0000 19.1396 0.0000
# 6 0.0000 0.0000 0.0000 0.0000 0.0000 23.7392
#
#
#
# Elastic Compliance Matrix: (Units=1/GPa)
#
#
# Indices 1 2 3 4 5 6 
#
# 1 0.017264 -0.000098 -0.004306 0.000000 0.000000 0.000000
# 2 -0.000098 0.011496 -0.001245 0.000000 0.000000 0.000000
# 3 -0.004306 -0.001245 0.011302 0.000000 0.000000 0.000000
# 4 0.000000 0.000000 0.000000 0.042229 0.000000 0.000000
# 5 0.000000 0.000000 0.000000 0.000000 0.052248 0.000000
# 6 0.000000 0.000000 0.000000 0.000000 0.000000 0.042124
#
#
# Mechanical properties :
#
#
# Convention : Reuss Voigt Hill
#
# Bulk Modulus (GPa) = 34.76459 36.59711 35.68085
# Shear Modulus (GPa) = 25.31020 27.47764 26.39392
#
# Velocity S-wave (km/s) = 3.46529 3.61062 3.53870
# Velocity P-wave (km/s) = 5.70130 5.89452 5.79872
#
# Compressibility (1/GPa) = 0.02876490
#
# Stress axis : x y z
#
# Youngs Moduli (GPa) = 57.92376 86.98590 88.47976
#
# Poissons Ratio (x) = 0.00852 0.38095
# Poissons Ratio (y) = 0.00568 0.11017
# Poissons Ratio (z) = 0.24939 0.10831
#
# Static dielectric constant tensor:
#      x y z
#    x 1.778020 0.000000 0.000000 
#    y 0.000000 1.882350 0.000000 
#    z 0.000000 0.000000 1.827770 
# 
# From -- ./inp_files/1327.got.cif
#   From: 2010.05.17/outbox.cif.g08.bks.cpg/sg19_1_cif.got.tgz:1327.got - 2010.06.03 22:46:19.
