data_PCOD9314160
_publ_section_title
;
Structure prediction by ZEFSAII (Michael W. Deem and Ramdas Pophale) SiO2 
 PCOD9314160
Probable space group: P 21 21 21
;
_chemical_formula_sum "Si O2"
_cell_formula_units_Z 32
_cell_length_a 5.145197
_cell_length_b 19.549691
_cell_length_c 16.403659
_cell_angle_alpha 90.000000
_cell_angle_beta 90.000000
_cell_angle_gamma 90.000000
_cell_volume 1649.995036
_symmetry_space_group_name_H-M "P 21 21 21"
_symmetry_group_IT_number 19
_symmetry_cell_setting 'orthorhombic'
loop_
_space_group_symop_operation_xyz
x,y,z
1/2-x,-y,1/2+z
1/2+x,1/2-y,-z
-x,1/2+y,1/2-z
loop_
_atom_site_type_symbol
_atom_site_label
_atom_site_fract_x
_atom_site_fract_y
_atom_site_fract_z
Si Si1 0.079995 0.388905 0.871989
Si Si2 0.892622 0.719199 0.200307
Si Si3 0.220241 0.439616 0.525557
Si Si4 0.751041 0.213359 0.537624
Si Si5 0.274951 0.024858 0.016603
Si Si6 0.617089 0.127424 0.307480
Si Si7 0.739670 0.254842 0.880590
Si Si8 0.027387 0.650035 0.509474
O O1 0.182564 0.402192 0.781866
O O2 0.281586 0.388068 0.946287
O O3 0.860945 0.443699 0.896264
O O4 0.964624 0.311998 0.870602
O O5 0.810987 0.773921 0.132571
O O6 0.671142 0.659982 0.194981
O O7 0.897879 0.746099 0.293077
O O8 0.169923 0.686764 0.178573
O O9 0.270523 0.365949 0.485007
O O10 0.479547 0.484630 0.518899
O O11 0.144852 0.425311 0.619247
O O12 0.973368 0.475843 0.484022
O O13 0.512855 0.247414 0.487985
O O14 0.193321 0.094826 0.969896
O O15 0.573061 0.286584 0.954637
O O16 0.842468 0.182586 0.911716
#
# Coordination Sequence:
#
# PCOD9314160 Si02
#       8
#     4   4   4   4   4   4   4   4
#     4  10  21  40  64  93 125 162 213 263 309 378
#     4  11  21  39  60 104 126 156 207 280 323 373
#     4  12  23  42  65  92 125 174 213 258 324 386
#     4  12  22  40  68  96 125 160 213 274 328 377
#     4  11  25  41  62  89 128 174 212 255 309 401
#     4  11  22  38  68  94 123 160 219 265 310 374
#     4  10  21  33  68  94 128 158 211 264 328 370
#     4  11  19  39  63  96 122 174 206 263 323 385
#
# _framework density 19.393998
#
# number of rings (size 3 to 8) (size 9 to 14) (size 15 to 20)
#    0.000    1.000    6.250    1.500    0.000    0.000 
#    0.000    1.250    2.750    0.000    0.000    0.000 
#    0.000    0.000    0.000    0.000    0.000    0.000 
#
# Total GULP energy -178658.060118 kJ/mol
# GULP energy per Si atom -5583.064379 kJ/mol
# Density = 1.934986 g / cm^3
# Si number density = 19.393998 Si / 1000 Ang^3
#
#
#
# Elastic Constant Matrix: (Units=GPa)
#
#
# Indices 1 2 3 4 5 6 
#
# 1 85.8339 27.2222 15.4153 0.0000 0.0000 0.0000
# 2 27.2222 86.6798 51.7958 0.0000 0.0000 0.0000
# 3 15.4153 51.7958 64.9690 0.0000 0.0000 0.0000
# 4 0.0000 0.0000 0.0000 10.6800 0.0000 0.0000
# 5 0.0000 0.0000 0.0000 0.0000 127.8684 0.0000
# 6 0.0000 0.0000 0.0000 0.0000 0.0000 36.2281
#
#
#
# Elastic Compliance Matrix: (Units=1/GPa)
#
#
# Indices 1 2 3 4 5 6 
#
# 1 0.012943 -0.004258 0.000324 0.000000 0.000000 0.000000
# 2 -0.004258 0.023434 -0.017672 0.000000 0.000000 0.000000
# 3 0.000324 -0.017672 0.029404 0.000000 0.000000 0.000000
# 4 0.000000 0.000000 0.000000 0.093633 0.000000 0.000000
# 5 0.000000 0.000000 0.000000 0.000000 0.007821 0.000000
# 6 0.000000 0.000000 0.000000 0.000000 0.000000 0.027603
#
#
# Mechanical properties :
#
#
# Convention : Reuss Voigt Hill
#
# Bulk Modulus (GPa) = 44.31095 47.37215 45.84155
# Shear Modulus (GPa) = 20.36048 44.49192 32.42620
#
# Velocity S-wave (km/s) = 3.24363 4.79488 4.09341
# Velocity P-wave (km/s) = 6.07664 7.42521 6.78451
#
# Compressibility (1/GPa) = 0.02256779
#
# Stress axis : x y z
#
# Youngs Moduli (GPa) = 77.26329 42.67263 34.00879
#
# Poissons Ratio (x) = 0.18171 -0.01102
# Poissons Ratio (y) = 0.32901 0.60101
# Poissons Ratio (z) = -0.02503 0.75412
#
# Static dielectric constant tensor:
#      x y z
#    x 1.736080 0.000000 0.000000 
#    y 0.000000 1.606710 0.000000 
#    z 0.000000 0.000000 1.680120 
# 
# From -- ./inp_files/6505.got.cif
#   From: 2010.05.17/outbox.cif.g08.bks.cpg/sg19_4_cif.got.tgz:6505.got - 2010.06.03 22:46:19.
