data_PCOD9314895
_publ_section_title
;
Structure prediction by ZEFSAII (Michael W. Deem and Ramdas Pophale) SiO2 
 PCOD9314895
Probable space group: P 21 21 21
;
_chemical_formula_sum "Si O2"
_cell_formula_units_Z 32
_cell_length_a 8.366060
_cell_length_b 12.395816
_cell_length_c 12.770507
_cell_angle_alpha 90.000000
_cell_angle_beta 90.000000
_cell_angle_gamma 90.000000
_cell_volume 1324.354451
_symmetry_space_group_name_H-M "P 21 21 21"
_symmetry_group_IT_number 19
_symmetry_cell_setting 'orthorhombic'
loop_
_space_group_symop_operation_xyz
x,y,z
1/2-x,-y,1/2+z
1/2+x,1/2-y,-z
-x,1/2+y,1/2-z
loop_
_atom_site_type_symbol
_atom_site_label
_atom_site_fract_x
_atom_site_fract_y
_atom_site_fract_z
Si Si1 0.722163 0.950361 0.038025
Si Si2 0.439621 0.319683 0.625631
Si Si3 0.286266 0.895590 0.563833
Si Si4 0.531835 0.694507 0.584288
Si Si5 0.890889 0.350002 0.754919
Si Si6 0.193343 0.331548 0.257215
Si Si7 0.572737 0.618046 0.013703
Si Si8 0.247045 0.358654 0.827561
O O1 0.733279 0.911022 0.158588
O O2 0.880616 0.896724 0.988855
O O3 0.752260 0.076124 0.061877
O O4 0.573370 0.905543 0.970834
O O5 0.592293 0.261170 0.679914
O O6 0.371142 0.211682 0.566463
O O7 0.354559 0.378439 0.723719
O O8 0.416529 0.797965 0.559654
O O9 0.116952 0.864727 0.510771
O O10 0.237765 0.921708 0.683872
O O11 0.356788 0.002786 0.515230
O O12 0.425658 0.627804 0.667474
O O13 0.687592 0.740613 0.644348
O O14 0.841224 0.230549 0.793292
O O15 0.882541 0.353501 0.631002
O O16 0.069186 0.371335 0.788227
#
# Coordination Sequence:
#
# PCOD9314895 Si02
#       8
#     4   4   4   4   4   4   4   4
#     4  11  21  44  69 103 137 183 227 295 359 413
#     4  10  22  43  72  98 136 187 234 292 351 417
#     4  11  24  45  69 101 142 188 233 294 357 426
#     4  10  22  46  66  97 140 183 225 293 351 421
#     4  11  23  43  64 103 135 178 240 286 351 419
#     4   9  22  42  69  96 140 179 231 295 345 416
#     4  11  23  44  72 101 141 182 242 298 349 417
#     4  11  23  43  69 101 135 186 234 283 363 425
#
# _framework density 24.162717000000001
#
# number of rings (size 3 to 8) (size 9 to 14) (size 15 to 20)
#    0.000    1.500    3.750    0.750    0.000    4.000 
#   15.750    0.000    0.000    0.000    0.000    0.000 
#    0.000    0.000    0.000    0.000    0.000    0.000 
#
# Total GULP energy -178413.717988 kJ/mol
# GULP energy per Si atom -5575.428687 kJ/mol
# Density = 2.410772 g / cm^3
# Si number density = 24.162717 Si / 1000 Ang^3
#
#
#
# Elastic Constant Matrix: (Units=GPa)
#
#
# Indices 1 2 3 4 5 6 
#
# 1 74.9754 24.4785 15.6444 0.0000 0.0000 0.0000
# 2 24.4785 64.8352 19.0666 0.0000 0.0000 0.0000
# 3 15.6444 19.0666 102.2240 0.0000 0.0000 0.0000
# 4 0.0000 0.0000 0.0000 16.5684 0.0000 0.0000
# 5 0.0000 0.0000 0.0000 0.0000 29.3761 0.0000
# 6 0.0000 0.0000 0.0000 0.0000 0.0000 22.8437
#
#
#
# Elastic Compliance Matrix: (Units=1/GPa)
#
#
# Indices 1 2 3 4 5 6 
#
# 1 0.015386 -0.005413 -0.001345 0.000000 0.000000 0.000000
# 2 -0.005413 0.018223 -0.002571 0.000000 0.000000 0.000000
# 3 -0.001345 -0.002571 0.010468 0.000000 0.000000 0.000000
# 4 0.000000 0.000000 0.000000 0.060356 0.000000 0.000000
# 5 0.000000 0.000000 0.000000 0.000000 0.034041 0.000000
# 6 0.000000 0.000000 0.000000 0.000000 0.000000 0.043776
#
#
# Mechanical properties :
#
#
# Convention : Reuss Voigt Hill
#
# Bulk Modulus (GPa) = 39.34031 40.04597 39.69314
# Shear Modulus (GPa) = 23.87995 25.94731 24.91363
#
# Velocity S-wave (km/s) = 3.14713 3.28053 3.21452
# Velocity P-wave (km/s) = 5.43348 5.56405 5.49915
#
# Compressibility (1/GPa) = 0.02541922
#
# Stress axis : x y z
#
# Youngs Moduli (GPa) = 64.99534 54.87436 95.53178
#
# Poissons Ratio (x) = 0.29705 0.12849
# Poissons Ratio (y) = 0.35184 0.24557
# Poissons Ratio (z) = 0.08742 0.14106
#
# Static dielectric constant tensor:
#      x y z
#    x 1.966970 0.000000 0.000000 
#    y 0.000000 2.054720 0.000000 
#    z 0.000000 0.000000 1.998290 
# 
# From -- ./inp_files/4677.got.cif
#   From: 2010.05.17/outbox.cif.g08.bks.cpg/sg19_3_cif.got.tgz:4677.got - 2010.06.03 22:46:19.
