data_PCOD9314962
_publ_section_title
;
Structure prediction by ZEFSAII (Michael W. Deem and Ramdas Pophale) SiO2 
 PCOD9314962
Probable space group: P 21 21 21
;
_chemical_formula_sum "Si O2"
_cell_formula_units_Z 20
_cell_length_a 7.400620
_cell_length_b 10.359784
_cell_length_c 9.028331
_cell_angle_alpha 90.000000
_cell_angle_beta 90.000000
_cell_angle_gamma 90.000000
_cell_volume 692.191526
_symmetry_space_group_name_H-M "P 21 21 21"
_symmetry_group_IT_number 19
_symmetry_cell_setting 'orthorhombic'
loop_
_space_group_symop_operation_xyz
x,y,z
1/2-x,-y,1/2+z
1/2+x,1/2-y,-z
-x,1/2+y,1/2-z
loop_
_atom_site_type_symbol
_atom_site_label
_atom_site_fract_x
_atom_site_fract_y
_atom_site_fract_z
Si Si1 0.107741 0.104850 0.133942
Si Si2 0.079040 0.320904 0.316270
Si Si3 0.756954 0.114600 0.958344
Si Si4 0.553419 0.879507 0.029934
Si Si5 0.603482 0.458507 0.196489
O O1 0.180400 0.087775 0.960691
O O2 0.893635 0.153730 0.084952
O O3 0.029916 0.952298 0.176434
O O4 0.288588 0.080002 0.243824
O O5 0.159432 0.281252 0.152091
O O6 0.251813 0.334516 0.417993
O O7 0.988333 0.193272 0.379212
O O8 0.589872 0.030517 0.009977
O O9 0.888382 0.030884 0.848677
O O10 0.414007 0.860459 0.164426
#
# Coordination Sequence:
#
# PCOD9314962 Si02
#       5
#     4   4   4   4   4
#     4  10  22  45  75 107 149 196 258 297 386 455
#     4  11  26  47  75 113 145 209 248 316 374 461
#     4   9  25  47  72 111 150 192 251 316 377 442
#     4  11  25  49  73 107 154 193 258 313 377 455
#     4   9  22  44  73 104 146 198 239 314 378 435
#
# _framework density 28.893735
#
# number of rings (size 3 to 8) (size 9 to 14) (size 15 to 20)
#    1.200    0.800    0.000    1.200    8.400    1.600 
#   10.800    0.000    0.000    0.000    0.000    0.000 
#    0.000    0.000    0.000    0.000    0.000    0.000 
#
# Total GULP energy -111526.621373 kJ/mol
# GULP energy per Si atom -5576.331069 kJ/mol
# Density = 2.882797 g / cm^3
# Si number density = 28.893735 Si / 1000 Ang^3
#
#
#
# Elastic Constant Matrix: (Units=GPa)
#
#
# Indices 1 2 3 4 5 6 
#
# 1 164.3378 80.4947 52.3362 0.0000 0.0000 0.0000
# 2 80.4947 179.5163 87.1565 0.0000 0.0000 0.0000
# 3 52.3362 87.1565 198.3489 0.0000 0.0000 0.0000
# 4 0.0000 0.0000 0.0000 68.8422 0.0000 0.0000
# 5 0.0000 0.0000 0.0000 0.0000 53.3405 0.0000
# 6 0.0000 0.0000 0.0000 0.0000 0.0000 53.8825
#
#
#
# Elastic Compliance Matrix: (Units=1/GPa)
#
#
# Indices 1 2 3 4 5 6 
#
# 1 0.007867 -0.003203 -0.000668 0.000000 0.000000 0.000000
# 2 -0.003203 0.008385 -0.002839 0.000000 0.000000 0.000000
# 3 -0.000668 -0.002839 0.006466 0.000000 0.000000 0.000000
# 4 0.000000 0.000000 0.000000 0.014526 0.000000 0.000000
# 5 0.000000 0.000000 0.000000 0.000000 0.018747 0.000000
# 6 0.000000 0.000000 0.000000 0.000000 0.000000 0.018559
#
#
# Mechanical properties :
#
#
# Convention : Reuss Voigt Hill
#
# Bulk Modulus (GPa) = 107.57033 109.13084 108.35059
# Shear Modulus (GPa) = 54.90273 56.69407 55.79840
#
# Velocity S-wave (km/s) = 4.36381 4.43443 4.39926
# Velocity P-wave (km/s) = 7.91839 8.00441 7.96152
#
# Compressibility (1/GPa) = 0.00929624
#
# Stress axis : x y z
#
# Youngs Moduli (GPa) = 127.11807 119.25638 154.66365
#
# Poissons Ratio (x) = 0.38197 0.10336
# Poissons Ratio (y) = 0.40715 0.43916
# Poissons Ratio (z) = 0.08495 0.33862
#
# Static dielectric constant tensor:
#      x y z
#    x 2.208750 0.000000 0.000000 
#    y 0.000000 2.358480 0.000000 
#    z 0.000000 0.000000 2.318150 
# 
# From -- ./inp_files/2756.got.cif
#   From: 2010.05.17/outbox.cif.g08.bks.cpg/sg19_2_cif.got.tgz:2756.got - 2010.06.03 22:46:19.
