data_PCOD9314051
_publ_section_title
;
Structure prediction by ZEFSAII (Michael W. Deem and Ramdas Pophale) SiO2 
 PCOD9314051
Probable space group: P 21 21 21
;
_chemical_formula_sum "Si O2"
_cell_formula_units_Z 28
_cell_length_a 9.595104
_cell_length_b 8.167681
_cell_length_c 14.473934
_cell_angle_alpha 90.000000
_cell_angle_beta 90.000000
_cell_angle_gamma 90.000000
_cell_volume 1134.318569
_symmetry_space_group_name_H-M "P 21 21 21"
_symmetry_group_IT_number 19
_symmetry_cell_setting 'orthorhombic'
loop_
_space_group_symop_operation_xyz
x,y,z
1/2-x,-y,1/2+z
1/2+x,1/2-y,-z
-x,1/2+y,1/2-z
loop_
_atom_site_type_symbol
_atom_site_label
_atom_site_fract_x
_atom_site_fract_y
_atom_site_fract_z
Si Si1 0.240965 0.416187 0.660568
Si Si2 0.416809 0.502565 0.490528
Si Si3 0.492225 0.349472 0.931186
Si Si4 0.067652 0.962981 0.895344
Si Si5 0.019612 0.426473 0.262638
Si Si6 0.373282 0.869705 0.883898
Si Si7 0.704232 0.202077 0.150753
O O1 0.305482 0.411785 0.557745
O O2 0.329304 0.561176 0.710561
O O3 0.263515 0.290941 0.745026
O O4 0.075546 0.415716 0.652255
O O5 0.433472 0.687688 0.531222
O O6 0.559952 0.407986 0.515550
O O7 0.380527 0.538938 0.383652
O O8 0.519308 0.420822 0.830043
O O9 0.328238 0.309107 0.924782
O O10 0.529921 0.496700 0.999254
O O11 0.109771 0.140695 0.857446
O O12 0.206883 0.855049 0.886660
O O13 0.046017 0.278156 0.333739
O O14 0.916337 0.470153 0.177646
#
# Coordination Sequence:
#
# PCOD9314051 Si02
#       7
#     4   4   4   4   4   4   4
#     4  10  22  38  63  92 129 166 204 271 319 375
#     4  10  20  40  68  88 125 175 215 252 325 390
#     4  10  20  43  65  92 125 169 211 267 318 386
#     4  11  23  39  64  99 125 160 222 273 309 384
#     4  10  23  42  65  88 130 175 212 256 332 387
#     4  11  23  41  64  93 124 171 217 261 319 388
#     4  10  21  39  65  92 128 170 213 258 330 380
#
# _framework density 24.684424
#
# number of rings (size 3 to 8) (size 9 to 14) (size 15 to 20)
#    0.000    1.714    2.857    1.714    6.000    0.000 
#    7.714    0.000    0.000    0.000    0.000    0.000 
#    0.000    0.000    0.000    0.000    0.000    0.000 
#
# Total GULP energy -155927.712037 kJ/mol
# GULP energy per Si atom -5568.846858 kJ/mol
# Density = 2.462824 g / cm^3
# Si number density = 24.684424 Si / 1000 Ang^3
#
#
#
# Elastic Constant Matrix: (Units=GPa)
#
#
# Indices 1 2 3 4 5 6 
#
# 1 122.4078 3.0636 3.3576 0.0000 0.0000 0.0000
# 2 3.0636 59.7807 -2.9153 0.0000 0.0000 0.0000
# 3 3.3576 -2.9153 52.3609 0.0000 0.0000 0.0000
# 4 0.0000 0.0000 0.0000 33.6744 0.0000 0.0000
# 5 0.0000 0.0000 0.0000 0.0000 36.1651 0.0000
# 6 0.0000 0.0000 0.0000 0.0000 0.0000 17.4887
#
#
#
# Elastic Compliance Matrix: (Units=1/GPa)
#
#
# Indices 1 2 3 4 5 6 
#
# 1 0.008196 -0.000447 -0.000550 0.000000 0.000000 0.000000
# 2 -0.000447 0.016798 0.000964 0.000000 0.000000 0.000000
# 3 -0.000550 0.000964 0.019187 0.000000 0.000000 0.000000
# 4 0.000000 0.000000 0.000000 0.029696 0.000000 0.000000
# 5 0.000000 0.000000 0.000000 0.000000 0.027651 0.000000
# 6 0.000000 0.000000 0.000000 0.000000 0.000000 0.057180
#
#
# Mechanical properties :
#
#
# Convention : Reuss Voigt Hill
#
# Bulk Modulus (GPa) = 22.66860 26.84013 24.75436
# Shear Modulus (GPa) = 28.82196 32.86854 30.84525
#
# Velocity S-wave (km/s) = 3.42075 3.65300 3.53878
# Velocity P-wave (km/s) = 4.98049 5.35625 5.17179
#
# Compressibility (1/GPa) = 0.04411388
#
# Stress axis : x y z
#
# Youngs Moduli (GPa) = 122.01531 59.53194 52.11807
#
# Poissons Ratio (x) = 0.02660 0.02869
# Poissons Ratio (y) = 0.05452 -0.05024
# Poissons Ratio (z) = 0.06716 -0.05738
#
# Static dielectric constant tensor:
#      x y z
#    x 2.022020 0.000000 0.000000 
#    y 0.000000 2.080590 0.000000 
#    z 0.000000 0.000000 2.004160 
# 
# From -- ./inp_files/6571.got.cif
#   From: 2010.05.17/outbox.cif.g08.bks.cpg/sg19_4_cif.got.tgz:6571.got - 2010.06.03 22:46:19.
