data_PCOD9314415
_publ_section_title
;
Structure prediction by ZEFSAII (Michael W. Deem and Ramdas Pophale) SiO2 
 PCOD9314415
Probable space group: P 21 21 21
;
_chemical_formula_sum "Si O2"
_cell_formula_units_Z 32
_cell_length_a 17.780542
_cell_length_b 14.039603
_cell_length_c 6.153168
_cell_angle_alpha 90.000000
_cell_angle_beta 90.000000
_cell_angle_gamma 90.000000
_cell_volume 1536.026101
_symmetry_space_group_name_H-M "P 21 21 21"
_symmetry_group_IT_number 19
_symmetry_cell_setting 'orthorhombic'
loop_
_space_group_symop_operation_xyz
x,y,z
1/2-x,-y,1/2+z
1/2+x,1/2-y,-z
-x,1/2+y,1/2-z
loop_
_atom_site_type_symbol
_atom_site_label
_atom_site_fract_x
_atom_site_fract_y
_atom_site_fract_z
Si Si1 0.716293 0.233963 0.820460
Si Si2 0.837305 0.959100 0.099548
Si Si3 0.354602 0.291829 0.444806
Si Si4 0.081069 0.197373 0.442402
Si Si5 0.494638 0.333206 0.158785
Si Si6 0.001725 0.024494 0.207925
Si Si7 0.233949 0.374913 0.774163
Si Si8 0.461712 0.185167 0.771521
O O1 0.689413 0.128662 0.745907
O O2 0.799960 0.254585 0.734663
O O3 0.659356 0.301773 0.687194
O O4 0.718177 0.217778 0.079190
O O5 0.838043 0.915489 0.855187
O O6 0.912791 0.003725 0.197423
O O7 0.774722 0.041736 0.092645
O O8 0.420936 0.343895 0.311534
O O9 0.296133 0.351067 0.590184
O O10 0.395778 0.223857 0.617247
O O11 0.067186 0.195781 0.699226
O O12 0.037997 0.291198 0.359867
O O13 0.031673 0.108385 0.359904
O O14 0.514445 0.429440 0.030313
O O15 0.471408 0.249383 0.988006
O O16 0.041504 0.927951 0.284111
#
# Coordination Sequence:
#
# PCOD9314415 Si02
#       8
#     4   4   4   4   4   4   4   4
#     4  11  22  40  61  90 134 165 215 266 331 391
#     4  11  21  34  58  97 124 165 206 260 324 394
#     4  10  22  39  64  88 129 171 215 263 335 381
#     4  10  23  42  61  95 128 171 216 269 331 381
#     4  10  22  41  67  92 133 166 219 276 325 391
#     4  11  23  39  65  94 131 166 224 267 327 394
#     4  11  22  36  61  91 130 166 210 263 332 391
#     4  10  21  41  63  91 127 170 217 266 331 389
#
# _framework density 20.832979999999999
#
# number of rings (size 3 to 8) (size 9 to 14) (size 15 to 20)
#    0.000    1.500    2.500    3.750    1.750    7.000 
#    0.000    0.000    8.250    0.000    0.000    0.000 
#    0.000    0.000    0.000    0.000    0.000    0.000 
#
# Total GULP energy -178305.096733 kJ/mol
# GULP energy per Si atom -5572.034273 kJ/mol
# Density = 2.078556 g / cm^3
# Si number density = 20.832980 Si / 1000 Ang^3
#
#
#
# Elastic Constant Matrix: (Units=GPa)
#
#
# Indices 1 2 3 4 5 6 
#
# 1 63.3411 3.8501 7.9758 0.0000 0.0000 0.0000
# 2 3.8501 68.0859 13.0089 0.0000 0.0000 0.0000
# 3 7.9758 13.0089 78.2111 0.0000 0.0000 0.0000
# 4 0.0000 0.0000 0.0000 21.3276 0.0000 0.0000
# 5 0.0000 0.0000 0.0000 0.0000 25.6494 0.0000
# 6 0.0000 0.0000 0.0000 0.0000 0.0000 31.4440
#
#
#
# Elastic Compliance Matrix: (Units=1/GPa)
#
#
# Indices 1 2 3 4 5 6 
#
# 1 0.016018 -0.000613 -0.001531 0.000000 0.000000 0.000000
# 2 -0.000613 0.015193 -0.002465 0.000000 0.000000 0.000000
# 3 -0.001531 -0.002465 0.013352 0.000000 0.000000 0.000000
# 4 0.000000 0.000000 0.000000 0.046888 0.000000 0.000000
# 5 0.000000 0.000000 0.000000 0.000000 0.038987 0.000000
# 6 0.000000 0.000000 0.000000 0.000000 0.000000 0.031803
#
#
# Mechanical properties :
#
#
# Convention : Reuss Voigt Hill
#
# Bulk Modulus (GPa) = 28.29308 28.81194 28.55251
# Shear Modulus (GPa) = 27.28665 28.00440 27.64552
#
# Velocity S-wave (km/s) = 3.62302 3.67036 3.64676
# Velocity P-wave (km/s) = 5.57782 5.64110 5.60955
#
# Compressibility (1/GPa) = 0.03534433
#
# Stress axis : x y z
#
# Youngs Moduli (GPa) = 62.43111 65.82025 74.89509
#
# Poissons Ratio (x) = 0.04036 0.11470
# Poissons Ratio (y) = 0.03828 0.18458
# Poissons Ratio (z) = 0.09561 0.16221
#
# Static dielectric constant tensor:
#      x y z
#    x 1.810780 0.000000 0.000000 
#    y 0.000000 1.741430 0.000000 
#    z 0.000000 0.000000 1.882050 
# 
# From -- ./inp_files/1840.got.cif
#   From: 2010.05.17/outbox.cif.g08.bks.cpg/sg19_1_cif.got.tgz:1840.got - 2010.06.03 22:46:19.
