data_PCOD9314333
_publ_section_title
;
Structure prediction by ZEFSAII (Michael W. Deem and Ramdas Pophale) SiO2 
 PCOD9314333
Probable space group: P 21 21 21
;
_chemical_formula_sum "Si O2"
_cell_formula_units_Z 28
_cell_length_a 7.122385
_cell_length_b 18.361188
_cell_length_c 9.859161
_cell_angle_alpha 90.000000
_cell_angle_beta 90.000000
_cell_angle_gamma 90.000000
_cell_volume 1289.336216
_symmetry_space_group_name_H-M "P 21 21 21"
_symmetry_group_IT_number 19
_symmetry_cell_setting 'orthorhombic'
loop_
_space_group_symop_operation_xyz
x,y,z
1/2-x,-y,1/2+z
1/2+x,1/2-y,-z
-x,1/2+y,1/2-z
loop_
_atom_site_type_symbol
_atom_site_label
_atom_site_fract_x
_atom_site_fract_y
_atom_site_fract_z
Si Si1 0.044762 0.891662 0.358965
Si Si2 0.008352 0.814057 0.081293
Si Si3 0.737502 0.069781 0.464770
Si Si4 0.936722 0.661221 0.962043
Si Si5 0.730413 0.840822 0.565003
Si Si6 0.080430 0.194376 0.846891
Si Si7 0.388246 0.476029 0.783855
O O1 0.900346 0.882338 0.484392
O O2 0.973935 0.838944 0.235822
O O3 0.255218 0.863435 0.385922
O O4 0.037918 0.972916 0.294653
O O5 0.213387 0.843218 0.042397
O O6 0.866059 0.853748 0.980282
O O7 0.991740 0.728859 0.056678
O O8 0.718002 0.029146 0.323557
O O9 0.954776 0.090335 0.487904
O O10 0.661232 0.021110 0.584066
O O11 0.989196 0.678125 0.805495
O O12 0.589187 0.810221 0.451768
O O13 0.823153 0.773674 0.644695
O O14 0.606451 0.893379 0.661883
#
# Coordination Sequence:
#
# PCOD9314333 Si02
#       7
#     4   4   4   4   4   4   4
#     4  10  23  46  62  96 139 170 229 281 336 410
#     4  10  21  39  66  96 128 168 219 278 328 398
#     4  11  23  44  66  95 133 176 217 277 336 406
#     4  11  22  39  66  98 131 168 222 278 337 396
#     4  12  23  43  71  99 135 184 223 286 351 396
#     4  11  24  42  69  99 134 178 227 287 337 405
#     4  11  24  45  70  93 140 182 221 277 347 413
#
# _framework density 21.716602000000002
#
# number of rings (size 3 to 8) (size 9 to 14) (size 15 to 20)
#    0.000    1.143    4.286    2.571    2.000    0.000 
#    7.714    1.429    0.000    0.000    0.000    0.000 
#    0.000    0.000    0.000    0.000    0.000    0.000 
#
# Total GULP energy -156301.729169 kJ/mol
# GULP energy per Si atom -5582.204613 kJ/mol
# Density = 2.166717 g / cm^3
# Si number density = 21.716602 Si / 1000 Ang^3
#
#
#
# Elastic Constant Matrix: (Units=GPa)
#
#
# Indices 1 2 3 4 5 6 
#
# 1 23.9594 -90.2025 -121.3505 0.0000 0.0000 0.0000
# 2 -90.2025 -393.3043 -599.7050 0.0000 0.0000 0.0000
# 3 -121.3505 -599.7050 -744.3281 0.0000 0.0000 0.0000
# 4 0.0000 0.0000 0.0000 37.7525 0.0000 0.0000
# 5 0.0000 0.0000 0.0000 0.0000 8.1055 0.0000
# 6 0.0000 0.0000 0.0000 0.0000 0.0000 -77.3523
#
#
#
# Elastic Compliance Matrix: (Units=1/GPa)
#
#
# Indices 1 2 3 4 5 6 
#
# 1 0.023199 -0.001954 -0.002208 0.000000 0.000000 0.000000
# 2 -0.001954 0.011291 -0.008778 0.000000 0.000000 0.000000
# 3 -0.002208 -0.008778 0.006089 0.000000 0.000000 0.000000
# 4 0.000000 0.000000 0.000000 0.026488 0.000000 0.000000
# 5 0.000000 0.000000 0.000000 0.000000 0.123373 0.000000
# 6 0.000000 0.000000 0.000000 0.000000 0.000000 -0.012928
#
#
# Mechanical properties :
#
#
# Convention : Reuss Voigt Hill
#
# Bulk Modulus (GPa) = 68.03555 -304.02103 -117.99274
# Shear Modulus (GPa) = 24.00481 -26.45985 -1.22752
#
# Velocity S-wave (km/s) = 3.32831 -3.49437 -0.75264
# Velocity P-wave (km/s) = 6.79463 12.51317 7.43009
#
# Compressibility (1/GPa) = 0.01469820
#
# Stress axis : x y z
#
# Youngs Moduli (GPa) = 43.10608 88.56803 164.22366
#
# Poissons Ratio (x) = 0.17304 0.36260
# Poissons Ratio (y) = 0.08422 1.44163
# Poissons Ratio (z) = 0.09518 0.77749
#
# Static dielectric constant tensor:
#      x y z
#    x 1.777240 0.000000 0.000000 
#    y 0.000000 1.864800 0.000000 
#    z 0.000000 0.000000 1.812740 
# 
# From -- ./inp_files/2992.got.cif
#   From: 2010.05.17/outbox.cif.g08.bks.cpg/sg19_2_cif.got.tgz:2992.got - 2010.06.03 22:46:19.
