data_PCOD9314078
_publ_section_title
;
Structure prediction by ZEFSAII (Michael W. Deem and Ramdas Pophale) SiO2 
 PCOD9314078
Probable space group: P 21 21 21
;
_chemical_formula_sum "Si O2"
_cell_formula_units_Z 32
_cell_length_a 13.345170
_cell_length_b 11.301235
_cell_length_c 8.848482
_cell_angle_alpha 90.000000
_cell_angle_beta 90.000000
_cell_angle_gamma 90.000000
_cell_volume 1334.500645
_symmetry_space_group_name_H-M "P 21 21 21"
_symmetry_group_IT_number 19
_symmetry_cell_setting 'orthorhombic'
loop_
_space_group_symop_operation_xyz
x,y,z
1/2-x,-y,1/2+z
1/2+x,1/2-y,-z
-x,1/2+y,1/2-z
loop_
_atom_site_type_symbol
_atom_site_label
_atom_site_fract_x
_atom_site_fract_y
_atom_site_fract_z
Si Si1 0.956604 0.089154 0.909654
Si Si2 0.738045 0.984317 0.917447
Si Si3 0.407203 0.071860 0.606179
Si Si4 0.785053 0.429580 0.826962
Si Si5 0.094223 0.817971 0.425067
Si Si6 0.748402 0.733448 0.058149
Si Si7 0.107566 0.154006 0.684215
Si Si8 0.717740 0.156183 0.142204
O O1 0.969706 0.208225 0.010586
O O2 0.009524 0.980230 0.995757
O O3 0.999085 0.117226 0.742599
O O4 0.841832 0.053912 0.899900
O O5 0.718318 0.929604 0.753817
O O6 0.750376 0.871640 0.027360
O O7 0.672612 0.081393 0.004475
O O8 0.440017 0.116371 0.772573
O O9 0.345792 0.181068 0.535168
O O10 0.323466 0.968760 0.616440
O O11 0.769587 0.315514 0.724136
O O12 0.823338 0.549118 0.744680
O O13 0.875266 0.408780 0.943797
O O14 0.203225 0.756882 0.399167
O O15 0.848691 0.674243 0.984108
O O16 0.133434 0.279275 0.761065
#
# Coordination Sequence:
#
# PCOD9314078 Si02
#       8
#     4   4   4   4   4   4   4   4
#     4  11  25  40  63 100 145 170 221 299 356 398
#     4  10  23  41  64  93 134 179 221 288 339 407
#     4  11  20  43  65  94 136 174 221 291 325 409
#     4  11  21  38  74  98 118 184 235 270 333 413
#     4  11  23  41  66 100 136 176 229 289 347 403
#     4  10  21  39  70  94 126 175 240 266 322 423
#     4  10  20  41  65  96 131 173 224 292 330 408
#     4  10  21  43  65  91 130 177 235 269 332 421
#
# _framework density 23.979006999999999
#
# number of rings (size 3 to 8) (size 9 to 14) (size 15 to 20)
#    0.000    1.500    5.000    2.250    3.500    3.000 
#    4.500    0.000    0.000    0.000    0.000    0.000 
#    0.000    0.000    0.000    0.000    0.000    0.000 
#
# Total GULP energy -178640.610648 kJ/mol
# GULP energy per Si atom -5582.519083 kJ/mol
# Density = 2.392443 g / cm^3
# Si number density = 23.979007 Si / 1000 Ang^3
#
#
#
# Elastic Constant Matrix: (Units=GPa)
#
#
# Indices 1 2 3 4 5 6 
#
# 1 14.9696 6.0558 -4.1637 0.0000 0.0000 0.0000
# 2 6.0558 94.3755 23.7605 0.0000 0.0000 0.0000
# 3 -4.1637 23.7605 61.8059 0.0000 0.0000 0.0000
# 4 0.0000 0.0000 0.0000 45.5859 0.0000 0.0000
# 5 0.0000 0.0000 0.0000 0.0000 19.3704 0.0000
# 6 0.0000 0.0000 0.0000 0.0000 0.0000 18.9573
#
#
#
# Elastic Compliance Matrix: (Units=1/GPa)
#
#
# Indices 1 2 3 4 5 6 
#
# 1 0.071422 -0.006415 0.007278 0.000000 0.000000 0.000000
# 2 -0.006415 0.012308 -0.005164 0.000000 0.000000 0.000000
# 3 0.007278 -0.005164 0.018655 0.000000 0.000000 0.000000
# 4 0.000000 0.000000 0.000000 0.021937 0.000000 0.000000
# 5 0.000000 0.000000 0.000000 0.000000 0.051625 0.000000
# 6 0.000000 0.000000 0.000000 0.000000 0.000000 0.052750
#
#
# Mechanical properties :
#
#
# Convention : Reuss Voigt Hill
#
# Bulk Modulus (GPa) = 10.66303 24.71735 17.69019
# Shear Modulus (GPa) = 18.61786 26.48260 22.55023
#
# Velocity S-wave (km/s) = 2.78946 3.32687 3.06995
# Velocity P-wave (km/s) = 3.85114 5.00876 4.46760
#
# Compressibility (1/GPa) = 0.09378197
#
# Stress axis : x y z
#
# Youngs Moduli (GPa) = 14.00138 81.25019 53.60466
#
# Poissons Ratio (x) = 0.52124 -0.39012
# Poissons Ratio (y) = 0.08982 0.27680
# Poissons Ratio (z) = -0.10190 0.41955
#
# Static dielectric constant tensor:
#      x y z
#    x 1.946210 0.000000 0.000000 
#    y 0.000000 1.925890 0.000000 
#    z 0.000000 0.000000 2.021300 
# 
# From -- ./inp_files/3948.got.cif
#   From: 2010.05.17/outbox.cif.g08.bks.cpg/sg19_2_cif.got.tgz:3948.got - 2010.06.03 22:46:19.
