data_PCOD9314806
_publ_section_title
;
Structure prediction by ZEFSAII (Michael W. Deem and Ramdas Pophale) SiO2 
 PCOD9314806
Probable space group: P 21 21 21
;
_chemical_formula_sum "Si O2"
_cell_formula_units_Z 28
_cell_length_a 23.678618
_cell_length_b 10.256745
_cell_length_c 4.910095
_cell_angle_alpha 90.000000
_cell_angle_beta 90.000000
_cell_angle_gamma 90.000000
_cell_volume 1192.492907
_symmetry_space_group_name_H-M "P 21 21 21"
_symmetry_group_IT_number 19
_symmetry_cell_setting 'orthorhombic'
loop_
_space_group_symop_operation_xyz
x,y,z
1/2-x,-y,1/2+z
1/2+x,1/2-y,-z
-x,1/2+y,1/2-z
loop_
_atom_site_type_symbol
_atom_site_label
_atom_site_fract_x
_atom_site_fract_y
_atom_site_fract_z
Si Si1 0.111631 0.528713 0.307019
Si Si2 0.133286 0.678374 0.805561
Si Si3 0.082423 0.250858 0.514702
Si Si4 0.526481 0.639885 0.316457
Si Si5 0.823800 0.552960 0.801002
Si Si6 0.519723 0.460803 0.829948
Si Si7 0.307545 0.112837 0.686646
O O1 0.148550 0.619354 0.510418
O O2 0.111202 0.379082 0.390260
O O3 0.046407 0.572545 0.339892
O O4 0.123592 0.551450 0.992026
O O5 0.076207 0.760863 0.757785
O O6 0.171480 0.765652 0.007133
O O7 0.130841 0.160832 0.635249
O O8 0.033205 0.299660 0.720640
O O9 0.052318 0.161647 0.287730
O O10 0.526960 0.583228 0.621316
O O11 0.535758 0.513310 0.125215
O O12 0.826921 0.426966 0.007714
O O13 0.760152 0.606880 0.826730
O O14 0.830289 0.506997 0.492865
#
# Coordination Sequence:
#
# PCOD9314806 Si02
#       7
#     4   4   4   4   4   4   4
#     4  11  25  38  57  90 127 161 206 244 304 381
#     4  12  22  42  59  90 125 165 200 255 302 375
#     4  11  24  40  63  87 132 159 207 253 313 360
#     4  11  24  36  62  85 120 160 209 241 309 364
#     4  10  22  42  66 100 116 160 209 269 304 364
#     4  11  23  40  57  87 118 167 201 254 297 358
#     4  10  22  42  70  91 124 154 216 260 313 356
#
# _framework density 23.480222999999999
#
# number of rings (size 3 to 8) (size 9 to 14) (size 15 to 20)
#    0.000    1.143    1.429    5.143    2.000    4.571 
#    0.000    1.429    0.000    0.000    0.000    0.000 
#    0.000    0.000    0.000    0.000    0.000    0.000 
#
# Total GULP energy -156761.270115 kJ/mol
# GULP energy per Si atom -5598.616790 kJ/mol
# Density = 2.342678 g / cm^3
# Si number density = 23.480223 Si / 1000 Ang^3
#
#
#
# Elastic Constant Matrix: (Units=GPa)
#
#
# Indices 1 2 3 4 5 6 
#
# 1 50.9005 20.5536 6.3228 0.0000 0.0000 0.0000
# 2 20.5536 96.6141 17.7658 0.0000 0.0000 0.0000
# 3 6.3228 17.7658 115.4232 0.0000 0.0000 0.0000
# 4 0.0000 0.0000 0.0000 36.8721 0.0000 0.0000
# 5 0.0000 0.0000 0.0000 0.0000 24.4420 0.0000
# 6 0.0000 0.0000 0.0000 0.0000 0.0000 21.4548
#
#
#
# Elastic Compliance Matrix: (Units=1/GPa)
#
#
# Indices 1 2 3 4 5 6 
#
# 1 0.021519 -0.004488 -0.000488 0.000000 0.000000 0.000000
# 2 -0.004488 0.011588 -0.001538 0.000000 0.000000 0.000000
# 3 -0.000488 -0.001538 0.008927 0.000000 0.000000 0.000000
# 4 0.000000 0.000000 0.000000 0.027121 0.000000 0.000000
# 5 0.000000 0.000000 0.000000 0.000000 0.040913 0.000000
# 6 0.000000 0.000000 0.000000 0.000000 0.000000 0.046610
#
#
# Mechanical properties :
#
#
# Convention : Reuss Voigt Hill
#
# Bulk Modulus (GPa) = 34.47509 39.13580 36.80545
# Shear Modulus (GPa) = 27.87461 31.10681 29.49071
#
# Velocity S-wave (km/s) = 3.44925 3.64374 3.54783
# Velocity P-wave (km/s) = 5.52970 5.86568 5.70016
#
# Compressibility (1/GPa) = 0.02900645
#
# Stress axis : x y z
#
# Youngs Moduli (GPa) = 46.47025 86.29578 112.01733
#
# Poissons Ratio (x) = 0.38732 0.05466
# Poissons Ratio (y) = 0.20857 0.17226
# Poissons Ratio (z) = 0.02268 0.13270
#
# Static dielectric constant tensor:
#      x y z
#    x 1.907220 0.000000 0.000000 
#    y 0.000000 1.921960 0.000000 
#    z 0.000000 0.000000 1.895160 
# 
# From -- ./inp_files/2242.got.cif
#   From: 2010.05.17/outbox.cif.g08.bks.cpg/sg19_2_cif.got.tgz:2242.got - 2010.06.03 22:46:19.
