data_PCOD9314705
_publ_section_title
;
Structure prediction by ZEFSAII (Michael W. Deem and Ramdas Pophale) SiO2 
 PCOD9314705
Probable space group: P 21 21 21
;
_chemical_formula_sum "Si O2"
_cell_formula_units_Z 24
_cell_length_a 5.187013
_cell_length_b 18.700982
_cell_length_c 9.331743
_cell_angle_alpha 90.000000
_cell_angle_beta 90.000000
_cell_angle_gamma 90.000000
_cell_volume 905.199944
_symmetry_space_group_name_H-M "P 21 21 21"
_symmetry_group_IT_number 19
_symmetry_cell_setting 'orthorhombic'
loop_
_space_group_symop_operation_xyz
x,y,z
1/2-x,-y,1/2+z
1/2+x,1/2-y,-z
-x,1/2+y,1/2-z
loop_
_atom_site_type_symbol
_atom_site_label
_atom_site_fract_x
_atom_site_fract_y
_atom_site_fract_z
Si Si1 0.922472 0.607777 0.868700
Si Si2 0.744510 0.469998 0.738158
Si Si3 0.130486 0.770705 0.314131
Si Si4 0.817654 0.721139 0.071689
Si Si5 0.237185 0.539885 0.642036
Si Si6 0.469801 0.645685 0.410739
O O1 0.780586 0.532632 0.857759
O O2 0.776960 0.666778 0.771676
O O3 0.186507 0.590547 0.782474
O O4 0.910266 0.642287 0.025239
O O5 0.465573 0.485869 0.676663
O O6 0.973455 0.495778 0.631720
O O7 0.829014 0.397085 0.813140
O O8 0.286027 0.696963 0.320972
O O9 0.096050 0.802974 0.470881
O O10 0.870425 0.749503 0.230184
O O11 0.526392 0.732782 0.021225
O O12 0.308434 0.587748 0.505214
#
# Coordination Sequence:
#
# PCOD9314705 Si02
#       6
#     4   4   4   4   4   4
#     4   9  21  45  71  99 143 186 238 293 350 434
#     4  10  25  42  69  99 138 191 236 283 360 421
#     4  11  24  43  73 112 145 194 235 308 372 430
#     4  10  22  40  69 103 141 187 237 291 357 435
#     4  10  22  45  69 100 142 184 238 301 351 423
#     4  12  24  45  73 109 151 190 244 308 370 439
#
# _framework density 26.513480000000001
#
# number of rings (size 3 to 8) (size 9 to 14) (size 15 to 20)
#    1.000    0.667    1.667    2.000    2.333    6.667 
#    3.000    0.000    0.000    0.000    0.000    0.000 
#    0.000    0.000    0.000    0.000    0.000    0.000 
#
# Total GULP energy -134389.168680 kJ/mol
# GULP energy per Si atom -5599.548695 kJ/mol
# Density = 2.645313 g / cm^3
# Si number density = 26.513480 Si / 1000 Ang^3
#
#
#
# Elastic Constant Matrix: (Units=GPa)
#
#
# Indices 1 2 3 4 5 6 
#
# 1 103.9063 10.8154 44.4383 0.0000 0.0000 0.0000
# 2 10.8154 98.9062 33.5502 0.0000 0.0000 0.0000
# 3 44.4383 33.5502 105.7071 0.0000 0.0000 0.0000
# 4 0.0000 0.0000 0.0000 48.3175 0.0000 0.0000
# 5 0.0000 0.0000 0.0000 0.0000 42.6781 0.0000
# 6 0.0000 0.0000 0.0000 0.0000 0.0000 39.0903
#
#
#
# Elastic Compliance Matrix: (Units=1/GPa)
#
#
# Indices 1 2 3 4 5 6 
#
# 1 0.011751 0.000438 -0.005079 0.000000 0.000000 0.000000
# 2 0.000438 0.011347 -0.003785 0.000000 0.000000 0.000000
# 3 -0.005079 -0.003785 0.012797 0.000000 0.000000 0.000000
# 4 0.000000 0.000000 0.000000 0.020696 0.000000 0.000000
# 5 0.000000 0.000000 0.000000 0.000000 0.023431 0.000000
# 6 0.000000 0.000000 0.000000 0.000000 0.000000 0.025582
#
#
# Mechanical properties :
#
#
# Convention : Reuss Voigt Hill
#
# Bulk Modulus (GPa) = 52.51749 54.01415 53.26582
# Shear Modulus (GPa) = 38.81892 40.66491 39.74192
#
# Velocity S-wave (km/s) = 3.83053 3.92055 3.87581
# Velocity P-wave (km/s) = 6.27812 6.39616 6.33742
#
# Compressibility (1/GPa) = 0.01904127
#
# Stress axis : x y z
#
# Youngs Moduli (GPa) = 85.10232 88.13085 78.14554
#
# Poissons Ratio (x) = -0.03859 0.39689
# Poissons Ratio (y) = -0.03726 0.29581
# Poissons Ratio (z) = 0.43222 0.33361
#
# Static dielectric constant tensor:
#      x y z
#    x 2.038660 0.000000 0.000000 
#    y 0.000000 2.097320 0.000000 
#    z 0.000000 0.000000 2.147180 
# 
# From -- ./inp_files/4453.got.cif
#   From: 2010.05.17/outbox.cif.g08.bks.cpg/sg19_3_cif.got.tgz:4453.got - 2010.06.03 22:46:19.
