data_PCOD9314918
_publ_section_title
;
Structure prediction by ZEFSAII (Michael W. Deem and Ramdas Pophale) SiO2 
 PCOD9314918
Probable space group: P 21 21 21
;
_chemical_formula_sum "Si O2"
_cell_formula_units_Z 32
_cell_length_a 7.454785
_cell_length_b 15.354793
_cell_length_c 11.777555
_cell_angle_alpha 90.000000
_cell_angle_beta 90.000000
_cell_angle_gamma 90.000000
_cell_volume 1348.137626
_symmetry_space_group_name_H-M "P 21 21 21"
_symmetry_group_IT_number 19
_symmetry_cell_setting 'orthorhombic'
loop_
_space_group_symop_operation_xyz
x,y,z
1/2-x,-y,1/2+z
1/2+x,1/2-y,-z
-x,1/2+y,1/2-z
loop_
_atom_site_type_symbol
_atom_site_label
_atom_site_fract_x
_atom_site_fract_y
_atom_site_fract_z
Si Si1 0.316814 0.649883 0.580639
Si Si2 0.016486 0.886983 0.763815
Si Si3 0.872717 0.788852 0.967071
Si Si4 0.010306 0.389913 0.309708
Si Si5 0.257004 0.967804 0.361174
Si Si6 0.802350 0.341838 0.957731
Si Si7 0.002917 0.605820 0.013822
Si Si8 0.742738 0.028231 0.103307
O O1 0.349729 0.642878 0.713641
O O2 0.510885 0.646091 0.522395
O O3 0.239610 0.741087 0.542601
O O4 0.223243 0.569640 0.519437
O O5 0.075984 0.975112 0.823632
O O6 0.171009 0.868054 0.672093
O O7 0.989843 0.813099 0.857017
O O8 0.835385 0.902135 0.691834
O O9 0.683920 0.840695 0.949564
O O10 0.964476 0.828370 0.081184
O O11 0.870403 0.684413 0.979290
O O12 0.082682 0.482815 0.350055
O O13 0.826325 0.409300 0.241504
O O14 0.104402 0.038491 0.404070
O O15 0.313625 0.905620 0.465362
O O16 0.084942 0.543512 0.915965
#
# Coordination Sequence:
#
# PCOD9314918 Si02
#       8
#     4   4   4   4   4   4   4   4
#     4  10  22  45  63  95 129 164 221 264 325 379
#     4  11  24  41  66  98 132 172 217 265 333 387
#     4  11  26  40  67 100 128 176 216 268 333 393
#     4  10  23  42  66  95 127 174 214 269 325 383
#     4  11  23  44  66  95 136 169 216 273 321 397
#     4  10  24  44  64  96 127 174 214 272 322 384
#     4  11  22  46  64  95 136 165 222 267 328 394
#     4  10  22  44  68  90 129 174 214 270 323 389
#
# _framework density 23.736447999999999
#
# number of rings (size 3 to 8) (size 9 to 14) (size 15 to 20)
#    0.000    1.500    3.750    1.500    8.750    3.000 
#   13.500    0.000    0.000    0.000    0.000    0.000 
#    0.000    0.000    0.000    0.000    0.000    0.000 
#
# Total GULP energy -178771.756013 kJ/mol
# GULP energy per Si atom -5586.617375 kJ/mol
# Density = 2.368242 g / cm^3
# Si number density = 23.736448 Si / 1000 Ang^3
#
#
#
# Elastic Constant Matrix: (Units=GPa)
#
#
# Indices 1 2 3 4 5 6 
#
# 1 44.4015 -4.3209 6.4194 0.0000 0.0000 0.0000
# 2 -4.3209 93.9368 26.3693 0.0000 0.0000 0.0000
# 3 6.4194 26.3693 109.9311 0.0000 0.0000 0.0000
# 4 0.0000 0.0000 0.0000 14.5544 0.0000 0.0000
# 5 0.0000 0.0000 0.0000 0.0000 10.1276 0.0000
# 6 0.0000 0.0000 0.0000 0.0000 0.0000 25.1662
#
#
#
# Elastic Compliance Matrix: (Units=1/GPa)
#
#
# Indices 1 2 3 4 5 6 
#
# 1 0.022918 0.001533 -0.001706 0.000000 0.000000 0.000000
# 2 0.001533 0.011517 -0.002852 0.000000 0.000000 0.000000
# 3 -0.001706 -0.002852 0.009880 0.000000 0.000000 0.000000
# 4 0.000000 0.000000 0.000000 0.068708 0.000000 0.000000
# 5 0.000000 0.000000 0.000000 0.000000 0.098740 0.000000
# 6 0.000000 0.000000 0.000000 0.000000 0.000000 0.039736
#
#
# Mechanical properties :
#
#
# Convention : Reuss Voigt Hill
#
# Bulk Modulus (GPa) = 26.13382 33.91167 30.02275
# Shear Modulus (GPa) = 18.49776 24.62308 21.56042
#
# Velocity S-wave (km/s) = 2.79462 3.22429 3.01711
# Velocity P-wave (km/s) = 4.63110 5.30841 4.98128
#
# Compressibility (1/GPa) = 0.03826459
#
# Stress axis : x y z
#
# Youngs Moduli (GPa) = 43.63462 86.83143 101.21104
#
# Poissons Ratio (x) = -0.13312 0.17267
# Poissons Ratio (y) = -0.06690 0.28866
# Poissons Ratio (z) = 0.07444 0.24764
#
# Static dielectric constant tensor:
#      x y z
#    x 2.021700 0.000000 0.000000 
#    y 0.000000 1.993090 0.000000 
#    z 0.000000 0.000000 1.917840 
# 
# From -- ./inp_files/4750.got.cif
#   From: 2010.05.17/outbox.cif.g08.bks.cpg/sg19_3_cif.got.tgz:4750.got - 2010.06.03 22:46:19.
