data_PCOD9314853
_publ_section_title
;
Structure prediction by ZEFSAII (Michael W. Deem and Ramdas Pophale) SiO2 
 PCOD9314853
Probable space group: P 21 21 21
;
_chemical_formula_sum "Si O2"
_cell_formula_units_Z 20
_cell_length_a 5.528028
_cell_length_b 8.375603
_cell_length_c 18.025766
_cell_angle_alpha 90.000000
_cell_angle_beta 90.000000
_cell_angle_gamma 90.000000
_cell_volume 834.603203
_symmetry_space_group_name_H-M "P 21 21 21"
_symmetry_group_IT_number 19
_symmetry_cell_setting 'orthorhombic'
loop_
_space_group_symop_operation_xyz
x,y,z
1/2-x,-y,1/2+z
1/2+x,1/2-y,-z
-x,1/2+y,1/2-z
loop_
_atom_site_type_symbol
_atom_site_label
_atom_site_fract_x
_atom_site_fract_y
_atom_site_fract_z
Si Si1 0.166955 0.934221 0.714928
Si Si2 0.857093 0.154622 0.984832
Si Si3 0.876514 0.897982 0.866350
Si Si4 0.004984 0.778146 0.212189
Si Si5 0.136534 0.580039 0.899110
O O1 0.380211 0.806657 0.719470
O O2 0.997126 0.900258 0.784899
O O3 0.277926 0.107274 0.732063
O O4 0.049910 0.951479 0.634734
O O5 0.899204 0.066144 0.906413
O O6 0.610348 0.262173 0.989990
O O7 0.785859 0.001745 0.036415
O O8 0.600310 0.850973 0.847597
O O9 0.998537 0.748911 0.911087
O O10 0.812272 0.884871 0.169525
#
# Coordination Sequence:
#
# PCOD9314853 Si02
#       5
#     4   4   4   4   4
#     4  10  22  44  70 112 132 190 238 308 366 438
#     4  12  32  50  74 114 150 198 250 316 364 436
#     4  10  25  47  75 103 145 196 246 299 376 447
#     4  10  22  42  74 102 144 184 240 308 366 446
#     4  10  25  47  75 103 145 196 246 299 376 447
#
# _framework density 23.963484999999999
#
# number of rings (size 3 to 8) (size 9 to 14) (size 15 to 20)
#    0.000    1.600    0.000    1.200   14.000    8.000 
#    3.600    0.000    0.000    0.000    0.000    0.000 
#    0.000    0.000    0.000    0.000    0.000    0.000 
#
# Total GULP energy -111788.625769 kJ/mol
# GULP energy per Si atom -5589.431288 kJ/mol
# Density = 2.390894 g / cm^3
# Si number density = 23.963485 Si / 1000 Ang^3
#
#
#
# Elastic Constant Matrix: (Units=GPa)
#
#
# Indices 1 2 3 4 5 6 
#
# 1 88.3472 29.1344 7.3322 0.0000 0.0000 0.0000
# 2 29.1344 77.2889 17.4793 0.0000 0.0000 0.0000
# 3 7.3322 17.4793 23.3889 0.0000 0.0000 0.0000
# 4 0.0000 0.0000 0.0000 55.3354 0.0000 0.0000
# 5 0.0000 0.0000 0.0000 0.0000 22.6612 0.0000
# 6 0.0000 0.0000 0.0000 0.0000 0.0000 47.0762
#
#
#
# Elastic Compliance Matrix: (Units=1/GPa)
#
#
# Indices 1 2 3 4 5 6 
#
# 1 0.012931 -0.004762 -0.000494 0.000000 0.000000 0.000000
# 2 -0.004762 0.017324 -0.011454 0.000000 0.000000 0.000000
# 3 -0.000494 -0.011454 0.051470 0.000000 0.000000 0.000000
# 4 0.000000 0.000000 0.000000 0.018072 0.000000 0.000000
# 5 0.000000 0.000000 0.000000 0.000000 0.044128 0.000000
# 6 0.000000 0.000000 0.000000 0.000000 0.000000 0.021242
#
#
# Mechanical properties :
#
#
# Convention : Reuss Voigt Hill
#
# Bulk Modulus (GPa) = 20.70253 32.99075 26.84664
# Shear Modulus (GPa) = 23.28947 34.01983 28.65465
#
# Velocity S-wave (km/s) = 3.12087 3.77192 3.46173
# Velocity P-wave (km/s) = 4.65235 5.72423 5.21590
#
# Compressibility (1/GPa) = 0.04830327
#
# Stress axis : x y z
#
# Youngs Moduli (GPa) = 77.33639 57.72337 19.42873
#
# Poissons Ratio (x) = 0.27490 0.00961
# Poissons Ratio (y) = 0.36831 0.22253
# Poissons Ratio (z) = 0.03824 0.66115
#
# Static dielectric constant tensor:
#      x y z
#    x 1.943360 0.000000 0.000000 
#    y 0.000000 1.953140 0.000000 
#    z 0.000000 0.000000 1.907620 
# 
# From -- ./inp_files/336.got.cif
#   From: 2010.05.17/outbox.cif.g08.bks.cpg/sg19_1_cif.got.tgz:336.got - 2010.06.03 22:46:19.
