data_PCOD9314829
_publ_section_title
;
Structure prediction by ZEFSAII (Michael W. Deem and Ramdas Pophale) SiO2 
 PCOD9314829
Probable space group: P 21 21 21
;
_chemical_formula_sum "Si O2"
_cell_formula_units_Z 28
_cell_length_a 16.871647
_cell_length_b 12.637083
_cell_length_c 5.780621
_cell_angle_alpha 90.000000
_cell_angle_beta 90.000000
_cell_angle_gamma 90.000000
_cell_volume 1232.476975
_symmetry_space_group_name_H-M "P 21 21 21"
_symmetry_group_IT_number 19
_symmetry_cell_setting 'orthorhombic'
loop_
_space_group_symop_operation_xyz
x,y,z
1/2-x,-y,1/2+z
1/2+x,1/2-y,-z
-x,1/2+y,1/2-z
loop_
_atom_site_type_symbol
_atom_site_label
_atom_site_fract_x
_atom_site_fract_y
_atom_site_fract_z
Si Si1 0.339945 0.277393 0.870863
Si Si2 0.717454 0.457634 0.730153
Si Si3 0.530083 0.733287 0.242192
Si Si4 0.228324 0.287545 0.247099
Si Si5 0.577762 0.588638 0.854270
Si Si6 0.124136 0.593365 0.980524
Si Si7 0.422308 0.630937 0.557930
O O1 0.357428 0.181469 0.697997
O O2 0.364518 0.386507 0.753006
O O3 0.399507 0.249262 0.075628
O O4 0.253712 0.286040 0.976067
O O5 0.736975 0.512622 0.476937
O O6 0.730707 0.334204 0.682497
O O7 0.627130 0.483984 0.804379
O O8 0.547195 0.835218 0.083551
O O9 0.448538 0.721838 0.378799
O O10 0.546124 0.624276 0.104137
O O11 0.294735 0.359016 0.372112
O O12 0.140261 0.331759 0.248578
O O13 0.503391 0.597455 0.684877
O O14 0.111641 0.471727 0.929506
#
# Coordination Sequence:
#
# PCOD9314829 Si02
#       7
#     4   4   4   4   4   4   4
#     4   9  18  41  66  90 130 175 228 291 354 428
#     4  12  25  45  79 112 145 199 251 319 383 444
#     4   9  21  43  68  94 132 182 232 299 365 442
#     4  11  25  42  67 106 139 190 249 304 364 464
#     4  10  22  42  68 100 141 178 243 302 377 433
#     4  10  23  43  69  95 143 188 232 308 367 438
#     4  11  26  42  67 105 142 192 243 299 382 449
#
# _framework density 22.718475999999999
#
# number of rings (size 3 to 8) (size 9 to 14) (size 15 to 20)
#    0.000    1.714    1.429    2.571    4.000    8.000 
#    0.000    0.000    0.000    0.000    0.000    0.000 
#    0.000    0.000    0.000    0.000    0.000    0.000 
#
# Total GULP energy -156074.987429 kJ/mol
# GULP energy per Si atom -5574.106694 kJ/mol
# Density = 2.266677 g / cm^3
# Si number density = 22.718476 Si / 1000 Ang^3
#
#
#
# Elastic Constant Matrix: (Units=GPa)
#
#
# Indices 1 2 3 4 5 6 
#
# 1 81.4045 26.9091 19.0636 0.0000 0.0000 0.0000
# 2 26.9091 71.0298 6.5784 0.0000 0.0000 0.0000
# 3 19.0636 6.5784 60.6145 0.0000 0.0000 0.0000
# 4 0.0000 0.0000 0.0000 18.7314 0.0000 0.0000
# 5 0.0000 0.0000 0.0000 0.0000 27.5682 0.0000
# 6 0.0000 0.0000 0.0000 0.0000 0.0000 30.3080
#
#
#
# Elastic Compliance Matrix: (Units=1/GPa)
#
#
# Indices 1 2 3 4 5 6 
#
# 1 0.015007 -0.005302 -0.004145 0.000000 0.000000 0.000000
# 2 -0.005302 0.016094 -0.000079 0.000000 0.000000 0.000000
# 3 -0.004145 -0.000079 0.017810 0.000000 0.000000 0.000000
# 4 0.000000 0.000000 0.000000 0.053386 0.000000 0.000000
# 5 0.000000 0.000000 0.000000 0.000000 0.036274 0.000000
# 6 0.000000 0.000000 0.000000 0.000000 0.000000 0.032995
#
#
# Mechanical properties :
#
#
# Convention : Reuss Voigt Hill
#
# Bulk Modulus (GPa) = 33.48881 35.35010 34.41945
# Shear Modulus (GPa) = 24.92887 26.02136 25.47511
#
# Velocity S-wave (km/s) = 3.31614 3.38802 3.35227
# Velocity P-wave (km/s) = 5.42542 5.55867 5.49245
#
# Compressibility (1/GPa) = 0.02986072
#
# Stress axis : x y z
#
# Youngs Moduli (GPa) = 66.63374 62.13337 56.14885
#
# Poissons Ratio (x) = 0.32941 0.23271
# Poissons Ratio (y) = 0.35327 0.00445
# Poissons Ratio (z) = 0.27617 0.00493
#
# Static dielectric constant tensor:
#      x y z
#    x 1.828280 0.000000 0.000000 
#    y 0.000000 1.891120 0.000000 
#    z 0.000000 0.000000 1.951650 
# 
# From -- ./inp_files/1750.got.cif
#   From: 2010.05.17/outbox.cif.g08.bks.cpg/sg19_1_cif.got.tgz:1750.got - 2010.06.03 22:46:19.
