data_PCOD9314218
_publ_section_title
;
Structure prediction by ZEFSAII (Michael W. Deem and Ramdas Pophale) SiO2 
 PCOD9314218
Probable space group: P 21 21 21
;
_chemical_formula_sum "Si O2"
_cell_formula_units_Z 28
_cell_length_a 9.617858
_cell_length_b 8.051699
_cell_length_c 14.410356
_cell_angle_alpha 90.000000
_cell_angle_beta 90.000000
_cell_angle_gamma 90.000000
_cell_volume 1115.939376
_symmetry_space_group_name_H-M "P 21 21 21"
_symmetry_group_IT_number 19
_symmetry_cell_setting 'orthorhombic'
loop_
_space_group_symop_operation_xyz
x,y,z
1/2-x,-y,1/2+z
1/2+x,1/2-y,-z
-x,1/2+y,1/2-z
loop_
_atom_site_type_symbol
_atom_site_label
_atom_site_fract_x
_atom_site_fract_y
_atom_site_fract_z
Si Si1 0.296006 0.184099 0.157846
Si Si2 0.922876 0.357907 0.217625
Si Si3 0.589096 0.472496 0.479405
Si Si4 0.009559 0.173015 0.061265
Si Si5 0.893656 0.148786 0.382995
Si Si6 0.784125 0.409269 0.647553
Si Si7 0.915333 0.974255 0.895592
O O1 0.173943 0.188640 0.079928
O O2 0.389297 0.346536 0.150762
O O3 0.233363 0.191717 0.261767
O O4 0.372535 0.012680 0.126775
O O5 0.770172 0.411987 0.183198
O O6 0.948312 0.186718 0.163358
O O7 0.028559 0.495194 0.172944
O O8 0.925835 0.315410 0.325621
O O9 0.545744 0.659533 0.511446
O O10 0.458857 0.363960 0.514088
O O11 0.710932 0.399777 0.546880
O O12 0.957294 0.021909 0.000620
O O13 0.729483 0.120095 0.387113
O O14 0.948293 0.392108 0.646182
#
# Coordination Sequence:
#
# PCOD9314218 Si02
#       7
#     4   4   4   4   4   4   4
#     4  11  19  36  61  83 119 154 195 248 305 339
#     4  10  21  37  63  84 117 154 202 235 304 354
#     4   9  19  34  59  82 111 152 201 235 294 350
#     4   9  17  34  58  87 105 149 196 255 278 339
#     4  10  21  38  58  88 116 157 196 248 290 359
#     4  10  22  35  58  87 117 154 189 252 297 360
#     4  11  21  34  57  91 117 142 207 255 290 339
#
# _framework density 25.090969999999999
#
# number of rings (size 3 to 8) (size 9 to 14) (size 15 to 20)
#    0.000    2.286    4.286    1.714    2.000    0.000 
#    0.000    0.000    9.429    0.000    0.000    0.000 
#    0.000    0.000    0.000    0.000    0.000    0.000 
#
# Total GULP energy -156099.215511 kJ/mol
# GULP energy per Si atom -5574.971983 kJ/mol
# Density = 2.503386 g / cm^3
# Si number density = 25.090970 Si / 1000 Ang^3
#
#
#
# Elastic Constant Matrix: (Units=GPa)
#
#
# Indices 1 2 3 4 5 6 
#
# 1 164.7497 19.8168 7.6992 0.0000 0.0000 0.0000
# 2 19.8168 68.6686 23.4624 0.0000 0.0000 0.0000
# 3 7.6992 23.4624 66.3758 0.0000 0.0000 0.0000
# 4 0.0000 0.0000 0.0000 40.7836 0.0000 0.0000
# 5 0.0000 0.0000 0.0000 0.0000 34.4485 0.0000
# 6 0.0000 0.0000 0.0000 0.0000 0.0000 14.3286
#
#
#
# Elastic Compliance Matrix: (Units=1/GPa)
#
#
# Indices 1 2 3 4 5 6 
#
# 1 0.006289 -0.001781 -0.000100 0.000000 0.000000 0.000000
# 2 -0.001781 0.017067 -0.005826 0.000000 0.000000 0.000000
# 3 -0.000100 -0.005826 0.017137 0.000000 0.000000 0.000000
# 4 0.000000 0.000000 0.000000 0.024520 0.000000 0.000000
# 5 0.000000 0.000000 0.000000 0.000000 0.029029 0.000000
# 6 0.000000 0.000000 0.000000 0.000000 0.000000 0.069790
#
#
# Mechanical properties :
#
#
# Convention : Reuss Voigt Hill
#
# Bulk Modulus (GPa) = 39.87445 44.63897 42.25671
# Shear Modulus (GPa) = 26.65171 34.49987 30.57579
#
# Velocity S-wave (km/s) = 3.26268 3.71211 3.49463
# Velocity P-wave (km/s) = 5.48816 6.01685 5.75858
#
# Compressibility (1/GPa) = 0.02507872
#
# Stress axis : x y z
#
# Youngs Moduli (GPa) = 159.01611 58.59165 58.35389
#
# Poissons Ratio (x) = 0.10433 0.00584
# Poissons Ratio (y) = 0.28315 0.33999
# Poissons Ratio (z) = 0.01591 0.34138
#
# Static dielectric constant tensor:
#      x y z
#    x 2.037210 0.000000 0.000000 
#    y 0.000000 2.036360 0.000000 
#    z 0.000000 0.000000 2.105650 
# 
# From -- ./inp_files/5884.got.cif
#   From: 2010.05.17/outbox.cif.g08.bks.cpg/sg19_3_cif.got.tgz:5884.got - 2010.06.03 22:46:19.
