data_PCOD9314809
_publ_section_title
;
Structure prediction by ZEFSAII (Michael W. Deem and Ramdas Pophale) SiO2 
 PCOD9314809
Probable space group: P 21 21 21
;
_chemical_formula_sum "Si O2"
_cell_formula_units_Z 24
_cell_length_a 8.594122
_cell_length_b 20.774303
_cell_length_c 5.093405
_cell_angle_alpha 90.000000
_cell_angle_beta 90.000000
_cell_angle_gamma 90.000000
_cell_volume 909.360711
_symmetry_space_group_name_H-M "P 21 21 21"
_symmetry_group_IT_number 19
_symmetry_cell_setting 'orthorhombic'
loop_
_space_group_symop_operation_xyz
x,y,z
1/2-x,-y,1/2+z
1/2+x,1/2-y,-z
-x,1/2+y,1/2-z
loop_
_atom_site_type_symbol
_atom_site_label
_atom_site_fract_x
_atom_site_fract_y
_atom_site_fract_z
Si Si1 0.445528 0.573315 0.048969
Si Si2 0.288938 0.440274 0.177356
Si Si3 0.939000 0.636597 0.815006
Si Si4 0.748843 0.828051 0.686700
Si Si5 0.521836 0.738446 0.519571
Si Si6 0.234943 0.878254 0.676670
O O1 0.347276 0.512525 0.154507
O O2 0.373413 0.643849 0.110810
O O3 0.613379 0.573037 0.182048
O O4 0.395091 0.564546 0.744941
O O5 0.408662 0.405839 0.377259
O O6 0.319082 0.392969 0.935951
O O7 0.836174 0.602843 0.580315
O O8 0.988946 0.704885 0.691054
O O9 0.841351 0.642900 0.079639
O O10 0.615981 0.776313 0.747309
O O11 0.853010 0.793876 0.458254
O O12 0.634366 0.681561 0.428724
#
# Coordination Sequence:
#
# PCOD9314809 Si02
#       6
#     4   4   4   4   4   4
#     4  11  25  43  72 102 140 192 243 300 354 435
#     4  11  25  43  72 102 140 192 243 300 354 435
#     4  11  27  46  70 107 147 191 238 299 368 434
#     4  10  22  42  66 102 138 176 236 288 360 414
#     4  10  22  42  72  98 144 180 234 290 360 432
#     4  11  27  46  70 107 147 191 238 299 368 434
#
# _framework density 26.392168000000002
#
# number of rings (size 3 to 8) (size 9 to 14) (size 15 to 20)
#    0.000    1.333    3.333    0.000    9.333    8.000 
#    0.000    0.000    0.000    0.000    0.000    0.000 
#    0.000    0.000    0.000    0.000    0.000    0.000 
#
# Total GULP energy -133924.617146 kJ/mol
# GULP energy per Si atom -5580.192381 kJ/mol
# Density = 2.633210 g / cm^3
# Si number density = 26.392168 Si / 1000 Ang^3
#
#
#
# Elastic Constant Matrix: (Units=GPa)
#
#
# Indices 1 2 3 4 5 6 
#
# 1 105.4190 12.9509 20.8615 0.0000 0.0000 0.0000
# 2 12.9509 100.5277 -4.9341 0.0000 0.0000 0.0000
# 3 20.8615 -4.9341 76.2974 0.0000 0.0000 0.0000
# 4 0.0000 0.0000 0.0000 19.3784 0.0000 0.0000
# 5 0.0000 0.0000 0.0000 0.0000 50.3729 0.0000
# 6 0.0000 0.0000 0.0000 0.0000 0.0000 41.6710
#
#
#
# Elastic Compliance Matrix: (Units=1/GPa)
#
#
# Indices 1 2 3 4 5 6 
#
# 1 0.010238 -0.001461 -0.002894 0.000000 0.000000 0.000000
# 2 -0.001461 0.010188 0.001058 0.000000 0.000000 0.000000
# 3 -0.002894 0.001058 0.013966 0.000000 0.000000 0.000000
# 4 0.000000 0.000000 0.000000 0.051604 0.000000 0.000000
# 5 0.000000 0.000000 0.000000 0.000000 0.019852 0.000000
# 6 0.000000 0.000000 0.000000 0.000000 0.000000 0.023997
#
#
# Mechanical properties :
#
#
# Convention : Reuss Voigt Hill
#
# Bulk Modulus (GPa) = 35.97250 37.77785 36.87517
# Shear Modulus (GPa) = 34.31601 39.17552 36.74577
#
# Velocity S-wave (km/s) = 3.60979 3.85692 3.73540
# Velocity P-wave (km/s) = 5.57079 5.84633 5.71022
#
# Compressibility (1/GPa) = 0.02779902
#
# Stress axis : x y z
#
# Youngs Moduli (GPa) = 97.67435 98.15788 71.60105
#
# Poissons Ratio (x) = 0.14341 0.20720
# Poissons Ratio (y) = 0.14270 -0.07577
# Poissons Ratio (z) = 0.28265 -0.10388
#
# Static dielectric constant tensor:
#      x y z
#    x 2.193050 0.000000 0.000000 
#    y 0.000000 2.042210 0.000000 
#    z 0.000000 0.000000 2.265400 
# 
# From -- ./inp_files/491.got.cif
#   From: 2010.05.17/outbox.cif.g08.bks.cpg/sg19_1_cif.got.tgz:491.got - 2010.06.03 22:46:19.
