data_PCOD9314964
_publ_section_title
;
Structure prediction by ZEFSAII (Michael W. Deem and Ramdas Pophale) SiO2 
 PCOD9314964
Probable space group: P 21 21 21
;
_chemical_formula_sum "Si O2"
_cell_formula_units_Z 24
_cell_length_a 13.454630
_cell_length_b 5.322215
_cell_length_c 12.745038
_cell_angle_alpha 90.000000
_cell_angle_beta 90.000000
_cell_angle_gamma 90.000000
_cell_volume 912.652207
_symmetry_space_group_name_H-M "P 21 21 21"
_symmetry_group_IT_number 19
_symmetry_cell_setting 'orthorhombic'
loop_
_space_group_symop_operation_xyz
x,y,z
1/2-x,-y,1/2+z
1/2+x,1/2-y,-z
-x,1/2+y,1/2-z
loop_
_atom_site_type_symbol
_atom_site_label
_atom_site_fract_x
_atom_site_fract_y
_atom_site_fract_z
Si Si1 0.993902 0.293058 0.948506
Si Si2 0.329167 0.112017 0.207236
Si Si3 0.328633 0.587181 0.824904
Si Si4 0.514620 0.725284 0.922253
Si Si5 0.805901 0.700068 0.610710
Si Si6 0.740752 0.693663 0.955456
O O1 0.914365 0.254593 0.857253
O O2 0.968690 0.523442 0.025751
O O3 0.100465 0.379931 0.901435
O O4 0.005091 0.030539 0.009344
O O5 0.231094 0.273282 0.233067
O O6 0.355940 0.024626 0.323609
O O7 0.311253 0.854306 0.142517
O O8 0.290617 0.301866 0.829981
O O9 0.443966 0.656316 0.823954
O O10 0.286931 0.665525 0.943421
O O11 0.632436 0.775650 0.914184
O O12 0.773404 0.590760 0.499945
#
# Coordination Sequence:
#
# PCOD9314964 Si02
#       6
#     4   4   4   4   4   4
#     4  11  24  43  72  99 132 175 222 277 336 385
#     4  11  25  40  69  99 135 173 220 281 336 394
#     4  11  23  42  66  98 133 175 224 276 330 401
#     4  11  24  45  72  94 135 183 220 271 332 404
#     4  10  24  40  67  99 133 169 227 275 327 403
#     4  10  22  46  64  95 134 179 219 270 337 395
#
# _framework density 26.296982
#
# number of rings (size 3 to 8) (size 9 to 14) (size 15 to 20)
#    0.000    1.333    3.333    1.000    7.000    1.333 
#    3.000    0.000    0.000    0.000    0.000    0.000 
#    0.000    0.000    0.000    0.000    0.000    0.000 
#
# Total GULP energy -134042.083607 kJ/mol
# GULP energy per Si atom -5585.086817 kJ/mol
# Density = 2.623713 g / cm^3
# Si number density = 26.296982 Si / 1000 Ang^3
#
#
#
# Elastic Constant Matrix: (Units=GPa)
#
#
# Indices 1 2 3 4 5 6 
#
# 1 80.0895 -0.3631 -1.2674 0.0000 0.0000 0.0000
# 2 -0.3631 81.1206 12.9066 0.0000 0.0000 0.0000
# 3 -1.2674 12.9066 37.6612 0.0000 0.0000 0.0000
# 4 0.0000 0.0000 0.0000 31.1918 0.0000 0.0000
# 5 0.0000 0.0000 0.0000 0.0000 35.2247 0.0000
# 6 0.0000 0.0000 0.0000 0.0000 0.0000 37.0976
#
#
#
# Elastic Compliance Matrix: (Units=1/GPa)
#
#
# Indices 1 2 3 4 5 6 
#
# 1 0.012493 -0.000012 0.000424 0.000000 0.000000 0.000000
# 2 -0.000012 0.013038 -0.004469 0.000000 0.000000 0.000000
# 3 0.000424 -0.004469 0.028098 0.000000 0.000000 0.000000
# 4 0.000000 0.000000 0.000000 0.032060 0.000000 0.000000
# 5 0.000000 0.000000 0.000000 0.000000 0.028389 0.000000
# 6 0.000000 0.000000 0.000000 0.000000 0.000000 0.026956
#
#
# Mechanical properties :
#
#
# Convention : Reuss Voigt Hill
#
# Bulk Modulus (GPa) = 21.96959 24.60260 23.28610
# Shear Modulus (GPa) = 30.42877 33.20916 31.81897
#
# Velocity S-wave (km/s) = 3.40534 3.55752 3.48226
# Velocity P-wave (km/s) = 4.88204 5.12353 5.00424
#
# Compressibility (1/GPa) = 0.04551746
#
# Stress axis : x y z
#
# Youngs Moduli (GPa) = 80.04680 76.69738 35.58947
#
# Poissons Ratio (x) = 0.00089 -0.01510
# Poissons Ratio (y) = 0.00093 0.15904
# Poissons Ratio (z) = -0.03397 0.34273
#
# Static dielectric constant tensor:
#      x y z
#    x 2.133660 0.000000 0.000000 
#    y 0.000000 2.124180 0.000000 
#    z 0.000000 0.000000 2.001320 
# 
# From -- ./inp_files/891.got.cif
#   From: 2010.05.17/outbox.cif.g08.bks.cpg/sg19_1_cif.got.tgz:891.got - 2010.06.03 22:46:19.
