data_PCOD9314569
_publ_section_title
;
Structure prediction by ZEFSAII (Michael W. Deem and Ramdas Pophale) SiO2 
 PCOD9314569
Probable space group: P 21 21 21
;
_chemical_formula_sum "Si O2"
_cell_formula_units_Z 32
_cell_length_a 7.639847
_cell_length_b 19.636963
_cell_length_c 8.776053
_cell_angle_alpha 90.000000
_cell_angle_beta 90.000000
_cell_angle_gamma 90.000000
_cell_volume 1316.613247
_symmetry_space_group_name_H-M "P 21 21 21"
_symmetry_group_IT_number 19
_symmetry_cell_setting 'orthorhombic'
loop_
_space_group_symop_operation_xyz
x,y,z
1/2-x,-y,1/2+z
1/2+x,1/2-y,-z
-x,1/2+y,1/2-z
loop_
_atom_site_type_symbol
_atom_site_label
_atom_site_fract_x
_atom_site_fract_y
_atom_site_fract_z
Si Si1 0.861637 0.210456 0.928621
Si Si2 0.745263 0.461319 0.538961
Si Si3 0.063597 0.355923 0.232155
Si Si4 0.839776 0.645875 0.784205
Si Si5 0.099637 0.652181 0.253661
Si Si6 0.124724 0.282293 0.536675
Si Si7 0.515519 0.995600 0.699222
Si Si8 0.690278 0.664526 0.215772
O O1 0.680246 0.169496 0.905411
O O2 0.621605 0.197499 0.637844
O O3 0.849850 0.287881 0.863841
O O4 0.011285 0.166592 0.838369
O O5 0.655235 0.419233 0.398227
O O6 0.886032 0.506261 0.447248
O O7 0.598489 0.495029 0.643971
O O8 0.850420 0.413532 0.661750
O O9 0.854830 0.356213 0.213355
O O10 0.887922 0.204827 0.107670
O O11 0.109772 0.431432 0.294886
O O12 0.844812 0.707800 0.901499
O O13 0.234729 0.671510 0.123810
O O14 0.125453 0.573666 0.302325
O O15 0.898499 0.658228 0.205327
O O16 0.930059 0.297314 0.595127
#
# Coordination Sequence:
#
# PCOD9314569 Si02
#       8
#     4   4   4   4   4   4   4   4
#     4  11  26  41  70 105 138 179 227 292 352 403
#     4  10  21  46  70  97 132 188 232 277 346 408
#     4  11  24  43  67 102 135 183 236 276 351 410
#     4  10  23  42  71 100 132 182 230 288 347 408
#     4  11  27  43  65 105 143 180 230 283 348 408
#     4  11  23  42  74 100 136 180 228 294 349 407
#     4  10  24  44  67  98 140 185 235 281 336 424
#     4  10  22  45  70  97 136 179 230 283 345 404
#
# _framework density 24.304780999999998
#
# number of rings (size 3 to 8) (size 9 to 14) (size 15 to 20)
#    0.000    1.500    2.500    1.500   12.250    2.000 
#    2.250    0.000    0.000    0.000    0.000    0.000 
#    0.000    0.000    0.000    0.000    0.000    0.000 
#
# Total GULP energy -178717.712410 kJ/mol
# GULP energy per Si atom -5584.928513 kJ/mol
# Density = 2.424946 g / cm^3
# Si number density = 24.304781 Si / 1000 Ang^3
#
#
#
# Elastic Constant Matrix: (Units=GPa)
#
#
# Indices 1 2 3 4 5 6 
#
# 1 84.4362 -6.3585 15.3688 0.0000 0.0000 0.0000
# 2 -6.3585 78.4668 3.9631 0.0000 0.0000 0.0000
# 3 15.3688 3.9631 50.2643 0.0000 0.0000 0.0000
# 4 0.0000 0.0000 0.0000 31.3315 0.0000 0.0000
# 5 0.0000 0.0000 0.0000 0.0000 35.7749 0.0000
# 6 0.0000 0.0000 0.0000 0.0000 0.0000 25.4780
#
#
#
# Elastic Compliance Matrix: (Units=1/GPa)
#
#
# Indices 1 2 3 4 5 6 
#
# 1 0.012658 0.001226 -0.003967 0.000000 0.000000 0.000000
# 2 0.001226 0.012914 -0.001393 0.000000 0.000000 0.000000
# 3 -0.003967 -0.001393 0.021218 0.000000 0.000000 0.000000
# 4 0.000000 0.000000 0.000000 0.031917 0.000000 0.000000
# 5 0.000000 0.000000 0.000000 0.000000 0.027953 0.000000
# 6 0.000000 0.000000 0.000000 0.000000 0.000000 0.039250
#
#
# Mechanical properties :
#
#
# Convention : Reuss Voigt Hill
#
# Bulk Modulus (GPa) = 25.95958 26.56821 26.26390
# Shear Modulus (GPa) = 29.93719 31.86313 30.90016
#
# Velocity S-wave (km/s) = 3.51342 3.62468 3.56948
# Velocity P-wave (km/s) = 5.21180 5.33598 5.27426
#
# Compressibility (1/GPa) = 0.03852142
#
# Stress axis : x y z
#
# Youngs Moduli (GPa) = 79.00376 77.43560 47.13070
#
# Poissons Ratio (x) = -0.09494 0.18696
# Poissons Ratio (y) = -0.09686 0.06566
# Poissons Ratio (z) = 0.31340 0.10787
#
# Static dielectric constant tensor:
#      x y z
#    x 1.942330 0.000000 0.000000 
#    y 0.000000 2.090320 0.000000 
#    z 0.000000 0.000000 1.920940 
# 
# From -- ./inp_files/4803.got.cif
#   From: 2010.05.17/outbox.cif.g08.bks.cpg/sg19_3_cif.got.tgz:4803.got - 2010.06.03 22:46:19.
