data_PCOD9314428
_publ_section_title
;
Structure prediction by ZEFSAII (Michael W. Deem and Ramdas Pophale) SiO2 
 PCOD9314428
Probable space group: P 21 21 21
;
_chemical_formula_sum "Si O2"
_cell_formula_units_Z 32
_cell_length_a 8.181922
_cell_length_b 8.299108
_cell_length_c 18.927394
_cell_angle_alpha 90.000000
_cell_angle_beta 90.000000
_cell_angle_gamma 90.000000
_cell_volume 1285.220292
_symmetry_space_group_name_H-M "P 21 21 21"
_symmetry_group_IT_number 19
_symmetry_cell_setting 'orthorhombic'
loop_
_space_group_symop_operation_xyz
x,y,z
1/2-x,-y,1/2+z
1/2+x,1/2-y,-z
-x,1/2+y,1/2-z
loop_
_atom_site_type_symbol
_atom_site_label
_atom_site_fract_x
_atom_site_fract_y
_atom_site_fract_z
Si Si1 0.945134 0.855637 0.341928
Si Si2 0.397732 0.469989 0.097739
Si Si3 0.390801 0.020112 0.031589
Si Si4 0.781707 0.688433 0.853098
Si Si5 0.231624 0.697264 0.785480
Si Si6 0.964895 0.670175 0.470495
Si Si7 0.916184 0.548212 0.726769
Si Si8 0.062750 0.192540 0.399828
O O1 0.766516 0.880324 0.378619
O O2 0.895175 0.825371 0.261573
O O3 0.013018 0.709526 0.389514
O O4 0.039951 0.022691 0.355998
O O5 0.373240 0.650965 0.123459
O O6 0.549881 0.408876 0.144955
O O7 0.422295 0.450019 0.015091
O O8 0.214288 0.099560 0.019423
O O9 0.377814 0.958319 0.110954
O O10 0.516622 0.158614 0.010866
O O11 0.415784 0.869268 0.979176
O O12 0.793329 0.663009 0.769583
O O13 0.601863 0.707172 0.885596
O O14 0.286665 0.711814 0.866368
O O15 0.094860 0.569731 0.762862
O O16 0.151630 0.868969 0.766396
#
# Coordination Sequence:
#
# PCOD9314428 Si02
#       8
#     4   4   4   4   4   4   4   4
#     4   9  21  42  64  94 133 172 217 275 330 394
#     4  10  21  41  65  91 135 168 221 279 327 394
#     4  11  25  42  71  95 135 178 222 275 339 397
#     4  11  25  44  67 100 135 174 223 282 332 396
#     4  11  23  44  69  96 132 177 223 270 338 397
#     4  11  21  43  67  97 129 180 221 272 337 401
#     4  11  23  41  69  98 132 176 219 275 336 395
#     4  10  25  45  66 101 137 173 220 282 335 390
#
# _framework density 24.898457000000001
#
# number of rings (size 3 to 8) (size 9 to 14) (size 15 to 20)
#    0.000    1.500    2.500    1.500    5.250    0.000 
#    0.000    1.250    0.000    0.000    0.000    0.000 
#    0.000    0.000    0.000    0.000    0.000    0.000 
#
# Total GULP energy -179021.949531 kJ/mol
# GULP energy per Si atom -5594.435923 kJ/mol
# Density = 2.484179 g / cm^3
# Si number density = 24.898457 Si / 1000 Ang^3
#
#
#
# Elastic Constant Matrix: (Units=GPa)
#
#
# Indices 1 2 3 4 5 6 
#
# 1 59.5688 4.4524 14.0682 0.0000 0.0000 0.0000
# 2 4.4524 49.2798 8.7155 0.0000 0.0000 0.0000
# 3 14.0682 8.7155 51.5922 0.0000 0.0000 0.0000
# 4 0.0000 0.0000 0.0000 36.7871 0.0000 0.0000
# 5 0.0000 0.0000 0.0000 0.0000 33.0275 0.0000
# 6 0.0000 0.0000 0.0000 0.0000 0.0000 36.5018
#
#
#
# Elastic Compliance Matrix: (Units=1/GPa)
#
#
# Indices 1 2 3 4 5 6 
#
# 1 0.017972 -0.000780 -0.004769 0.000000 0.000000 0.000000
# 2 -0.000780 0.020951 -0.003327 0.000000 0.000000 0.000000
# 3 -0.004769 -0.003327 0.021245 0.000000 0.000000 0.000000
# 4 0.000000 0.000000 0.000000 0.027183 0.000000 0.000000
# 5 0.000000 0.000000 0.000000 0.000000 0.030278 0.000000
# 6 0.000000 0.000000 0.000000 0.000000 0.000000 0.027396
#
#
# Mechanical properties :
#
#
# Convention : Reuss Voigt Hill
#
# Bulk Modulus (GPa) = 23.57555 23.87923 23.72739
# Shear Modulus (GPa) = 28.26209 30.14358 29.20284
#
# Velocity S-wave (km/s) = 3.37277 3.48323 3.42845
# Velocity P-wave (km/s) = 4.96555 5.07825 5.02222
#
# Compressibility (1/GPa) = 0.04241682
#
# Stress axis : x y z
#
# Youngs Moduli (GPa) = 55.64250 47.73013 47.06970
#
# Poissons Ratio (x) = 0.03725 0.22446
# Poissons Ratio (y) = 0.04342 0.15658
# Poissons Ratio (z) = 0.26535 0.15877
#
# Static dielectric constant tensor:
#      x y z
#    x 1.999780 0.000000 0.000000 
#    y 0.000000 1.970390 0.000000 
#    z 0.000000 0.000000 1.984120 
# 
# From -- ./inp_files/7038.got.cif
#   From: 2010.05.17/outbox.cif.g08.bks.cpg/sg19_4_cif.got.tgz:7038.got - 2010.06.03 22:46:19.
