data_PCOD9314615
_publ_section_title
;
Structure prediction by ZEFSAII (Michael W. Deem and Ramdas Pophale) SiO2 
 PCOD9314615
Probable space group: P 21 21 21
;
_chemical_formula_sum "Si O2"
_cell_formula_units_Z 24
_cell_length_a 5.232512
_cell_length_b 12.998606
_cell_length_c 13.646242
_cell_angle_alpha 90.000000
_cell_angle_beta 90.000000
_cell_angle_gamma 90.000000
_cell_volume 928.154088
_symmetry_space_group_name_H-M "P 21 21 21"
_symmetry_group_IT_number 19
_symmetry_cell_setting 'orthorhombic'
loop_
_space_group_symop_operation_xyz
x,y,z
1/2-x,-y,1/2+z
1/2+x,1/2-y,-z
-x,1/2+y,1/2-z
loop_
_atom_site_type_symbol
_atom_site_label
_atom_site_fract_x
_atom_site_fract_y
_atom_site_fract_z
Si Si1 0.882968 0.580744 0.573341
Si Si2 0.747739 0.539136 0.262102
Si Si3 0.633578 0.993560 0.018047
Si Si4 0.977573 0.257799 0.802281
Si Si5 0.361577 0.628401 0.825315
Si Si6 0.633381 0.820865 0.861114
O O1 0.909817 0.507820 0.670431
O O2 0.627840 0.541157 0.521057
O O3 0.126731 0.567574 0.503366
O O4 0.869489 0.696488 0.615235
O O5 0.608276 0.626721 0.326012
O O6 0.897215 0.444899 0.309639
O O7 0.972467 0.607325 0.212301
O O8 0.692791 0.893532 0.950860
O O9 0.649224 0.943806 0.125653
O O10 0.743047 0.182303 0.773164
O O11 0.135146 0.273863 0.701648
O O12 0.455076 0.724849 0.889402
#
# Coordination Sequence:
#
# PCOD9314615 Si02
#       6
#     4   4   4   4   4   4
#     4  11  23  44  67  99 143 186 233 289 358 422
#     4  10  22  41  66 105 133 186 239 288 344 435
#     4  11  26  42  67 108 149 181 225 301 371 418
#     4  11  22  41  72 100 134 190 247 290 344 439
#     4  11  25  40  71 105 147 183 238 301 368 422
#     4  10  22  38  67 101 140 180 232 295 351 428
#
# _framework density 25.857776000000001
#
# number of rings (size 3 to 8) (size 9 to 14) (size 15 to 20)
#    0.000    1.333    3.333    2.000    7.000    0.000 
#    0.000    0.000    3.667    0.000    0.000    0.000 
#    0.000    0.000    0.000    0.000    0.000    0.000 
#
# Total GULP energy -134412.157154 kJ/mol
# GULP energy per Si atom -5600.506548 kJ/mol
# Density = 2.579892 g / cm^3
# Si number density = 25.857776 Si / 1000 Ang^3
#
#
#
# Elastic Constant Matrix: (Units=GPa)
#
#
# Indices 1 2 3 4 5 6 
#
# 1 75.2413 40.3627 -6.4442 0.0000 0.0000 0.0000
# 2 40.3627 135.6269 18.9053 0.0000 0.0000 0.0000
# 3 -6.4442 18.9053 48.4490 0.0000 0.0000 0.0000
# 4 0.0000 0.0000 0.0000 34.1729 0.0000 0.0000
# 5 0.0000 0.0000 0.0000 0.0000 18.1928 0.0000
# 6 0.0000 0.0000 0.0000 0.0000 0.0000 48.8924
#
#
#
# Elastic Compliance Matrix: (Units=1/GPa)
#
#
# Indices 1 2 3 4 5 6 
#
# 1 0.016653 -0.005568 0.004388 0.000000 0.000000 0.000000
# 2 -0.005568 0.009659 -0.004509 0.000000 0.000000 0.000000
# 3 0.004388 -0.004509 0.022983 0.000000 0.000000 0.000000
# 4 0.000000 0.000000 0.000000 0.029263 0.000000 0.000000
# 5 0.000000 0.000000 0.000000 0.000000 0.054967 0.000000
# 6 0.000000 0.000000 0.000000 0.000000 0.000000 0.020453
#
#
# Mechanical properties :
#
#
# Convention : Reuss Voigt Hill
#
# Bulk Modulus (GPa) = 26.37394 40.55166 33.46280
# Shear Modulus (GPa) = 28.09058 34.01785 31.05422
#
# Velocity S-wave (km/s) = 3.29956 3.63102 3.46925
# Velocity P-wave (km/s) = 4.97372 5.77024 5.38672
#
# Compressibility (1/GPa) = 0.03791621
#
# Stress axis : x y z
#
# Youngs Moduli (GPa) = 60.04922 103.53414 43.50953
#
# Poissons Ratio (x) = 0.57643 -0.19090
# Poissons Ratio (y) = 0.33433 0.19620
# Poissons Ratio (z) = -0.26347 0.46688
#
# Static dielectric constant tensor:
#      x y z
#    x 2.052460 0.000000 0.000000 
#    y 0.000000 1.993120 0.000000 
#    z 0.000000 0.000000 2.056370 
# 
# From -- ./inp_files/4429.got.cif
#   From: 2010.05.17/outbox.cif.g08.bks.cpg/sg19_3_cif.got.tgz:4429.got - 2010.06.03 22:46:19.
