data_PCOD9314726
_publ_section_title
;
Structure prediction by ZEFSAII (Michael W. Deem and Ramdas Pophale) SiO2 
 PCOD9314726
Probable space group: P 21 21 21
;
_chemical_formula_sum "Si O2"
_cell_formula_units_Z 24
_cell_length_a 16.427372
_cell_length_b 4.986502
_cell_length_c 13.675209
_cell_angle_alpha 90.000000
_cell_angle_beta 90.000000
_cell_angle_gamma 90.000000
_cell_volume 1120.206432
_symmetry_space_group_name_H-M "P 21 21 21"
_symmetry_group_IT_number 19
_symmetry_cell_setting 'orthorhombic'
loop_
_space_group_symop_operation_xyz
x,y,z
1/2-x,-y,1/2+z
1/2+x,1/2-y,-z
-x,1/2+y,1/2-z
loop_
_atom_site_type_symbol
_atom_site_label
_atom_site_fract_x
_atom_site_fract_y
_atom_site_fract_z
Si Si1 0.460200 0.853228 0.874728
Si Si2 0.703590 0.146335 0.995098
Si Si3 0.189219 0.126226 0.516226
Si Si4 0.068561 0.146800 0.146723
Si Si5 0.911168 0.885555 0.673669
Si Si6 0.900376 0.385922 0.801904
O O1 0.425763 0.830682 0.764102
O O2 0.535172 0.645491 0.881316
O O3 0.497830 0.147598 0.885667
O O4 0.389611 0.801311 0.952059
O O5 0.640828 0.056176 0.078629
O O6 0.758868 0.390488 0.034956
O O7 0.650736 0.268339 0.906663
O O8 0.757966 0.891652 0.967355
O O9 0.160559 0.988168 0.616506
O O10 0.896288 0.584190 0.709644
O O11 0.007719 0.914605 0.656933
O O12 0.888913 0.086941 0.761966
#
# Coordination Sequence:
#
# PCOD9314726 Si02
#       6
#     4   4   4   4   4   4
#     4  10  22  42  66  89 119 164 212 253 297 361
#     4  12  25  39  62  95 129 162 197 253 318 367
#     4  12  25  39  62  95 129 162 197 253 318 367
#     4  10  22  42  66  89 119 164 212 253 297 361
#     4  10  22  41  64  88 119 164 213 254 296 360
#     4  10  22  41  64  88 119 164 213 254 296 360
#
# _framework density 21.424623
#
# number of rings (size 3 to 8) (size 9 to 14) (size 15 to 20)
#    0.000    1.333    0.000    5.000    0.000    8.000 
#    0.000    0.000    0.000    0.000    0.000    0.000 
#    0.000    0.000    0.000    0.000    0.000    0.000 
#
# Total GULP energy -134289.800032 kJ/mol
# GULP energy per Si atom -5595.408335 kJ/mol
# Density = 2.137586 g / cm^3
# Si number density = 21.424623 Si / 1000 Ang^3
#
#
#
# Elastic Constant Matrix: (Units=GPa)
#
#
# Indices 1 2 3 4 5 6 
#
# 1 46.6063 -0.1909 21.8489 0.0000 0.0000 0.0000
# 2 -0.1909 72.9922 -9.9159 0.0000 0.0000 0.0000
# 3 21.8489 -9.9159 36.9963 0.0000 0.0000 0.0000
# 4 0.0000 0.0000 0.0000 18.2569 0.0000 0.0000
# 5 0.0000 0.0000 0.0000 0.0000 19.4171 0.0000
# 6 0.0000 0.0000 0.0000 0.0000 0.0000 34.6586
#
#
#
# Elastic Compliance Matrix: (Units=1/GPa)
#
#
# Indices 1 2 3 4 5 6 
#
# 1 0.030078 -0.002423 -0.018413 0.000000 0.000000 0.000000
# 2 -0.002423 0.014413 0.005294 0.000000 0.000000 0.000000
# 3 -0.018413 0.005294 0.039322 0.000000 0.000000 0.000000
# 4 0.000000 0.000000 0.000000 0.054774 0.000000 0.000000
# 5 0.000000 0.000000 0.000000 0.000000 0.051501 0.000000
# 6 0.000000 0.000000 0.000000 0.000000 0.000000 0.028853
#
#
# Mechanical properties :
#
#
# Convention : Reuss Voigt Hill
#
# Bulk Modulus (GPa) = 18.96432 20.00877 19.48655
# Shear Modulus (GPa) = 18.68455 24.12338 21.40396
#
# Velocity S-wave (km/s) = 2.95635 3.35918 3.16418
# Velocity P-wave (km/s) = 4.53036 4.94013 4.73968
#
# Compressibility (1/GPa) = 0.05273060
#
# Stress axis : x y z
#
# Youngs Moduli (GPa) = 33.24675 69.38230 25.43074
#
# Poissons Ratio (x) = 0.16809 0.46824
# Poissons Ratio (y) = 0.08054 -0.13462
# Poissons Ratio (z) = 0.61216 -0.36729
#
# Static dielectric constant tensor:
#      x y z
#    x 1.781940 0.000000 0.000000 
#    y 0.000000 1.740820 0.000000 
#    z 0.000000 0.000000 1.769440 
# 
# From -- ./inp_files/4443.got.cif
#   From: 2010.05.17/outbox.cif.g08.bks.cpg/sg19_3_cif.got.tgz:4443.got - 2010.06.03 22:46:19.
