data_PCOD9314831
_publ_section_title
;
Structure prediction by ZEFSAII (Michael W. Deem and Ramdas Pophale) SiO2 
 PCOD9314831
Probable space group: P 21 21 21
;
_chemical_formula_sum "Si O2"
_cell_formula_units_Z 28
_cell_length_a 11.108496
_cell_length_b 18.535132
_cell_length_c 5.153478
_cell_angle_alpha 90.000000
_cell_angle_beta 90.000000
_cell_angle_gamma 90.000000
_cell_volume 1061.087926
_symmetry_space_group_name_H-M "P 21 21 21"
_symmetry_group_IT_number 19
_symmetry_cell_setting 'orthorhombic'
loop_
_space_group_symop_operation_xyz
x,y,z
1/2-x,-y,1/2+z
1/2+x,1/2-y,-z
-x,1/2+y,1/2-z
loop_
_atom_site_type_symbol
_atom_site_label
_atom_site_fract_x
_atom_site_fract_y
_atom_site_fract_z
Si Si1 0.768764 0.848693 0.194064
Si Si2 0.088238 0.525858 0.755798
Si Si3 0.012407 0.381872 0.976865
Si Si4 0.839550 0.340505 0.558122
Si Si5 0.910660 0.486364 0.354917
Si Si6 0.919325 0.624404 0.138686
Si Si7 0.648319 0.786908 0.693395
O O1 0.706983 0.927202 0.220644
O O2 0.904335 0.849938 0.296008
O O3 0.698320 0.799159 0.405950
O O4 0.740113 0.822181 0.904536
O O5 0.098772 0.443212 0.847969
O O6 0.040707 0.511010 0.465363
O O7 0.987465 0.576415 0.912157
O O8 0.944070 0.329458 0.776359
O O9 0.918494 0.438493 0.099526
O O10 0.852406 0.427140 0.534149
O O11 0.696133 0.327312 0.578353
O O12 0.868274 0.293593 0.302628
O O13 0.858350 0.564549 0.323770
O O14 0.023006 0.670944 0.271337
#
# Coordination Sequence:
#
# PCOD9314831 Si02
#       7
#     4   4   4   4   4   4   4
#     4  11  25  46  73 101 149 184 244 294 370 441
#     4   9  21  41  67 106 133 190 233 297 368 429
#     4  10  25  40  70 108 140 185 245 306 367 436
#     4  11  27  43  71 104 144 194 244 308 367 436
#     4  10  22  42  68 103 139 182 242 296 368 427
#     4  10  23  45  71  99 147 187 243 298 360 445
#     4  11  27  49  70 107 140 206 239 297 374 440
#
# _framework density 26.388010000000001
#
# number of rings (size 3 to 8) (size 9 to 14) (size 15 to 20)
#    0.000    1.714    1.429    0.000   16.000    0.000 
#    0.000    0.000    0.000    0.000    0.000    0.000 
#    0.000    0.000    0.000    0.000    0.000    0.000 
#
# Total GULP energy -156248.896499 kJ/mol
# GULP energy per Si atom -5580.317732 kJ/mol
# Density = 2.632795 g / cm^3
# Si number density = 26.388010 Si / 1000 Ang^3
#
#
#
# Elastic Constant Matrix: (Units=GPa)
#
#
# Indices 1 2 3 4 5 6 
#
# 1 120.7977 36.2910 5.8025 0.0000 0.0000 0.0000
# 2 36.2910 93.7396 2.7891 0.0000 0.0000 0.0000
# 3 5.8025 2.7891 62.3365 0.0000 0.0000 0.0000
# 4 0.0000 0.0000 0.0000 44.0616 0.0000 0.0000
# 5 0.0000 0.0000 0.0000 0.0000 32.9225 0.0000
# 6 0.0000 0.0000 0.0000 0.0000 0.0000 32.5610
#
#
#
# Elastic Compliance Matrix: (Units=1/GPa)
#
#
# Indices 1 2 3 4 5 6 
#
# 1 0.009399 -0.003618 -0.000713 0.000000 0.000000 0.000000
# 2 -0.003618 0.012075 -0.000203 0.000000 0.000000 0.000000
# 3 -0.000713 -0.000203 0.016117 0.000000 0.000000 0.000000
# 4 0.000000 0.000000 0.000000 0.022695 0.000000 0.000000
# 5 0.000000 0.000000 0.000000 0.000000 0.030374 0.000000
# 6 0.000000 0.000000 0.000000 0.000000 0.000000 0.030712
#
#
# Mechanical properties :
#
#
# Convention : Reuss Voigt Hill
#
# Bulk Modulus (GPa) = 35.05970 40.73767 37.89868
# Shear Modulus (GPa) = 35.72730 37.37511 36.55120
#
# Velocity S-wave (km/s) = 3.68356 3.76755 3.72579
# Velocity P-wave (km/s) = 5.60415 5.86493 5.73602
#
# Compressibility (1/GPa) = 0.02852278
#
# Stress axis : x y z
#
# Youngs Moduli (GPa) = 106.38950 82.81912 62.04454
#
# Poissons Ratio (x) = 0.29962 0.04424
# Poissons Ratio (y) = 0.38489 0.01263
# Poissons Ratio (z) = 0.07586 0.01685
#
# Static dielectric constant tensor:
#      x y z
#    x 2.080570 0.000000 0.000000 
#    y 0.000000 2.099860 0.000000 
#    z 0.000000 0.000000 2.191430 
# 
# From -- ./inp_files/1119.got.cif
#   From: 2010.05.17/outbox.cif.g08.bks.cpg/sg19_1_cif.got.tgz:1119.got - 2010.06.03 22:46:19.
