data_PCOD9314971
_publ_section_title
;
Structure prediction by ZEFSAII (Michael W. Deem and Ramdas Pophale) SiO2 
 PCOD9314971
Probable space group: P 21 21 21
;
_chemical_formula_sum "Si O2"
_cell_formula_units_Z 16
_cell_length_a 5.099498
_cell_length_b 4.898326
_cell_length_c 22.890595
_cell_angle_alpha 90.000000
_cell_angle_beta 90.000000
_cell_angle_gamma 90.000000
_cell_volume 571.784256
_symmetry_space_group_name_H-M "P 21 21 21"
_symmetry_group_IT_number 19
_symmetry_cell_setting 'orthorhombic'
loop_
_space_group_symop_operation_xyz
x,y,z
1/2-x,-y,1/2+z
1/2+x,1/2-y,-z
-x,1/2+y,1/2-z
loop_
_atom_site_type_symbol
_atom_site_label
_atom_site_fract_x
_atom_site_fract_y
_atom_site_fract_z
Si Si1 0.983156 0.563367 0.011017
Si Si2 0.070262 0.897147 0.610592
Si Si3 0.920614 0.538365 0.712563
Si Si4 0.436255 0.779616 0.866271
O O1 0.936734 0.346308 0.959344
O O2 0.758182 0.787204 0.998437
O O3 0.953688 0.505903 0.079591
O O4 0.319002 0.078971 0.628433
O O5 0.816366 0.083892 0.624012
O O6 0.052805 0.636569 0.652087
O O7 0.633718 0.436137 0.693111
O O8 0.067365 0.296573 0.745423
#
# Coordination Sequence:
#
# PCOD9314971 Si02
#       4
#     4   4   4   4
#     4   8  16  36  72 106 146 188 244 310 386 450
#     4  10  22  46  74 112 149 198 252 316 383 451
#     4  12  26  52  76 114 154 210 258 312 376 464
#     4  10  22  46  74 112 149 198 252 316 383 451
#
# _framework density 27.982583999999999
#
# number of rings (size 3 to 8) (size 9 to 14) (size 15 to 20)
#    0.000    2.000    2.500    0.000    0.000    2.000 
#    9.000   15.000    0.000    0.000    0.000    0.000 
#    0.000    0.000    0.000    0.000    0.000    0.000 
#
# Total GULP energy -89855.066622 kJ/mol
# GULP energy per Si atom -5615.941664 kJ/mol
# Density = 2.791889 g / cm^3
# Si number density = 27.982584 Si / 1000 Ang^3
#
#
#
# Elastic Constant Matrix: (Units=GPa)
#
#
# Indices 1 2 3 4 5 6 
#
# 1 177.6828 69.7393 28.3860 0.0000 0.0000 0.0000
# 2 69.7393 124.1377 50.9904 0.0000 0.0000 0.0000
# 3 28.3860 50.9904 131.6173 0.0000 0.0000 0.0000
# 4 0.0000 0.0000 0.0000 57.6126 0.0000 0.0000
# 5 0.0000 0.0000 0.0000 0.0000 38.2751 0.0000
# 6 0.0000 0.0000 0.0000 0.0000 0.0000 32.7337
#
#
#
# Elastic Compliance Matrix: (Units=1/GPa)
#
#
# Indices 1 2 3 4 5 6 
#
# 1 0.007220 -0.004063 0.000017 0.000000 0.000000 0.000000
# 2 -0.004063 0.011867 -0.003721 0.000000 0.000000 0.000000
# 3 0.000017 -0.003721 0.009036 0.000000 0.000000 0.000000
# 4 0.000000 0.000000 0.000000 0.017357 0.000000 0.000000
# 5 0.000000 0.000000 0.000000 0.000000 0.026127 0.000000
# 6 0.000000 0.000000 0.000000 0.000000 0.000000 0.030550
#
#
# Mechanical properties :
#
#
# Convention : Reuss Voigt Hill
#
# Bulk Modulus (GPa) = 79.44049 81.29657 80.36853
# Shear Modulus (GPa) = 41.02189 44.67909 42.85049
#
# Velocity S-wave (km/s) = 3.83296 4.00018 3.91746
# Velocity P-wave (km/s) = 6.93107 7.10288 7.01750
#
# Compressibility (1/GPa) = 0.01258804
#
# Stress axis : x y z
#
# Youngs Moduli (GPa) = 138.50331 84.27004 110.67217
#
# Poissons Ratio (x) = 0.34240 -0.00188
# Poissons Ratio (y) = 0.56275 0.41181
# Poissons Ratio (z) = -0.00235 0.31357
#
# Static dielectric constant tensor:
#      x y z
#    x 2.202690 0.000000 0.000000 
#    y 0.000000 2.113410 0.000000 
#    z 0.000000 0.000000 2.230780 
# 
# From -- ./inp_files/140.got.cif
#   From: 2010.05.17/outbox.cif.g08.bks.cpg/sg19_1_cif.got.tgz:140.got - 2010.06.03 22:46:19.
