data_PCOD9314513
_publ_section_title
;
Structure prediction by ZEFSAII (Michael W. Deem and Ramdas Pophale) SiO2 
 PCOD9314513
Probable space group: P 21 21 21
;
_chemical_formula_sum "Si O2"
_cell_formula_units_Z 32
_cell_length_a 11.286007
_cell_length_b 12.015817
_cell_length_c 11.907386
_cell_angle_alpha 90.000000
_cell_angle_beta 90.000000
_cell_angle_gamma 90.000000
_cell_volume 1614.767698
_symmetry_space_group_name_H-M "P 21 21 21"
_symmetry_group_IT_number 19
_symmetry_cell_setting 'orthorhombic'
loop_
_space_group_symop_operation_xyz
x,y,z
1/2-x,-y,1/2+z
1/2+x,1/2-y,-z
-x,1/2+y,1/2-z
loop_
_atom_site_type_symbol
_atom_site_label
_atom_site_fract_x
_atom_site_fract_y
_atom_site_fract_z
Si Si1 0.709067 0.308380 0.269171
Si Si2 0.501634 0.731164 0.071176
Si Si3 0.973274 0.360434 0.329432
Si Si4 0.260460 0.371634 0.913500
Si Si5 0.652519 0.908911 0.178894
Si Si6 0.937737 0.504126 0.671817
Si Si7 0.828956 0.806648 0.347529
Si Si8 0.966847 0.602628 0.426202
O O1 0.617469 0.266128 0.363455
O O2 0.843437 0.310345 0.310278
O O3 0.701589 0.221394 0.165959
O O4 0.671268 0.433310 0.232052
O O5 0.591077 0.834779 0.083277
O O6 0.559781 0.624792 0.135456
O O7 0.476746 0.696812 0.943040
O O8 0.056738 0.346221 0.222221
O O9 0.962380 0.490117 0.355750
O O10 0.238985 0.495130 0.865328
O O11 0.400820 0.347734 0.916458
O O12 0.203659 0.368534 0.037117
O O13 0.549842 0.970827 0.248967
O O14 0.720666 0.826681 0.263253
O O15 0.952226 0.570034 0.555481
O O16 0.863533 0.683055 0.384798
#
# Coordination Sequence:
#
# PCOD9314513 Si02
#       8
#     4   4   4   4   4   4   4   4
#     4  11  23  43  67  96 136 180 218 283 338 400
#     4  10  25  43  68  94 136 178 226 272 345 397
#     4  11  26  43  67 101 138 174 224 290 334 398
#     4  12  23  42  70  96 137 177 221 274 331 410
#     4  11  24  41  67  99 129 180 224 276 331 407
#     4  10  21  43  64  93 130 175 224 272 332 400
#     4  12  25  41  70 101 132 175 227 275 336 402
#     4  11  23  42  63 100 134 175 218 274 337 398
#
# _framework density 19.817091999999999
#
# number of rings (size 3 to 8) (size 9 to 14) (size 15 to 20)
#    0.000    1.000    6.250    0.000    3.500    2.000 
#    0.000    5.000    0.000    0.000    0.000    0.000 
#    0.000    0.000    0.000    0.000    0.000    0.000 
#
# Total GULP energy -178696.457902 kJ/mol
# GULP energy per Si atom -5584.264309 kJ/mol
# Density = 1.977199 g / cm^3
# Si number density = 19.817092 Si / 1000 Ang^3
#
#
#
# Elastic Constant Matrix: (Units=GPa)
#
#
# Indices 1 2 3 4 5 6 
#
# 1 56.3626 1.7395 22.7298 0.0000 0.0000 0.0000
# 2 1.7395 57.8097 16.2534 0.0000 0.0000 0.0000
# 3 22.7298 16.2534 83.5604 0.0000 0.0000 0.0000
# 4 0.0000 0.0000 0.0000 24.9035 0.0000 0.0000
# 5 0.0000 0.0000 0.0000 0.0000 24.3126 0.0000
# 6 0.0000 0.0000 0.0000 0.0000 0.0000 29.5470
#
#
#
# Elastic Compliance Matrix: (Units=1/GPa)
#
#
# Indices 1 2 3 4 5 6 
#
# 1 0.019981 0.000980 -0.005626 0.000000 0.000000 0.000000
# 2 0.000980 0.018347 -0.003835 0.000000 0.000000 0.000000
# 3 -0.005626 -0.003835 0.014244 0.000000 0.000000 0.000000
# 4 0.000000 0.000000 0.000000 0.040155 0.000000 0.000000
# 5 0.000000 0.000000 0.000000 0.000000 0.041131 0.000000
# 6 0.000000 0.000000 0.000000 0.000000 0.000000 0.033844
#
#
# Mechanical properties :
#
#
# Convention : Reuss Voigt Hill
#
# Bulk Modulus (GPa) = 28.08198 31.01980 29.55089
# Shear Modulus (GPa) = 25.44098 26.21995 25.83046
#
# Velocity S-wave (km/s) = 3.58689 3.64139 3.61424
# Velocity P-wave (km/s) = 5.59962 5.77639 5.68869
#
# Compressibility (1/GPa) = 0.03561003
#
# Stress axis : x y z
#
# Youngs Moduli (GPa) = 50.04809 54.50493 70.20631
#
# Poissons Ratio (x) = -0.05344 0.39497
# Poissons Ratio (y) = -0.04907 0.26927
# Poissons Ratio (z) = 0.28156 0.20905
#
# Static dielectric constant tensor:
#      x y z
#    x 1.691370 0.000000 0.000000 
#    y 0.000000 1.703420 0.000000 
#    z 0.000000 0.000000 1.675850 
# 
# From -- ./inp_files/5020.got.cif
#   From: 2010.05.17/outbox.cif.g08.bks.cpg/sg19_3_cif.got.tgz:5020.got - 2010.06.03 22:46:19.
