data_PCOD9314570
_publ_section_title
;
Structure prediction by ZEFSAII (Michael W. Deem and Ramdas Pophale) SiO2 
 PCOD9314570
Probable space group: P 21 21 21
;
_chemical_formula_sum "Si O2"
_cell_formula_units_Z 28
_cell_length_a 5.888157
_cell_length_b 14.327363
_cell_length_c 14.274424
_cell_angle_alpha 90.000000
_cell_angle_beta 90.000000
_cell_angle_gamma 90.000000
_cell_volume 1204.215571
_symmetry_space_group_name_H-M "P 21 21 21"
_symmetry_group_IT_number 19
_symmetry_cell_setting 'orthorhombic'
loop_
_space_group_symop_operation_xyz
x,y,z
1/2-x,-y,1/2+z
1/2+x,1/2-y,-z
-x,1/2+y,1/2-z
loop_
_atom_site_type_symbol
_atom_site_label
_atom_site_fract_x
_atom_site_fract_y
_atom_site_fract_z
Si Si1 0.254352 0.475219 0.746896
Si Si2 0.884715 0.880576 0.929076
Si Si3 0.461917 0.976994 0.573703
Si Si4 0.689980 0.278982 0.959121
Si Si5 0.023011 0.323326 0.222297
Si Si6 0.367351 0.900380 0.194463
Si Si7 0.729795 0.762777 0.100965
O O1 0.254134 0.401265 0.664232
O O2 0.367622 0.443794 0.844036
O O3 0.377176 0.571651 0.717727
O O4 0.999339 0.510245 0.765944
O O5 0.131879 0.840734 0.902353
O O6 0.789110 0.802152 0.999040
O O7 0.904410 0.975157 0.988886
O O8 0.311025 0.891003 0.542057
O O9 0.312141 0.058153 0.620989
O O10 0.640973 0.236986 0.856538
O O11 0.444573 0.252948 0.009303
O O12 0.075227 0.277450 0.322947
O O13 0.754251 0.341894 0.223296
O O14 0.538184 0.832381 0.141808
#
# Coordination Sequence:
#
# PCOD9314570 Si02
#       7
#     4   4   4   4   4   4   4
#     4  10  24  44  73 103 140 195 241 315 379 444
#     4  12  24  44  71 104 144 191 248 303 383 453
#     4  11  25  47  67 107 146 189 247 311 367 448
#     4  12  31  48  77 111 148 204 256 309 375 458
#     4  10  24  48  69 102 147 191 245 316 381 442
#     4  10  21  46  70  99 144 188 241 311 378 439
#     4  11  25  43  69 106 147 190 246 315 377 454
#
# _framework density 23.251650000000001
#
# number of rings (size 3 to 8) (size 9 to 14) (size 15 to 20)
#    0.000    1.143    4.286    1.714   12.000    1.143 
#    5.143    0.000    0.000    0.000    0.000    0.000 
#    0.000    0.000    0.000    0.000    0.000    0.000 
#
# Total GULP energy -156502.266033 kJ/mol
# GULP energy per Si atom -5589.366644 kJ/mol
# Density = 2.319873 g / cm^3
# Si number density = 23.251650 Si / 1000 Ang^3
#
#
#
# Elastic Constant Matrix: (Units=GPa)
#
#
# Indices 1 2 3 4 5 6 
#
# 1 67.6005 -2.0804 26.0493 0.0000 0.0000 0.0000
# 2 -2.0804 59.8432 28.4505 0.0000 0.0000 0.0000
# 3 26.0493 28.4505 88.3400 0.0000 0.0000 0.0000
# 4 0.0000 0.0000 0.0000 30.4796 0.0000 0.0000
# 5 0.0000 0.0000 0.0000 0.0000 22.3532 0.0000
# 6 0.0000 0.0000 0.0000 0.0000 0.0000 37.0374
#
#
#
# Elastic Compliance Matrix: (Units=1/GPa)
#
#
# Indices 1 2 3 4 5 6 
#
# 1 0.017314 0.003577 -0.006257 0.000000 0.000000 0.000000
# 2 0.003577 0.020470 -0.007647 0.000000 0.000000 0.000000
# 3 -0.006257 -0.007647 0.015628 0.000000 0.000000 0.000000
# 4 0.000000 0.000000 0.000000 0.032809 0.000000 0.000000
# 5 0.000000 0.000000 0.000000 0.000000 0.044736 0.000000
# 6 0.000000 0.000000 0.000000 0.000000 0.000000 0.027000
#
#
# Mechanical properties :
#
#
# Convention : Reuss Voigt Hill
#
# Bulk Modulus (GPa) = 30.52830 35.62471 33.07651
# Shear Modulus (GPa) = 26.38076 28.86499 27.62288
#
# Velocity S-wave (km/s) = 3.37200 3.52720 3.45047
# Velocity P-wave (km/s) = 5.32152 5.65180 5.48914
#
# Compressibility (1/GPa) = 0.03275649
#
# Stress axis : x y z
#
# Youngs Moduli (GPa) = 57.75633 48.85115 63.98802
#
# Poissons Ratio (x) = -0.17473 0.40040
# Poissons Ratio (y) = -0.20658 0.48934
# Poissons Ratio (z) = 0.36141 0.37358
#
# Static dielectric constant tensor:
#      x y z
#    x 1.967210 0.000000 0.000000 
#    y 0.000000 1.842670 0.000000 
#    z 0.000000 0.000000 1.888100 
# 
# From -- ./inp_files/5716.got.cif
#   From: 2010.05.17/outbox.cif.g08.bks.cpg/sg19_3_cif.got.tgz:5716.got - 2010.06.03 22:46:19.
