data_PCOD9314177
_publ_section_title
;
Structure prediction by ZEFSAII (Michael W. Deem and Ramdas Pophale) SiO2 
 PCOD9314177
Probable space group: P 21 21 21
;
_chemical_formula_sum "Si O2"
_cell_formula_units_Z 32
_cell_length_a 8.151581
_cell_length_b 8.106424
_cell_length_c 21.917514
_cell_angle_alpha 90.000000
_cell_angle_beta 90.000000
_cell_angle_gamma 90.000000
_cell_volume 1448.313092
_symmetry_space_group_name_H-M "P 21 21 21"
_symmetry_group_IT_number 19
_symmetry_cell_setting 'orthorhombic'
loop_
_space_group_symop_operation_xyz
x,y,z
1/2-x,-y,1/2+z
1/2+x,1/2-y,-z
-x,1/2+y,1/2-z
loop_
_atom_site_type_symbol
_atom_site_label
_atom_site_fract_x
_atom_site_fract_y
_atom_site_fract_z
Si Si1 0.107015 0.913868 0.653588
Si Si2 0.689014 0.103825 0.301023
Si Si3 0.828104 0.756717 0.254708
Si Si4 0.215087 0.608656 0.865993
Si Si5 0.049330 0.804921 0.969321
Si Si6 0.578095 0.423275 0.123227
Si Si7 0.715163 0.679392 0.911092
Si Si8 0.820867 0.222179 0.184054
O O1 0.201996 0.870582 0.715136
O O2 0.023177 0.749410 0.625912
O O3 0.242830 0.994422 0.609540
O O4 0.965844 0.052950 0.659492
O O5 0.788617 0.208743 0.350795
O O6 0.683718 0.202984 0.237802
O O7 0.778899 0.935484 0.281919
O O8 0.519840 0.048372 0.332346
O O9 0.802656 0.772667 0.182559
O O10 0.009490 0.725281 0.279887
O O11 0.174950 0.688192 0.930862
O O12 0.313362 0.436708 0.860297
O O13 0.872011 0.742744 0.949135
O O14 0.076589 0.987223 0.941665
O O15 0.069740 0.802867 0.041498
O O16 0.759640 0.378311 0.146164
#
# Coordination Sequence:
#
# PCOD9314177 Si02
#       8
#     4   4   4   4   4   4   4   4
#     4   9  20  39  59  82 114 152 188 228 290 361
#     4   9  21  38  56  83 115 151 191 228 286 361
#     4  10  21  36  58  90 119 145 186 244 294 336
#     4   9  21  38  56  83 115 151 191 228 286 361
#     4  10  22  39  59  81 108 149 196 237 280 338
#     4   9  20  39  59  82 114 152 188 228 290 361
#     4  10  22  39  59  81 108 149 196 237 280 338
#     4  10  21  36  58  90 119 145 186 244 294 336
#
# _framework density 22.094670000000001
#
# number of rings (size 3 to 8) (size 9 to 14) (size 15 to 20)
#    0.000    2.500    0.000    0.000    0.000   25.000 
#    0.000   12.500    0.000    0.000    0.000    0.000 
#    0.000    0.000    0.000    0.000    0.000    0.000 
#
# Total GULP energy -178763.433451 kJ/mol
# GULP energy per Si atom -5586.357295 kJ/mol
# Density = 2.204438 g / cm^3
# Si number density = 22.094670 Si / 1000 Ang^3
#
#
#
# Elastic Constant Matrix: (Units=GPa)
#
#
# Indices 1 2 3 4 5 6 
#
# 1 50.5892 -2.0047 -17.0952 0.0000 0.0000 0.0000
# 2 -2.0047 81.2423 17.3764 0.0000 0.0000 0.0000
# 3 -17.0952 17.3764 60.3136 0.0000 0.0000 0.0000
# 4 0.0000 0.0000 0.0000 22.0312 0.0000 0.0000
# 5 0.0000 0.0000 0.0000 0.0000 34.7169 0.0000
# 6 0.0000 0.0000 0.0000 0.0000 0.0000 13.1547
#
#
#
# Elastic Compliance Matrix: (Units=1/GPa)
#
#
# Indices 1 2 3 4 5 6 
#
# 1 0.021915 -0.000839 0.006453 0.000000 0.000000 0.000000
# 2 -0.000839 0.013149 -0.004026 0.000000 0.000000 0.000000
# 3 0.006453 -0.004026 0.019569 0.000000 0.000000 0.000000
# 4 0.000000 0.000000 0.000000 0.045390 0.000000 0.000000
# 5 0.000000 0.000000 0.000000 0.000000 0.028804 0.000000
# 6 0.000000 0.000000 0.000000 0.000000 0.000000 0.076018
#
#
# Mechanical properties :
#
#
# Convention : Reuss Voigt Hill
#
# Bulk Modulus (GPa) = 17.29865 20.96644 19.13254
# Shear Modulus (GPa) = 22.63058 26.90514 24.76786
#
# Velocity S-wave (km/s) = 3.20387 3.49337 3.35175
# Velocity P-wave (km/s) = 4.64034 5.07755 4.86386
#
# Compressibility (1/GPa) = 0.05780798
#
# Stress axis : x y z
#
# Youngs Moduli (GPa) = 45.63183 76.04972 51.10100
#
# Poissons Ratio (x) = 0.06384 -0.32977
# Poissons Ratio (y) = 0.03831 0.20575
# Poissons Ratio (z) = -0.29448 0.30620
#
# Static dielectric constant tensor:
#      x y z
#    x 1.883020 0.000000 0.000000 
#    y 0.000000 1.848990 0.000000 
#    z 0.000000 0.000000 1.776020 
# 
# From -- ./inp_files/3196.got.cif
#   From: 2010.05.17/outbox.cif.g08.bks.cpg/sg19_2_cif.got.tgz:3196.got - 2010.06.03 22:46:19.
