data_PCOD9314502
_publ_section_title
;
Structure prediction by ZEFSAII (Michael W. Deem and Ramdas Pophale) SiO2 
 PCOD9314502
Probable space group: P 21 21 21
;
_chemical_formula_sum "Si O2"
_cell_formula_units_Z 28
_cell_length_a 11.883781
_cell_length_b 11.485795
_cell_length_c 9.129925
_cell_angle_alpha 90.000000
_cell_angle_beta 90.000000
_cell_angle_gamma 90.000000
_cell_volume 1246.186122
_symmetry_space_group_name_H-M "P 21 21 21"
_symmetry_group_IT_number 19
_symmetry_cell_setting 'orthorhombic'
loop_
_space_group_symop_operation_xyz
x,y,z
1/2-x,-y,1/2+z
1/2+x,1/2-y,-z
-x,1/2+y,1/2-z
loop_
_atom_site_type_symbol
_atom_site_label
_atom_site_fract_x
_atom_site_fract_y
_atom_site_fract_z
Si Si1 0.803586 0.014448 0.061573
Si Si2 0.011549 0.841690 0.422974
Si Si3 0.011667 0.113922 0.498643
Si Si4 0.174345 0.263863 0.302090
Si Si5 0.129230 0.418983 0.726040
Si Si6 0.437183 0.239773 0.242509
Si Si7 0.158243 0.710079 0.224971
O O1 0.831879 0.886046 0.113071
O O2 0.870994 0.106032 0.159702
O O3 0.676575 0.041128 0.115725
O O4 0.827748 0.014513 0.890072
O O5 0.035124 0.768548 0.570403
O O6 0.110218 0.822246 0.302865
O O7 0.900661 0.789883 0.342944
O O8 0.014354 0.977462 0.464102
O O9 0.993505 0.153159 0.667467
O O10 0.904896 0.177388 0.422050
O O11 0.115669 0.170627 0.409085
O O12 0.303600 0.235361 0.266208
O O13 0.209478 0.305287 0.703504
O O14 0.003936 0.376286 0.702103
#
# Coordination Sequence:
#
# PCOD9314502 Si02
#       7
#     4   4   4   4   4   4   4
#     4  10  21  42  76 107 139 194 251 301 366 451
#     4  11  26  48  71 104 152 194 246 307 388 447
#     4  11  24  51  71 106 148 194 249 312 376 459
#     4  11  25  48  72 109 150 192 249 312 379 455
#     4  10  23  41  72 111 142 188 247 309 364 445
#     4  12  28  42  72 115 147 189 255 314 369 453
#     4   9  23  42  74 102 140 195 243 301 364 452
#
# _framework density 22.468551999999999
#
# number of rings (size 3 to 8) (size 9 to 14) (size 15 to 20)
#    0.857    0.571    2.857    0.857   10.000    0.000 
#    2.571    2.857    0.000    0.000    0.000    0.000 
#    0.000    0.000    0.000    0.000    0.000    0.000 
#
# Total GULP energy -156250.622855 kJ/mol
# GULP energy per Si atom -5580.379388 kJ/mol
# Density = 2.241741 g / cm^3
# Si number density = 22.468552 Si / 1000 Ang^3
#
#
#
# Elastic Constant Matrix: (Units=GPa)
#
#
# Indices 1 2 3 4 5 6 
#
# 1 131.2558 33.1391 49.9386 0.0000 0.0000 0.0000
# 2 33.1391 79.0927 46.7272 0.0000 0.0000 0.0000
# 3 49.9386 46.7272 131.4840 0.0000 0.0000 0.0000
# 4 0.0000 0.0000 0.0000 41.4048 0.0000 0.0000
# 5 0.0000 0.0000 0.0000 0.0000 32.4861 0.0000
# 6 0.0000 0.0000 0.0000 0.0000 0.0000 25.3883
#
#
#
# Elastic Compliance Matrix: (Units=1/GPa)
#
#
# Indices 1 2 3 4 5 6 
#
# 1 0.009217 -0.002270 -0.002694 0.000000 0.000000 0.000000
# 2 -0.002270 0.016563 -0.005024 0.000000 0.000000 0.000000
# 3 -0.002694 -0.005024 0.010414 0.000000 0.000000 0.000000
# 4 0.000000 0.000000 0.000000 0.024152 0.000000 0.000000
# 5 0.000000 0.000000 0.000000 0.000000 0.030782 0.000000
# 6 0.000000 0.000000 0.000000 0.000000 0.000000 0.039388
#
#
# Mechanical properties :
#
#
# Convention : Reuss Voigt Hill
#
# Bulk Modulus (GPa) = 61.66120 66.82691 64.24406
# Shear Modulus (GPa) = 32.07238 33.99103 33.03171
#
# Velocity S-wave (km/s) = 3.78224 3.89373 3.83839
# Velocity P-wave (km/s) = 6.82471 7.07261 6.94977
#
# Compressibility (1/GPa) = 0.01621765
#
# Stress axis : x y z
#
# Youngs Moduli (GPa) = 108.49746 60.37686 96.02472
#
# Poissons Ratio (x) = 0.13707 0.25867
# Poissons Ratio (y) = 0.24632 0.48241
# Poissons Ratio (z) = 0.29227 0.30332
#
# Static dielectric constant tensor:
#      x y z
#    x 1.879270 0.000000 0.000000 
#    y 0.000000 1.869730 0.000000 
#    z 0.000000 0.000000 1.912650 
# 
# From -- ./inp_files/3554.got.cif
#   From: 2010.05.17/outbox.cif.g08.bks.cpg/sg19_2_cif.got.tgz:3554.got - 2010.06.03 22:46:19.
