data_PCOD9314229
_publ_section_title
;
Structure prediction by ZEFSAII (Michael W. Deem and Ramdas Pophale) SiO2 
 PCOD9314229
Probable space group: P 21 21 21
;
_chemical_formula_sum "Si O2"
_cell_formula_units_Z 32
_cell_length_a 11.275612
_cell_length_b 21.290122
_cell_length_c 5.348143
_cell_angle_alpha 90.000000
_cell_angle_beta 90.000000
_cell_angle_gamma 90.000000
_cell_volume 1283.870690
_symmetry_space_group_name_H-M "P 21 21 21"
_symmetry_group_IT_number 19
_symmetry_cell_setting 'orthorhombic'
loop_
_space_group_symop_operation_xyz
x,y,z
1/2-x,-y,1/2+z
1/2+x,1/2-y,-z
-x,1/2+y,1/2-z
loop_
_atom_site_type_symbol
_atom_site_label
_atom_site_fract_x
_atom_site_fract_y
_atom_site_fract_z
Si Si1 0.125764 0.692612 0.285849
Si Si2 0.821398 0.516883 0.337665
Si Si3 0.666051 0.143206 0.886553
Si Si4 0.153841 0.585680 0.964678
Si Si5 0.039110 0.899301 0.118520
Si Si6 0.366916 0.535035 0.258237
Si Si7 0.882774 0.663765 0.450595
Si Si8 0.241542 0.807401 0.037558
O O1 0.255027 0.679084 0.410421
O O2 0.155152 0.749587 0.104693
O O3 0.014877 0.694413 0.474203
O O4 0.080207 0.630439 0.138396
O O5 0.768054 0.491966 0.602866
O O6 0.921972 0.465650 0.260094
O O7 0.863575 0.588755 0.389271
O O8 0.648850 0.072851 0.988726
O O9 0.758399 0.134650 0.664713
O O10 0.533597 0.152145 0.784410
O O11 0.092054 0.536805 0.781217
O O12 0.240008 0.541215 0.124844
O O13 0.153326 0.865628 0.010013
O O14 0.954499 0.922087 0.899014
O O15 0.819130 0.677696 0.715226
O O16 0.817986 0.698981 0.215644
#
# Coordination Sequence:
#
# PCOD9314229 Si02
#       8
#     4   4   4   4   4   4   4   4
#     4  11  30  47  81 110 160 207 274 330 397 487
#     4  12  25  48  75 115 155 199 258 328 403 476
#     4  10  24  43  70 111 146 200 245 325 394 473
#     4  10  21  41  64 114 149 194 246 318 402 466
#     4  11  26  43  77 110 152 205 260 328 395 481
#     4  10  21  37  69 106 153 190 245 314 395 470
#     4  12  29  53  80 116 156 210 266 335 400 472
#     4  12  30  54  78 112 155 215 272 322 394 473
#
# _framework density 24.924630000000001
#
# number of rings (size 3 to 8) (size 9 to 14) (size 15 to 20)
#    0.000    1.000    3.750    0.000   12.250    2.000 
#    0.000    0.000    0.000    0.000    0.000    0.000 
#    0.000    0.000    0.000    0.000    0.000    0.000 
#
# Total GULP energy -178569.427274 kJ/mol
# GULP energy per Si atom -5580.294602 kJ/mol
# Density = 2.486790 g / cm^3
# Si number density = 24.924630 Si / 1000 Ang^3
#
#
#
# Elastic Constant Matrix: (Units=GPa)
#
#
# Indices 1 2 3 4 5 6 
#
# 1 69.3448 29.8195 12.2166 0.0000 0.0000 0.0000
# 2 29.8195 104.1459 22.0242 0.0000 0.0000 0.0000
# 3 12.2166 22.0242 67.7435 0.0000 0.0000 0.0000
# 4 0.0000 0.0000 0.0000 27.4043 0.0000 0.0000
# 5 0.0000 0.0000 0.0000 0.0000 21.0844 0.0000
# 6 0.0000 0.0000 0.0000 0.0000 0.0000 27.4330
#
#
#
# Elastic Compliance Matrix: (Units=1/GPa)
#
#
# Indices 1 2 3 4 5 6 
#
# 1 0.016597 -0.004423 -0.001555 0.000000 0.000000 0.000000
# 2 -0.004423 0.011490 -0.002938 0.000000 0.000000 0.000000
# 3 -0.001555 -0.002938 0.015997 0.000000 0.000000 0.000000
# 4 0.000000 0.000000 0.000000 0.036491 0.000000 0.000000
# 5 0.000000 0.000000 0.000000 0.000000 0.047428 0.000000
# 6 0.000000 0.000000 0.000000 0.000000 0.000000 0.036452
#
#
# Mechanical properties :
#
#
# Convention : Reuss Voigt Hill
#
# Bulk Modulus (GPa) = 38.09291 41.03942 39.56616
# Shear Modulus (GPa) = 26.17292 26.99595 26.58443
#
# Velocity S-wave (km/s) = 3.24401 3.29462 3.26942
# Velocity P-wave (km/s) = 5.41737 5.56542 5.49189
#
# Compressibility (1/GPa) = 0.02625160
#
# Stress axis : x y z
#
# Youngs Moduli (GPa) = 60.25304 87.03488 62.51146
#
# Poissons Ratio (x) = 0.38497 0.09720
# Poissons Ratio (y) = 0.26651 0.18364
# Poissons Ratio (z) = 0.09369 0.25569
#
# Static dielectric constant tensor:
#      x y z
#    x 2.228860 0.000000 0.000000 
#    y 0.000000 2.014100 0.000000 
#    z 0.000000 0.000000 2.106890 
# 
# From -- ./inp_files/1262.got.cif
#   From: 2010.05.17/outbox.cif.g08.bks.cpg/sg19_1_cif.got.tgz:1262.got - 2010.06.03 22:46:19.
