data_PCOD9314772
_publ_section_title
;
Structure prediction by ZEFSAII (Michael W. Deem and Ramdas Pophale) SiO2 
 PCOD9314772
Probable space group: P 21 21 21
;
_chemical_formula_sum "Si O2"
_cell_formula_units_Z 24
_cell_length_a 10.347584
_cell_length_b 20.234557
_cell_length_c 4.974857
_cell_angle_alpha 90.000000
_cell_angle_beta 90.000000
_cell_angle_gamma 90.000000
_cell_volume 1041.629481
_symmetry_space_group_name_H-M "P 21 21 21"
_symmetry_group_IT_number 19
_symmetry_cell_setting 'orthorhombic'
loop_
_space_group_symop_operation_xyz
x,y,z
1/2-x,-y,1/2+z
1/2+x,1/2-y,-z
-x,1/2+y,1/2-z
loop_
_atom_site_type_symbol
_atom_site_label
_atom_site_fract_x
_atom_site_fract_y
_atom_site_fract_z
Si Si1 0.174145 0.486152 0.175126
Si Si2 0.280832 0.912789 0.526581
Si Si3 0.091383 0.031829 0.524649
Si Si4 0.409510 0.658465 0.504271
Si Si5 0.202945 0.224322 0.738499
Si Si6 0.039123 0.783974 0.967914
O O1 0.293888 0.507791 0.988115
O O2 0.141329 0.411412 0.095778
O O3 0.053237 0.529679 0.080312
O O4 0.325473 0.919720 0.833248
O O5 0.269586 0.839136 0.418434
O O6 0.155938 0.959382 0.484699
O O7 0.387492 0.947056 0.331064
O O8 0.295681 0.707603 0.407253
O O9 0.505668 0.658956 0.247699
O O10 0.483853 0.693220 0.746926
O O11 0.310969 0.229385 0.509016
O O12 0.054945 0.224813 0.630340
#
# Coordination Sequence:
#
# PCOD9314772 Si02
#       6
#     4   4   4   4   4   4
#     4  12  25  45  68  96 140 187 221 283 342 411
#     4  10  22  41  71  94 131 170 235 281 333 386
#     4  10  23  42  64 101 126 179 228 281 330 408
#     4  10  25  43  66 100 135 185 230 272 350 411
#     4  10  25  43  71 100 138 181 223 289 337 411
#     4  10  24  42  68  99 140 180 223 282 342 409
#
# _framework density 23.040821000000001
#
# number of rings (size 3 to 8) (size 9 to 14) (size 15 to 20)
#    1.000    0.667    0.000    3.000    4.667    5.333 
#    6.000    0.000    0.000    0.000    0.000    0.000 
#    0.000    0.000    0.000    0.000    0.000    0.000 
#
# Total GULP energy -134191.998542 kJ/mol
# GULP energy per Si atom -5591.333273 kJ/mol
# Density = 2.298838 g / cm^3
# Si number density = 23.040821 Si / 1000 Ang^3
#
#
#
# Elastic Constant Matrix: (Units=GPa)
#
#
# Indices 1 2 3 4 5 6 
#
# 1 64.3540 16.7336 -3.7938 0.0000 0.0000 0.0000
# 2 16.7336 72.3077 -3.0138 0.0000 0.0000 0.0000
# 3 -3.7938 -3.0138 76.9489 0.0000 0.0000 0.0000
# 4 0.0000 0.0000 0.0000 21.4294 0.0000 0.0000
# 5 0.0000 0.0000 0.0000 0.0000 40.5976 0.0000
# 6 0.0000 0.0000 0.0000 0.0000 0.0000 18.5988
#
#
#
# Elastic Compliance Matrix: (Units=1/GPa)
#
#
# Indices 1 2 3 4 5 6 
#
# 1 0.016568 -0.003806 0.000668 0.000000 0.000000 0.000000
# 2 -0.003806 0.014727 0.000389 0.000000 0.000000 0.000000
# 3 0.000668 0.000389 0.013044 0.000000 0.000000 0.000000
# 4 0.000000 0.000000 0.000000 0.046665 0.000000 0.000000
# 5 0.000000 0.000000 0.000000 0.000000 0.024632 0.000000
# 6 0.000000 0.000000 0.000000 0.000000 0.000000 0.053767
#
#
# Mechanical properties :
#
#
# Convention : Reuss Voigt Hill
#
# Bulk Modulus (GPa) = 25.74676 25.94030 25.84353
# Shear Modulus (GPa) = 26.61723 29.70412 28.16067
#
# Velocity S-wave (km/s) = 3.40254 3.59443 3.49980
# Velocity P-wave (km/s) = 5.16092 5.33942 5.25093
#
# Compressibility (1/GPa) = 0.03883984
#
# Stress axis : x y z
#
# Youngs Moduli (GPa) = 60.35664 67.90296 76.66474
#
# Poissons Ratio (x) = 0.25847 -0.05119
# Poissons Ratio (y) = 0.22974 -0.02983
# Poissons Ratio (z) = -0.04030 -0.02642
#
# Static dielectric constant tensor:
#      x y z
#    x 1.898070 0.000000 0.000000 
#    y 0.000000 1.853250 0.000000 
#    z 0.000000 0.000000 1.822420 
# 
# From -- ./inp_files/1013.got.cif
#   From: 2010.05.17/outbox.cif.g08.bks.cpg/sg19_1_cif.got.tgz:1013.got - 2010.06.03 22:46:19.
