data_PCOD9314564
_publ_section_title
;
Structure prediction by ZEFSAII (Michael W. Deem and Ramdas Pophale) SiO2 
 PCOD9314564
Probable space group: P 21 21 21
;
_chemical_formula_sum "Si O2"
_cell_formula_units_Z 28
_cell_length_a 7.343540
_cell_length_b 13.648508
_cell_length_c 10.668125
_cell_angle_alpha 90.000000
_cell_angle_beta 90.000000
_cell_angle_gamma 90.000000
_cell_volume 1069.248720
_symmetry_space_group_name_H-M "P 21 21 21"
_symmetry_group_IT_number 19
_symmetry_cell_setting 'orthorhombic'
loop_
_space_group_symop_operation_xyz
x,y,z
1/2-x,-y,1/2+z
1/2+x,1/2-y,-z
-x,1/2+y,1/2-z
loop_
_atom_site_type_symbol
_atom_site_label
_atom_site_fract_x
_atom_site_fract_y
_atom_site_fract_z
Si Si1 0.774356 0.093415 0.684129
Si Si2 0.077681 0.383516 0.765879
Si Si3 0.837378 0.260887 0.133312
Si Si4 0.851556 0.471520 0.056601
Si Si5 0.185254 0.208985 0.237101
Si Si6 0.107188 0.632049 0.070667
Si Si7 0.854551 0.429381 0.328109
O O1 0.739005 0.176961 0.785656
O O2 0.862042 0.158006 0.572741
O O3 0.570436 0.058535 0.649693
O O4 0.894832 0.999423 0.712951
O O5 0.176290 0.316216 0.870762
O O6 0.204698 0.362884 0.645002
O O7 0.703678 0.513701 0.701872
O O8 0.874186 0.346249 0.758975
O O9 0.839245 0.354313 0.041902
O O10 0.825234 0.320134 0.269979
O O11 0.022034 0.197010 0.136508
O O12 0.053395 0.516633 0.061266
O O13 0.745799 0.532018 0.950886
O O14 0.065935 0.183352 0.363214
#
# Coordination Sequence:
#
# PCOD9314564 Si02
#       7
#     4   4   4   4   4   4   4
#     4  11  25  47  70 112 154 195 263 341 392 481
#     4  11  23  48  75 106 145 212 258 321 406 469
#     4   8  21  45  71 111 159 195 263 318 394 489
#     4  10  21  45  75 116 158 205 257 336 402 476
#     4  10  24  42  72 107 153 198 256 330 399 469
#     4  11  25  41  70 108 149 195 264 318 393 476
#     4   9  21  44  75 114 162 204 259 334 400 472
#
# _framework density 26.186610000000002
#
# number of rings (size 3 to 8) (size 9 to 14) (size 15 to 20)
#    0.857    1.143    1.429    0.000    6.000    3.429 
#    2.571    1.429    3.143    0.000    0.000    0.000 
#    0.000    0.000    0.000    0.000    0.000    0.000 
#
# Total GULP energy -156216.520098 kJ/mol
# GULP energy per Si atom -5579.161432 kJ/mol
# Density = 2.612701 g / cm^3
# Si number density = 26.186610 Si / 1000 Ang^3
#
#
#
# Elastic Constant Matrix: (Units=GPa)
#
#
# Indices 1 2 3 4 5 6 
#
# 1 200.7699 67.6641 56.6332 0.0000 0.0000 0.0000
# 2 67.6641 107.2799 4.4626 0.0000 0.0000 0.0000
# 3 56.6332 4.4626 79.6805 0.0000 0.0000 0.0000
# 4 0.0000 0.0000 0.0000 26.6501 0.0000 0.0000
# 5 0.0000 0.0000 0.0000 0.0000 37.4316 0.0000
# 6 0.0000 0.0000 0.0000 0.0000 0.0000 44.1674
#
#
#
# Elastic Compliance Matrix: (Units=1/GPa)
#
#
# Indices 1 2 3 4 5 6 
#
# 1 0.008220 -0.004953 -0.005565 0.000000 0.000000 0.000000
# 2 -0.004953 0.012328 0.002830 0.000000 0.000000 0.000000
# 3 -0.005565 0.002830 0.016347 0.000000 0.000000 0.000000
# 4 0.000000 0.000000 0.000000 0.037523 0.000000 0.000000
# 5 0.000000 0.000000 0.000000 0.000000 0.026715 0.000000
# 6 0.000000 0.000000 0.000000 0.000000 0.000000 0.022641
#
#
# Mechanical properties :
#
#
# Convention : Reuss Voigt Hill
#
# Bulk Modulus (GPa) = 46.47163 71.69446 59.08305
# Shear Modulus (GPa) = 34.17101 38.91452 36.54277
#
# Velocity S-wave (km/s) = 3.61626 3.85911 3.73966
# Velocity P-wave (km/s) = 5.93476 6.87711 6.42324
#
# Compressibility (1/GPa) = 0.02151851
#
# Stress axis : x y z
#
# Youngs Moduli (GPa) = 121.65704 81.11846 61.17374
#
# Poissons Ratio (x) = 0.40178 0.34042
# Poissons Ratio (y) = 0.60256 -0.17312
# Poissons Ratio (z) = 0.67701 -0.22956
#
# Static dielectric constant tensor:
#      x y z
#    x 2.066320 0.000000 0.000000 
#    y 0.000000 2.170410 0.000000 
#    z 0.000000 0.000000 2.293930 
# 
# From -- ./inp_files/1858.got.cif
#   From: 2010.05.17/outbox.cif.g08.bks.cpg/sg19_1_cif.got.tgz:1858.got - 2010.06.03 22:46:19.
