data_PCOD9314893
_publ_section_title
;
Structure prediction by ZEFSAII (Michael W. Deem and Ramdas Pophale) SiO2 
 PCOD9314893
Probable space group: P 21 21 21
;
_chemical_formula_sum "Si O2"
_cell_formula_units_Z 28
_cell_length_a 10.293863
_cell_length_b 7.502764
_cell_length_c 14.070676
_cell_angle_alpha 90.000000
_cell_angle_beta 90.000000
_cell_angle_gamma 90.000000
_cell_volume 1086.712425
_symmetry_space_group_name_H-M "P 21 21 21"
_symmetry_group_IT_number 19
_symmetry_cell_setting 'orthorhombic'
loop_
_space_group_symop_operation_xyz
x,y,z
1/2-x,-y,1/2+z
1/2+x,1/2-y,-z
-x,1/2+y,1/2-z
loop_
_atom_site_type_symbol
_atom_site_label
_atom_site_fract_x
_atom_site_fract_y
_atom_site_fract_z
Si Si1 0.057565 0.052343 0.901622
Si Si2 0.046663 0.331218 0.765429
Si Si3 0.728946 0.691485 0.841821
Si Si4 0.244726 0.527743 0.878914
Si Si5 0.979443 0.576661 0.378567
Si Si6 0.820212 0.585677 0.051665
Si Si7 0.386451 0.541933 0.579573
O O1 0.990323 0.228629 0.857099
O O2 0.213064 0.056550 0.914761
O O3 0.023906 0.893416 0.829406
O O4 0.010087 0.020054 0.009363
O O5 0.154450 0.188065 0.731459
O O6 0.126723 0.498569 0.806674
O O7 0.604855 0.568537 0.822505
O O8 0.686295 0.894564 0.858631
O O9 0.786620 0.623694 0.941988
O O10 0.372019 0.418750 0.847137
O O11 0.290772 0.730485 0.892877
O O12 0.189864 0.458529 0.979828
O O13 0.096694 0.262608 0.122779
O O14 0.967219 0.527100 0.062962
#
# Coordination Sequence:
#
# PCOD9314893 Si02
#       7
#     4   4   4   4   4   4   4
#     4  11  24  43  69 102 139 182 230 285 357 416
#     4  12  25  45  66 108 144 177 229 304 363 409
#     4  10  25  43  67 101 139 183 232 288 355 412
#     4  11  23  44  70 100 141 181 234 290 356 417
#     4  11  23  47  72  98 133 192 242 278 341 443
#     4  10  22  43  71  97 135 187 233 284 332 434
#     4  11  22  43  73 100 131 186 238 283 340 429
#
# _framework density 25.765784
#
# number of rings (size 3 to 8) (size 9 to 14) (size 15 to 20)
#    0.000    1.143    2.857    3.429    8.000    0.000 
#   10.286    0.000    0.000    0.000    0.000    0.000 
#    0.000    0.000    0.000    0.000    0.000    0.000 
#
# Total GULP energy -156919.999739 kJ/mol
# GULP energy per Si atom -5604.285705 kJ/mol
# Density = 2.570714 g / cm^3
# Si number density = 25.765784 Si / 1000 Ang^3
#
#
#
# Elastic Constant Matrix: (Units=GPa)
#
#
# Indices 1 2 3 4 5 6 
#
# 1 76.8415 -1.2098 16.4977 0.0000 0.0000 0.0000
# 2 -1.2098 106.9007 11.5556 0.0000 0.0000 0.0000
# 3 16.4977 11.5556 74.1083 0.0000 0.0000 0.0000
# 4 0.0000 0.0000 0.0000 21.8976 0.0000 0.0000
# 5 0.0000 0.0000 0.0000 0.0000 26.0517 0.0000
# 6 0.0000 0.0000 0.0000 0.0000 0.0000 38.9651
#
#
#
# Elastic Compliance Matrix: (Units=1/GPa)
#
#
# Indices 1 2 3 4 5 6 
#
# 1 0.013692 0.000493 -0.003125 0.000000 0.000000 0.000000
# 2 0.000493 0.009533 -0.001596 0.000000 0.000000 0.000000
# 3 -0.003125 -0.001596 0.014438 0.000000 0.000000 0.000000
# 4 0.000000 0.000000 0.000000 0.045667 0.000000 0.000000
# 5 0.000000 0.000000 0.000000 0.000000 0.038385 0.000000
# 6 0.000000 0.000000 0.000000 0.000000 0.000000 0.025664
#
#
# Mechanical properties :
#
#
# Convention : Reuss Voigt Hill
#
# Bulk Modulus (GPa) = 34.23870 34.61527 34.42699
# Shear Modulus (GPa) = 30.19835 32.78334 31.49085
#
# Velocity S-wave (km/s) = 3.42721 3.57088 3.49979
# Velocity P-wave (km/s) = 5.38315 5.51955 5.45177
#
# Compressibility (1/GPa) = 0.02920671
#
# Stress axis : x y z
#
# Youngs Moduli (GPa) = 73.03276 104.90334 69.26016
#
# Poissons Ratio (x) = -0.05169 0.21644
# Poissons Ratio (y) = -0.03599 0.11055
# Poissons Ratio (z) = 0.22823 0.16744
#
# Static dielectric constant tensor:
#      x y z
#    x 1.988670 0.000000 0.000000 
#    y 0.000000 2.066510 0.000000 
#    z 0.000000 0.000000 2.000480 
# 
# From -- ./inp_files/4936.got.cif
#   From: 2010.05.17/outbox.cif.g08.bks.cpg/sg19_3_cif.got.tgz:4936.got - 2010.06.03 22:46:19.
