data_PCOD9314487
_publ_section_title
;
Structure prediction by ZEFSAII (Michael W. Deem and Ramdas Pophale) SiO2 
 PCOD9314487
Probable space group: P 21 21 21
;
_chemical_formula_sum "Si O2"
_cell_formula_units_Z 32
_cell_length_a 9.131005
_cell_length_b 5.013005
_cell_length_c 27.248457
_cell_angle_alpha 90.000000
_cell_angle_beta 90.000000
_cell_angle_gamma 90.000000
_cell_volume 1247.264705
_symmetry_space_group_name_H-M "P 21 21 21"
_symmetry_group_IT_number 19
_symmetry_cell_setting 'orthorhombic'
loop_
_space_group_symop_operation_xyz
x,y,z
1/2-x,-y,1/2+z
1/2+x,1/2-y,-z
-x,1/2+y,1/2-z
loop_
_atom_site_type_symbol
_atom_site_label
_atom_site_fract_x
_atom_site_fract_y
_atom_site_fract_z
Si Si1 0.964350 0.548586 0.562076
Si Si2 0.420400 0.457242 0.770463
Si Si3 0.478546 0.660354 0.635253
Si Si4 0.345395 0.181962 0.147878
Si Si5 0.114256 0.325855 0.032378
Si Si6 0.752356 0.338906 0.635766
Si Si7 0.632661 0.157434 0.191890
Si Si8 0.790794 0.663189 0.939843
O O1 0.943215 0.769427 0.521148
O O2 0.814485 0.433397 0.583597
O O3 0.062718 0.307077 0.542532
O O4 0.053288 0.661939 0.608675
O O5 0.486780 0.746123 0.761029
O O6 0.450893 0.357608 0.825474
O O7 0.244638 0.428856 0.764846
O O8 0.484075 0.759115 0.579052
O O9 0.579446 0.397852 0.636325
O O10 0.308139 0.662012 0.651899
O O11 0.455772 0.139958 0.193522
O O12 0.305636 0.910747 0.118084
O O13 0.167525 0.619749 0.046711
O O14 0.247701 0.115103 0.036026
O O15 0.820947 0.054310 0.649150
O O16 0.819793 0.544982 0.676137
#
# Coordination Sequence:
#
# PCOD9314487 Si02
#       8
#     4   4   4   4   4   4   4   4
#     4  11  23  44  63  97 137 191 229 288 333 407
#     4  11  24  45  70  96 135 171 222 289 363 437
#     4  10  23  44  65 103 128 178 225 292 346 413
#     4  10  22  44  71  99 140 184 235 293 346 415
#     4  11  27  38  64  95 140 176 238 277 345 394
#     4  10  22  37  65  95 132 175 226 265 342 407
#     4  10  21  42  67  98 129 176 219 275 348 418
#     4  11  22  42  59  93 131 185 224 287 329 391
#
# _framework density 25.656141000000002
#
# number of rings (size 3 to 8) (size 9 to 14) (size 15 to 20)
#    0.000    1.500    3.750    1.500    3.500    6.000 
#    2.250    1.250    0.000    0.000    0.000    0.000 
#    0.000    0.000    0.000    0.000    0.000    0.000 
#
# Total GULP energy -178794.622300 kJ/mol
# GULP energy per Si atom -5587.331947 kJ/mol
# Density = 2.559775 g / cm^3
# Si number density = 25.656141 Si / 1000 Ang^3
#
#
#
# Elastic Constant Matrix: (Units=GPa)
#
#
# Indices 1 2 3 4 5 6 
#
# 1 136.5917 31.7659 2.8059 0.0000 0.0000 0.0000
# 2 31.7659 84.6845 -4.4808 0.0000 0.0000 0.0000
# 3 2.8059 -4.4808 36.9455 0.0000 0.0000 0.0000
# 4 0.0000 0.0000 0.0000 26.2466 0.0000 0.0000
# 5 0.0000 0.0000 0.0000 0.0000 34.3646 0.0000
# 6 0.0000 0.0000 0.0000 0.0000 0.0000 36.8945
#
#
#
# Elastic Compliance Matrix: (Units=1/GPa)
#
#
# Indices 1 2 3 4 5 6 
#
# 1 0.008056 -0.003074 -0.000985 0.000000 0.000000 0.000000
# 2 -0.003074 0.013058 0.001817 0.000000 0.000000 0.000000
# 3 -0.000985 0.001817 0.027362 0.000000 0.000000 0.000000
# 4 0.000000 0.000000 0.000000 0.038100 0.000000 0.000000
# 5 0.000000 0.000000 0.000000 0.000000 0.029100 0.000000
# 6 0.000000 0.000000 0.000000 0.000000 0.000000 0.027104
#
#
# Mechanical properties :
#
#
# Convention : Reuss Voigt Hill
#
# Bulk Modulus (GPa) = 22.73095 35.37818 29.05456
# Shear Modulus (GPa) = 30.87798 34.70987 32.79392
#
# Velocity S-wave (km/s) = 3.47296 3.68215 3.57908
# Velocity P-wave (km/s) = 4.99610 5.64774 5.33188
#
# Compressibility (1/GPa) = 0.04399289
#
# Stress axis : x y z
#
# Youngs Moduli (GPa) = 124.12772 76.58264 36.54695
#
# Poissons Ratio (x) = 0.23542 0.03599
# Poissons Ratio (y) = 0.38158 -0.06641
# Poissons Ratio (z) = 0.12222 -0.13916
#
# Static dielectric constant tensor:
#      x y z
#    x 2.162740 0.000000 0.000000 
#    y 0.000000 1.993570 0.000000 
#    z 0.000000 0.000000 2.097330 
# 
# From -- ./inp_files/7601.got.cif
#   From: 2010.05.17/outbox.cif.g08.bks.cpg/sg19_4_cif.got.tgz:7601.got - 2010.06.03 22:46:19.
