data_PCOD9314793
_publ_section_title
;
Structure prediction by ZEFSAII (Michael W. Deem and Ramdas Pophale) SiO2 
 PCOD9314793
Probable space group: P 21 21 21
;
_chemical_formula_sum "Si O2"
_cell_formula_units_Z 24
_cell_length_a 8.199145
_cell_length_b 7.503909
_cell_length_c 14.459825
_cell_angle_alpha 90.000000
_cell_angle_beta 90.000000
_cell_angle_gamma 90.000000
_cell_volume 889.649958
_symmetry_space_group_name_H-M "P 21 21 21"
_symmetry_group_IT_number 19
_symmetry_cell_setting 'orthorhombic'
loop_
_space_group_symop_operation_xyz
x,y,z
1/2-x,-y,1/2+z
1/2+x,1/2-y,-z
-x,1/2+y,1/2-z
loop_
_atom_site_type_symbol
_atom_site_label
_atom_site_fract_x
_atom_site_fract_y
_atom_site_fract_z
Si Si1 0.090288 0.145104 0.471380
Si Si2 0.587450 0.685375 0.802942
Si Si3 0.909569 0.237749 0.634453
Si Si4 0.929512 0.231204 0.975413
Si Si5 0.779302 0.844397 0.634694
Si Si6 0.226681 0.205869 0.195246
O O1 0.958322 0.209567 0.395659
O O2 0.065799 0.247256 0.568905
O O3 0.262889 0.183575 0.426248
O O4 0.069811 0.935777 0.489353
O O5 0.713846 0.772901 0.731267
O O6 0.415452 0.683056 0.745979
O O7 0.655170 0.489566 0.821372
O O8 0.881517 0.314790 0.735773
O O9 0.872996 0.028439 0.646053
O O10 0.789828 0.209744 0.898496
O O11 0.099387 0.210385 0.920671
O O12 0.873469 0.122493 0.064939
#
# Coordination Sequence:
#
# PCOD9314793 Si02
#       6
#     4   4   4   4   4   4
#     4  10  22  42  64  91 128 170 218 271 331 396
#     4  11  22  40  67  93 128 175 220 274 335 396
#     4  10  23  39  61  92 125 165 214 269 330 394
#     4  11  25  43  65  97 134 174 224 275 332 400
#     4  11  24  40  63  95 128 170 217 273 333 393
#     4  11  24  42  66  96 131 174 223 272 333 399
#
# _framework density 26.976901000000002
#
# number of rings (size 3 to 8) (size 9 to 14) (size 15 to 20)
#    0.000    1.333    0.000    6.000    0.000   12.000 
#    0.000    0.000    0.000    0.000    0.000    0.000 
#    0.000    0.000    0.000    0.000    0.000    0.000 
#
# Total GULP energy -134686.132511 kJ/mol
# GULP energy per Si atom -5611.922188 kJ/mol
# Density = 2.691550 g / cm^3
# Si number density = 26.976901 Si / 1000 Ang^3
#
#
#
# Elastic Constant Matrix: (Units=GPa)
#
#
# Indices 1 2 3 4 5 6 
#
# 1 83.6553 33.9931 31.9169 0.0000 0.0000 0.0000
# 2 33.9931 56.6765 22.0079 0.0000 0.0000 0.0000
# 3 31.9169 22.0079 137.3218 0.0000 0.0000 0.0000
# 4 0.0000 0.0000 0.0000 34.2274 0.0000 0.0000
# 5 0.0000 0.0000 0.0000 0.0000 74.0298 0.0000
# 6 0.0000 0.0000 0.0000 0.0000 0.0000 29.3018
#
#
#
# Elastic Compliance Matrix: (Units=1/GPa)
#
#
# Indices 1 2 3 4 5 6 
#
# 1 0.016516 -0.008974 -0.002401 0.000000 0.000000 0.000000
# 2 -0.008974 0.023691 -0.001711 0.000000 0.000000 0.000000
# 3 -0.002401 -0.001711 0.008114 0.000000 0.000000 0.000000
# 4 0.000000 0.000000 0.000000 0.029216 0.000000 0.000000
# 5 0.000000 0.000000 0.000000 0.000000 0.013508 0.000000
# 6 0.000000 0.000000 0.000000 0.000000 0.000000 0.034128
#
#
# Mechanical properties :
#
#
# Convention : Reuss Voigt Hill
#
# Bulk Modulus (GPa) = 45.14613 50.38771 47.76692
# Shear Modulus (GPa) = 31.50049 40.16084 35.83067
#
# Velocity S-wave (km/s) = 3.42085 3.86257 3.64840
# Velocity P-wave (km/s) = 5.68985 6.21379 5.95758
#
# Compressibility (1/GPa) = 0.02215030
#
# Stress axis : x y z
#
# Youngs Moduli (GPa) = 60.54657 42.21068 123.23860
#
# Poissons Ratio (x) = 0.37879 0.29584
# Poissons Ratio (y) = 0.54334 0.21087
# Poissons Ratio (z) = 0.14535 0.07222
#
# Static dielectric constant tensor:
#      x y z
#    x 2.182020 0.000000 0.000000 
#    y 0.000000 2.070920 0.000000 
#    z 0.000000 0.000000 2.089520 
# 
# From -- ./inp_files/5824.got.cif
#   From: 2010.05.17/outbox.cif.g08.bks.cpg/sg19_3_cif.got.tgz:5824.got - 2010.06.03 22:46:19.
