data_PCOD9314387
_publ_section_title
;
Structure prediction by ZEFSAII (Michael W. Deem and Ramdas Pophale) SiO2 
 PCOD9314387
Probable space group: P 21 21 21
;
_chemical_formula_sum "Si O2"
_cell_formula_units_Z 32
_cell_length_a 12.379160
_cell_length_b 7.717569
_cell_length_c 12.253678
_cell_angle_alpha 90.000000
_cell_angle_beta 90.000000
_cell_angle_gamma 90.000000
_cell_volume 1170.679898
_symmetry_space_group_name_H-M "P 21 21 21"
_symmetry_group_IT_number 19
_symmetry_cell_setting 'orthorhombic'
loop_
_space_group_symop_operation_xyz
x,y,z
1/2-x,-y,1/2+z
1/2+x,1/2-y,-z
-x,1/2+y,1/2-z
loop_
_atom_site_type_symbol
_atom_site_label
_atom_site_fract_x
_atom_site_fract_y
_atom_site_fract_z
Si Si1 0.729396 0.240281 0.289664
Si Si2 0.265725 0.998847 0.535592
Si Si3 0.042535 0.982212 0.403966
Si Si4 0.694229 0.402044 0.740547
Si Si5 0.989792 0.326436 0.773488
Si Si6 0.924551 0.119890 0.588295
Si Si7 0.809236 0.968873 0.130344
Si Si8 0.999756 0.123335 0.992945
O O1 0.757021 0.309945 0.409827
O O2 0.736448 0.421429 0.223096
O O3 0.608829 0.171649 0.279646
O O4 0.807272 0.101955 0.232623
O O5 0.161609 0.975501 0.461354
O O6 0.265016 0.864406 0.637336
O O7 0.386149 0.972549 0.493936
O O8 0.990897 0.798314 0.433148
O O9 0.072450 0.019727 0.278683
O O10 0.976100 0.127949 0.469131
O O11 0.685466 0.226608 0.673460
O O12 0.988678 0.502836 0.843072
O O13 0.912488 0.278190 0.673179
O O14 0.978361 0.185286 0.869537
O O15 0.812055 0.017335 0.581484
O O16 0.901025 0.017797 0.044777
#
# Coordination Sequence:
#
# PCOD9314387 Si02
#       8
#     4   4   4   4   4   4   4   4
#     4   9  20  45  67  91 138 171 233 280 343 402
#     4  10  23  43  70  98 134 191 225 287 357 405
#     4  11  22  44  71  98 140 186 235 287 352 425
#     4  10  23  42  70  94 135 184 220 281 352 419
#     4  10  21  40  67  95 132 186 222 298 339 411
#     4  10  23  39  70 100 136 177 235 292 346 413
#     4  11  24  43  65 107 134 179 234 291 347 419
#     4  11  24  40  68 101 141 180 234 284 352 418
#
# _framework density 27.334543
#
# number of rings (size 3 to 8) (size 9 to 14) (size 15 to 20)
#    0.750    1.000    2.500    0.750    8.750    3.000 
#    2.250    1.250    0.000    0.000    0.000    0.000 
#    0.000    0.000    0.000    0.000    0.000    0.000 
#
# Total GULP energy -178930.683865 kJ/mol
# GULP energy per Si atom -5591.583871 kJ/mol
# Density = 2.727233 g / cm^3
# Si number density = 27.334543 Si / 1000 Ang^3
#
#
#
# Elastic Constant Matrix: (Units=GPa)
#
#
# Indices 1 2 3 4 5 6 
#
# 1 86.2892 7.6068 -1.1486 0.0000 0.0000 0.0000
# 2 7.6068 110.8651 10.2094 0.0000 0.0000 0.0000
# 3 -1.1486 10.2094 48.3997 0.0000 0.0000 0.0000
# 4 0.0000 0.0000 0.0000 52.7445 0.0000 0.0000
# 5 0.0000 0.0000 0.0000 0.0000 34.4488 0.0000
# 6 0.0000 0.0000 0.0000 0.0000 0.0000 33.6242
#
#
#
# Elastic Compliance Matrix: (Units=1/GPa)
#
#
# Indices 1 2 3 4 5 6 
#
# 1 0.011669 -0.000843 0.000455 0.000000 0.000000 0.000000
# 2 -0.000843 0.009259 -0.001973 0.000000 0.000000 0.000000
# 3 0.000455 -0.001973 0.021088 0.000000 0.000000 0.000000
# 4 0.000000 0.000000 0.000000 0.018959 0.000000 0.000000
# 5 0.000000 0.000000 0.000000 0.000000 0.029029 0.000000
# 6 0.000000 0.000000 0.000000 0.000000 0.000000 0.029741
#
#
# Mechanical properties :
#
#
# Convention : Reuss Voigt Hill
#
# Bulk Modulus (GPa) = 26.81332 30.98770 28.90051
# Shear Modulus (GPa) = 36.52321 39.42258 37.97289
#
# Velocity S-wave (km/s) = 3.65931 3.80178 3.73123
# Velocity P-wave (km/s) = 5.26163 5.53466 5.39987
#
# Compressibility (1/GPa) = 0.03729490
#
# Stress axis : x y z
#
# Youngs Moduli (GPa) = 85.69519 107.99733 47.41969
#
# Poissons Ratio (x) = 0.09099 -0.02156
# Poissons Ratio (y) = 0.07220 0.09357
# Poissons Ratio (z) = -0.03896 0.21310
#
# Static dielectric constant tensor:
#      x y z
#    x 2.102130 0.000000 0.000000 
#    y 0.000000 2.177920 0.000000 
#    z 0.000000 0.000000 2.284060 
# 
# From -- ./inp_files/6183.got.cif
#   From: 2010.05.17/outbox.cif.g08.bks.cpg/sg19_4_cif.got.tgz:6183.got - 2010.06.03 22:46:19.
