data_PCOD9314966
_publ_section_title
;
Structure prediction by ZEFSAII (Michael W. Deem and Ramdas Pophale) SiO2 
 PCOD9314966
Probable space group: P 21 21 21
;
_chemical_formula_sum "Si O2"
_cell_formula_units_Z 32
_cell_length_a 11.970224
_cell_length_b 19.528091
_cell_length_c 5.384270
_cell_angle_alpha 90.000000
_cell_angle_beta 90.000000
_cell_angle_gamma 90.000000
_cell_volume 1258.603391
_symmetry_space_group_name_H-M "P 21 21 21"
_symmetry_group_IT_number 19
_symmetry_cell_setting 'orthorhombic'
loop_
_space_group_symop_operation_xyz
x,y,z
1/2-x,-y,1/2+z
1/2+x,1/2-y,-z
-x,1/2+y,1/2-z
loop_
_atom_site_type_symbol
_atom_site_label
_atom_site_fract_x
_atom_site_fract_y
_atom_site_fract_z
Si Si1 0.035592 0.065459 0.520925
Si Si2 0.740651 0.376700 0.648185
Si Si3 0.753020 0.836987 0.655012
Si Si4 0.031892 0.657264 0.604956
Si Si5 0.645885 0.577406 0.625062
Si Si6 0.127868 0.752955 0.993146
Si Si7 0.224069 0.539513 0.052694
Si Si8 0.466085 0.697721 0.639255
O O1 0.107709 0.124440 0.385365
O O2 0.041332 0.093343 0.805666
O O3 0.907086 0.051852 0.476556
O O4 0.095045 0.997125 0.423377
O O5 0.768471 0.414888 0.899509
O O6 0.798348 0.303009 0.670613
O O7 0.798191 0.408558 0.396227
O O8 0.636412 0.866918 0.555050
O O9 0.710306 0.766742 0.780488
O O10 0.790097 0.891955 0.861072
O O11 0.844003 0.825601 0.443847
O O12 0.983159 0.728331 0.496669
O O13 0.092731 0.685362 0.853211
O O14 0.550611 0.635311 0.575007
O O15 0.011859 0.786585 0.084353
O O16 0.238062 0.488111 0.285344
#
# Coordination Sequence:
#
# PCOD9314966 Si02
#       8
#     4   4   4   4   4   4   4   4
#     4  12  26  46  75 106 142 197 244 308 370 430
#     4  11  25  47  74 105 147 189 247 308 367 442
#     4  11  24  43  71 101 142 191 247 304 364 451
#     4  11  23  46  67 105 144 183 254 305 368 442
#     4  11  25  46  70 106 147 189 246 301 367 445
#     4  10  22  46  67 105 140 186 250 309 364 442
#     4  12  28  49  70 105 151 194 247 301 362 448
#     4  10  23  43  70  99 143 195 233 302 380 434
#
# _framework density 25.425004000000001
#
# number of rings (size 3 to 8) (size 9 to 14) (size 15 to 20)
#    0.000    1.000    2.500    3.000    0.000    7.000 
#    0.000    0.000    0.000    0.000    0.000    0.000 
#    0.000    0.000    0.000    0.000    0.000    0.000 
#
# Total GULP energy -178868.942334 kJ/mol
# GULP energy per Si atom -5589.654448 kJ/mol
# Density = 2.536714 g / cm^3
# Si number density = 25.425004 Si / 1000 Ang^3
#
#
#
# Elastic Constant Matrix: (Units=GPa)
#
#
# Indices 1 2 3 4 5 6 
#
# 1 60.1006 24.3814 12.7445 0.0000 0.0000 0.0000
# 2 24.3814 102.5387 26.5692 0.0000 0.0000 0.0000
# 3 12.7445 26.5692 89.3509 0.0000 0.0000 0.0000
# 4 0.0000 0.0000 0.0000 43.3608 0.0000 0.0000
# 5 0.0000 0.0000 0.0000 0.0000 19.6564 0.0000
# 6 0.0000 0.0000 0.0000 0.0000 0.0000 28.5709
#
#
#
# Elastic Compliance Matrix: (Units=1/GPa)
#
#
# Indices 1 2 3 4 5 6 
#
# 1 0.018587 -0.004044 -0.001449 0.000000 0.000000 0.000000
# 2 -0.004044 0.011447 -0.002827 0.000000 0.000000 0.000000
# 3 -0.001449 -0.002827 0.012239 0.000000 0.000000 0.000000
# 4 0.000000 0.000000 0.000000 0.023062 0.000000 0.000000
# 5 0.000000 0.000000 0.000000 0.000000 0.050874 0.000000
# 6 0.000000 0.000000 0.000000 0.000000 0.000000 0.035001
#
#
# Mechanical properties :
#
#
# Convention : Reuss Voigt Hill
#
# Bulk Modulus (GPa) = 39.01221 42.15339 40.58280
# Shear Modulus (GPa) = 28.34589 30.87062 29.60826
#
# Velocity S-wave (km/s) = 3.34261 3.48829 3.41623
# Velocity P-wave (km/s) = 5.50225 5.73060 5.61758
#
# Compressibility (1/GPa) = 0.02563300
#
# Stress axis : x y z
#
# Youngs Moduli (GPa) = 53.80239 87.36286 81.70585
#
# Poissons Ratio (x) = 0.35331 0.11835
# Poissons Ratio (y) = 0.21758 0.23097
# Poissons Ratio (z) = 0.07793 0.24696
#
# Static dielectric constant tensor:
#      x y z
#    x 1.959900 0.000000 0.000000 
#    y 0.000000 2.032720 0.000000 
#    z 0.000000 0.000000 2.072830 
# 
# From -- ./inp_files/1204.got.cif
#   From: 2010.05.17/outbox.cif.g08.bks.cpg/sg19_1_cif.got.tgz:1204.got - 2010.06.03 22:46:19.
