data_PCOD9314181
_publ_section_title
;
Structure prediction by ZEFSAII (Michael W. Deem and Ramdas Pophale) SiO2 
 PCOD9314181
Probable space group: P 21 21 21
;
_chemical_formula_sum "Si O2"
_cell_formula_units_Z 32
_cell_length_a 5.307744
_cell_length_b 29.587617
_cell_length_c 9.175720
_cell_angle_alpha 90.000000
_cell_angle_beta 90.000000
_cell_angle_gamma 90.000000
_cell_volume 1440.987153
_symmetry_space_group_name_H-M "P 21 21 21"
_symmetry_group_IT_number 19
_symmetry_cell_setting 'orthorhombic'
loop_
_space_group_symop_operation_xyz
x,y,z
1/2-x,-y,1/2+z
1/2+x,1/2-y,-z
-x,1/2+y,1/2-z
loop_
_atom_site_type_symbol
_atom_site_label
_atom_site_fract_x
_atom_site_fract_y
_atom_site_fract_z
Si Si1 0.444201 0.306834 0.059509
Si Si2 0.546782 0.439578 0.717003
Si Si3 0.900447 0.605627 0.710291
Si Si4 0.209340 0.472882 0.207193
Si Si5 0.450794 0.206346 0.133225
Si Si6 0.601636 0.577298 0.960110
Si Si7 0.927018 0.428335 0.957257
Si Si8 0.323513 0.630034 0.203975
O O1 0.442252 0.351676 0.157762
O O2 0.460030 0.260479 0.151012
O O3 0.680936 0.305894 0.943384
O O4 0.179248 0.304492 0.977271
O O5 0.307705 0.473170 0.715870
O O6 0.722925 0.448251 0.577305
O O7 0.704872 0.449614 0.861660
O O8 0.467126 0.386623 0.715356
O O9 0.041426 0.557179 0.715558
O O10 0.776852 0.610592 0.866613
O O11 0.691521 0.600929 0.586210
O O12 0.038014 0.453358 0.339645
O O13 0.100763 0.462166 0.046539
O O14 0.548213 0.178625 0.274415
O O15 0.411288 0.606803 0.055128
O O16 0.066706 0.396331 0.844478
#
# Coordination Sequence:
#
# PCOD9314181 Si02
#       8
#     4   4   4   4   4   4   4   4
#     4  10  21  39  69 103 130 162 215 275 328 384
#     4  11  23  39  59  87 121 168 217 264 318 382
#     4  11  22  39  62  88 124 166 206 265 320 382
#     4  11  23  39  59  87 121 168 217 264 318 382
#     4  10  21  39  69 103 130 162 215 275 328 384
#     4  10  25  40  58  84 130 170 206 264 323 384
#     4  10  21  36  60  84 116 156 210 264 315 372
#     4  11  22  39  62  88 124 166 206 265 320 382
#
# _framework density 22.207000000000001
#
# number of rings (size 3 to 8) (size 9 to 14) (size 15 to 20)
#    0.000    1.500    1.250    3.750    3.500    8.000 
#    0.000    0.000    5.500    0.000    0.000    0.000 
#    0.000    0.000    0.000    0.000    0.000    0.000 
#
# Total GULP energy -178641.739721 kJ/mol
# GULP energy per Si atom -5582.554366 kJ/mol
# Density = 2.215646 g / cm^3
# Si number density = 22.207000 Si / 1000 Ang^3
#
#
#
# Elastic Constant Matrix: (Units=GPa)
#
#
# Indices 1 2 3 4 5 6 
#
# 1 62.4987 -8.1139 18.4646 0.0000 0.0000 0.0000
# 2 -8.1139 47.2064 6.1118 0.0000 0.0000 0.0000
# 3 18.4646 6.1118 102.6598 0.0000 0.0000 0.0000
# 4 0.0000 0.0000 0.0000 19.6229 0.0000 0.0000
# 5 0.0000 0.0000 0.0000 0.0000 20.8821 0.0000
# 6 0.0000 0.0000 0.0000 0.0000 0.0000 25.4201
#
#
#
# Elastic Compliance Matrix: (Units=1/GPa)
#
#
# Indices 1 2 3 4 5 6 
#
# 1 0.017432 0.003429 -0.003339 0.000000 0.000000 0.000000
# 2 0.003429 0.022022 -0.001928 0.000000 0.000000 0.000000
# 3 -0.003339 -0.001928 0.010456 0.000000 0.000000 0.000000
# 4 0.000000 0.000000 0.000000 0.050961 0.000000 0.000000
# 5 0.000000 0.000000 0.000000 0.000000 0.047888 0.000000
# 6 0.000000 0.000000 0.000000 0.000000 0.000000 0.039339
#
#
# Mechanical properties :
#
#
# Convention : Reuss Voigt Hill
#
# Bulk Modulus (GPa) = 21.62930 27.25442 24.44186
# Shear Modulus (GPa) = 24.13276 26.24517 25.18897
#
# Velocity S-wave (km/s) = 3.30012 3.44152 3.37156
# Velocity P-wave (km/s) = 4.92768 5.30016 5.11731
#
# Compressibility (1/GPa) = 0.04623358
#
# Stress axis : x y z
#
# Youngs Moduli (GPa) = 57.36549 45.40821 95.63587
#
# Poissons Ratio (x) = -0.15569 0.31938
# Poissons Ratio (y) = -0.19668 0.18436
# Poissons Ratio (z) = 0.19157 0.08754
#
# Static dielectric constant tensor:
#      x y z
#    x 1.894270 0.000000 0.000000 
#    y 0.000000 1.885650 0.000000 
#    z 0.000000 0.000000 1.784580 
# 
# From -- ./inp_files/2304.got.cif
#   From: 2010.05.17/outbox.cif.g08.bks.cpg/sg19_2_cif.got.tgz:2304.got - 2010.06.03 22:46:19.
