data_PCOD9314885
_publ_section_title
;
Structure prediction by ZEFSAII (Michael W. Deem and Ramdas Pophale) SiO2 
 PCOD9314885
Probable space group: P 21 21 21
;
_chemical_formula_sum "Si O2"
_cell_formula_units_Z 32
_cell_length_a 19.419781
_cell_length_b 10.960044
_cell_length_c 7.039383
_cell_angle_alpha 90.000000
_cell_angle_beta 90.000000
_cell_angle_gamma 90.000000
_cell_volume 1498.273922
_symmetry_space_group_name_H-M "P 21 21 21"
_symmetry_group_IT_number 19
_symmetry_cell_setting 'orthorhombic'
loop_
_space_group_symop_operation_xyz
x,y,z
1/2-x,-y,1/2+z
1/2+x,1/2-y,-z
-x,1/2+y,1/2-z
loop_
_atom_site_type_symbol
_atom_site_label
_atom_site_fract_x
_atom_site_fract_y
_atom_site_fract_z
Si Si1 0.877338 0.709011 0.209515
Si Si2 0.128682 0.410134 0.974875
Si Si3 0.200678 0.248371 0.678123
Si Si4 0.667500 0.630185 0.293417
Si Si5 0.693468 0.445930 0.993555
Si Si6 0.516255 0.540595 0.320576
Si Si7 0.336877 0.316526 0.490023
Si Si8 0.994441 0.229573 0.547795
O O1 0.858788 0.816860 0.354517
O O2 0.859904 0.589028 0.330121
O O3 0.829438 0.717461 0.026448
O O4 0.953357 0.717465 0.126384
O O5 0.158593 0.356222 0.778692
O O6 0.164941 0.538066 0.001976
O O7 0.046283 0.428741 0.961670
O O8 0.187064 0.138959 0.822378
O O9 0.280626 0.274084 0.643090
O O10 0.677570 0.575612 0.081003
O O11 0.730690 0.581022 0.415132
O O12 0.594083 0.583475 0.370543
O O13 0.673808 0.771433 0.231138
O O14 0.500100 0.636801 0.147759
O O15 0.511840 0.390241 0.314554
O O16 0.416431 0.281996 0.522954
#
# Coordination Sequence:
#
# PCOD9314885 Si02
#       8
#     4   4   4   4   4   4   4   4
#     4  11  23  44  68  96 130 183 222 272 341 413
#     4  10  24  42  68  97 128 179 227 263 345 409
#     4  11  22  42  68  93 137 171 220 281 334 401
#     4  11  23  41  67  96 137 173 220 284 334 401
#     4  11  25  41  68 102 128 179 227 272 348 404
#     4  10  22  43  69  96 135 176 219 283 336 395
#     4  10  23  43  61 101 134 168 226 278 332 394
#     4  10  22  44  67  97 135 175 227 277 338 407
#
# _framework density 21.35791
#
# number of rings (size 3 to 8) (size 9 to 14) (size 15 to 20)
#    0.000    1.500    2.500    1.500    5.250    1.000 
#    9.000    0.000    0.000    0.000    0.000    0.000 
#    0.000    0.000    0.000    0.000    0.000    0.000 
#
# Total GULP energy -178462.662148 kJ/mol
# GULP energy per Si atom -5576.958192 kJ/mol
# Density = 2.130930 g / cm^3
# Si number density = 21.357910 Si / 1000 Ang^3
#
#
#
# Elastic Constant Matrix: (Units=GPa)
#
#
# Indices 1 2 3 4 5 6 
#
# 1 100.6296 4.4796 18.2061 0.0000 0.0000 0.0000
# 2 4.4796 60.4969 23.7431 0.0000 0.0000 0.0000
# 3 18.2061 23.7431 90.3116 0.0000 0.0000 0.0000
# 4 0.0000 0.0000 0.0000 10.3674 0.0000 0.0000
# 5 0.0000 0.0000 0.0000 0.0000 38.0799 0.0000
# 6 0.0000 0.0000 0.0000 0.0000 0.0000 23.3600
#
#
#
# Elastic Compliance Matrix: (Units=1/GPa)
#
#
# Indices 1 2 3 4 5 6 
#
# 1 0.010314 0.000058 -0.002095 0.000000 0.000000 0.000000
# 2 0.000058 0.018432 -0.004858 0.000000 0.000000 0.000000
# 3 -0.002095 -0.004858 0.012772 0.000000 0.000000 0.000000
# 4 0.000000 0.000000 0.000000 0.096456 0.000000 0.000000
# 5 0.000000 0.000000 0.000000 0.000000 0.026261 0.000000
# 6 0.000000 0.000000 0.000000 0.000000 0.000000 0.042808
#
#
# Mechanical properties :
#
#
# Convention : Reuss Voigt Hill
#
# Bulk Modulus (GPa) = 36.06164 38.25507 37.15836
# Shear Modulus (GPa) = 21.73223 28.02876 24.88049
#
# Velocity S-wave (km/s) = 3.19333 3.62655 3.41681
# Velocity P-wave (km/s) = 5.52427 5.95702 5.74472
#
# Compressibility (1/GPa) = 0.02773029
#
# Stress axis : x y z
#
# Youngs Moduli (GPa) = 96.95770 54.25385 78.29589
#
# Poissons Ratio (x) = -0.00316 0.16399
# Poissons Ratio (y) = -0.00566 0.38032
# Poissons Ratio (z) = 0.20308 0.26354
#
# Static dielectric constant tensor:
#      x y z
#    x 1.801330 0.000000 0.000000 
#    y 0.000000 1.908980 0.000000 
#    z 0.000000 0.000000 1.745150 
# 
# From -- ./inp_files/1976.got.cif
#   From: 2010.05.17/outbox.cif.g08.bks.cpg/sg19_1_cif.got.tgz:1976.got - 2010.06.03 22:46:19.
