data_PCOD9314275
_publ_section_title
;
Structure prediction by ZEFSAII (Michael W. Deem and Ramdas Pophale) SiO2 
 PCOD9314275
Probable space group: P 21 21 21
;
_chemical_formula_sum "Si O2"
_cell_formula_units_Z 28
_cell_length_a 5.143928
_cell_length_b 16.537961
_cell_length_c 15.177901
_cell_angle_alpha 90.000000
_cell_angle_beta 90.000000
_cell_angle_gamma 90.000000
_cell_volume 1291.185262
_symmetry_space_group_name_H-M "P 21 21 21"
_symmetry_group_IT_number 19
_symmetry_cell_setting 'orthorhombic'
loop_
_space_group_symop_operation_xyz
x,y,z
1/2-x,-y,1/2+z
1/2+x,1/2-y,-z
-x,1/2+y,1/2-z
loop_
_atom_site_type_symbol
_atom_site_label
_atom_site_fract_x
_atom_site_fract_y
_atom_site_fract_z
Si Si1 0.978783 0.150333 0.931373
Si Si2 0.327678 0.815034 0.621823
Si Si3 0.845739 0.674020 0.079727
Si Si4 0.146429 0.220003 0.607582
Si Si5 0.754709 0.445141 0.735972
Si Si6 0.119970 0.815619 0.285621
Si Si7 0.751295 0.049856 0.792738
O O1 0.236691 0.147535 0.870742
O O2 0.847643 0.238159 0.909612
O O3 0.803000 0.076671 0.895050
O O4 0.048059 0.148781 0.033504
O O5 0.203303 0.882833 0.683626
O O6 0.541771 0.773844 0.684906
O O7 0.640614 0.744808 0.099930
O O8 0.754916 0.603194 0.143679
O O9 0.135347 0.708523 0.097806
O O10 0.817647 0.660078 0.975112
O O11 0.195212 0.184087 0.702614
O O12 0.475861 0.488628 0.734170
O O13 0.982774 0.510553 0.738607
O O14 0.863426 0.865012 0.259196
#
# Coordination Sequence:
#
# PCOD9314275 Si02
#       7
#     4   4   4   4   4   4   4
#     4  11  23  46  68 111 135 182 231 308 337 409
#     4  11  24  39  81 101 135 180 249 282 352 409
#     4  10  21  39  64  97 123 162 225 274 325 384
#     4  10  21  38  67  95 123 162 219 284 321 385
#     4  12  24  46  66 100 135 191 219 280 342 435
#     4  11  22  45  67 100 133 181 220 295 337 405
#     4  11  27  45  63  92 152 176 219 277 356 405
#
# _framework density 21.685500000000001
#
# number of rings (size 3 to 8) (size 9 to 14) (size 15 to 20)
#    0.000    1.143    4.286    1.714    4.000    0.000 
#    2.571    1.429    0.000    0.000    0.000    0.000 
#    0.000    0.000    0.000    0.000    0.000    0.000 
#
# Total GULP energy -156289.004692 kJ/mol
# GULP energy per Si atom -5581.750168 kJ/mol
# Density = 2.163614 g / cm^3
# Si number density = 21.685500 Si / 1000 Ang^3
#
#
#
# Elastic Constant Matrix: (Units=GPa)
#
#
# Indices 1 2 3 4 5 6 
#
# 1 78.7844 13.9318 6.3427 0.0000 0.0000 0.0000
# 2 13.9318 38.6150 34.9581 0.0000 0.0000 0.0000
# 3 6.3427 34.9581 99.5313 0.0000 0.0000 0.0000
# 4 0.0000 0.0000 0.0000 18.8692 0.0000 0.0000
# 5 0.0000 0.0000 0.0000 0.0000 24.0383 0.0000
# 6 0.0000 0.0000 0.0000 0.0000 0.0000 35.0394
#
#
#
# Elastic Compliance Matrix: (Units=1/GPa)
#
#
# Indices 1 2 3 4 5 6 
#
# 1 0.013665 -0.006073 0.001262 0.000000 0.000000 0.000000
# 2 -0.006073 0.040669 -0.013897 0.000000 0.000000 0.000000
# 3 0.001262 -0.013897 0.014848 0.000000 0.000000 0.000000
# 4 0.000000 0.000000 0.000000 0.052996 0.000000 0.000000
# 5 0.000000 0.000000 0.000000 0.000000 0.041600 0.000000
# 6 0.000000 0.000000 0.000000 0.000000 0.000000 0.028539
#
#
# Mechanical properties :
#
#
# Convention : Reuss Voigt Hill
#
# Bulk Modulus (GPa) = 31.48008 36.37732 33.92870
# Shear Modulus (GPa) = 20.80549 26.36926 23.58737
#
# Velocity S-wave (km/s) = 3.10081 3.49088 3.30161
# Velocity P-wave (km/s) = 5.23146 5.74976 5.49672
#
# Compressibility (1/GPa) = 0.03176612
#
# Stress axis : x y z
#
# Youngs Moduli (GPa) = 73.17891 24.58904 67.35089
#
# Poissons Ratio (x) = 0.14932 -0.08500
# Poissons Ratio (y) = 0.44440 0.93597
# Poissons Ratio (z) = -0.09236 0.34171
#
# Static dielectric constant tensor:
#      x y z
#    x 1.833160 0.000000 0.000000 
#    y 0.000000 1.809550 0.000000 
#    z 0.000000 0.000000 1.790060 
# 
# From -- ./inp_files/5697.got.cif
#   From: 2010.05.17/outbox.cif.g08.bks.cpg/sg19_3_cif.got.tgz:5697.got - 2010.06.03 22:46:19.
