data_PCOD9314066
_publ_section_title
;
Structure prediction by ZEFSAII (Michael W. Deem and Ramdas Pophale) SiO2 
 PCOD9314066
Probable space group: P 21 21 21
;
_chemical_formula_sum "Si O2"
_cell_formula_units_Z 28
_cell_length_a 12.369884
_cell_length_b 15.601812
_cell_length_c 5.453992
_cell_angle_alpha 90.000000
_cell_angle_beta 90.000000
_cell_angle_gamma 90.000000
_cell_volume 1052.580122
_symmetry_space_group_name_H-M "P 21 21 21"
_symmetry_group_IT_number 19
_symmetry_cell_setting 'orthorhombic'
loop_
_space_group_symop_operation_xyz
x,y,z
1/2-x,-y,1/2+z
1/2+x,1/2-y,-z
-x,1/2+y,1/2-z
loop_
_atom_site_type_symbol
_atom_site_label
_atom_site_fract_x
_atom_site_fract_y
_atom_site_fract_z
Si Si1 0.641335 0.905986 0.790927
Si Si2 0.656365 0.157353 0.481071
Si Si3 0.217065 0.905288 0.757309
Si Si4 0.820613 0.741876 0.466778
Si Si5 0.929179 0.535903 0.989308
Si Si6 0.479005 0.336095 0.106540
Si Si7 0.082733 0.784819 0.004466
O O1 0.760266 0.919221 0.904545
O O2 0.612056 0.897839 0.503750
O O3 0.548319 0.969698 0.891062
O O4 0.614004 0.805071 0.863592
O O5 0.701579 0.197598 0.734066
O O6 0.527981 0.161147 0.543896
O O7 0.666999 0.211194 0.225543
O O8 0.241841 0.838746 0.541123
O O9 0.181428 0.850353 0.992939
O O10 0.115262 0.961768 0.683592
O O11 0.328913 0.952555 0.823443
O O12 0.935127 0.696249 0.408853
O O13 0.949247 0.616784 0.811716
O O14 0.432642 0.251983 0.229555
#
# Coordination Sequence:
#
# PCOD9314066 Si02
#       7
#     4   4   4   4   4   4   4
#     4  11  21  40  64  92 134 170 226 289 338 400
#     4  11  23  39  66 101 129 175 222 293 333 393
#     4  12  22  44  64  98 137 182 221 283 341 430
#     4  11  20  38  64  97 133 162 226 275 340 392
#     4  11  26  40  62  95 139 178 224 277 357 404
#     4  10  20  41  60  94 129 172 222 286 337 401
#     4  10  22  38  64  95 129 173 233 277 340 404
#
# _framework density 26.601302
#
# number of rings (size 3 to 8) (size 9 to 14) (size 15 to 20)
#    0.000    1.143    4.286    3.429    2.000    0.000 
#    2.571    0.000    3.143    0.000    0.000    0.000 
#    0.000    0.000    0.000    0.000    0.000    0.000 
#
# Total GULP energy -156115.170265 kJ/mol
# GULP energy per Si atom -5575.541795 kJ/mol
# Density = 2.654076 g / cm^3
# Si number density = 26.601302 Si / 1000 Ang^3
#
#
#
# Elastic Constant Matrix: (Units=GPa)
#
#
# Indices 1 2 3 4 5 6 
#
# 1 81.7827 -9.1307 -13.0252 0.0000 0.0000 0.0000
# 2 -9.1307 31.1224 7.6860 0.0000 0.0000 0.0000
# 3 -13.0252 7.6860 71.4396 0.0000 0.0000 0.0000
# 4 0.0000 0.0000 0.0000 20.5972 0.0000 0.0000
# 5 0.0000 0.0000 0.0000 0.0000 26.0468 0.0000
# 6 0.0000 0.0000 0.0000 0.0000 0.0000 30.6186
#
#
#
# Elastic Compliance Matrix: (Units=1/GPa)
#
#
# Indices 1 2 3 4 5 6 
#
# 1 0.012914 0.003295 0.002000 0.000000 0.000000 0.000000
# 2 0.003295 0.033849 -0.003041 0.000000 0.000000 0.000000
# 3 0.002000 -0.003041 0.014690 0.000000 0.000000 0.000000
# 4 0.000000 0.000000 0.000000 0.048550 0.000000 0.000000
# 5 0.000000 0.000000 0.000000 0.000000 0.038392 0.000000
# 6 0.000000 0.000000 0.000000 0.000000 0.000000 0.032660
#
#
# Mechanical properties :
#
#
# Convention : Reuss Voigt Hill
#
# Bulk Modulus (GPa) = 15.16072 17.26723 16.21398
# Shear Modulus (GPa) = 25.18459 28.70682 26.94571
#
# Velocity S-wave (km/s) = 3.08026 3.28861 3.18614
# Velocity P-wave (km/s) = 4.28512 4.57440 4.43212
#
# Compressibility (1/GPa) = 0.06595992
#
# Stress axis : x y z
#
# Youngs Moduli (GPa) = 77.43590 29.54315 68.07503
#
# Poissons Ratio (x) = -0.09734 -0.13615
# Poissons Ratio (y) = -0.25513 0.20702
# Poissons Ratio (z) = -0.15488 0.08984
#
# Static dielectric constant tensor:
#      x y z
#    x 2.199920 0.000000 0.000000 
#    y 0.000000 2.146660 0.000000 
#    z 0.000000 0.000000 2.147690 
# 
# From -- ./inp_files/1540.got.cif
#   From: 2010.05.17/outbox.cif.g08.bks.cpg/sg19_1_cif.got.tgz:1540.got - 2010.06.03 22:46:19.
