data_PCOD9314652
_publ_section_title
;
Structure prediction by ZEFSAII (Michael W. Deem and Ramdas Pophale) SiO2 
 PCOD9314652
Probable space group: P 21 21 21
;
_chemical_formula_sum "Si O2"
_cell_formula_units_Z 28
_cell_length_a 9.138966
_cell_length_b 7.338656
_cell_length_c 16.445829
_cell_angle_alpha 90.000000
_cell_angle_beta 90.000000
_cell_angle_gamma 90.000000
_cell_volume 1102.984381
_symmetry_space_group_name_H-M "P 21 21 21"
_symmetry_group_IT_number 19
_symmetry_cell_setting 'orthorhombic'
loop_
_space_group_symop_operation_xyz
x,y,z
1/2-x,-y,1/2+z
1/2+x,1/2-y,-z
-x,1/2+y,1/2-z
loop_
_atom_site_type_symbol
_atom_site_label
_atom_site_fract_x
_atom_site_fract_y
_atom_site_fract_z
Si Si1 0.806692 0.239151 0.921063
Si Si2 0.370526 0.342099 0.746913
Si Si3 0.238002 0.142393 0.411994
Si Si4 0.945896 0.902468 0.982281
Si Si5 0.498324 0.625608 0.619212
Si Si6 0.137695 0.637984 0.766396
Si Si7 0.667175 0.374727 0.352581
O O1 0.821272 0.455580 0.913266
O O2 0.907849 0.115566 0.978478
O O3 0.640600 0.172027 0.936081
O O4 0.848952 0.184796 0.828027
O O5 0.446538 0.462790 0.678741
O O6 0.232824 0.456634 0.779373
O O7 0.473967 0.293263 0.820962
O O8 0.307532 0.163049 0.702590
O O9 0.383621 0.136408 0.467501
O O10 0.125126 0.297034 0.442530
O O11 0.151628 0.951767 0.412984
O O12 0.294533 0.204044 0.323232
O O13 0.864286 0.805476 0.905880
O O14 0.973614 0.602691 0.795250
#
# Coordination Sequence:
#
# PCOD9314652 Si02
#       7
#     4   4   4   4   4   4   4
#     4  11  23  42  67 104 134 175 224 282 335 407
#     4  11  21  38  65 104 136 171 222 286 330 402
#     4  11  25  45  70  95 141 187 223 279 343 406
#     4  11  25  47  66  96 137 183 220 280 337 410
#     4  11  22  38  64 100 138 175 221 273 344 382
#     4  10  22  39  69 101 135 174 225 284 341 393
#     4  11  22  39  69  96 137 171 223 278 336 398
#
# _framework density 25.385672
#
# number of rings (size 3 to 8) (size 9 to 14) (size 15 to 20)
#    0.000    1.143    2.857    5.143    6.000    0.000 
#    2.571    0.000    0.000    0.000    0.000    0.000 
#    0.000    0.000    0.000    0.000    0.000    0.000 
#
# Total GULP energy -156975.926353 kJ/mol
# GULP energy per Si atom -5606.283084 kJ/mol
# Density = 2.532789 g / cm^3
# Si number density = 25.385672 Si / 1000 Ang^3
#
#
#
# Elastic Constant Matrix: (Units=GPa)
#
#
# Indices 1 2 3 4 5 6 
#
# 1 86.6654 24.0013 8.1841 0.0000 0.0000 0.0000
# 2 24.0013 116.0232 5.2599 0.0000 0.0000 0.0000
# 3 8.1841 5.2599 44.8091 0.0000 0.0000 0.0000
# 4 0.0000 0.0000 0.0000 27.3814 0.0000 0.0000
# 5 0.0000 0.0000 0.0000 0.0000 41.6752 0.0000
# 6 0.0000 0.0000 0.0000 0.0000 0.0000 56.2316
#
#
#
# Elastic Compliance Matrix: (Units=1/GPa)
#
#
# Indices 1 2 3 4 5 6 
#
# 1 0.012411 -0.002478 -0.001976 0.000000 0.000000 0.000000
# 2 -0.002478 0.009160 -0.000623 0.000000 0.000000 0.000000
# 3 -0.001976 -0.000623 0.022751 0.000000 0.000000 0.000000
# 4 0.000000 0.000000 0.000000 0.036521 0.000000 0.000000
# 5 0.000000 0.000000 0.000000 0.000000 0.023995 0.000000
# 6 0.000000 0.000000 0.000000 0.000000 0.000000 0.017784
#
#
# Mechanical properties :
#
#
# Convention : Reuss Voigt Hill
#
# Bulk Modulus (GPa) = 29.26630 35.82092 32.54361
# Shear Modulus (GPa) = 34.68254 39.06114 36.87184
#
# Velocity S-wave (km/s) = 3.70026 3.92689 3.81526
# Velocity P-wave (km/s) = 5.45981 5.89084 5.67942
#
# Compressibility (1/GPa) = 0.03416899
#
# Stress axis : x y z
#
# Youngs Moduli (GPa) = 80.57066 109.17279 43.95437
#
# Poissons Ratio (x) = 0.27052 0.08685
# Poissons Ratio (y) = 0.19965 0.02737
# Poissons Ratio (z) = 0.15921 0.06798
#
# Static dielectric constant tensor:
#      x y z
#    x 1.950220 0.000000 0.000000 
#    y 0.000000 1.993110 0.000000 
#    z 0.000000 0.000000 2.034750 
# 
# From -- ./inp_files/4132.got.cif
#   From: 2010.05.17/outbox.cif.g08.bks.cpg/sg19_3_cif.got.tgz:4132.got - 2010.06.03 22:46:19.
