data_PCOD9314832
_publ_section_title
;
Structure prediction by ZEFSAII (Michael W. Deem and Ramdas Pophale) SiO2 
 PCOD9314832
Probable space group: P 21 21 21
;
_chemical_formula_sum "Si O2"
_cell_formula_units_Z 28
_cell_length_a 24.540516
_cell_length_b 5.095463
_cell_length_c 8.605972
_cell_angle_alpha 90.000000
_cell_angle_beta 90.000000
_cell_angle_gamma 90.000000
_cell_volume 1076.136275
_symmetry_space_group_name_H-M "P 21 21 21"
_symmetry_group_IT_number 19
_symmetry_cell_setting 'orthorhombic'
loop_
_space_group_symop_operation_xyz
x,y,z
1/2-x,-y,1/2+z
1/2+x,1/2-y,-z
-x,1/2+y,1/2-z
loop_
_atom_site_type_symbol
_atom_site_label
_atom_site_fract_x
_atom_site_fract_y
_atom_site_fract_z
Si Si1 0.206260 0.514616 0.222327
Si Si2 0.841792 0.306026 0.021706
Si Si3 0.721248 0.484262 0.991258
Si Si4 0.550611 0.638961 0.412917
Si Si5 0.822217 0.121731 0.690937
Si Si6 0.067290 0.623908 0.923889
Si Si7 0.534746 0.784464 0.736134
O O1 0.157586 0.609951 0.332021
O O2 0.214410 0.752380 0.106621
O O3 0.262215 0.500079 0.322436
O O4 0.203031 0.248713 0.123394
O O5 0.784789 0.458328 0.034736
O O6 0.893675 0.489100 0.983065
O O7 0.835355 0.123272 0.871846
O O8 0.685620 0.571593 0.139912
O O9 0.489206 0.532863 0.409698
O O10 0.563054 0.694011 0.231108
O O11 0.548493 0.855736 0.554425
O O12 0.873504 0.996260 0.604249
O O13 0.069143 0.717952 0.103037
O O14 0.513402 0.487510 0.725837
#
# Coordination Sequence:
#
# PCOD9314832 Si02
#       7
#     4   4   4   4   4   4   4
#     4  11  24  44  70 105 149 196 248 304 374 445
#     4  10  22  42  68 104 146 193 245 305 366 449
#     4  11  24  44  70 105 149 196 248 304 374 445
#     4  10  22  42  71 105 144 190 244 300 368 436
#     4  10  22  42  68 104 146 193 245 305 366 449
#     4  10  22  42  71 105 144 190 244 300 368 436
#     4  10  22  44  66  96 136 178 232 292 348 424
#
# _framework density 26.019013000000001
#
# number of rings (size 3 to 8) (size 9 to 14) (size 15 to 20)
#    0.000    1.714    0.000    4.286    2.000    1.143 
#    2.571   14.286    3.143    0.000    0.000    0.000 
#    0.000    0.000    0.000    0.000    0.000    0.000 
#
# Total GULP energy -156017.821530 kJ/mol
# GULP energy per Si atom -5572.065055 kJ/mol
# Density = 2.595979 g / cm^3
# Si number density = 26.019013 Si / 1000 Ang^3
#
#
#
# Elastic Constant Matrix: (Units=GPa)
#
#
# Indices 1 2 3 4 5 6 
#
# 1 155.5428 37.0808 36.8747 0.0000 0.0000 0.0000
# 2 37.0808 83.6554 34.9477 0.0000 0.0000 0.0000
# 3 36.8747 34.9477 185.0913 0.0000 0.0000 0.0000
# 4 0.0000 0.0000 0.0000 15.9460 0.0000 0.0000
# 5 0.0000 0.0000 0.0000 0.0000 57.7686 0.0000
# 6 0.0000 0.0000 0.0000 0.0000 0.0000 27.5078
#
#
#
# Elastic Compliance Matrix: (Units=1/GPa)
#
#
# Indices 1 2 3 4 5 6 
#
# 1 0.007330 -0.002865 -0.000919 0.000000 0.000000 0.000000
# 2 -0.002865 0.014097 -0.002091 0.000000 0.000000 0.000000
# 3 -0.000919 -0.002091 0.005981 0.000000 0.000000 0.000000
# 4 0.000000 0.000000 0.000000 0.062712 0.000000 0.000000
# 5 0.000000 0.000000 0.000000 0.000000 0.017310 0.000000
# 6 0.000000 0.000000 0.000000 0.000000 0.000000 0.036353
#
#
# Mechanical properties :
#
#
# Convention : Reuss Voigt Hill
#
# Bulk Modulus (GPa) = 63.86796 71.34398 67.60597
# Shear Modulus (GPa) = 31.10355 41.27024 36.18690
#
# Velocity S-wave (km/s) = 3.46123 3.98698 3.73337
# Velocity P-wave (km/s) = 6.36973 6.97669 6.68010
#
# Compressibility (1/GPa) = 0.01565730
#
# Stress axis : x y z
#
# Youngs Moduli (GPa) = 136.42447 70.93579 167.20443
#
# Poissons Ratio (x) = 0.20323 0.15372
# Poissons Ratio (y) = 0.39086 0.34962
# Poissons Ratio (z) = 0.12543 0.14832
#
# Static dielectric constant tensor:
#      x y z
#    x 2.119420 0.000000 0.000000 
#    y 0.000000 2.068510 0.000000 
#    z 0.000000 0.000000 2.166480 
# 
# From -- ./inp_files/4350.got.cif
#   From: 2010.05.17/outbox.cif.g08.bks.cpg/sg19_3_cif.got.tgz:4350.got - 2010.06.03 22:46:19.
