data_PCOD9314641
_publ_section_title
;
Structure prediction by ZEFSAII (Michael W. Deem and Ramdas Pophale) SiO2 
 PCOD9314641
Probable space group: P 21 21 21
;
_chemical_formula_sum "Si O2"
_cell_formula_units_Z 28
_cell_length_a 22.913367
_cell_length_b 9.046617
_cell_length_c 5.558872
_cell_angle_alpha 90.000000
_cell_angle_beta 90.000000
_cell_angle_gamma 90.000000
_cell_volume 1152.289991
_symmetry_space_group_name_H-M "P 21 21 21"
_symmetry_group_IT_number 19
_symmetry_cell_setting 'orthorhombic'
loop_
_space_group_symop_operation_xyz
x,y,z
1/2-x,-y,1/2+z
1/2+x,1/2-y,-z
-x,1/2+y,1/2-z
loop_
_atom_site_type_symbol
_atom_site_label
_atom_site_fract_x
_atom_site_fract_y
_atom_site_fract_z
Si Si1 0.768823 0.421823 0.969056
Si Si2 0.822321 0.792456 0.638934
Si Si3 0.594557 0.170539 0.538183
Si Si4 0.538695 0.900352 0.310514
Si Si5 0.614759 0.676096 0.633381
Si Si6 0.425834 0.893502 0.595157
Si Si7 0.370523 0.429842 0.569878
O O1 0.752934 0.519173 0.208964
O O2 0.738202 0.266616 0.039455
O O3 0.838502 0.402028 0.960978
O O4 0.867249 0.686991 0.492219
O O5 0.830630 0.969330 0.601691
O O6 0.847413 0.768342 0.907776
O O7 0.557262 0.291373 0.677940
O O8 0.555576 0.072399 0.360580
O O9 0.615133 0.047216 0.725367
O O10 0.572004 0.782346 0.482901
O O11 0.471522 0.888577 0.378826
O O12 0.569001 0.881160 0.054783
O O13 0.583361 0.554412 0.795679
O O14 0.652098 0.781268 0.812315
#
# Coordination Sequence:
#
# PCOD9314641 Si02
#       7
#     4   4   4   4   4   4   4
#     4  12  27  48  74 108 144 189 245 305 364 433
#     4  10  22  43  67  93 137 184 236 294 356 430
#     4   9  20  40  61  88 129 177 232 279 358 421
#     4  10  22  39  65  97 140 180 229 298 359 444
#     4  11  24  42  67 103 142 183 241 298 363 437
#     4  11  21  38  66 101 133 184 230 296 364 429
#     4   9  22  42  60  96 135 177 233 282 354 426
#
# _framework density 24.299439
#
# number of rings (size 3 to 8) (size 9 to 14) (size 15 to 20)
#    0.000    1.714    1.429    1.714    4.000    6.857 
#    7.714    0.000    0.000    0.000    0.000    0.000 
#    0.000    0.000    0.000    0.000    0.000    0.000 
#
# Total GULP energy -156334.086355 kJ/mol
# GULP energy per Si atom -5583.360227 kJ/mol
# Density = 2.424413 g / cm^3
# Si number density = 24.299439 Si / 1000 Ang^3
#
#
#
# Elastic Constant Matrix: (Units=GPa)
#
#
# Indices 1 2 3 4 5 6 
#
# 1 56.3155 1.2813 -10.5619 0.0000 0.0000 0.0000
# 2 1.2813 116.0720 19.1498 0.0000 0.0000 0.0000
# 3 -10.5619 19.1498 69.1971 0.0000 0.0000 0.0000
# 4 0.0000 0.0000 0.0000 41.2913 0.0000 0.0000
# 5 0.0000 0.0000 0.0000 0.0000 26.6237 0.0000
# 6 0.0000 0.0000 0.0000 0.0000 0.0000 22.1880
#
#
#
# Elastic Compliance Matrix: (Units=1/GPa)
#
#
# Indices 1 2 3 4 5 6 
#
# 1 0.018334 -0.000696 0.002991 0.000000 0.000000 0.000000
# 2 -0.000696 0.009054 -0.002612 0.000000 0.000000 0.000000
# 3 0.002991 -0.002612 0.015631 0.000000 0.000000 0.000000
# 4 0.000000 0.000000 0.000000 0.024218 0.000000 0.000000
# 5 0.000000 0.000000 0.000000 0.000000 0.037561 0.000000
# 6 0.000000 0.000000 0.000000 0.000000 0.000000 0.045069
#
#
# Mechanical properties :
#
#
# Convention : Reuss Voigt Hill
#
# Bulk Modulus (GPa) = 23.59314 29.03589 26.31451
# Shear Modulus (GPa) = 30.37141 33.46829 31.91985
#
# Velocity S-wave (km/s) = 3.53920 3.71526 3.62830
# Velocity P-wave (km/s) = 5.14117 5.51175 5.32968
#
# Compressibility (1/GPa) = 0.04238521
#
# Stress axis : x y z
#
# Youngs Moduli (GPa) = 54.54385 110.44930 63.97623
#
# Poissons Ratio (x) = 0.07685 -0.19135
# Poissons Ratio (y) = 0.03795 0.16709
# Poissons Ratio (z) = -0.16314 0.28847
#
# Static dielectric constant tensor:
#      x y z
#    x 1.964640 0.000000 0.000000 
#    y 0.000000 1.934300 0.000000 
#    z 0.000000 0.000000 2.033270 
# 
# From -- ./inp_files/563.got.cif
#   From: 2010.05.17/outbox.cif.g08.bks.cpg/sg19_1_cif.got.tgz:563.got - 2010.06.03 22:46:19.
