data_PCOD9314248
_publ_section_title
;
Structure prediction by ZEFSAII (Michael W. Deem and Ramdas Pophale) SiO2 
 PCOD9314248
Probable space group: P 21 21 21
;
_chemical_formula_sum "Si O2"
_cell_formula_units_Z 32
_cell_length_a 9.171106
_cell_length_b 5.221693
_cell_length_c 26.453865
_cell_angle_alpha 90.000000
_cell_angle_beta 90.000000
_cell_angle_gamma 90.000000
_cell_volume 1266.841205
_symmetry_space_group_name_H-M "P 21 21 21"
_symmetry_group_IT_number 19
_symmetry_cell_setting 'orthorhombic'
loop_
_space_group_symop_operation_xyz
x,y,z
1/2-x,-y,1/2+z
1/2+x,1/2-y,-z
-x,1/2+y,1/2-z
loop_
_atom_site_type_symbol
_atom_site_label
_atom_site_fract_x
_atom_site_fract_y
_atom_site_fract_z
Si Si1 0.483547 0.942425 0.165284
Si Si2 0.286760 0.341350 0.877882
Si Si3 0.846371 0.055926 0.795818
Si Si4 0.411363 0.655670 0.970827
Si Si5 0.785570 0.255891 0.892327
Si Si6 0.370119 0.518169 0.520199
Si Si7 0.082802 0.622592 0.269722
Si Si8 0.428462 0.912124 0.438766
O O1 0.640776 0.999039 0.140463
O O2 0.437978 0.178712 0.202472
O O3 0.353233 0.972849 0.123344
O O4 0.456006 0.674702 0.191670
O O5 0.372903 0.479474 0.923439
O O6 0.387818 0.316477 0.828839
O O7 0.212901 0.086789 0.903336
O O8 0.730792 0.119029 0.841739
O O9 0.740862 0.973029 0.750894
O O10 0.490042 0.907896 0.951852
O O11 0.268562 0.653501 0.005391
O O12 0.531604 0.585521 0.013782
O O13 0.932511 0.095254 0.903569
O O14 0.692584 0.235057 0.942105
O O15 0.420289 0.641530 0.467888
O O16 0.025726 0.881430 0.241576
#
# Coordination Sequence:
#
# PCOD9314248 Si02
#       8
#     4   4   4   4   4   4   4   4
#     4   9  21  43  72 109 136 183 254 296 376 429
#     4  10  24  46  72 107 145 197 246 320 377 459
#     4  10  22  44  73 100 146 191 239 313 355 446
#     4  10  23  41  67 101 147 192 248 306 379 448
#     4   8  20  36  63  97 138 184 239 297 359 439
#     4  10  21  38  62 103 136 194 240 310 369 444
#     4  12  29  51  72 112 156 197 255 309 387 462
#     4   9  20  43  61 101 138 186 243 303 370 445
#
# _framework density 25.259678000000001
#
# number of rings (size 3 to 8) (size 9 to 14) (size 15 to 20)
#    0.750    1.500    0.000    0.750    1.750   13.000 
#    6.750    0.000    0.000    0.000    0.000    0.000 
#    0.000    0.000    0.000    0.000    0.000    0.000 
#
# Total GULP energy -178370.693939 kJ/mol
# GULP energy per Si atom -5574.084186 kJ/mol
# Density = 2.520219 g / cm^3
# Si number density = 25.259678 Si / 1000 Ang^3
#
#
#
# Elastic Constant Matrix: (Units=GPa)
#
#
# Indices 1 2 3 4 5 6 
#
# 1 -58.0810 119.8085 15.8023 0.0000 0.0000 0.0000
# 2 119.8085 67.2782 30.7687 0.0000 0.0000 0.0000
# 3 15.8023 30.7687 129.9083 0.0000 0.0000 0.0000
# 4 0.0000 0.0000 0.0000 -1.7778 0.0000 0.0000
# 5 0.0000 0.0000 0.0000 0.0000 27.3860 0.0000
# 6 0.0000 0.0000 0.0000 0.0000 0.0000 58.3480
#
#
#
# Elastic Compliance Matrix: (Units=1/GPa)
#
#
# Indices 1 2 3 4 5 6 
#
# 1 -0.003514 0.006799 -0.001183 0.000000 0.000000 0.000000
# 2 0.006799 0.003515 -0.001660 0.000000 0.000000 0.000000
# 3 -0.001183 -0.001660 0.008235 0.000000 0.000000 0.000000
# 4 0.000000 0.000000 0.000000 -0.562507 0.000000 0.000000
# 5 0.000000 0.000000 0.000000 0.000000 0.036515 0.000000
# 6 0.000000 0.000000 0.000000 0.000000 0.000000 0.017139
#
#
# Mechanical properties :
#
#
# Convention : Reuss Voigt Hill
#
# Bulk Modulus (GPa) = 61.92472 52.42940 57.17706
# Shear Modulus (GPa) = -9.93743 14.97297 2.51777
#
# Velocity S-wave (km/s) = -1.98561 2.43731 0.99946
# Velocity P-wave (km/s) = 4.39450 5.35928 4.90069
#
# Compressibility (1/GPa) = 0.01614864
#
# Stress axis : x y z
#
# Youngs Moduli (GPa) = -284.55912 284.49973 121.43744
#
# Poissons Ratio (x) = -1.93433 0.14365
# Poissons Ratio (y) = 1.93473 0.20153
# Poissons Ratio (z) = -0.33660 0.47214
#
# Static dielectric constant tensor:
#      x y z
#    x 1.993970 0.000000 0.000000 
#    y 0.000000 2.083420 0.000000 
#    z 0.000000 0.000000 2.059310 
# 
# From -- ./inp_files/7587.got.cif
#   From: 2010.05.17/outbox.cif.g08.bks.cpg/sg19_4_cif.got.tgz:7587.got - 2010.06.03 22:46:19.
