data_PCOD9314200
_publ_section_title
;
Structure prediction by ZEFSAII (Michael W. Deem and Ramdas Pophale) SiO2 
 PCOD9314200
Probable space group: P 21 21 21
;
_chemical_formula_sum "Si O2"
_cell_formula_units_Z 28
_cell_length_a 15.729616
_cell_length_b 9.031156
_cell_length_c 7.958164
_cell_angle_alpha 90.000000
_cell_angle_beta 90.000000
_cell_angle_gamma 90.000000
_cell_volume 1130.509847
_symmetry_space_group_name_H-M "P 21 21 21"
_symmetry_group_IT_number 19
_symmetry_cell_setting 'orthorhombic'
loop_
_space_group_symop_operation_xyz
x,y,z
1/2-x,-y,1/2+z
1/2+x,1/2-y,-z
-x,1/2+y,1/2-z
loop_
_atom_site_type_symbol
_atom_site_label
_atom_site_fract_x
_atom_site_fract_y
_atom_site_fract_z
Si Si1 0.678540 0.826361 0.864973
Si Si2 0.126413 0.822537 0.813650
Si Si3 0.432788 0.014002 0.025854
Si Si4 0.766976 0.845814 0.351257
Si Si5 0.524111 0.944496 0.712982
Si Si6 0.751734 0.606402 0.626835
Si Si7 0.085623 0.276056 0.391436
O O1 0.739556 0.698671 0.798231
O O2 0.720002 0.984726 0.906133
O O3 0.613388 0.862247 0.714154
O O4 0.619577 0.758746 0.009744
O O5 0.055913 0.894992 0.695061
O O6 0.172112 0.696379 0.701827
O O7 0.191571 0.961203 0.843934
O O8 0.509318 0.029369 0.892716
O O9 0.342774 0.059199 0.937777
O O10 0.421582 0.836805 0.044923
O O11 0.788556 0.723484 0.492343
O O12 0.823239 0.820076 0.182534
O O13 0.530550 0.076273 0.582748
O O14 0.451594 0.824840 0.736913
#
# Coordination Sequence:
#
# PCOD9314200 Si02
#       7
#     4   4   4   4   4   4   4
#     4  11  22  36  61  87 124 163 198 253 311 359
#     4  11  21  37  60  86 122 159 199 249 307 367
#     4   9  20  36  59  84 114 150 207 242 293 358
#     4  10  21  37  57  92 123 151 201 259 303 361
#     4   9  19  35  59  87 119 159 205 245 298 362
#     4  11  21  36  61  90 117 161 202 247 306 372
#     4   9  18  35  61  84 117 155 202 251 296 363
#
# _framework density 24.767586000000001
#
# number of rings (size 3 to 8) (size 9 to 14) (size 15 to 20)
#    0.857    1.143    1.429    3.429    0.000    0.000 
#    0.000    2.857    3.143    0.000    0.000    0.000 
#    0.000    0.000    0.000    0.000    0.000    0.000 
#
# Total GULP energy -156154.556834 kJ/mol
# GULP energy per Si atom -5576.948458 kJ/mol
# Density = 2.471121 g / cm^3
# Si number density = 24.767586 Si / 1000 Ang^3
#
#
#
# Elastic Constant Matrix: (Units=GPa)
#
#
# Indices 1 2 3 4 5 6 
#
# 1 26.0415 22.8324 -6.0142 0.0000 0.0000 0.0000
# 2 22.8324 151.8710 30.0803 0.0000 0.0000 0.0000
# 3 -6.0142 30.0803 46.8304 0.0000 0.0000 0.0000
# 4 0.0000 0.0000 0.0000 40.8054 0.0000 0.0000
# 5 0.0000 0.0000 0.0000 0.0000 20.3613 0.0000
# 6 0.0000 0.0000 0.0000 0.0000 0.0000 29.4811
#
#
#
# Elastic Compliance Matrix: (Units=1/GPa)
#
#
# Indices 1 2 3 4 5 6 
#
# 1 0.050270 -0.010124 0.012959 0.000000 0.000000 0.000000
# 2 -0.010124 0.009583 -0.007456 0.000000 0.000000 0.000000
# 3 0.012959 -0.007456 0.027807 0.000000 0.000000 0.000000
# 4 0.000000 0.000000 0.000000 0.024507 0.000000 0.000000
# 5 0.000000 0.000000 0.000000 0.000000 0.049113 0.000000
# 6 0.000000 0.000000 0.000000 0.000000 0.000000 0.033920
#
#
# Mechanical properties :
#
#
# Convention : Reuss Voigt Hill
#
# Bulk Modulus (GPa) = 12.75221 35.39333 24.07277
# Shear Modulus (GPa) = 21.68434 29.98585 25.83509
#
# Velocity S-wave (km/s) = 2.96212 3.48327 3.23321
# Velocity P-wave (km/s) = 4.10594 5.52257 4.86608
#
# Compressibility (1/GPa) = 0.07841781
#
# Stress axis : x y z
#
# Youngs Moduli (GPa) = 19.89265 104.34737 35.96220
#
# Poissons Ratio (x) = 1.05645 -0.46603
# Poissons Ratio (y) = 0.20140 0.26813
# Poissons Ratio (z) = -0.25779 0.77800
#
# Static dielectric constant tensor:
#      x y z
#    x 2.006370 0.000000 0.000000 
#    y 0.000000 1.971070 0.000000 
#    z 0.000000 0.000000 1.986520 
# 
# From -- ./inp_files/4157.got.cif
#   From: 2010.05.17/outbox.cif.g08.bks.cpg/sg19_3_cif.got.tgz:4157.got - 2010.06.03 22:46:19.
