data_PCOD9314123
_publ_section_title
;
Structure prediction by ZEFSAII (Michael W. Deem and Ramdas Pophale) SiO2 
 PCOD9314123
Probable space group: P 21 21 21
;
_chemical_formula_sum "Si O2"
_cell_formula_units_Z 32
_cell_length_a 11.032297
_cell_length_b 14.143657
_cell_length_c 8.564227
_cell_angle_alpha 90.000000
_cell_angle_beta 90.000000
_cell_angle_gamma 90.000000
_cell_volume 1336.336500
_symmetry_space_group_name_H-M "P 21 21 21"
_symmetry_group_IT_number 19
_symmetry_cell_setting 'orthorhombic'
loop_
_space_group_symop_operation_xyz
x,y,z
1/2-x,-y,1/2+z
1/2+x,1/2-y,-z
-x,1/2+y,1/2-z
loop_
_atom_site_type_symbol
_atom_site_label
_atom_site_fract_x
_atom_site_fract_y
_atom_site_fract_z
Si Si1 0.762293 0.399008 0.136270
Si Si2 0.550560 0.291960 0.751341
Si Si3 0.386430 0.442742 0.579491
Si Si4 0.948916 0.380472 0.404758
Si Si5 0.172784 0.814229 0.796949
Si Si6 0.839600 0.994769 0.085119
Si Si7 0.137414 0.706206 0.507458
Si Si8 0.609333 0.501047 0.370903
O O1 0.871302 0.414429 0.258670
O O2 0.783953 0.293475 0.067576
O O3 0.647522 0.421800 0.245259
O O4 0.784669 0.476096 0.999775
O O5 0.452414 0.354801 0.660361
O O6 0.546554 0.191658 0.667087
O O7 0.684500 0.331561 0.730881
O O8 0.495032 0.285697 0.925327
O O9 0.349963 0.506511 0.728003
O O10 0.263458 0.428456 0.484863
O O11 0.486795 0.482827 0.462898
O O12 0.865529 0.322446 0.524438
O O13 0.027792 0.464844 0.475778
O O14 0.137873 0.724077 0.692473
O O15 0.101087 0.900227 0.717934
O O16 0.813076 0.103114 0.035907
#
# Coordination Sequence:
#
# PCOD9314123 Si02
#       8
#     4   4   4   4   4   4   4   4
#     4  10  20  42  72 107 139 187 233 309 359 426
#     4  10  24  48  69 100 147 181 240 309 360 434
#     4  11  25  46  68 103 141 193 233 304 361 438
#     4  11  24  43  73 101 143 185 244 297 363 431
#     4  11  25  45  73 107 139 189 240 304 368 436
#     4  11  26  46  74  98 150 190 246 290 369 443
#     4   9  24  46  71 105 144 190 236 296 378 435
#     4  11  22  42  72 101 143 181 246 295 366 425
#
# _framework density 23.946065000000001
#
# number of rings (size 3 to 8) (size 9 to 14) (size 15 to 20)
#    0.000    1.500    1.250    2.250    7.000    0.000 
#    4.500    1.250    0.000    0.000    0.000    0.000 
#    0.000    0.000    0.000    0.000    0.000    0.000 
#
# Total GULP energy -178908.874448 kJ/mol
# GULP energy per Si atom -5590.902326 kJ/mol
# Density = 2.389156 g / cm^3
# Si number density = 23.946065 Si / 1000 Ang^3
#
#
#
# Elastic Constant Matrix: (Units=GPa)
#
#
# Indices 1 2 3 4 5 6 
#
# 1 73.9434 10.6958 32.9729 0.0000 0.0000 0.0000
# 2 10.6958 57.7324 13.0087 0.0000 0.0000 0.0000
# 3 32.9729 13.0087 95.3188 0.0000 0.0000 0.0000
# 4 0.0000 0.0000 0.0000 39.2709 0.0000 0.0000
# 5 0.0000 0.0000 0.0000 0.0000 49.2738 0.0000
# 6 0.0000 0.0000 0.0000 0.0000 0.0000 27.1399
#
#
#
# Elastic Compliance Matrix: (Units=1/GPa)
#
#
# Indices 1 2 3 4 5 6 
#
# 1 0.016168 -0.001790 -0.005348 0.000000 0.000000 0.000000
# 2 -0.001790 0.018069 -0.001847 0.000000 0.000000 0.000000
# 3 -0.005348 -0.001847 0.012593 0.000000 0.000000 0.000000
# 4 0.000000 0.000000 0.000000 0.025464 0.000000 0.000000
# 5 0.000000 0.000000 0.000000 0.000000 0.020295 0.000000
# 6 0.000000 0.000000 0.000000 0.000000 0.000000 0.036846
#
#
# Mechanical properties :
#
#
# Convention : Reuss Voigt Hill
#
# Bulk Modulus (GPa) = 34.65075 37.81661 36.23368
# Shear Modulus (GPa) = 31.84190 34.49139 33.16664
#
# Velocity S-wave (km/s) = 3.65051 3.79935 3.72567
# Velocity P-wave (km/s) = 5.68067 5.92228 5.80273
#
# Compressibility (1/GPa) = 0.02885940
#
# Stress axis : x y z
#
# Youngs Moduli (GPa) = 61.85129 55.34317 79.40725
#
# Poissons Ratio (x) = 0.09907 0.42471
# Poissons Ratio (y) = 0.11072 0.14664
# Poissons Ratio (z) = 0.33081 0.10220
#
# Static dielectric constant tensor:
#      x y z
#    x 1.906940 0.000000 0.000000 
#    y 0.000000 1.964930 0.000000 
#    z 0.000000 0.000000 1.948990 
# 
# From -- ./inp_files/3607.got.cif
#   From: 2010.05.17/outbox.cif.g08.bks.cpg/sg19_2_cif.got.tgz:3607.got - 2010.06.03 22:46:19.
