data_PCOD9314353
_publ_section_title
;
Structure prediction by ZEFSAII (Michael W. Deem and Ramdas Pophale) SiO2 
 PCOD9314353
Probable space group: P 21 21 21
;
_chemical_formula_sum "Si O2"
_cell_formula_units_Z 28
_cell_length_a 13.101261
_cell_length_b 10.755282
_cell_length_c 8.562415
_cell_angle_alpha 90.000000
_cell_angle_beta 90.000000
_cell_angle_gamma 90.000000
_cell_volume 1206.510689
_symmetry_space_group_name_H-M "P 21 21 21"
_symmetry_group_IT_number 19
_symmetry_cell_setting 'orthorhombic'
loop_
_space_group_symop_operation_xyz
x,y,z
1/2-x,-y,1/2+z
1/2+x,1/2-y,-z
-x,1/2+y,1/2-z
loop_
_atom_site_type_symbol
_atom_site_label
_atom_site_fract_x
_atom_site_fract_y
_atom_site_fract_z
Si Si1 0.290140 0.376124 0.274948
Si Si2 0.269485 0.813104 0.038885
Si Si3 0.856074 0.565604 0.467086
Si Si4 0.374625 0.569609 0.504458
Si Si5 0.817470 0.291370 0.132965
Si Si6 0.935723 0.550690 0.131962
Si Si7 0.974233 0.200367 0.919380
O O1 0.242680 0.291932 0.410529
O O2 0.322560 0.505393 0.355587
O O3 0.210477 0.395752 0.133578
O O4 0.393758 0.305245 0.220270
O O5 0.378707 0.876179 0.006229
O O6 0.190659 0.928688 0.018795
O O7 0.243696 0.763906 0.210290
O O8 0.765088 0.658965 0.509160
O O9 0.902195 0.604437 0.299388
O O10 0.948879 0.585205 0.585652
O O11 0.447735 0.468215 0.588617
O O12 0.451382 0.680444 0.446227
O O13 0.887720 0.413332 0.152207
O O14 0.895597 0.191900 0.065719
#
# Coordination Sequence:
#
# PCOD9314353 Si02
#       7
#     4   4   4   4   4   4   4
#     4  12  29  48  72 105 154 186 238 314 353 447
#     4  10  22  43  72 107 137 189 246 297 355 435
#     4  10  21  39  73 102 137 189 244 295 352 425
#     4  11  28  50  69 112 144 195 243 295 383 422
#     4   9  20  38  65 104 140 182 242 296 349 420
#     4   9  20  41  68  99 140 182 241 294 353 434
#     4  11  24  43  73  99 146 195 232 301 363 437
#
# _framework density 23.207419999999999
#
# number of rings (size 3 to 8) (size 9 to 14) (size 15 to 20)
#    0.000    1.714    0.000    2.571    8.000    3.429 
#    2.571    0.000    0.000    0.000    0.000    0.000 
#    0.000    0.000    0.000    0.000    0.000    0.000 
#
# Total GULP energy -156365.791585 kJ/mol
# GULP energy per Si atom -5584.492557 kJ/mol
# Density = 2.315460 g / cm^3
# Si number density = 23.207420 Si / 1000 Ang^3
#
#
#
# Elastic Constant Matrix: (Units=GPa)
#
#
# Indices 1 2 3 4 5 6 
#
# 1 111.8782 50.6142 28.4811 0.0000 0.0000 0.0000
# 2 50.6142 69.2213 46.8663 0.0000 0.0000 0.0000
# 3 28.4811 46.8663 77.4422 0.0000 0.0000 0.0000
# 4 0.0000 0.0000 0.0000 38.3171 0.0000 0.0000
# 5 0.0000 0.0000 0.0000 0.0000 33.0411 0.0000
# 6 0.0000 0.0000 0.0000 0.0000 0.0000 33.3131
#
#
#
# Elastic Compliance Matrix: (Units=1/GPa)
#
#
# Indices 1 2 3 4 5 6 
#
# 1 0.013489 -0.011019 0.001708 0.000000 0.000000 0.000000
# 2 -0.011019 0.033476 -0.016206 0.000000 0.000000 0.000000
# 3 0.001708 -0.016206 0.022093 0.000000 0.000000 0.000000
# 4 0.000000 0.000000 0.000000 0.026098 0.000000 0.000000
# 5 0.000000 0.000000 0.000000 0.000000 0.030265 0.000000
# 6 0.000000 0.000000 0.000000 0.000000 0.000000 0.030018
#
#
# Mechanical properties :
#
#
# Convention : Reuss Voigt Hill
#
# Bulk Modulus (GPa) = 55.48855 56.71833 56.10344
# Shear Modulus (GPa) = 23.53147 29.77292 26.65220
#
# Velocity S-wave (km/s) = 3.18773 3.58565 3.39253
# Velocity P-wave (km/s) = 6.12459 6.45255 6.29070
#
# Compressibility (1/GPa) = 0.01802174
#
# Stress axis : x y z
#
# Youngs Moduli (GPa) = 74.13670 29.87217 45.26405
#
# Poissons Ratio (x) = 0.32916 -0.07730
# Poissons Ratio (y) = 0.81691 0.73357
# Poissons Ratio (z) = -0.12660 0.48412
#
# Static dielectric constant tensor:
#      x y z
#    x 1.857740 0.000000 0.000000 
#    y 0.000000 1.943500 0.000000 
#    z 0.000000 0.000000 1.919960 
# 
# From -- ./inp_files/3470.got.cif
#   From: 2010.05.17/outbox.cif.g08.bks.cpg/sg19_2_cif.got.tgz:3470.got - 2010.06.03 22:46:19.
