data_PCOD9314945
_publ_section_title
;
Structure prediction by ZEFSAII (Michael W. Deem and Ramdas Pophale) SiO2 
 PCOD9314945
Probable space group: P 21 21 21
;
_chemical_formula_sum "Si O2"
_cell_formula_units_Z 28
_cell_length_a 8.986718
_cell_length_b 6.265983
_cell_length_c 21.687682
_cell_angle_alpha 90.000000
_cell_angle_beta 90.000000
_cell_angle_gamma 90.000000
_cell_volume 1221.246868
_symmetry_space_group_name_H-M "P 21 21 21"
_symmetry_group_IT_number 19
_symmetry_cell_setting 'orthorhombic'
loop_
_space_group_symop_operation_xyz
x,y,z
1/2-x,-y,1/2+z
1/2+x,1/2-y,-z
-x,1/2+y,1/2-z
loop_
_atom_site_type_symbol
_atom_site_label
_atom_site_fract_x
_atom_site_fract_y
_atom_site_fract_z
Si Si1 0.442320 0.812258 0.094225
Si Si2 0.351884 0.074904 0.319708
Si Si3 0.049693 0.105375 0.057046
Si Si4 0.214932 0.475542 0.133810
Si Si5 0.028922 0.801271 0.689824
Si Si6 0.438685 0.786874 0.860285
Si Si7 0.842249 0.454155 0.019669
O O1 0.575341 0.668490 0.118600
O O2 0.298425 0.659986 0.095326
O O3 0.440026 0.001644 0.144571
O O4 0.448458 0.921512 0.028388
O O5 0.450570 0.132776 0.260104
O O6 0.195512 0.194941 0.312220
O O7 0.371759 0.818164 0.322620
O O8 0.137710 0.291565 0.093646
O O9 0.175655 0.032578 0.007889
O O10 0.990487 0.928873 0.105478
O O11 0.906926 0.214102 0.024570
O O12 0.341468 0.366177 0.173731
O O13 0.083301 0.599948 0.167833
O O14 0.372378 0.936720 0.914969
#
# Coordination Sequence:
#
# PCOD9314945 Si02
#       7
#     4   4   4   4   4   4   4
#     4  11  23  42  73  93 139 184 224 283 349 414
#     4  11  26  42  70 102 134 178 233 293 347 420
#     4  11  25  43  64  98 137 180 229 285 343 416
#     4  10  22  45  63  93 132 182 226 280 348 408
#     4  11  22  46  67  97 134 178 234 286 348 411
#     4  11  26  43  64 102 137 177 232 291 346 421
#     4  11  26  39  69  97 139 181 232 278 351 418
#
# _framework density 22.927388000000001
#
# number of rings (size 3 to 8) (size 9 to 14) (size 15 to 20)
#    0.000    1.143    4.286    0.000    8.000    1.143 
#    5.143    0.000    0.000    0.000    0.000    0.000 
#    0.000    0.000    0.000    0.000    0.000    0.000 
#
# Total GULP energy -156346.931266 kJ/mol
# GULP energy per Si atom -5583.818974 kJ/mol
# Density = 2.287520 g / cm^3
# Si number density = 22.927388 Si / 1000 Ang^3
#
#
#
# Elastic Constant Matrix: (Units=GPa)
#
#
# Indices 1 2 3 4 5 6 
#
# 1 88.6130 37.4414 -0.8381 0.0000 0.0000 0.0000
# 2 37.4414 106.5081 12.6315 0.0000 0.0000 0.0000
# 3 -0.8381 12.6315 42.9752 0.0000 0.0000 0.0000
# 4 0.0000 0.0000 0.0000 33.0192 0.0000 0.0000
# 5 0.0000 0.0000 0.0000 0.0000 29.1435 0.0000
# 6 0.0000 0.0000 0.0000 0.0000 0.0000 32.0944
#
#
#
# Elastic Compliance Matrix: (Units=1/GPa)
#
#
# Indices 1 2 3 4 5 6 
#
# 1 0.013373 -0.004903 0.001702 0.000000 0.000000 0.000000
# 2 -0.004903 0.011526 -0.003483 0.000000 0.000000 0.000000
# 3 0.001702 -0.003483 0.024326 0.000000 0.000000 0.000000
# 4 0.000000 0.000000 0.000000 0.030285 0.000000 0.000000
# 5 0.000000 0.000000 0.000000 0.000000 0.034313 0.000000
# 6 0.000000 0.000000 0.000000 0.000000 0.000000 0.031158
#
#
# Mechanical properties :
#
#
# Convention : Reuss Voigt Hill
#
# Bulk Modulus (GPa) = 27.88931 37.39622 32.64277
# Shear Modulus (GPa) = 29.35969 31.44217 30.40093
#
# Velocity S-wave (km/s) = 3.58236 3.70723 3.64533
# Velocity P-wave (km/s) = 5.41310 5.88820 5.65564
#
# Compressibility (1/GPa) = 0.03585603
#
# Stress axis : x y z
#
# Youngs Moduli (GPa) = 74.77926 86.76358 41.10789
#
# Poissons Ratio (x) = 0.42539 -0.06996
# Poissons Ratio (y) = 0.36663 0.14319
# Poissons Ratio (z) = -0.12726 0.30222
#
# Static dielectric constant tensor:
#      x y z
#    x 1.963880 0.000000 0.000000 
#    y 0.000000 1.926560 0.000000 
#    z 0.000000 0.000000 1.823640 
# 
# From -- ./inp_files/594.got.cif
#   From: 2010.05.17/outbox.cif.g08.bks.cpg/sg19_1_cif.got.tgz:594.got - 2010.06.03 22:46:19.
