data_PCOD9314313
_publ_section_title
;
Structure prediction by ZEFSAII (Michael W. Deem and Ramdas Pophale) SiO2 
 PCOD9314313
Probable space group: P 21 21 21
;
_chemical_formula_sum "Si O2"
_cell_formula_units_Z 20
_cell_length_a 9.515017
_cell_length_b 10.273854
_cell_length_c 8.474537
_cell_angle_alpha 90.000000
_cell_angle_beta 90.000000
_cell_angle_gamma 90.000000
_cell_volume 828.435953
_symmetry_space_group_name_H-M "P 21 21 21"
_symmetry_group_IT_number 19
_symmetry_cell_setting 'orthorhombic'
loop_
_space_group_symop_operation_xyz
x,y,z
1/2-x,-y,1/2+z
1/2+x,1/2-y,-z
-x,1/2+y,1/2-z
loop_
_atom_site_type_symbol
_atom_site_label
_atom_site_fract_x
_atom_site_fract_y
_atom_site_fract_z
Si Si1 0.340901 0.290749 0.312619
Si Si2 0.152565 0.068190 0.173658
Si Si3 0.888214 0.760720 0.613565
Si Si4 0.910326 0.923856 0.321707
Si Si5 0.854489 0.273080 0.336074
O O1 0.263244 0.155613 0.266832
O O2 0.494411 0.275841 0.239583
O O3 0.250685 0.405143 0.228935
O O4 0.342760 0.302019 0.500491
O O5 0.206273 0.921558 0.142656
O O6 0.127667 0.142049 0.009487
O O7 0.005748 0.043543 0.267665
O O8 0.928359 0.883152 0.503125
O O9 0.740772 0.784884 0.698408
O O10 0.989600 0.810415 0.220502
#
# Coordination Sequence:
#
# PCOD9314313 Si02
#       5
#     4   4   4   4   4
#     4  11  21  37  65  96 128 169 224 271 320 386
#     4   9  22  41  64  91 130 176 214 257 343 391
#     4  11  21  39  67  97 128 169 226 274 322 385
#     4   9  21  38  62  89 131 173 212 268 324 396
#     4  10  21  39  64  93 129 173 216 264 331 404
#
# _framework density 24.14188
#
# number of rings (size 3 to 8) (size 9 to 14) (size 15 to 20)
#    1.200    0.800    0.000    4.800    2.800    0.000 
#    0.000    6.000    4.400    0.000    0.000    0.000 
#    0.000    0.000    0.000    0.000    0.000    0.000 
#
# Total GULP energy -111807.114126 kJ/mol
# GULP energy per Si atom -5590.355706 kJ/mol
# Density = 2.408693 g / cm^3
# Si number density = 24.141880 Si / 1000 Ang^3
#
#
#
# Elastic Constant Matrix: (Units=GPa)
#
#
# Indices 1 2 3 4 5 6 
#
# 1 71.3058 -18.4336 2.7771 0.0000 0.0000 0.0000
# 2 -18.4336 77.1507 -7.4106 0.0000 0.0000 0.0000
# 3 2.7771 -7.4106 115.9907 0.0000 0.0000 0.0000
# 4 0.0000 0.0000 0.0000 21.9119 0.0000 0.0000
# 5 0.0000 0.0000 0.0000 0.0000 52.9800 0.0000
# 6 0.0000 0.0000 0.0000 0.0000 0.0000 21.5828
#
#
#
# Elastic Compliance Matrix: (Units=1/GPa)
#
#
# Indices 1 2 3 4 5 6 
#
# 1 0.014949 0.003559 -0.000131 0.000000 0.000000 0.000000
# 2 0.003559 0.013889 0.000802 0.000000 0.000000 0.000000
# 3 -0.000131 0.000802 0.008676 0.000000 0.000000 0.000000
# 4 0.000000 0.000000 0.000000 0.045637 0.000000 0.000000
# 5 0.000000 0.000000 0.000000 0.000000 0.018875 0.000000
# 6 0.000000 0.000000 0.000000 0.000000 0.000000 0.046333
#
#
# Mechanical properties :
#
#
# Convention : Reuss Voigt Hill
#
# Bulk Modulus (GPa) = 21.75044 24.25699 23.00372
# Shear Modulus (GPa) = 32.21169 38.46256 35.33713
#
# Velocity S-wave (km/s) = 3.65672 3.99581 3.83002
# Velocity P-wave (km/s) = 5.18245 5.59983 5.39518
#
# Compressibility (1/GPa) = 0.04597609
#
# Stress axis : x y z
#
# Youngs Moduli (GPa) = 66.89264 71.99879 115.26378
#
# Poissons Ratio (x) = -0.25627 0.01504
# Poissons Ratio (y) = -0.23809 -0.09246
# Poissons Ratio (z) = 0.00873 -0.05775
#
# Static dielectric constant tensor:
#      x y z
#    x 1.868020 0.000000 0.000000 
#    y 0.000000 2.070860 0.000000 
#    z 0.000000 0.000000 1.963110 
# 
# From -- ./inp_files/2725.got.cif
#   From: 2010.05.17/outbox.cif.g08.bks.cpg/sg19_2_cif.got.tgz:2725.got - 2010.06.03 22:46:19.
