data_PCOD9314243
_publ_section_title
;
Structure prediction by ZEFSAII (Michael W. Deem and Ramdas Pophale) SiO2 
 PCOD9314243
Probable space group: P 21 21 21
;
_chemical_formula_sum "Si O2"
_cell_formula_units_Z 32
_cell_length_a 9.259294
_cell_length_b 15.119370
_cell_length_c 10.651750
_cell_angle_alpha 90.000000
_cell_angle_beta 90.000000
_cell_angle_gamma 90.000000
_cell_volume 1491.188460
_symmetry_space_group_name_H-M "P 21 21 21"
_symmetry_group_IT_number 19
_symmetry_cell_setting 'orthorhombic'
loop_
_space_group_symop_operation_xyz
x,y,z
1/2-x,-y,1/2+z
1/2+x,1/2-y,-z
-x,1/2+y,1/2-z
loop_
_atom_site_type_symbol
_atom_site_label
_atom_site_fract_x
_atom_site_fract_y
_atom_site_fract_z
Si Si1 0.594691 0.825580 0.794378
Si Si2 0.107453 0.865986 0.529926
Si Si3 0.419800 0.668211 0.716546
Si Si4 0.879454 0.466585 0.303282
Si Si5 0.101471 0.063164 0.437459
Si Si6 0.414905 0.291512 0.197559
Si Si7 0.323035 0.810296 0.139167
Si Si8 0.941759 0.616106 0.465268
O O1 0.488401 0.741273 0.807891
O O2 0.554077 0.899736 0.894897
O O3 0.748530 0.781766 0.823520
O O4 0.543796 0.858368 0.655107
O O5 0.062117 0.809568 0.650741
O O6 0.279303 0.843479 0.521635
O O7 0.007568 0.829187 0.416183
O O8 0.092181 0.973029 0.520022
O O9 0.465236 0.572973 0.767721
O O10 0.252328 0.686388 0.709712
O O11 0.831444 0.535945 0.196856
O O12 0.768700 0.386138 0.289186
O O13 0.900027 0.514560 0.435221
O O14 0.181415 0.145188 0.502204
O O15 0.511928 0.308466 0.318533
O O16 0.475839 0.355517 0.088572
#
# Coordination Sequence:
#
# PCOD9314243 Si02
#       8
#     4   4   4   4   4   4   4   4
#     4  10  21  39  64  89 127 171 215 270 327 385
#     4  11  20  40  65  95 128 165 220 268 319 391
#     4  10  21  38  60  97 134 164 210 281 320 388
#     4   9  21  42  66  91 129 175 221 268 327 390
#     4  10  22  41  64  92 127 175 214 271 324 393
#     4  12  23  36  67 102 127 168 218 274 334 386
#     4  11  24  41  67  96 129 175 226 262 331 407
#     4  11  20  39  69  94 121 177 220 270 330 390
#
# _framework density 21.459395000000001
#
# number of rings (size 3 to 8) (size 9 to 14) (size 15 to 20)
#    0.000    1.500    3.750    2.250    1.750    1.000 
#    4.500    1.250    2.750    0.000    0.000    0.000 
#    0.000    0.000    0.000    0.000    0.000    0.000 
#
# Total GULP energy -178144.981249 kJ/mol
# GULP energy per Si atom -5567.030664 kJ/mol
# Density = 2.141055 g / cm^3
# Si number density = 21.459395 Si / 1000 Ang^3
#
#
#
# Elastic Constant Matrix: (Units=GPa)
#
#
# Indices 1 2 3 4 5 6 
#
# 1 108.0467 26.8082 11.1150 0.0000 0.0000 0.0000
# 2 26.8082 61.5311 10.4584 0.0000 0.0000 0.0000
# 3 11.1150 10.4584 23.2313 0.0000 0.0000 0.0000
# 4 0.0000 0.0000 0.0000 36.3201 0.0000 0.0000
# 5 0.0000 0.0000 0.0000 0.0000 24.6348 0.0000
# 6 0.0000 0.0000 0.0000 0.0000 0.0000 25.7448
#
#
#
# Elastic Compliance Matrix: (Units=1/GPa)
#
#
# Indices 1 2 3 4 5 6 
#
# 1 0.010598 -0.004067 -0.003240 0.000000 0.000000 0.000000
# 2 -0.004067 0.019159 -0.006679 0.000000 0.000000 0.000000
# 3 -0.003240 -0.006679 0.047602 0.000000 0.000000 0.000000
# 4 0.000000 0.000000 0.000000 0.027533 0.000000 0.000000
# 5 0.000000 0.000000 0.000000 0.000000 0.040593 0.000000
# 6 0.000000 0.000000 0.000000 0.000000 0.000000 0.038843
#
#
# Mechanical properties :
#
#
# Convention : Reuss Voigt Hill
#
# Bulk Modulus (GPa) = 20.24805 32.17470 26.21137
# Shear Modulus (GPa) = 21.85685 26.96844 24.41264
#
# Velocity S-wave (km/s) = 3.19489 3.54887 3.37652
# Velocity P-wave (km/s) = 4.80268 5.64079 5.23852
#
# Compressibility (1/GPa) = 0.04938747
#
# Stress axis : x y z
#
# Youngs Moduli (GPa) = 94.36186 52.19493 21.00740
#
# Poissons Ratio (x) = 0.21225 0.06806
# Poissons Ratio (y) = 0.38373 0.14032
# Poissons Ratio (z) = 0.30570 0.34863
#
# Static dielectric constant tensor:
#      x y z
#    x 1.799800 0.000000 0.000000 
#    y 0.000000 1.863700 0.000000 
#    z 0.000000 0.000000 1.850960 
# 
# From -- ./inp_files/4698.got.cif
#   From: 2010.05.17/outbox.cif.g08.bks.cpg/sg19_3_cif.got.tgz:4698.got - 2010.06.03 22:46:19.
