data_PCOD9314660
_publ_section_title
;
Structure prediction by ZEFSAII (Michael W. Deem and Ramdas Pophale) SiO2 
 PCOD9314660
Probable space group: P 21 21 21
;
_chemical_formula_sum "Si O2"
_cell_formula_units_Z 28
_cell_length_a 12.371764
_cell_length_b 7.906479
_cell_length_c 11.472476
_cell_angle_alpha 90.000000
_cell_angle_beta 90.000000
_cell_angle_gamma 90.000000
_cell_volume 1122.204243
_symmetry_space_group_name_H-M "P 21 21 21"
_symmetry_group_IT_number 19
_symmetry_cell_setting 'orthorhombic'
loop_
_space_group_symop_operation_xyz
x,y,z
1/2-x,-y,1/2+z
1/2+x,1/2-y,-z
-x,1/2+y,1/2-z
loop_
_atom_site_type_symbol
_atom_site_label
_atom_site_fract_x
_atom_site_fract_y
_atom_site_fract_z
Si Si1 0.462320 0.015416 0.878179
Si Si2 0.146469 0.357784 0.977844
Si Si3 0.546996 0.463324 0.103026
Si Si4 0.125049 0.750036 0.196638
Si Si5 0.826393 0.676079 0.968231
Si Si6 0.049215 0.671241 0.831603
Si Si7 0.140144 0.515795 0.424499
O O1 0.526918 0.840207 0.869771
O O2 0.415638 0.082088 0.758993
O O3 0.557733 0.139758 0.920138
O O4 0.363945 0.995700 0.968508
O O5 0.105509 0.515285 0.897785
O O6 0.269289 0.397406 0.007381
O O7 0.326570 0.680447 0.931481
O O8 0.465909 0.388511 0.200083
O O9 0.595937 0.641630 0.145942
O O10 0.635898 0.319787 0.085942
O O11 0.476220 0.478177 0.985765
O O12 0.220098 0.797363 0.108328
O O13 0.149980 0.614260 0.301496
O O14 0.927310 0.699502 0.880286
#
# Coordination Sequence:
#
# PCOD9314660 Si02
#       7
#     4   4   4   4   4   4   4
#     4  11  25  48  72 107 145 200 240 313 378 444
#     4  11  22  45  66 102 147 182 249 301 363 441
#     4  11  21  42  68 105 141 185 240 294 367 440
#     4  12  24  49  77 104 151 193 249 306 383 454
#     4  10  24  48  69 105 146 184 251 307 367 452
#     4  10  22  39  72  99 143 187 231 308 371 425
#     4  11  24  43  72 102 137 197 240 303 377 444
#
# _framework density 24.950896
#
# number of rings (size 3 to 8) (size 9 to 14) (size 15 to 20)
#    0.000    1.143    4.286    1.714    2.000    0.000 
#    7.714    0.000    0.000    0.000    0.000    0.000 
#    0.000    0.000    0.000    0.000    0.000    0.000 
#
# Total GULP energy -156594.262051 kJ/mol
# GULP energy per Si atom -5592.652216 kJ/mol
# Density = 2.489411 g / cm^3
# Si number density = 24.950896 Si / 1000 Ang^3
#
#
#
# Elastic Constant Matrix: (Units=GPa)
#
#
# Indices 1 2 3 4 5 6 
#
# 1 84.5190 42.9803 35.3810 0.0000 0.0000 0.0000
# 2 42.9803 106.6548 14.3735 0.0000 0.0000 0.0000
# 3 35.3810 14.3735 92.6380 0.0000 0.0000 0.0000
# 4 0.0000 0.0000 0.0000 44.1665 0.0000 0.0000
# 5 0.0000 0.0000 0.0000 0.0000 28.0626 0.0000
# 6 0.0000 0.0000 0.0000 0.0000 0.0000 33.5327
#
#
#
# Elastic Compliance Matrix: (Units=1/GPa)
#
#
# Indices 1 2 3 4 5 6 
#
# 1 0.017377 -0.006239 -0.005669 0.000000 0.000000 0.000000
# 2 -0.006239 0.011816 0.000549 0.000000 0.000000 0.000000
# 3 -0.005669 0.000549 0.012875 0.000000 0.000000 0.000000
# 4 0.000000 0.000000 0.000000 0.022642 0.000000 0.000000
# 5 0.000000 0.000000 0.000000 0.000000 0.035635 0.000000
# 6 0.000000 0.000000 0.000000 0.000000 0.000000 0.029822
#
#
# Mechanical properties :
#
#
# Convention : Reuss Voigt Hill
#
# Bulk Modulus (GPa) = 51.67568 52.14237 51.90903
# Shear Modulus (GPa) = 31.38079 33.89082 32.63580
#
# Velocity S-wave (km/s) = 3.55026 3.68951 3.62055
# Velocity P-wave (km/s) = 6.12876 6.25247 6.19092
#
# Compressibility (1/GPa) = 0.01935146
#
# Stress axis : x y z
#
# Youngs Moduli (GPa) = 57.54603 84.62979 77.67252
#
# Poissons Ratio (x) = 0.52799 0.44032
# Poissons Ratio (y) = 0.35902 -0.04268
# Poissons Ratio (z) = 0.32622 -0.04650
#
# Static dielectric constant tensor:
#      x y z
#    x 1.975200 0.000000 0.000000 
#    y 0.000000 2.043730 0.000000 
#    z 0.000000 0.000000 1.982080 
# 
# From -- ./inp_files/4939.got.cif
#   From: 2010.05.17/outbox.cif.g08.bks.cpg/sg19_3_cif.got.tgz:4939.got - 2010.06.03 22:46:19.
