data_PCOD9314054
_publ_section_title
;
Structure prediction by ZEFSAII (Michael W. Deem and Ramdas Pophale) SiO2 
 PCOD9314054
Probable space group: P 21 21 21
;
_chemical_formula_sum "Si O2"
_cell_formula_units_Z 32
_cell_length_a 7.693488
_cell_length_b 13.593729
_cell_length_c 11.457934
_cell_angle_alpha 90.000000
_cell_angle_beta 90.000000
_cell_angle_gamma 90.000000
_cell_volume 1198.307299
_symmetry_space_group_name_H-M "P 21 21 21"
_symmetry_group_IT_number 19
_symmetry_cell_setting 'orthorhombic'
loop_
_space_group_symop_operation_xyz
x,y,z
1/2-x,-y,1/2+z
1/2+x,1/2-y,-z
-x,1/2+y,1/2-z
loop_
_atom_site_type_symbol
_atom_site_label
_atom_site_fract_x
_atom_site_fract_y
_atom_site_fract_z
Si Si1 0.287080 0.040478 0.661066
Si Si2 0.988141 0.257473 0.726357
Si Si3 0.488453 0.378782 0.461230
Si Si4 0.230351 0.326877 0.927861
Si Si5 0.875237 0.652285 0.212272
Si Si6 0.044253 0.836887 0.342285
Si Si7 0.230174 0.585657 0.658218
Si Si8 0.116777 0.460674 0.468385
O O1 0.097092 0.035527 0.601534
O O2 0.290341 0.109145 0.775950
O O3 0.426242 0.074689 0.562922
O O4 0.340947 0.932066 0.695690
O O5 0.819526 0.314810 0.684543
O O6 0.905310 0.163221 0.795777
O O7 0.065912 0.215633 0.606068
O O8 0.106593 0.313680 0.818371
O O9 0.528426 0.380904 0.596180
O O10 0.283907 0.393717 0.441144
O O11 0.342431 0.227972 0.941327
O O12 0.336972 0.428516 0.920471
O O13 0.143036 0.352369 0.057126
O O14 0.980351 0.742124 0.267057
O O15 0.906986 0.923953 0.274761
O O16 0.141992 0.490787 0.606014
#
# Coordination Sequence:
#
# PCOD9314054 Si02
#       8
#     4   4   4   4   4   4   4   4
#     4  12  25  47  72 103 141 189 247 299 362 440
#     4  11  23  44  70 103 144 188 246 299 362 442
#     4  12  27  44  70 104 145 194 244 293 366 439
#     4  10  20  40  68  99 136 177 231 301 359 415
#     4  11  26  47  70 103 146 194 243 305 362 440
#     4  11  21  44  69  97 142 183 233 297 361 427
#     4   9  21  38  69  99 132 178 231 299 359 421
#     4  10  23  44  68 104 138 181 235 297 365 422
#
# _framework density 26.704339000000001
#
# number of rings (size 3 to 8) (size 9 to 14) (size 15 to 20)
#    0.750    0.500    2.500    3.750    1.750    1.000 
#    9.000    0.000    0.000    0.000    0.000    0.000 
#    0.000    0.000    0.000    0.000    0.000    0.000 
#
# Total GULP energy -178516.685912 kJ/mol
# GULP energy per Si atom -5578.646435 kJ/mol
# Density = 2.664356 g / cm^3
# Si number density = 26.704339 Si / 1000 Ang^3
#
#
#
# Elastic Constant Matrix: (Units=GPa)
#
#
# Indices 1 2 3 4 5 6 
#
# 1 85.5705 -0.1016 10.9070 0.0000 0.0000 0.0000
# 2 -0.1016 60.6176 16.7573 0.0000 0.0000 0.0000
# 3 10.9070 16.7573 62.5968 0.0000 0.0000 0.0000
# 4 0.0000 0.0000 0.0000 40.6761 0.0000 0.0000
# 5 0.0000 0.0000 0.0000 0.0000 30.3193 0.0000
# 6 0.0000 0.0000 0.0000 0.0000 0.0000 37.6788
#
#
#
# Elastic Compliance Matrix: (Units=1/GPa)
#
#
# Indices 1 2 3 4 5 6 
#
# 1 0.011975 0.000645 -0.002259 0.000000 0.000000 0.000000
# 2 0.000645 0.017850 -0.004891 0.000000 0.000000 0.000000
# 3 -0.002259 -0.004891 0.017678 0.000000 0.000000 0.000000
# 4 0.000000 0.000000 0.000000 0.024584 0.000000 0.000000
# 5 0.000000 0.000000 0.000000 0.000000 0.032982 0.000000
# 6 0.000000 0.000000 0.000000 0.000000 0.000000 0.026540
#
#
# Mechanical properties :
#
#
# Convention : Reuss Voigt Hill
#
# Bulk Modulus (GPa) = 28.99182 29.32337 29.15760
# Shear Modulus (GPa) = 32.02705 33.81633 32.92169
#
# Velocity S-wave (km/s) = 3.46688 3.56240 3.51497
# Velocity P-wave (km/s) = 5.18708 5.28446 5.23600
#
# Compressibility (1/GPa) = 0.03449249
#
# Stress axis : x y z
#
# Youngs Moduli (GPa) = 83.50746 56.02259 56.56698
#
# Poissons Ratio (x) = -0.03611 0.12779
# Poissons Ratio (y) = -0.05383 0.27666
# Poissons Ratio (z) = 0.18865 0.27399
#
# Static dielectric constant tensor:
#      x y z
#    x 2.137720 0.000000 0.000000 
#    y 0.000000 2.104030 0.000000 
#    z 0.000000 0.000000 2.331340 
# 
# From -- ./inp_files/4695.got.cif
#   From: 2010.05.17/outbox.cif.g08.bks.cpg/sg19_3_cif.got.tgz:4695.got - 2010.06.03 22:46:19.
