data_PCOD9314147
_publ_section_title
;
Structure prediction by ZEFSAII (Michael W. Deem and Ramdas Pophale) SiO2 
 PCOD9314147
Probable space group: P 21 21 21
;
_chemical_formula_sum "Si O2"
_cell_formula_units_Z 32
_cell_length_a 5.799084
_cell_length_b 30.831653
_cell_length_c 7.331085
_cell_angle_alpha 90.000000
_cell_angle_beta 90.000000
_cell_angle_gamma 90.000000
_cell_volume 1310.763876
_symmetry_space_group_name_H-M "P 21 21 21"
_symmetry_group_IT_number 19
_symmetry_cell_setting 'orthorhombic'
loop_
_space_group_symop_operation_xyz
x,y,z
1/2-x,-y,1/2+z
1/2+x,1/2-y,-z
-x,1/2+y,1/2-z
loop_
_atom_site_type_symbol
_atom_site_label
_atom_site_fract_x
_atom_site_fract_y
_atom_site_fract_z
Si Si1 0.510197 0.606894 0.473276
Si Si2 0.622100 0.859847 0.732693
Si Si3 0.986940 0.731001 0.193307
Si Si4 0.494796 0.515125 0.970951
Si Si5 0.099897 0.146167 0.831881
Si Si6 0.648282 0.939920 0.263857
Si Si7 0.850453 0.556572 0.209164
Si Si8 0.984604 0.742606 0.782578
O O1 0.390914 0.635015 0.313037
O O2 0.633176 0.638398 0.618358
O O3 0.333681 0.577600 0.587009
O O4 0.682527 0.574754 0.369456
O O5 0.523320 0.819916 0.843158
O O6 0.516211 0.852832 0.531553
O O7 0.532491 0.905136 0.806810
O O8 0.232233 0.742060 0.290314
O O9 0.736715 0.740444 0.283088
O O10 0.982044 0.755146 0.998037
O O11 0.274234 0.543297 0.916520
O O12 0.542185 0.486868 0.791384
O O13 0.464992 0.481148 0.136199
O O14 0.703604 0.545603 0.031621
O O15 0.011348 0.102103 0.738914
O O16 0.030607 0.190904 0.741084
#
# Coordination Sequence:
#
# PCOD9314147 Si02
#       8
#     4   4   4   4   4   4   4   4
#     4  10  20  44  66  97 136 180 233 300 358 436
#     4  10  23  42  68  99 138 181 234 291 367 433
#     4  10  24  45  69 102 142 184 236 299 363 445
#     4  12  24  44  68  95 142 188 239 298 364 426
#     4  10  23  42  68  99 138 181 234 291 367 433
#     4  11  24  43  64 100 136 185 237 297 359 434
#     4  11  24  43  64 100 136 185 237 297 359 434
#     4  10  24  45  69 102 142 184 236 299 363 445
#
# _framework density 24.413243999999999
#
# number of rings (size 3 to 8) (size 9 to 14) (size 15 to 20)
#    0.000    1.500    3.750    1.500    7.000    3.000 
#    2.250    0.000    0.000    0.000    0.000    0.000 
#    0.000    0.000    0.000    0.000    0.000    0.000 
#
# Total GULP energy -178847.289061 kJ/mol
# GULP energy per Si atom -5588.977783 kJ/mol
# Density = 2.435768 g / cm^3
# Si number density = 24.413244 Si / 1000 Ang^3
#
#
#
# Elastic Constant Matrix: (Units=GPa)
#
#
# Indices 1 2 3 4 5 6 
#
# 1 144.9693 55.4795 5.5679 0.0000 0.0000 0.0000
# 2 55.4795 91.7404 11.8456 0.0000 0.0000 0.0000
# 3 5.5679 11.8456 54.4117 0.0000 0.0000 0.0000
# 4 0.0000 0.0000 0.0000 29.5044 0.0000 0.0000
# 5 0.0000 0.0000 0.0000 0.0000 33.7496 0.0000
# 6 0.0000 0.0000 0.0000 0.0000 0.0000 30.8952
#
#
#
# Elastic Compliance Matrix: (Units=1/GPa)
#
#
# Indices 1 2 3 4 5 6 
#
# 1 0.008979 -0.005465 0.000271 0.000000 0.000000 0.000000
# 2 -0.005465 0.014542 -0.002607 0.000000 0.000000 0.000000
# 3 0.000271 -0.002607 0.018918 0.000000 0.000000 0.000000
# 4 0.000000 0.000000 0.000000 0.033893 0.000000 0.000000
# 5 0.000000 0.000000 0.000000 0.000000 0.029630 0.000000
# 6 0.000000 0.000000 0.000000 0.000000 0.000000 0.032368
#
#
# Mechanical properties :
#
#
# Convention : Reuss Voigt Hill
#
# Bulk Modulus (GPa) = 37.26100 48.54526 42.90313
# Shear Modulus (GPa) = 30.69801 33.37839 32.03820
#
# Velocity S-wave (km/s) = 3.54988 3.70161 3.62654
# Velocity P-wave (km/s) = 5.66550 6.18039 5.92854
#
# Compressibility (1/GPa) = 0.02683771
#
# Stress axis : x y z
#
# Youngs Moduli (GPa) = 111.37022 68.76717 52.85932
#
# Poissons Ratio (x) = 0.37581 -0.01432
# Poissons Ratio (y) = 0.60864 0.13778
# Poissons Ratio (z) = -0.03017 0.17925
#
# Static dielectric constant tensor:
#      x y z
#    x 2.013940 0.000000 0.000000 
#    y 0.000000 1.903540 0.000000 
#    z 0.000000 0.000000 1.955070 
# 
# From -- ./inp_files/2525.got.cif
#   From: 2010.05.17/outbox.cif.g08.bks.cpg/sg19_2_cif.got.tgz:2525.got - 2010.06.03 22:46:19.
