data_PCOD9314911
_publ_section_title
;
Structure prediction by ZEFSAII (Michael W. Deem and Ramdas Pophale) SiO2 
 PCOD9314911
Probable space group: P 21 21 21
;
_chemical_formula_sum "Si O2"
_cell_formula_units_Z 32
_cell_length_a 9.119642
_cell_length_b 11.203403
_cell_length_c 13.733522
_cell_angle_alpha 90.000000
_cell_angle_beta 90.000000
_cell_angle_gamma 90.000000
_cell_volume 1403.168013
_symmetry_space_group_name_H-M "P 21 21 21"
_symmetry_group_IT_number 19
_symmetry_cell_setting 'orthorhombic'
loop_
_space_group_symop_operation_xyz
x,y,z
1/2-x,-y,1/2+z
1/2+x,1/2-y,-z
-x,1/2+y,1/2-z
loop_
_atom_site_type_symbol
_atom_site_label
_atom_site_fract_x
_atom_site_fract_y
_atom_site_fract_z
Si Si1 0.800101 0.194105 0.037684
Si Si2 0.789350 0.089043 0.840829
Si Si3 0.548302 0.229845 0.188922
Si Si4 0.894600 0.831133 0.896587
Si Si5 0.338460 0.084774 0.082790
Si Si6 0.983145 0.870669 0.222373
Si Si7 0.529141 0.377501 0.821976
Si Si8 0.174584 0.848389 0.026699
O O1 0.684553 0.230522 0.118125
O O2 0.918689 0.106139 0.086794
O O3 0.723827 0.130769 0.945298
O O4 0.872184 0.316842 0.999577
O O5 0.937017 0.164961 0.835849
O O6 0.689995 0.118212 0.747314
O O7 0.825520 0.951982 0.855347
O O8 0.592033 0.247820 0.299886
O O9 0.465404 0.104102 0.163014
O O10 0.779629 0.767209 0.968754
O O11 0.057954 0.850592 0.938974
O O12 0.191704 0.130073 0.136769
O O13 0.287782 0.959550 0.037615
O O14 0.020152 0.747661 0.276792
O O15 0.063824 0.854295 0.119292
O O16 0.028417 0.007450 0.248582
#
# Coordination Sequence:
#
# PCOD9314911 Si02
#       8
#     4   4   4   4   4   4   4   4
#     4  11  21  42  71 101 135 178 242 293 347 425
#     4  11  24  42  73 101 138 189 235 301 364 425
#     4  11  24  42  71 104 139 177 249 291 353 424
#     4  12  28  48  69 108 145 198 232 307 375 441
#     4  10  22  44  67 101 134 181 236 295 348 424
#     4  11  22  43  70 100 142 185 243 291 361 429
#     4  11  22  42  68 100 136 186 233 291 352 430
#     4  11  27  47  69 103 151 192 242 297 374 438
#
# _framework density 22.805537000000001
#
# number of rings (size 3 to 8) (size 9 to 14) (size 15 to 20)
#    0.000    1.000    2.500    6.000    3.500    1.000 
#    6.750    0.000    0.000    0.000    0.000    0.000 
#    0.000    0.000    0.000    0.000    0.000    0.000 
#
# Total GULP energy -178525.986277 kJ/mol
# GULP energy per Si atom -5578.937071 kJ/mol
# Density = 2.275363 g / cm^3
# Si number density = 22.805537 Si / 1000 Ang^3
#
#
#
# Elastic Constant Matrix: (Units=GPa)
#
#
# Indices 1 2 3 4 5 6 
#
# 1 52.8171 3.6989 -8.0740 0.0000 0.0000 0.0000
# 2 3.6989 104.6244 -1.8935 0.0000 0.0000 0.0000
# 3 -8.0740 -1.8935 31.0899 0.0000 0.0000 0.0000
# 4 0.0000 0.0000 0.0000 15.1001 0.0000 0.0000
# 5 0.0000 0.0000 0.0000 0.0000 40.5784 0.0000
# 6 0.0000 0.0000 0.0000 0.0000 0.0000 30.2828
#
#
#
# Elastic Compliance Matrix: (Units=1/GPa)
#
#
# Indices 1 2 3 4 5 6 
#
# 1 0.019754 -0.000606 0.005093 0.000000 0.000000 0.000000
# 2 -0.000606 0.009587 0.000426 0.000000 0.000000 0.000000
# 3 0.005093 0.000426 0.033513 0.000000 0.000000 0.000000
# 4 0.000000 0.000000 0.000000 0.066225 0.000000 0.000000
# 5 0.000000 0.000000 0.000000 0.000000 0.024644 0.000000
# 6 0.000000 0.000000 0.000000 0.000000 0.000000 0.033022
#
#
# Mechanical properties :
#
#
# Convention : Reuss Voigt Hill
#
# Bulk Modulus (GPa) = 13.75858 19.55490 16.65674
# Shear Modulus (GPa) = 24.85762 30.17892 27.51827
#
# Velocity S-wave (km/s) = 3.30507 3.64169 3.47745
# Velocity P-wave (km/s) = 4.53990 5.12599 4.84182
#
# Compressibility (1/GPa) = 0.07268191
#
# Stress axis : x y z
#
# Youngs Moduli (GPa) = 50.62187 104.30626 29.83875
#
# Poissons Ratio (x) = 0.06323 -0.15198
# Poissons Ratio (y) = 0.03069 -0.01273
# Poissons Ratio (z) = -0.25783 -0.04448
#
# Static dielectric constant tensor:
#      x y z
#    x 1.829780 0.000000 0.000000 
#    y 0.000000 1.921940 0.000000 
#    z 0.000000 0.000000 1.905860 
# 
# From -- ./inp_files/5950.got.cif
#   From: 2010.05.17/outbox.cif.g08.bks.cpg/sg19_3_cif.got.tgz:5950.got - 2010.06.03 22:46:19.
