data_PCOD9314546
_publ_section_title
;
Structure prediction by ZEFSAII (Michael W. Deem and Ramdas Pophale) SiO2 
 PCOD9314546
Probable space group: P 21 21 21
;
_chemical_formula_sum "Si O2"
_cell_formula_units_Z 24
_cell_length_a 8.437319
_cell_length_b 13.846270
_cell_length_c 7.868209
_cell_angle_alpha 90.000000
_cell_angle_beta 90.000000
_cell_angle_gamma 90.000000
_cell_volume 919.206640
_symmetry_space_group_name_H-M "P 21 21 21"
_symmetry_group_IT_number 19
_symmetry_cell_setting 'orthorhombic'
loop_
_space_group_symop_operation_xyz
x,y,z
1/2-x,-y,1/2+z
1/2+x,1/2-y,-z
-x,1/2+y,1/2-z
loop_
_atom_site_type_symbol
_atom_site_label
_atom_site_fract_x
_atom_site_fract_y
_atom_site_fract_z
Si Si1 0.576321 0.086016 0.385227
Si Si2 0.411532 0.100300 0.743855
Si Si3 0.330300 0.177814 0.196705
Si Si4 0.139940 0.191428 0.551902
Si Si5 0.585457 0.927894 0.854519
Si Si6 0.005360 0.206374 0.061579
O O1 0.495832 0.072515 0.566284
O O2 0.448894 0.088439 0.233127
O O3 0.627079 0.198860 0.389591
O O4 0.739742 0.028501 0.373155
O O5 0.236760 0.130228 0.688357
O O6 0.494162 0.191966 0.834481
O O7 0.446053 0.006501 0.853689
O O8 0.242364 0.192196 0.376460
O O9 0.185284 0.167952 0.064782
O O10 0.429099 0.267143 0.118115
O O11 0.971355 0.147158 0.498079
O O12 0.588106 0.869272 0.677332
#
# Coordination Sequence:
#
# PCOD9314546 Si02
#       6
#     4   4   4   4   4   4
#     4  11  20  44  68  93 129 189 225 273 339 412
#     4  11  24  41  67  98 132 178 235 274 334 411
#     4  10  22  37  69  89 131 173 225 275 344 402
#     4  10  21  44  67  92 132 185 223 271 344 417
#     4  11  23  39  69  99 135 172 238 280 336 404
#     4  11  22  41  62  97 135 175 222 289 343 386
#
# _framework density 26.109470999999999
#
# number of rings (size 3 to 8) (size 9 to 14) (size 15 to 20)
#    0.000    1.333    5.000    2.000    0.000    5.333 
#    0.000    1.667    0.000    0.000    0.000    0.000 
#    0.000    0.000    0.000    0.000    0.000    0.000 
#
# Total GULP energy -134299.579228 kJ/mol
# GULP energy per Si atom -5595.815801 kJ/mol
# Density = 2.605005 g / cm^3
# Si number density = 26.109471 Si / 1000 Ang^3
#
#
#
# Elastic Constant Matrix: (Units=GPa)
#
#
# Indices 1 2 3 4 5 6 
#
# 1 116.1185 -8.8040 32.1467 0.0000 0.0000 0.0000
# 2 -8.8040 71.8989 14.2144 0.0000 0.0000 0.0000
# 3 32.1467 14.2144 119.1414 0.0000 0.0000 0.0000
# 4 0.0000 0.0000 0.0000 20.8521 0.0000 0.0000
# 5 0.0000 0.0000 0.0000 0.0000 33.0651 0.0000
# 6 0.0000 0.0000 0.0000 0.0000 0.0000 26.8351
#
#
#
# Elastic Compliance Matrix: (Units=1/GPa)
#
#
# Indices 1 2 3 4 5 6 
#
# 1 0.009508 0.001712 -0.002770 0.000000 0.000000 0.000000
# 2 0.001712 0.014553 -0.002198 0.000000 0.000000 0.000000
# 3 -0.002770 -0.002198 0.009403 0.000000 0.000000 0.000000
# 4 0.000000 0.000000 0.000000 0.047957 0.000000 0.000000
# 5 0.000000 0.000000 0.000000 0.000000 0.030243 0.000000
# 6 0.000000 0.000000 0.000000 0.000000 0.000000 0.037265
#
#
# Mechanical properties :
#
#
# Convention : Reuss Voigt Hill
#
# Bulk Modulus (GPa) = 37.10301 42.47479 39.78890
# Shear Modulus (GPa) = 30.40901 34.12391 32.26646
#
# Velocity S-wave (km/s) = 3.41643 3.61911 3.51923
# Velocity P-wave (km/s) = 5.45931 5.81095 5.63788
#
# Compressibility (1/GPa) = 0.02695199
#
# Stress axis : x y z
#
# Youngs Moduli (GPa) = 105.16910 68.71621 106.34917
#
# Poissons Ratio (x) = -0.11764 0.29457
# Poissons Ratio (y) = -0.18004 0.23377
# Poissons Ratio (z) = 0.29130 0.15105
#
# Static dielectric constant tensor:
#      x y z
#    x 2.138130 0.000000 0.000000 
#    y 0.000000 2.064490 0.000000 
#    z 0.000000 0.000000 2.064860 
# 
# From -- ./inp_files/2793.got.cif
#   From: 2010.05.17/outbox.cif.g08.bks.cpg/sg19_2_cif.got.tgz:2793.got - 2010.06.03 22:46:19.
