data_PCOD9314974
_publ_section_title
;
Structure prediction by ZEFSAII (Michael W. Deem and Ramdas Pophale) SiO2 
 PCOD9314974
Probable space group: P 21 21 21
;
_chemical_formula_sum "Si O2"
_cell_formula_units_Z 32
_cell_length_a 19.368139
_cell_length_b 6.964476
_cell_length_c 11.843594
_cell_angle_alpha 90.000000
_cell_angle_beta 90.000000
_cell_angle_gamma 90.000000
_cell_volume 1597.569831
_symmetry_space_group_name_H-M "P 21 21 21"
_symmetry_group_IT_number 19
_symmetry_cell_setting 'orthorhombic'
loop_
_space_group_symop_operation_xyz
x,y,z
1/2-x,-y,1/2+z
1/2+x,1/2-y,-z
-x,1/2+y,1/2-z
loop_
_atom_site_type_symbol
_atom_site_label
_atom_site_fract_x
_atom_site_fract_y
_atom_site_fract_z
Si Si1 0.445313 0.842267 0.130447
Si Si2 0.547304 0.494893 0.112697
Si Si3 0.357922 0.494188 0.664169
Si Si4 0.490319 0.637965 0.543730
Si Si5 0.726639 0.325381 0.732221
Si Si6 0.805098 0.476481 0.927500
Si Si7 0.815052 0.283931 0.532612
Si Si8 0.640901 0.687860 0.637934
O O1 0.480742 0.635466 0.116799
O O2 0.444753 0.902766 0.262317
O O3 0.368335 0.871906 0.078821
O O4 0.491773 0.989404 0.057076
O O5 0.614881 0.619319 0.078905
O O6 0.535703 0.330568 0.018678
O O7 0.434935 0.553251 0.630249
O O8 0.315512 0.684592 0.689143
O O9 0.331057 0.379808 0.556148
O O10 0.350173 0.357996 0.773358
O O11 0.560117 0.668526 0.613673
O O12 0.790034 0.412019 0.801677
O O13 0.763901 0.214245 0.630884
O O14 0.676934 0.495109 0.687687
O O15 0.732856 0.559897 0.970479
O O16 0.826449 0.305424 0.012198
#
# Coordination Sequence:
#
# PCOD9314974 Si02
#       8
#     4   4   4   4   4   4   4   4
#     4  11  23  44  71 102 139 177 234 286 352 405
#     4  12  23  45  72 101 141 181 229 293 343 415
#     4  12  26  43  70 101 136 186 229 285 351 417
#     4  11  26  42  70 102 136 183 228 285 354 419
#     4  11  24  45  70  97 142 179 229 292 342 415
#     4  10  22  47  70  98 138 185 222 293 349 405
#     4  11  24  45  70 102 136 181 237 278 352 419
#     4  10  26  45  67 101 136 180 234 280 349 417
#
# _framework density 20.030422999999999
#
# number of rings (size 3 to 8) (size 9 to 14) (size 15 to 20)
#    0.000    1.000    5.000    0.750    3.500    3.000 
#    6.750    0.000    0.000    0.000    0.000    0.000 
#    0.000    0.000    0.000    0.000    0.000    0.000 
#
# Total GULP energy -178646.846492 kJ/mol
# GULP energy per Si atom -5582.713953 kJ/mol
# Density = 1.998483 g / cm^3
# Si number density = 20.030423 Si / 1000 Ang^3
#
#
#
# Elastic Constant Matrix: (Units=GPa)
#
#
# Indices 1 2 3 4 5 6 
#
# 1 94.2772 22.2016 27.1682 0.0000 0.0000 0.0000
# 2 22.2016 37.4210 8.0941 0.0000 0.0000 0.0000
# 3 27.1682 8.0941 61.3112 0.0000 0.0000 0.0000
# 4 0.0000 0.0000 0.0000 31.4167 0.0000 0.0000
# 5 0.0000 0.0000 0.0000 0.0000 30.7851 0.0000
# 6 0.0000 0.0000 0.0000 0.0000 0.0000 15.1180
#
#
#
# Elastic Compliance Matrix: (Units=1/GPa)
#
#
# Indices 1 2 3 4 5 6 
#
# 1 0.013754 -0.007043 -0.005165 0.000000 0.000000 0.000000
# 2 -0.007043 0.031115 -0.000987 0.000000 0.000000 0.000000
# 3 -0.005165 -0.000987 0.018729 0.000000 0.000000 0.000000
# 4 0.000000 0.000000 0.000000 0.031830 0.000000 0.000000
# 5 0.000000 0.000000 0.000000 0.000000 0.032483 0.000000
# 6 0.000000 0.000000 0.000000 0.000000 0.000000 0.066147
#
#
# Mechanical properties :
#
#
# Convention : Reuss Voigt Hill
#
# Bulk Modulus (GPa) = 26.87536 34.21524 30.54530
# Shear Modulus (GPa) = 21.47301 24.50031 22.98666
#
# Velocity S-wave (km/s) = 3.27772 3.50116 3.39128
# Velocity P-wave (km/s) = 5.26982 5.78471 5.53326
#
# Compressibility (1/GPa) = 0.03720880
#
# Stress axis : x y z
#
# Youngs Moduli (GPa) = 72.70622 32.13884 53.39263
#
# Poissons Ratio (x) = 0.22635 0.27577
# Poissons Ratio (y) = 0.51207 0.05269
# Poissons Ratio (z) = 0.37552 0.03171
#
# Static dielectric constant tensor:
#      x y z
#    x 1.699140 0.000000 0.000000 
#    y 0.000000 1.707750 0.000000 
#    z 0.000000 0.000000 1.743470 
# 
# From -- ./inp_files/1981.got.cif
#   From: 2010.05.17/outbox.cif.g08.bks.cpg/sg19_1_cif.got.tgz:1981.got - 2010.06.03 22:46:19.
