data_PCOD9314445
_publ_section_title
;
Structure prediction by ZEFSAII (Michael W. Deem and Ramdas Pophale) SiO2 
 PCOD9314445
Probable space group: P 21 21 21
;
_chemical_formula_sum "Si O2"
_cell_formula_units_Z 32
_cell_length_a 27.496297
_cell_length_b 8.697117
_cell_length_c 5.712243
_cell_angle_alpha 90.000000
_cell_angle_beta 90.000000
_cell_angle_gamma 90.000000
_cell_volume 1366.017292
_symmetry_space_group_name_H-M "P 21 21 21"
_symmetry_group_IT_number 19
_symmetry_cell_setting 'orthorhombic'
loop_
_space_group_symop_operation_xyz
x,y,z
1/2-x,-y,1/2+z
1/2+x,1/2-y,-z
-x,1/2+y,1/2-z
loop_
_atom_site_type_symbol
_atom_site_label
_atom_site_fract_x
_atom_site_fract_y
_atom_site_fract_z
Si Si1 0.699136 0.846221 0.333963
Si Si2 0.705867 0.131713 0.088827
Si Si3 0.424454 0.967521 0.482572
Si Si4 0.176379 0.080200 0.145886
Si Si5 0.261936 0.864123 0.012052
Si Si6 0.056775 0.679409 0.968934
Si Si7 0.950170 0.561431 0.017755
Si Si8 0.900762 0.223698 0.033178
O O1 0.743453 0.922569 0.476359
O O2 0.727575 0.730420 0.165870
O O3 0.657334 0.774231 0.493077
O O4 0.677797 0.986095 0.183662
O O5 0.724177 0.250196 0.283332
O O6 0.675051 0.240380 0.918840
O O7 0.451889 0.132625 0.469500
O O8 0.367680 0.005402 0.526564
O O9 0.430684 0.881186 0.235638
O O10 0.438155 0.876154 0.720393
O O11 0.185302 0.078339 0.421908
O O12 0.227436 0.004952 0.073861
O O13 0.086938 0.653746 0.211126
O O14 0.078628 0.649884 0.709154
O O15 0.007674 0.582404 0.994287
O O16 0.926214 0.391593 0.033659
#
# Coordination Sequence:
#
# PCOD9314445 Si02
#       8
#     4   4   4   4   4   4   4   4
#     4  11  24  42  68  96 137 186 235 273 344 399
#     4  11  24  41  63  96 140 183 225 285 329 405
#     4  10  23  39  68  96 132 173 220 281 332 423
#     4  11  24  39  65 100 135 181 233 274 339 399
#     4  11  22  39  65  94 138 183 222 281 327 402
#     4  10  21  42  66  97 128 166 221 282 354 407
#     4  10  21  41  67  95 130 165 226 281 353 407
#     4  10  23  39  70 100 126 177 224 281 332 426
#
# _framework density 23.425763
#
# number of rings (size 3 to 8) (size 9 to 14) (size 15 to 20)
#    0.000    1.500    2.500    2.250    7.000    0.000 
#    0.000    7.500    0.000    0.000    0.000    0.000 
#    0.000    0.000    0.000    0.000    0.000    0.000 
#
# Total GULP energy -178338.970015 kJ/mol
# GULP energy per Si atom -5573.092813 kJ/mol
# Density = 2.337244 g / cm^3
# Si number density = 23.425763 Si / 1000 Ang^3
#
#
#
# Elastic Constant Matrix: (Units=GPa)
#
#
# Indices 1 2 3 4 5 6 
#
# 1 61.0663 10.6253 13.9304 0.0000 0.0000 0.0000
# 2 10.6253 68.0138 -2.7864 0.0000 0.0000 0.0000
# 3 13.9304 -2.7864 152.3695 0.0000 0.0000 0.0000
# 4 0.0000 0.0000 0.0000 25.4382 0.0000 0.0000
# 5 0.0000 0.0000 0.0000 0.0000 19.9123 0.0000
# 6 0.0000 0.0000 0.0000 0.0000 0.0000 26.4642
#
#
#
# Elastic Compliance Matrix: (Units=1/GPa)
#
#
# Indices 1 2 3 4 5 6 
#
# 1 0.017226 -0.002758 -0.001625 0.000000 0.000000 0.000000
# 2 -0.002758 0.015155 0.000529 0.000000 0.000000 0.000000
# 3 -0.001625 0.000529 0.006721 0.000000 0.000000 0.000000
# 4 0.000000 0.000000 0.000000 0.039311 0.000000 0.000000
# 5 0.000000 0.000000 0.000000 0.000000 0.050220 0.000000
# 6 0.000000 0.000000 0.000000 0.000000 0.000000 0.037787
#
#
# Mechanical properties :
#
#
# Convention : Reuss Voigt Hill
#
# Bulk Modulus (GPa) = 31.85186 36.10980 33.98083
# Shear Modulus (GPa) = 27.08651 31.67496 29.38074
#
# Velocity S-wave (km/s) = 3.40409 3.68114 3.54532
# Velocity P-wave (km/s) = 5.39230 5.78928 5.59431
#
# Compressibility (1/GPa) = 0.03139534
#
# Stress axis : x y z
#
# Youngs Moduli (GPa) = 58.05088 65.98303 148.78136
#
# Poissons Ratio (x) = 0.18196 0.24182
# Poissons Ratio (y) = 0.16009 -0.07875
# Poissons Ratio (z) = 0.09435 -0.03492
#
# Static dielectric constant tensor:
#      x y z
#    x 1.879170 0.000000 0.000000 
#    y 0.000000 1.913750 0.000000 
#    z 0.000000 0.000000 2.092270 
# 
# From -- ./inp_files/2332.got.cif
#   From: 2010.05.17/outbox.cif.g08.bks.cpg/sg19_2_cif.got.tgz:2332.got - 2010.06.03 22:46:19.
