data_PCOD9314064
_publ_section_title
;
Structure prediction by ZEFSAII (Michael W. Deem and Ramdas Pophale) SiO2 
 PCOD9314064
Probable space group: P 21 21 21
;
_chemical_formula_sum "Si O2"
_cell_formula_units_Z 32
_cell_length_a 5.475544
_cell_length_b 12.227182
_cell_length_c 21.724465
_cell_angle_alpha 90.000000
_cell_angle_beta 90.000000
_cell_angle_gamma 90.000000
_cell_volume 1454.463208
_symmetry_space_group_name_H-M "P 21 21 21"
_symmetry_group_IT_number 19
_symmetry_cell_setting 'orthorhombic'
loop_
_space_group_symop_operation_xyz
x,y,z
1/2-x,-y,1/2+z
1/2+x,1/2-y,-z
-x,1/2+y,1/2-z
loop_
_atom_site_type_symbol
_atom_site_label
_atom_site_fract_x
_atom_site_fract_y
_atom_site_fract_z
Si Si1 0.234734 0.667934 0.370587
Si Si2 0.503222 0.728604 0.254396
Si Si3 0.765679 0.061237 0.805730
Si Si4 0.570669 0.612010 0.585478
Si Si5 0.504151 0.280810 0.466799
Si Si6 0.494536 0.362927 0.748501
Si Si7 0.206635 0.485294 0.981831
Si Si8 0.051705 0.930494 0.906234
O O1 0.455256 0.669208 0.321001
O O2 0.245211 0.785137 0.404808
O O3 0.015052 0.655279 0.321779
O O4 0.208267 0.573888 0.420426
O O5 0.234230 0.712095 0.225265
O O6 0.742513 0.673768 0.225293
O O7 0.573322 0.854185 0.267303
O O8 0.581919 0.986517 0.766689
O O9 0.925655 0.979353 0.846398
O O10 0.615036 0.123381 0.858192
O O11 0.445042 0.605487 0.519694
O O12 0.690193 0.491723 0.591579
O O13 0.283763 0.238899 0.512065
O O14 0.450838 0.408959 0.462157
O O15 0.456364 0.199929 0.409760
O O16 0.405999 0.527323 0.032099
#
# Coordination Sequence:
#
# PCOD9314064 Si02
#       8
#     4   4   4   4   4   4   4   4
#     4  10  23  40  62  97 134 164 220 269 331 380
#     4  10  22  43  62  91 128 161 206 277 318 380
#     4  11  22  42  67  90 128 170 219 264 335 385
#     4  11  21  37  65  95 128 175 214 269 321 396
#     4  10  20  41  59  86 131 164 211 258 307 374
#     4  10  24  42  65  91 126 167 210 268 321 382
#     4  10  23  37  61  99 133 178 210 271 329 387
#     4  10  21  38  63  93 126 173 222 260 318 390
#
# _framework density 22.001242999999999
#
# number of rings (size 3 to 8) (size 9 to 14) (size 15 to 20)
#    0.750    1.000    3.750    0.000    3.500    1.000 
#    2.250    0.000    0.000    0.000    0.000    0.000 
#    0.000    0.000    0.000    0.000    0.000    0.000 
#
# Total GULP energy -178295.290393 kJ/mol
# GULP energy per Si atom -5571.727825 kJ/mol
# Density = 2.195117 g / cm^3
# Si number density = 22.001243 Si / 1000 Ang^3
#
#
#
# Elastic Constant Matrix: (Units=GPa)
#
#
# Indices 1 2 3 4 5 6 
#
# 1 91.7775 8.2082 12.9768 0.0000 0.0000 0.0000
# 2 8.2082 73.6480 17.4750 0.0000 0.0000 0.0000
# 3 12.9768 17.4750 39.0947 0.0000 0.0000 0.0000
# 4 0.0000 0.0000 0.0000 14.0965 0.0000 0.0000
# 5 0.0000 0.0000 0.0000 0.0000 23.4809 0.0000
# 6 0.0000 0.0000 0.0000 0.0000 0.0000 15.1537
#
#
#
# Elastic Compliance Matrix: (Units=1/GPa)
#
#
# Indices 1 2 3 4 5 6 
#
# 1 0.011444 -0.000419 -0.003612 0.000000 0.000000 0.000000
# 2 -0.000419 0.015204 -0.006657 0.000000 0.000000 0.000000
# 3 -0.003612 -0.006657 0.029753 0.000000 0.000000 0.000000
# 4 0.000000 0.000000 0.000000 0.070939 0.000000 0.000000
# 5 0.000000 0.000000 0.000000 0.000000 0.042588 0.000000
# 6 0.000000 0.000000 0.000000 0.000000 0.000000 0.065990
#
#
# Mechanical properties :
#
#
# Convention : Reuss Voigt Hill
#
# Bulk Modulus (GPa) = 28.54934 31.31558 29.93246
# Shear Modulus (GPa) = 18.58944 21.60357 20.09651
#
# Velocity S-wave (km/s) = 2.90992 3.13697 3.02557
# Velocity P-wave (km/s) = 4.92895 5.23309 5.08329
#
# Compressibility (1/GPa) = 0.03502707
#
# Stress axis : x y z
#
# Youngs Moduli (GPa) = 87.38198 65.77058 33.60952
#
# Poissons Ratio (x) = 0.02753 0.12138
# Poissons Ratio (y) = 0.03657 0.22375
# Poissons Ratio (z) = 0.31559 0.43785
#
# Static dielectric constant tensor:
#      x y z
#    x 1.937680 0.000000 0.000000 
#    y 0.000000 1.840920 0.000000 
#    z 0.000000 0.000000 1.826480 
# 
# From -- ./inp_files/2175.got.cif
#   From: 2010.05.17/outbox.cif.g08.bks.cpg/sg19_2_cif.got.tgz:2175.got - 2010.06.03 22:46:19.
