data_PCOD9314686
_publ_section_title
;
Structure prediction by ZEFSAII (Michael W. Deem and Ramdas Pophale) SiO2 
 PCOD9314686
Probable space group: P 21 21 21
;
_chemical_formula_sum "Si O2"
_cell_formula_units_Z 32
_cell_length_a 13.377587
_cell_length_b 12.629064
_cell_length_c 9.574455
_cell_angle_alpha 90.000000
_cell_angle_beta 90.000000
_cell_angle_gamma 90.000000
_cell_volume 1617.569727
_symmetry_space_group_name_H-M "P 21 21 21"
_symmetry_group_IT_number 19
_symmetry_cell_setting 'orthorhombic'
loop_
_space_group_symop_operation_xyz
x,y,z
1/2-x,-y,1/2+z
1/2+x,1/2-y,-z
-x,1/2+y,1/2-z
loop_
_atom_site_type_symbol
_atom_site_label
_atom_site_fract_x
_atom_site_fract_y
_atom_site_fract_z
Si Si1 0.226779 0.743485 0.610568
Si Si2 0.433115 0.620903 0.654248
Si Si3 0.933115 0.120903 0.345752
Si Si4 0.726779 0.243485 0.389432
Si Si5 0.531402 0.820052 0.531255
Si Si6 0.832942 0.621725 0.622215
Si Si7 0.968598 0.820052 0.031255
Si Si8 0.667058 0.621725 0.122215
O O1 0.322562 0.671617 0.646964
O O2 0.139235 0.676338 0.538915
O O3 0.264819 0.831808 0.501764
O O4 0.185497 0.802743 0.746299
O O5 0.434004 0.500000 0.607613
O O6 0.502382 0.697249 0.561209
O O7 0.468657 0.628560 0.815062
O O8 0.822562 0.171617 0.353036
O O9 0.968657 0.128560 0.184938
O O10 0.002382 0.197249 0.438791
O O11 0.685497 0.302743 0.253701
O O12 0.639236 0.176338 0.461084
O O13 0.764820 0.331807 0.498236
O O14 0.446135 0.868118 0.433605
O O15 0.809037 0.500000 0.653735
O O16 0.053865 0.868118 0.933605
#
# Coordination Sequence:
#
# PCOD9314686 Si02
#       8
#     4   4   4   4   4   4   4   4
#     4  11  22  43  61  94 128 158 208 259 305 372
#     4  10  22  40  65  92 126 169 204 253 317 367
#     4  10  22  40  65  92 126 169 204 253 317 367
#     4  11  22  43  61  94 128 158 208 259 305 372
#     4  10  22  42  61  91 129 160 209 261 301 375
#     4  11  23  39  64  91 123 165 206 257 313 367
#     4  10  22  42  61  91 129 160 209 261 301 375
#     4  11  23  39  64  91 123 165 206 257 313 367
#
# _framework density 19.782762999999999
#
# number of rings (size 3 to 8) (size 9 to 14) (size 15 to 20)
#    0.000    1.500    2.500    2.250    0.000    4.000 
#    0.000    0.000    0.000    0.000    0.000    0.000 
#    0.000    0.000    0.000    0.000    0.000    0.000 
#
# Total GULP energy -178901.424158 kJ/mol
# GULP energy per Si atom -5590.669505 kJ/mol
# Density = 1.973774 g / cm^3
# Si number density = 19.782763 Si / 1000 Ang^3
#
#
#
# Elastic Constant Matrix: (Units=GPa)
#
#
# Indices 1 2 3 4 5 6 
#
# 1 57.9600 -21.4525 -15.6365 0.0000 0.0000 0.0000
# 2 -21.4525 67.7546 0.7466 0.0000 0.0000 0.0000
# 3 -15.6365 0.7466 36.9741 0.0000 0.0000 0.0000
# 4 0.0000 0.0000 0.0000 7.5131 0.0000 0.0000
# 5 0.0000 0.0000 0.0000 0.0000 36.7496 0.0000
# 6 0.0000 0.0000 0.0000 0.0000 0.0000 5.2689
#
#
#
# Elastic Compliance Matrix: (Units=1/GPa)
#
#
# Indices 1 2 3 4 5 6 
#
# 1 0.022345 0.006972 0.009309 0.000000 0.000000 0.000000
# 2 0.006972 0.016938 0.002607 0.000000 0.000000 0.000000
# 3 0.009309 0.002607 0.030930 0.000000 0.000000 0.000000
# 4 0.000000 0.000000 0.000000 0.133102 0.000000 0.000000
# 5 0.000000 0.000000 0.000000 0.000000 0.027211 0.000000
# 6 0.000000 0.000000 0.000000 0.000000 0.000000 0.189792
#
#
# Mechanical properties :
#
#
# Convention : Reuss Voigt Hill
#
# Bulk Modulus (GPa) = 9.26009 10.00042 9.63026
# Shear Modulus (GPa) = 11.94631 23.17505 17.56068
#
# Velocity S-wave (km/s) = 2.46005 3.42640 2.98262
# Velocity P-wave (km/s) = 3.57214 4.55189 4.09145
#
# Compressibility (1/GPa) = 0.10799028
#
# Stress axis : x y z
#
# Youngs Moduli (GPa) = 44.75189 59.03867 32.33083
#
# Poissons Ratio (x) = -0.41164 -0.30097
# Poissons Ratio (y) = -0.31203 -0.08428
# Poissons Ratio (z) = -0.41660 -0.15389
#
# Static dielectric constant tensor:
#      x y z
#    x 1.692680 0.000000 0.000000 
#    y 0.000000 1.683740 0.000000 
#    z 0.000000 0.000000 1.674590 
# 
# From -- ./inp_files/3938.got.cif
#   From: 2010.05.17/outbox.cif.g08.bks.cpg/sg19_2_cif.got.tgz:3938.got - 2010.06.03 22:46:19.
