data_PCOD9314005
_publ_section_title
;
Structure prediction by ZEFSAII (Michael W. Deem and Ramdas Pophale) SiO2 
 PCOD9314005
Probable space group: P 21 21 21
;
_chemical_formula_sum "Si O2"
_cell_formula_units_Z 28
_cell_length_a 24.107293
_cell_length_b 5.339358
_cell_length_c 9.249229
_cell_angle_alpha 90.000000
_cell_angle_beta 90.000000
_cell_angle_gamma 90.000000
_cell_volume 1190.537335
_symmetry_space_group_name_H-M "P 21 21 21"
_symmetry_group_IT_number 19
_symmetry_cell_setting 'orthorhombic'
loop_
_space_group_symop_operation_xyz
x,y,z
1/2-x,-y,1/2+z
1/2+x,1/2-y,-z
-x,1/2+y,1/2-z
loop_
_atom_site_type_symbol
_atom_site_label
_atom_site_fract_x
_atom_site_fract_y
_atom_site_fract_z
Si Si1 0.617702 0.829231 0.099647
Si Si2 0.789047 0.527936 0.585046
Si Si3 0.626999 0.222168 0.878233
Si Si4 0.017254 0.008281 0.164611
Si Si5 0.514674 0.511215 0.164662
Si Si6 0.295756 0.652957 0.870060
Si Si7 0.806683 0.909325 0.804097
O O1 0.577532 0.607991 0.144632
O O2 0.636795 0.979547 0.240337
O O3 0.675138 0.714508 0.042464
O O4 0.595980 0.016575 0.977149
O O5 0.816822 0.716320 0.470441
O O6 0.726205 0.436637 0.597054
O O7 0.804719 0.624706 0.745022
O O8 0.583589 0.444735 0.852913
O O9 0.649141 0.137964 0.723832
O O10 0.995882 0.251385 0.252339
O O11 0.993250 0.003920 0.000743
O O12 0.488995 0.743577 0.255950
O O13 0.246969 0.523749 0.777528
O O14 0.302483 0.542597 0.028144
#
# Coordination Sequence:
#
# PCOD9314005 Si02
#       7
#     4   4   4   4   4   4   4
#     4  10  22  43  67  98 137 190 239 304 382 448
#     4  10  20  39  68  93 137 186 240 293 374 446
#     4  11  23  43  73  98 143 201 240 312 389 448
#     4  12  27  51  77 114 155 201 261 325 390 467
#     4  12  26  48  82 109 146 197 259 322 391 455
#     4  11  22  40  64 101 139 189 244 300 372 454
#     4  10  22  38  63  97 141 178 245 300 362 456
#
# _framework density 23.518792000000001
#
# number of rings (size 3 to 8) (size 9 to 14) (size 15 to 20)
#    0.000    1.143    1.429    6.000    2.000    2.286 
#    2.571    1.429    0.000    0.000    0.000    0.000 
#    0.000    0.000    0.000    0.000    0.000    0.000 
#
# Total GULP energy -156350.319981 kJ/mol
# GULP energy per Si atom -5583.939999 kJ/mol
# Density = 2.346526 g / cm^3
# Si number density = 23.518792 Si / 1000 Ang^3
#
#
#
# Elastic Constant Matrix: (Units=GPa)
#
#
# Indices 1 2 3 4 5 6 
#
# 1 63.0860 20.2092 40.6564 0.0000 0.0000 0.0000
# 2 20.2092 104.9379 59.1400 0.0000 0.0000 0.0000
# 3 40.6564 59.1400 210.6361 0.0000 0.0000 0.0000
# 4 0.0000 0.0000 0.0000 42.3253 0.0000 0.0000
# 5 0.0000 0.0000 0.0000 0.0000 29.9087 0.0000
# 6 0.0000 0.0000 0.0000 0.0000 0.0000 34.3046
#
#
#
# Elastic Compliance Matrix: (Units=1/GPa)
#
#
# Indices 1 2 3 4 5 6 
#
# 1 0.018395 -0.001831 -0.003036 0.000000 0.000000 0.000000
# 2 -0.001831 0.011503 -0.002876 0.000000 0.000000 0.000000
# 3 -0.003036 -0.002876 0.006141 0.000000 0.000000 0.000000
# 4 0.000000 0.000000 0.000000 0.023627 0.000000 0.000000
# 5 0.000000 0.000000 0.000000 0.000000 0.033435 0.000000
# 6 0.000000 0.000000 0.000000 0.000000 0.000000 0.029151
#
#
# Mechanical properties :
#
#
# Convention : Reuss Voigt Hill
#
# Bulk Modulus (GPa) = 48.65881 68.74127 58.70004
# Shear Modulus (GPa) = 34.58066 38.55135 36.56600
#
# Velocity S-wave (km/s) = 3.83866 4.05306 3.94732
# Velocity P-wave (km/s) = 6.35463 7.15505 6.76669
#
# Compressibility (1/GPa) = 0.02055126
#
# Stress axis : x y z
#
# Youngs Moduli (GPa) = 54.36307 86.93320 162.83601
#
# Poissons Ratio (x) = 0.15920 0.49443
# Poissons Ratio (y) = 0.09956 0.46835
# Poissons Ratio (z) = 0.16506 0.25004
#
# Static dielectric constant tensor:
#      x y z
#    x 1.923430 0.000000 0.000000 
#    y 0.000000 1.989840 0.000000 
#    z 0.000000 0.000000 1.913650 
# 
# From -- ./inp_files/4353.got.cif
#   From: 2010.05.17/outbox.cif.g08.bks.cpg/sg19_3_cif.got.tgz:4353.got - 2010.06.03 22:46:19.
