data_PCOD9314047
_publ_section_title
;
Structure prediction by ZEFSAII (Michael W. Deem and Ramdas Pophale) SiO2 
 PCOD9314047
Probable space group: P 21 21 21
;
_chemical_formula_sum "Si O2"
_cell_formula_units_Z 32
_cell_length_a 15.990042
_cell_length_b 9.318997
_cell_length_c 9.526306
_cell_angle_alpha 90.000000
_cell_angle_beta 90.000000
_cell_angle_gamma 90.000000
_cell_volume 1419.525845
_symmetry_space_group_name_H-M "P 21 21 21"
_symmetry_group_IT_number 19
_symmetry_cell_setting 'orthorhombic'
loop_
_space_group_symop_operation_xyz
x,y,z
1/2-x,-y,1/2+z
1/2+x,1/2-y,-z
-x,1/2+y,1/2-z
loop_
_atom_site_type_symbol
_atom_site_label
_atom_site_fract_x
_atom_site_fract_y
_atom_site_fract_z
Si Si1 0.906313 0.340657 0.292735
Si Si2 0.245290 0.338777 0.321354
Si Si3 0.107518 0.168662 0.671578
Si Si4 0.881003 0.354585 0.840462
Si Si5 0.263546 0.366855 0.652037
Si Si6 0.080100 0.170150 0.256842
Si Si7 0.488831 0.833456 0.466552
Si Si8 0.982169 0.360681 0.562978
O O1 0.827479 0.240555 0.268329
O O2 0.914955 0.497299 0.222935
O O3 0.903024 0.365673 0.461570
O O4 0.991251 0.247790 0.284157
O O5 0.311676 0.243837 0.232496
O O6 0.274855 0.373625 0.481461
O O7 0.231405 0.481768 0.230036
O O8 0.158788 0.249396 0.324462
O O9 0.173338 0.295800 0.672436
O O10 0.063191 0.164296 0.822770
O O11 0.035519 0.215886 0.562914
O O12 0.147601 0.016502 0.630089
O O13 0.951503 0.374523 0.721030
O O14 0.933691 0.276456 0.962208
O O15 0.078484 0.191248 0.087662
O O16 0.528875 0.993123 0.481025
#
# Coordination Sequence:
#
# PCOD9314047 Si02
#       8
#     4   4   4   4   4   4   4   4
#     4  11  23  45  67  96 137 180 222 283 348 416
#     4  12  27  46  68 103 140 188 235 293 347 415
#     4  10  21  38  67  97 129 174 220 280 336 408
#     4  10  20  40  66  98 129 173 227 275 340 407
#     4  12  27  45  68  99 139 183 233 288 351 407
#     4  11  25  44  69 101 139 179 229 283 350 413
#     4   9  21  39  65  98 132 175 219 275 334 416
#     4   9  18  39  64  90 131 170 219 269 334 404
#
# _framework density 22.542738
#
# number of rings (size 3 to 8) (size 9 to 14) (size 15 to 20)
#    0.000    1.500    1.250    3.000    1.750    7.000 
#    0.000    0.000    0.000    0.000    0.000    0.000 
#    0.000    0.000    0.000    0.000    0.000    0.000 
#
# Total GULP energy -178459.318491 kJ/mol
# GULP energy per Si atom -5576.853703 kJ/mol
# Density = 2.249143 g / cm^3
# Si number density = 22.542738 Si / 1000 Ang^3
#
#
#
# Elastic Constant Matrix: (Units=GPa)
#
#
# Indices 1 2 3 4 5 6 
#
# 1 50.9526 24.9218 11.1871 0.0000 0.0000 0.0000
# 2 24.9218 117.5214 38.2252 0.0000 0.0000 0.0000
# 3 11.1871 38.2252 57.2410 0.0000 0.0000 0.0000
# 4 0.0000 0.0000 0.0000 27.7130 0.0000 0.0000
# 5 0.0000 0.0000 0.0000 0.0000 29.9882 0.0000
# 6 0.0000 0.0000 0.0000 0.0000 0.0000 41.6150
#
#
#
# Elastic Compliance Matrix: (Units=1/GPa)
#
#
# Indices 1 2 3 4 5 6 
#
# 1 0.021999 -0.004173 -0.001513 0.000000 0.000000 0.000000
# 2 -0.004173 0.011662 -0.006972 0.000000 0.000000 0.000000
# 3 -0.001513 -0.006972 0.022422 0.000000 0.000000 0.000000
# 4 0.000000 0.000000 0.000000 0.036084 0.000000 0.000000
# 5 0.000000 0.000000 0.000000 0.000000 0.033346 0.000000
# 6 0.000000 0.000000 0.000000 0.000000 0.000000 0.024030
#
#
# Mechanical properties :
#
#
# Convention : Reuss Voigt Hill
#
# Bulk Modulus (GPa) = 32.50256 41.59813 37.05034
# Shear Modulus (GPa) = 27.01028 29.95530 28.48279
#
# Velocity S-wave (km/s) = 3.46523 3.64926 3.55843
# Velocity P-wave (km/s) = 5.51905 6.02073 5.77534
#
# Compressibility (1/GPa) = 0.03076681
#
# Stress axis : x y z
#
# Youngs Moduli (GPa) = 45.45579 85.74996 44.59996
#
# Poissons Ratio (x) = 0.35785 0.06747
# Poissons Ratio (y) = 0.18970 0.31095
# Poissons Ratio (z) = 0.06876 0.59786
#
# Static dielectric constant tensor:
#      x y z
#    x 1.801330 0.000000 0.000000 
#    y 0.000000 1.901310 0.000000 
#    z 0.000000 0.000000 1.949850 
# 
# From -- ./inp_files/5218.got.cif
#   From: 2010.05.17/outbox.cif.g08.bks.cpg/sg19_3_cif.got.tgz:5218.got - 2010.06.03 22:46:19.
