data_PCOD9314740
_publ_section_title
;
Structure prediction by ZEFSAII (Michael W. Deem and Ramdas Pophale) SiO2 
 PCOD9314740
Probable space group: P 21 21 21
;
_chemical_formula_sum "Si O2"
_cell_formula_units_Z 24
_cell_length_a 8.051222
_cell_length_b 7.809282
_cell_length_c 15.396555
_cell_angle_alpha 90.000000
_cell_angle_beta 90.000000
_cell_angle_gamma 90.000000
_cell_volume 968.047049
_symmetry_space_group_name_H-M "P 21 21 21"
_symmetry_group_IT_number 19
_symmetry_cell_setting 'orthorhombic'
loop_
_space_group_symop_operation_xyz
x,y,z
1/2-x,-y,1/2+z
1/2+x,1/2-y,-z
-x,1/2+y,1/2-z
loop_
_atom_site_type_symbol
_atom_site_label
_atom_site_fract_x
_atom_site_fract_y
_atom_site_fract_z
Si Si1 0.689228 0.564783 0.854996
Si Si2 0.859300 0.392538 0.016319
Si Si3 0.080914 0.927727 0.872204
Si Si4 0.627866 0.836125 0.998502
Si Si5 0.833413 0.048999 0.119082
Si Si6 0.934842 0.735110 0.720505
O O1 0.505992 0.493860 0.832811
O O2 0.805931 0.618269 0.775843
O O3 0.775970 0.433171 0.922925
O O4 0.667197 0.739507 0.910355
O O5 0.749371 0.495953 0.087308
O O6 0.869675 0.199604 0.049271
O O7 0.034831 0.486332 0.015424
O O8 0.018926 0.801393 0.947084
O O9 0.066634 0.813020 0.786313
O O10 0.986475 0.104008 0.848708
O O11 0.769782 0.883495 0.067789
O O12 0.680894 0.120463 0.176856
#
# Coordination Sequence:
#
# PCOD9314740 Si02
#       6
#     4   4   4   4   4   4
#     4  11  23  42  68  97 134 179 225 279 340 403
#     4  10  22  42  68  96 132 175 229 275 333 401
#     4  10  22  41  66  95 133 174 218 277 329 400
#     4  11  22  43  67  98 134 179 224 279 337 405
#     4  11  25  41  66 100 138 175 228 280 339 413
#     4  11  24  43  67 100 139 178 226 280 348 398
#
# _framework density 24.792180999999999
#
# number of rings (size 3 to 8) (size 9 to 14) (size 15 to 20)
#    0.000    1.333    1.667    4.000    2.333    4.000 
#    0.000    3.333    0.000    0.000    0.000    0.000 
#    0.000    0.000    0.000    0.000    0.000    0.000 
#
# Total GULP energy -134203.592911 kJ/mol
# GULP energy per Si atom -5591.816371 kJ/mol
# Density = 2.473575 g / cm^3
# Si number density = 24.792181 Si / 1000 Ang^3
#
#
#
# Elastic Constant Matrix: (Units=GPa)
#
#
# Indices 1 2 3 4 5 6 
#
# 1 37.5877 28.9224 15.4142 0.0000 0.0000 0.0000
# 2 28.9224 96.6918 35.9769 0.0000 0.0000 0.0000
# 3 15.4142 35.9769 92.4698 0.0000 0.0000 0.0000
# 4 0.0000 0.0000 0.0000 45.2725 0.0000 0.0000
# 5 0.0000 0.0000 0.0000 0.0000 38.8333 0.0000
# 6 0.0000 0.0000 0.0000 0.0000 0.0000 43.4943
#
#
#
# Elastic Compliance Matrix: (Units=1/GPa)
#
#
# Indices 1 2 3 4 5 6 
#
# 1 0.034889 -0.009672 -0.002053 0.000000 0.000000 0.000000
# 2 -0.009672 0.014774 -0.004136 0.000000 0.000000 0.000000
# 3 -0.002053 -0.004136 0.012766 0.000000 0.000000 0.000000
# 4 0.000000 0.000000 0.000000 0.022088 0.000000 0.000000
# 5 0.000000 0.000000 0.000000 0.000000 0.025751 0.000000
# 6 0.000000 0.000000 0.000000 0.000000 0.000000 0.022992
#
#
# Mechanical properties :
#
#
# Convention : Reuss Voigt Hill
#
# Bulk Modulus (GPa) = 32.56572 43.04180 37.80376
# Shear Modulus (GPa) = 28.53620 35.28241 31.90930
#
# Velocity S-wave (km/s) = 3.39634 3.77653 3.59147
# Velocity P-wave (km/s) = 5.34268 6.03448 5.69908
#
# Compressibility (1/GPa) = 0.03070714
#
# Stress axis : x y z
#
# Youngs Moduli (GPa) = 28.66274 67.68606 78.33545
#
# Poissons Ratio (x) = 0.65467 0.16079
# Poissons Ratio (y) = 0.27723 0.32398
# Poissons Ratio (z) = 0.05883 0.27994
#
# Static dielectric constant tensor:
#      x y z
#    x 1.986580 0.000000 0.000000 
#    y 0.000000 1.954070 0.000000 
#    z 0.000000 0.000000 1.980840 
# 
# From -- ./inp_files/5842.got.cif
#   From: 2010.05.17/outbox.cif.g08.bks.cpg/sg19_3_cif.got.tgz:5842.got - 2010.06.03 22:46:19.
