data_PCOD9314434
_publ_section_title
;
Structure prediction by ZEFSAII (Michael W. Deem and Ramdas Pophale) SiO2 
 PCOD9314434
Probable space group: P 21 21 21
;
_chemical_formula_sum "Si O2"
_cell_formula_units_Z 32
_cell_length_a 9.169729
_cell_length_b 11.590243
_cell_length_c 12.766790
_cell_angle_alpha 90.000000
_cell_angle_beta 90.000000
_cell_angle_gamma 90.000000
_cell_volume 1356.846620
_symmetry_space_group_name_H-M "P 21 21 21"
_symmetry_group_IT_number 19
_symmetry_cell_setting 'orthorhombic'
loop_
_space_group_symop_operation_xyz
x,y,z
1/2-x,-y,1/2+z
1/2+x,1/2-y,-z
-x,1/2+y,1/2-z
loop_
_atom_site_type_symbol
_atom_site_label
_atom_site_fract_x
_atom_site_fract_y
_atom_site_fract_z
Si Si1 0.639564 0.073127 0.852344
Si Si2 0.822988 0.523203 0.516844
Si Si3 0.898393 0.269459 0.068048
Si Si4 0.835070 0.692950 0.096725
Si Si5 0.379187 0.978447 0.718646
Si Si6 0.049764 0.634729 0.646116
Si Si7 0.835064 0.156617 0.462142
Si Si8 0.284385 0.775476 0.239267
O O1 0.555642 0.184179 0.896340
O O2 0.797864 0.096990 0.807653
O O3 0.531245 0.018739 0.767803
O O4 0.653461 0.979972 0.945589
O O5 0.702547 0.619696 0.541781
O O6 0.740377 0.403081 0.523168
O O7 0.887555 0.546913 0.403213
O O8 0.947689 0.530860 0.604738
O O9 0.814928 0.218470 0.168923
O O10 0.911461 0.199092 0.962239
O O11 0.831317 0.631215 0.210523
O O12 0.002915 0.706960 0.060964
O O13 0.740131 0.804589 0.069599
O O14 0.276907 0.092821 0.727457
O O15 0.948825 0.712410 0.719953
O O16 0.736841 0.205622 0.366770
#
# Coordination Sequence:
#
# PCOD9314434 Si02
#       8
#     4   4   4   4   4   4   4   4
#     4  10  22  42  65 104 139 169 230 296 328 416
#     4  11  21  43  70  89 133 187 215 282 350 404
#     4  10  21  44  68  96 132 175 235 280 343 405
#     4  11  23  44  67  97 133 186 222 285 343 414
#     4  10  21  43  66  95 134 180 227 273 346 402
#     4  11  23  41  71  99 133 173 230 286 338 413
#     4  11  24  42  69  98 142 178 227 284 350 409
#     4  10  21  41  66  94 130 176 220 274 340 411
#
# _framework density 23.584095000000001
#
# number of rings (size 3 to 8) (size 9 to 14) (size 15 to 20)
#    0.000    1.500    6.250    1.500    5.250    0.000 
#    4.500    2.500    0.000    0.000    0.000    0.000 
#    0.000    0.000    0.000    0.000    0.000    0.000 
#
# Total GULP energy -179055.893879 kJ/mol
# GULP energy per Si atom -5595.496684 kJ/mol
# Density = 2.353042 g / cm^3
# Si number density = 23.584095 Si / 1000 Ang^3
#
#
#
# Elastic Constant Matrix: (Units=GPa)
#
#
# Indices 1 2 3 4 5 6 
#
# 1 87.2156 1.1637 30.0903 0.0000 0.0000 0.0000
# 2 1.1637 32.5698 20.7065 0.0000 0.0000 0.0000
# 3 30.0903 20.7065 97.0636 0.0000 0.0000 0.0000
# 4 0.0000 0.0000 0.0000 32.9125 0.0000 0.0000
# 5 0.0000 0.0000 0.0000 0.0000 16.3353 0.0000
# 6 0.0000 0.0000 0.0000 0.0000 0.0000 21.6712
#
#
#
# Elastic Compliance Matrix: (Units=1/GPa)
#
#
# Indices 1 2 3 4 5 6 
#
# 1 0.013003 0.002427 -0.004549 0.000000 0.000000 0.000000
# 2 0.002427 0.035974 -0.008427 0.000000 0.000000 0.000000
# 3 -0.004549 -0.008427 0.013510 0.000000 0.000000 0.000000
# 4 0.000000 0.000000 0.000000 0.030384 0.000000 0.000000
# 5 0.000000 0.000000 0.000000 0.000000 0.061217 0.000000
# 6 0.000000 0.000000 0.000000 0.000000 0.000000 0.046144
#
#
# Mechanical properties :
#
#
# Convention : Reuss Voigt Hill
#
# Bulk Modulus (GPa) = 24.16002 35.64110 29.90056
# Shear Modulus (GPa) = 21.26528 25.17639 23.22083
#
# Velocity S-wave (km/s) = 3.00605 3.27083 3.14123
# Velocity P-wave (km/s) = 4.72387 5.42306 5.08549
#
# Compressibility (1/GPa) = 0.04139069
#
# Stress axis : x y z
#
# Youngs Moduli (GPa) = 76.90642 27.79792 74.01742
#
# Poissons Ratio (x) = -0.06747 0.33669
# Poissons Ratio (y) = -0.18668 0.62373
# Poissons Ratio (z) = 0.34983 0.23425
#
# Static dielectric constant tensor:
#      x y z
#    x 1.895100 0.000000 0.000000 
#    y 0.000000 1.919420 0.000000 
#    z 0.000000 0.000000 1.908560 
# 
# From -- ./inp_files/5957.got.cif
#   From: 2010.05.17/outbox.cif.g08.bks.cpg/sg19_3_cif.got.tgz:5957.got - 2010.06.03 22:46:19.
