data_PCOD9314070
_publ_section_title
;
Structure prediction by ZEFSAII (Michael W. Deem and Ramdas Pophale) SiO2 
 PCOD9314070
Probable space group: P 21 21 21
;
_chemical_formula_sum "Si O2"
_cell_formula_units_Z 28
_cell_length_a 10.131343
_cell_length_b 12.661417
_cell_length_c 11.232568
_cell_angle_alpha 90.000000
_cell_angle_beta 90.000000
_cell_angle_gamma 90.000000
_cell_volume 1440.881906
_symmetry_space_group_name_H-M "P 21 21 21"
_symmetry_group_IT_number 19
_symmetry_cell_setting 'orthorhombic'
loop_
_space_group_symop_operation_xyz
x,y,z
1/2-x,-y,1/2+z
1/2+x,1/2-y,-z
-x,1/2+y,1/2-z
loop_
_atom_site_type_symbol
_atom_site_label
_atom_site_fract_x
_atom_site_fract_y
_atom_site_fract_z
Si Si1 0.367646 0.081751 0.705877
Si Si2 0.115052 0.337435 0.436788
Si Si3 0.085779 0.738551 0.392096
Si Si4 0.049640 0.125290 0.313593
Si Si5 0.398914 0.445508 0.445595
Si Si6 0.899252 0.700443 0.831213
Si Si7 0.626737 0.193932 0.074207
O O1 0.490329 0.098689 0.616062
O O2 0.398109 0.150558 0.823691
O O3 0.235721 0.132975 0.651670
O O4 0.359060 0.962551 0.752580
O O5 0.123815 0.232277 0.353519
O O6 0.248745 0.404192 0.441637
O O7 0.089477 0.289362 0.567227
O O8 0.220070 0.709362 0.457289
O O9 0.057161 0.657192 0.285816
O O10 0.964656 0.746739 0.480495
O O11 0.970730 0.082778 0.428918
O O12 0.480788 0.380153 0.347850
O O13 0.405061 0.570115 0.425603
O O14 0.892991 0.755049 0.703609
#
# Coordination Sequence:
#
# PCOD9314070 Si02
#       7
#     4   4   4   4   4   4   4
#     4  10  20  41  64  85 126 169 203 251 329 372
#     4  10  21  38  65  92 120 165 208 258 312 373
#     4  10  22  40  62  92 122 164 207 262 301 376
#     4  10  21  41  65  90 125 166 211 254 322 378
#     4  11  22  41  67  92 124 164 210 262 310 375
#     4  10  23  41  59  93 129 161 207 266 306 376
#     4  11  23  42  62  90 132 159 210 259 314 368
#
# _framework density 19.432544
#
# number of rings (size 3 to 8) (size 9 to 14) (size 15 to 20)
#    0.000    1.714    1.429    4.286    0.000    4.571 
#   10.286    0.000    0.000    0.000    0.000    0.000 
#    0.000    0.000    0.000    0.000    0.000    0.000 
#
# Total GULP energy -156363.175440 kJ/mol
# GULP energy per Si atom -5584.399123 kJ/mol
# Density = 1.938831 g / cm^3
# Si number density = 19.432544 Si / 1000 Ang^3
#
#
#
# Elastic Constant Matrix: (Units=GPa)
#
#
# Indices 1 2 3 4 5 6 
#
# 1 64.8293 1.0344 25.1415 0.0000 0.0000 0.0000
# 2 1.0344 40.5970 9.3549 0.0000 0.0000 0.0000
# 3 25.1415 9.3549 49.7161 0.0000 0.0000 0.0000
# 4 0.0000 0.0000 0.0000 10.4046 0.0000 0.0000
# 5 0.0000 0.0000 0.0000 0.0000 26.3088 0.0000
# 6 0.0000 0.0000 0.0000 0.0000 0.0000 13.5834
#
#
#
# Elastic Compliance Matrix: (Units=1/GPa)
#
#
# Indices 1 2 3 4 5 6 
#
# 1 0.019319 0.001839 -0.010115 0.000000 0.000000 0.000000
# 2 0.001839 0.025924 -0.005808 0.000000 0.000000 0.000000
# 3 -0.010115 -0.005808 0.026322 0.000000 0.000000 0.000000
# 4 0.000000 0.000000 0.000000 0.096111 0.000000 0.000000
# 5 0.000000 0.000000 0.000000 0.000000 0.038010 0.000000
# 6 0.000000 0.000000 0.000000 0.000000 0.000000 0.073619
#
#
# Mechanical properties :
#
#
# Convention : Reuss Voigt Hill
#
# Bulk Modulus (GPa) = 23.04370 25.13377 24.08873
# Shear Modulus (GPa) = 15.53085 18.03347 16.78216
#
# Velocity S-wave (km/s) = 2.83011 3.04962 2.94191
# Velocity P-wave (km/s) = 4.75010 5.03609 4.89518
#
# Compressibility (1/GPa) = 0.04339580
#
# Stress axis : x y z
#
# Youngs Moduli (GPa) = 51.76337 38.57453 37.99037
#
# Poissons Ratio (x) = -0.07093 0.38429
# Poissons Ratio (y) = -0.09518 0.22064
# Poissons Ratio (z) = 0.52361 0.22403
#
# Static dielectric constant tensor:
#      x y z
#    x 1.675780 0.000000 0.000000 
#    y 0.000000 1.701130 0.000000 
#    z 0.000000 0.000000 1.662930 
# 
# From -- ./inp_files/4608.got.cif
#   From: 2010.05.17/outbox.cif.g08.bks.cpg/sg19_3_cif.got.tgz:4608.got - 2010.06.03 22:46:19.
