data_PCOD9314152
_publ_section_title
;
Structure prediction by ZEFSAII (Michael W. Deem and Ramdas Pophale) SiO2 
 PCOD9314152
Probable space group: P 21 21 21
;
_chemical_formula_sum "Si O2"
_cell_formula_units_Z 20
_cell_length_a 11.293688
_cell_length_b 7.516889
_cell_length_c 9.333556
_cell_angle_alpha 90.000000
_cell_angle_beta 90.000000
_cell_angle_gamma 90.000000
_cell_volume 792.357294
_symmetry_space_group_name_H-M "P 21 21 21"
_symmetry_group_IT_number 19
_symmetry_cell_setting 'orthorhombic'
loop_
_space_group_symop_operation_xyz
x,y,z
1/2-x,-y,1/2+z
1/2+x,1/2-y,-z
-x,1/2+y,1/2-z
loop_
_atom_site_type_symbol
_atom_site_label
_atom_site_fract_x
_atom_site_fract_y
_atom_site_fract_z
Si Si1 0.352594 0.480590 0.552008
Si Si2 0.540609 0.825714 0.373757
Si Si3 0.328768 0.633252 0.252924
Si Si4 0.887211 0.455346 0.074513
Si Si5 0.733694 0.360975 0.831963
O O1 0.301505 0.513670 0.393464
O O2 0.285909 0.344689 0.655761
O O3 0.491719 0.443102 0.535115
O O4 0.329374 0.674320 0.627091
O O5 0.409117 0.789245 0.318319
O O6 0.570513 0.746633 0.531920
O O7 0.634597 0.704180 0.283356
O O8 0.584322 0.022413 0.350482
O O9 0.843783 0.524903 0.225295
O O10 0.774072 0.472801 0.970949
#
# Coordination Sequence:
#
# PCOD9314152 Si02
#       5
#     4   4   4   4   4
#     4  10  22  42  64  98 131 168 224 261 330 382
#     4   8  20  40  67  90 130 168 218 256 327 379
#     4  10  20  45  65  96 132 171 218 270 321 390
#     4   9  20  42  64  95 131 166 218 263 320 393
#     4   9  20  41  64  91 134 167 216 262 324 384
#
# _framework density 25.241137999999999
#
# number of rings (size 3 to 8) (size 9 to 14) (size 15 to 20)
#    1.200    1.600    0.000    0.000    0.000    4.800 
#   18.000    4.000    0.000    0.000    0.000    0.000 
#    0.000    0.000    0.000    0.000    0.000    0.000 
#
# Total GULP energy -111395.501378 kJ/mol
# GULP energy per Si atom -5569.775069 kJ/mol
# Density = 2.518369 g / cm^3
# Si number density = 25.241138 Si / 1000 Ang^3
#
#
#
# Elastic Constant Matrix: (Units=GPa)
#
#
# Indices 1 2 3 4 5 6 
#
# 1 77.3899 18.1004 18.5538 0.0000 0.0000 0.0000
# 2 18.1004 70.0192 35.7395 0.0000 0.0000 0.0000
# 3 18.5538 35.7395 60.4724 0.0000 0.0000 0.0000
# 4 0.0000 0.0000 0.0000 33.0765 0.0000 0.0000
# 5 0.0000 0.0000 0.0000 0.0000 44.0348 0.0000
# 6 0.0000 0.0000 0.0000 0.0000 0.0000 17.4526
#
#
#
# Elastic Compliance Matrix: (Units=1/GPa)
#
#
# Indices 1 2 3 4 5 6 
#
# 1 0.014153 -0.002065 -0.003122 0.000000 0.000000 0.000000
# 2 -0.002065 0.020753 -0.011631 0.000000 0.000000 0.000000
# 3 -0.003122 -0.011631 0.024368 0.000000 0.000000 0.000000
# 4 0.000000 0.000000 0.000000 0.030233 0.000000 0.000000
# 5 0.000000 0.000000 0.000000 0.000000 0.022709 0.000000
# 6 0.000000 0.000000 0.000000 0.000000 0.000000 0.057298
#
#
# Mechanical properties :
#
#
# Convention : Reuss Voigt Hill
#
# Bulk Modulus (GPa) = 39.00536 39.18543 39.09540
# Shear Modulus (GPa) = 23.61872 27.94530 25.78201
#
# Velocity S-wave (km/s) = 3.06228 3.33097 3.19945
# Velocity P-wave (km/s) = 5.29056 5.50926 5.40102
#
# Compressibility (1/GPa) = 0.02563750
#
# Stress axis : x y z
#
# Youngs Moduli (GPa) = 70.65617 48.18693 41.03676
#
# Poissons Ratio (x) = 0.09952 0.12811
# Poissons Ratio (y) = 0.14592 0.47731
# Poissons Ratio (z) = 0.22058 0.56047
#
# Static dielectric constant tensor:
#      x y z
#    x 2.036720 0.000000 0.000000 
#    y 0.000000 2.053980 0.000000 
#    z 0.000000 0.000000 2.022280 
# 
# From -- ./inp_files/2602.got.cif
#   From: 2010.05.17/outbox.cif.g08.bks.cpg/sg19_2_cif.got.tgz:2602.got - 2010.06.03 22:46:19.
