data_PCOD9314941
_publ_section_title
;
Structure prediction by ZEFSAII (Michael W. Deem and Ramdas Pophale) SiO2 
 PCOD9314941
Probable space group: P 21 21 21
;
_chemical_formula_sum "Si O2"
_cell_formula_units_Z 24
_cell_length_a 5.879709
_cell_length_b 7.041123
_cell_length_c 24.923716
_cell_angle_alpha 90.000000
_cell_angle_beta 90.000000
_cell_angle_gamma 90.000000
_cell_volume 1031.835718
_symmetry_space_group_name_H-M "P 21 21 21"
_symmetry_group_IT_number 19
_symmetry_cell_setting 'orthorhombic'
loop_
_space_group_symop_operation_xyz
x,y,z
1/2-x,-y,1/2+z
1/2+x,1/2-y,-z
-x,1/2+y,1/2-z
loop_
_atom_site_type_symbol
_atom_site_label
_atom_site_fract_x
_atom_site_fract_y
_atom_site_fract_z
Si Si1 0.489493 0.557784 0.326895
Si Si2 0.657822 0.670493 0.625146
Si Si3 0.423578 0.319902 0.679255
Si Si4 0.626909 0.347210 0.012500
Si Si5 0.241184 0.652435 0.741522
Si Si6 0.183303 0.996733 0.091313
O O1 0.279036 0.697555 0.331322
O O2 0.431610 0.379449 0.290686
O O3 0.682715 0.673580 0.296419
O O4 0.558872 0.519548 0.388098
O O5 0.588231 0.478399 0.653894
O O6 0.819805 0.620896 0.574861
O O7 0.453229 0.806365 0.603735
O O8 0.240198 0.462248 0.705873
O O9 0.527002 0.197833 0.727687
O O10 0.385693 0.174005 0.630582
O O11 0.644296 0.526006 0.971771
O O12 0.364879 0.267119 0.005843
#
# Coordination Sequence:
#
# PCOD9314941 Si02
#       6
#     4   4   4   4   4   4
#     4  12  22  42  64  98 128 182 232 280 350 414
#     4  11  23  45  68 100 136 181 230 292 360 416
#     4  12  24  44  66  98 138 186 228 288 350 424
#     4  10  22  44  76 104 142 186 234 300 370 422
#     4  12  24  40  64  98 136 180 232 286 344 414
#     4  11  23  45  68 100 136 181 230 292 360 416
#
# _framework density 23.259518
#
# number of rings (size 3 to 8) (size 9 to 14) (size 15 to 20)
#    0.000    0.667    5.000    4.000    0.000    0.000 
#    0.000   10.000    0.000    0.000    0.000    0.000 
#    0.000    0.000    0.000    0.000    0.000    0.000 
#
# Total GULP energy -133790.504319 kJ/mol
# GULP energy per Si atom -5574.604347 kJ/mol
# Density = 2.320658 g / cm^3
# Si number density = 23.259518 Si / 1000 Ang^3
#
#
#
# Elastic Constant Matrix: (Units=GPa)
#
#
# Indices 1 2 3 4 5 6 
#
# 1 56.2494 17.2128 3.0643 0.0000 0.0000 0.0000
# 2 17.2128 69.6669 6.1868 0.0000 0.0000 0.0000
# 3 3.0643 6.1868 65.8397 0.0000 0.0000 0.0000
# 4 0.0000 0.0000 0.0000 33.9922 0.0000 0.0000
# 5 0.0000 0.0000 0.0000 0.0000 43.3469 0.0000
# 6 0.0000 0.0000 0.0000 0.0000 0.0000 38.8637
#
#
#
# Elastic Compliance Matrix: (Units=1/GPa)
#
#
# Indices 1 2 3 4 5 6 
#
# 1 0.019245 -0.004715 -0.000453 0.000000 0.000000 0.000000
# 2 -0.004715 0.015630 -0.001249 0.000000 0.000000 0.000000
# 3 -0.000453 -0.001249 0.015327 0.000000 0.000000 0.000000
# 4 0.000000 0.000000 0.000000 0.029419 0.000000 0.000000
# 5 0.000000 0.000000 0.000000 0.000000 0.023070 0.000000
# 6 0.000000 0.000000 0.000000 0.000000 0.000000 0.025731
#
#
# Mechanical properties :
#
#
# Convention : Reuss Voigt Hill
#
# Bulk Modulus (GPa) = 26.76043 27.18710 26.97376
# Shear Modulus (GPa) = 32.52858 34.26005 33.39432
#
# Velocity S-wave (km/s) = 3.74372 3.84206 3.79321
# Velocity P-wave (km/s) = 5.49703 5.60320 5.55037
#
# Compressibility (1/GPa) = 0.03736861
#
# Stress axis : x y z
#
# Youngs Moduli (GPa) = 51.96045 63.98008 65.24493
#
# Poissons Ratio (x) = 0.30165 0.02953
# Poissons Ratio (y) = 0.24498 0.08151
# Poissons Ratio (z) = 0.02352 0.07993
#
# Static dielectric constant tensor:
#      x y z
#    x 1.996250 0.000000 0.000000 
#    y 0.000000 1.906950 0.000000 
#    z 0.000000 0.000000 1.874890 
# 
# From -- ./inp_files/195.got.cif
#   From: 2010.05.17/outbox.cif.g08.bks.cpg/sg19_1_cif.got.tgz:195.got - 2010.06.03 22:46:19.
