data_PCOD9314504
_publ_section_title
;
Structure prediction by ZEFSAII (Michael W. Deem and Ramdas Pophale) SiO2 
 PCOD9314504
Probable space group: P 21 21 21
;
_chemical_formula_sum "Si O2"
_cell_formula_units_Z 32
_cell_length_a 7.927764
_cell_length_b 13.681273
_cell_length_c 11.700193
_cell_angle_alpha 90.000000
_cell_angle_beta 90.000000
_cell_angle_gamma 90.000000
_cell_volume 1269.025205
_symmetry_space_group_name_H-M "P 21 21 21"
_symmetry_group_IT_number 19
_symmetry_cell_setting 'orthorhombic'
loop_
_space_group_symop_operation_xyz
x,y,z
1/2-x,-y,1/2+z
1/2+x,1/2-y,-z
-x,1/2+y,1/2-z
loop_
_atom_site_type_symbol
_atom_site_label
_atom_site_fract_x
_atom_site_fract_y
_atom_site_fract_z
Si Si1 0.326627 0.528667 0.252043
Si Si2 0.933814 0.877771 0.224801
Si Si3 0.117479 0.688298 0.132179
Si Si4 0.542869 0.208568 0.136975
Si Si5 0.646621 0.619943 0.174751
Si Si6 0.330046 0.152771 0.933517
Si Si7 0.361764 0.840699 0.049705
Si Si8 0.809835 0.513299 0.374360
O O1 0.386441 0.595874 0.359837
O O2 0.488339 0.544791 0.169714
O O3 0.254142 0.420303 0.264782
O O4 0.171083 0.593838 0.202723
O O5 0.035795 0.889901 0.344115
O O6 0.985763 0.767764 0.186036
O O7 0.020820 0.950961 0.133380
O O8 0.039353 0.661838 0.010443
O O9 0.291797 0.744505 0.108163
O O10 0.426847 0.209416 0.249597
O O11 0.695936 0.282462 0.134110
O O12 0.431908 0.219332 0.023894
O O13 0.729149 0.640946 0.054655
O O14 0.785935 0.576819 0.261133
O O15 0.231206 0.076104 0.013684
O O16 0.337199 0.931669 0.131980
#
# Coordination Sequence:
#
# PCOD9314504 Si02
#       8
#     4   4   4   4   4   4   4   4
#     4  10  21  43  59  89 132 162 210 272 309 385
#     4  11  23  40  64  92 128 167 211 266 332 379
#     4  11  23  40  65  93 128 169 217 264 327 388
#     4   9  23  38  65  87 128 160 218 262 318 379
#     4   9  20  41  58  89 126 165 211 269 314 373
#     4  11  21  42  63  96 122 172 216 264 327 385
#     4  11  23  41  64  94 126 175 210 265 323 391
#     4  10  22  37  62  90 124 168 213 258 320 388
#
# _framework density 25.216203
#
# number of rings (size 3 to 8) (size 9 to 14) (size 15 to 20)
#    0.750    1.000    1.250    3.000    1.750    3.000 
#    6.750    2.500    0.000    0.000    0.000    0.000 
#    0.000    0.000    0.000    0.000    0.000    0.000 
#
# Total GULP energy -178864.108142 kJ/mol
# GULP energy per Si atom -5589.503379 kJ/mol
# Density = 2.515881 g / cm^3
# Si number density = 25.216203 Si / 1000 Ang^3
#
#
#
# Elastic Constant Matrix: (Units=GPa)
#
#
# Indices 1 2 3 4 5 6 
#
# 1 62.6757 25.4296 4.0540 0.0000 0.0000 0.0000
# 2 25.4296 52.4557 12.4281 0.0000 0.0000 0.0000
# 3 4.0540 12.4281 84.9118 0.0000 0.0000 0.0000
# 4 0.0000 0.0000 0.0000 25.3234 0.0000 0.0000
# 5 0.0000 0.0000 0.0000 0.0000 43.5995 0.0000
# 6 0.0000 0.0000 0.0000 0.0000 0.0000 49.5370
#
#
#
# Elastic Compliance Matrix: (Units=1/GPa)
#
#
# Indices 1 2 3 4 5 6 
#
# 1 0.019881 -0.009751 0.000478 0.000000 0.000000 0.000000
# 2 -0.009751 0.024531 -0.003125 0.000000 0.000000 0.000000
# 3 0.000478 -0.003125 0.012211 0.000000 0.000000 0.000000
# 4 0.000000 0.000000 0.000000 0.039489 0.000000 0.000000
# 5 0.000000 0.000000 0.000000 0.000000 0.022936 0.000000
# 6 0.000000 0.000000 0.000000 0.000000 0.000000 0.020187
#
#
# Mechanical properties :
#
#
# Convention : Reuss Voigt Hill
#
# Bulk Modulus (GPa) = 31.41947 31.54072 31.48010
# Shear Modulus (GPa) = 28.63031 34.23410 31.43220
#
# Velocity S-wave (km/s) = 3.37322 3.68859 3.53442
# Velocity P-wave (km/s) = 5.25914 5.53861 5.40068
#
# Compressibility (1/GPa) = 0.03182740
#
# Stress axis : x y z
#
# Youngs Moduli (GPa) = 50.30054 40.76448 81.89014
#
# Poissons Ratio (x) = 0.39749 -0.03915
# Poissons Ratio (y) = 0.49048 0.25590
# Poissons Ratio (z) = -0.02405 0.12739
#
# Static dielectric constant tensor:
#      x y z
#    x 2.025700 0.000000 0.000000 
#    y 0.000000 2.028070 0.000000 
#    z 0.000000 0.000000 1.968370 
# 
# From -- ./inp_files/4663.got.cif
#   From: 2010.05.17/outbox.cif.g08.bks.cpg/sg19_3_cif.got.tgz:4663.got - 2010.06.03 22:46:19.
