data_PCOD9314191
_publ_section_title
;
Structure prediction by ZEFSAII (Michael W. Deem and Ramdas Pophale) SiO2 
 PCOD9314191
Probable space group: P 21 21 21
;
_chemical_formula_sum "Si O2"
_cell_formula_units_Z 28
_cell_length_a 14.993247
_cell_length_b 4.928823
_cell_length_c 18.196892
_cell_angle_alpha 90.000000
_cell_angle_beta 90.000000
_cell_angle_gamma 90.000000
_cell_volume 1344.733226
_symmetry_space_group_name_H-M "P 21 21 21"
_symmetry_group_IT_number 19
_symmetry_cell_setting 'orthorhombic'
loop_
_space_group_symop_operation_xyz
x,y,z
1/2-x,-y,1/2+z
1/2+x,1/2-y,-z
-x,1/2+y,1/2-z
loop_
_atom_site_type_symbol
_atom_site_label
_atom_site_fract_x
_atom_site_fract_y
_atom_site_fract_z
Si Si1 0.327905 0.839937 0.521631
Si Si2 0.135662 0.657267 0.100920
Si Si3 0.221174 0.693231 0.652122
Si Si4 0.694665 0.289279 0.146776
Si Si5 0.008417 0.439114 0.296680
Si Si6 0.203461 0.269668 0.303978
Si Si7 0.559707 0.613761 0.252754
O O1 0.389582 0.637594 0.569689
O O2 0.237405 0.810268 0.570576
O O3 0.326926 0.752017 0.438275
O O4 0.353131 0.150080 0.530942
O O5 0.232165 0.604042 0.140776
O O6 0.065988 0.804778 0.152503
O O7 0.285461 0.803890 0.717621
O O8 0.124059 0.758989 0.684117
O O9 0.776657 0.499501 0.151548
O O10 0.619521 0.449993 0.193206
O O11 0.723453 0.004327 0.181762
O O12 0.108213 0.388761 0.323826
O O13 0.996506 0.752099 0.276762
O O14 0.493481 0.373244 0.279374
#
# Coordination Sequence:
#
# PCOD9314191 Si02
#       7
#     4   4   4   4   4   4   4
#     4  10  22  40  64  88 125 177 211 257 329 399
#     4  10  21  36  64  90 123 171 208 250 323 398
#     4   9  22  39  66  88 127 163 219 251 329 384
#     4  11  24  43  63  91 131 168 220 271 333 379
#     4  12  21  36  60 100 133 154 205 262 320 385
#     4  11  22  37  65  93 125 166 206 266 318 390
#     4  11  24  41  68  98 124 169 229 285 320 373
#
# _framework density 20.821974999999998
#
# number of rings (size 3 to 8) (size 9 to 14) (size 15 to 20)
#    0.857    0.571    1.429    5.143    6.000    0.000 
#    0.000    4.286    0.000    0.000    0.000    0.000 
#    0.000    0.000    0.000    0.000    0.000    0.000 
#
# Total GULP energy -155915.507192 kJ/mol
# GULP energy per Si atom -5568.410971 kJ/mol
# Density = 2.077458 g / cm^3
# Si number density = 20.821975 Si / 1000 Ang^3
#
#
#
# Elastic Constant Matrix: (Units=GPa)
#
#
# Indices 1 2 3 4 5 6 
#
# 1 74.9169 17.7242 16.9395 0.0000 0.0000 0.0000
# 2 17.7242 100.5106 13.7698 0.0000 0.0000 0.0000
# 3 16.9395 13.7698 82.7318 0.0000 0.0000 0.0000
# 4 0.0000 0.0000 0.0000 28.0675 0.0000 0.0000
# 5 0.0000 0.0000 0.0000 0.0000 11.6720 0.0000
# 6 0.0000 0.0000 0.0000 0.0000 0.0000 29.3152
#
#
#
# Elastic Compliance Matrix: (Units=1/GPa)
#
#
# Indices 1 2 3 4 5 6 
#
# 1 0.014454 -0.002193 -0.002594 0.000000 0.000000 0.000000
# 2 -0.002193 0.010514 -0.001301 0.000000 0.000000 0.000000
# 3 -0.002594 -0.001301 0.012835 0.000000 0.000000 0.000000
# 4 0.000000 0.000000 0.000000 0.035628 0.000000 0.000000
# 5 0.000000 0.000000 0.000000 0.000000 0.085675 0.000000
# 6 0.000000 0.000000 0.000000 0.000000 0.000000 0.034112
#
#
# Mechanical properties :
#
#
# Convention : Reuss Voigt Hill
#
# Bulk Modulus (GPa) = 39.02344 39.44739 39.23541
# Shear Modulus (GPa) = 23.37134 27.79267 25.58201
#
# Velocity S-wave (km/s) = 3.35391 3.65742 3.50895
# Velocity P-wave (km/s) = 5.81210 6.06810 5.94148
#
# Compressibility (1/GPa) = 0.02562562
#
# Stress axis : x y z
#
# Youngs Moduli (GPa) = 69.18673 95.10947 77.91219
#
# Poissons Ratio (x) = 0.20861 0.20213
# Poissons Ratio (y) = 0.15175 0.10135
# Poissons Ratio (z) = 0.17949 0.12373
#
# Static dielectric constant tensor:
#      x y z
#    x 1.867300 0.000000 0.000000 
#    y 0.000000 1.758150 0.000000 
#    z 0.000000 0.000000 1.746840 
# 
# From -- ./inp_files/6772.got.cif
#   From: 2010.05.17/outbox.cif.g08.bks.cpg/sg19_4_cif.got.tgz:6772.got - 2010.06.03 22:46:19.
