data_PCOD9314108
_publ_section_title
;
Structure prediction by ZEFSAII (Michael W. Deem and Ramdas Pophale) SiO2 
 PCOD9314108
Probable space group: P 21 21 21
;
_chemical_formula_sum "Si O2"
_cell_formula_units_Z 28
_cell_length_a 5.712792
_cell_length_b 24.009216
_cell_length_c 8.066516
_cell_angle_alpha 90.000000
_cell_angle_beta 90.000000
_cell_angle_gamma 90.000000
_cell_volume 1106.400568
_symmetry_space_group_name_H-M "P 21 21 21"
_symmetry_group_IT_number 19
_symmetry_cell_setting 'orthorhombic'
loop_
_space_group_symop_operation_xyz
x,y,z
1/2-x,-y,1/2+z
1/2+x,1/2-y,-z
-x,1/2+y,1/2-z
loop_
_atom_site_type_symbol
_atom_site_label
_atom_site_fract_x
_atom_site_fract_y
_atom_site_fract_z
Si Si1 0.556909 0.324564 0.833851
Si Si2 0.792091 0.468661 0.210055
Si Si3 0.827892 0.293203 0.157785
Si Si4 0.574451 0.931044 0.517782
Si Si5 0.164086 0.379738 0.294920
Si Si6 0.409593 0.464064 0.484710
Si Si7 0.614866 0.280957 0.487120
O O1 0.384867 0.271909 0.866209
O O2 0.425018 0.382908 0.847552
O O3 0.657600 0.318538 0.649043
O O4 0.748236 0.318720 0.982409
O O5 0.575943 0.478716 0.329428
O O6 0.939390 0.420468 0.296508
O O7 0.687752 0.444388 0.039806
O O8 0.947795 0.520681 0.151020
O O9 0.629912 0.303247 0.298406
O O10 0.056112 0.320537 0.245915
O O11 0.693107 0.899982 0.363015
O O12 0.706094 0.989689 0.529839
O O13 0.311228 0.401737 0.452977
O O14 0.349735 0.257995 0.508442
#
# Coordination Sequence:
#
# PCOD9314108 Si02
#       7
#     4   4   4   4   4   4   4
#     4  11  22  42  76 107 146 193 238 296 376 440
#     4  10  20  42  65  94 138 180 237 296 360 436
#     4  11  22  42  76 107 146 193 238 296 376 440
#     4  10  21  40  69 101 135 183 244 298 356 450
#     4  10  21  40  69 101 135 183 244 298 356 450
#     4  10  22  40  72  92 142 184 232 310 362 430
#     4  10  24  46  71 106 154 192 253 310 348 452
#
# _framework density 25.307289000000001
#
# number of rings (size 3 to 8) (size 9 to 14) (size 15 to 20)
#    0.000    1.714    1.429    2.571    0.000    2.286 
#    0.000   11.429   34.571    0.000    0.000    0.000 
#    0.000    0.000    0.000    0.000    0.000    0.000 
#
# Total GULP energy -156418.212293 kJ/mol
# GULP energy per Si atom -5586.364725 kJ/mol
# Density = 2.524969 g / cm^3
# Si number density = 25.307289 Si / 1000 Ang^3
#
#
#
# Elastic Constant Matrix: (Units=GPa)
#
#
# Indices 1 2 3 4 5 6 
#
# 1 72.5953 17.4500 26.8318 0.0000 0.0000 0.0000
# 2 17.4500 95.9272 16.1158 0.0000 0.0000 0.0000
# 3 26.8318 16.1158 104.3115 0.0000 0.0000 0.0000
# 4 0.0000 0.0000 0.0000 41.4761 0.0000 0.0000
# 5 0.0000 0.0000 0.0000 0.0000 58.0769 0.0000
# 6 0.0000 0.0000 0.0000 0.0000 0.0000 34.6524
#
#
#
# Elastic Compliance Matrix: (Units=1/GPa)
#
#
# Indices 1 2 3 4 5 6 
#
# 1 0.015674 -0.002232 -0.003687 0.000000 0.000000 0.000000
# 2 -0.002232 0.011020 -0.001128 0.000000 0.000000 0.000000
# 3 -0.003687 -0.001128 0.010709 0.000000 0.000000 0.000000
# 4 0.000000 0.000000 0.000000 0.024110 0.000000 0.000000
# 5 0.000000 0.000000 0.000000 0.000000 0.017219 0.000000
# 6 0.000000 0.000000 0.000000 0.000000 0.000000 0.028858
#
#
# Mechanical properties :
#
#
# Convention : Reuss Voigt Hill
#
# Bulk Modulus (GPa) = 42.90176 43.73657 43.31917
# Shear Modulus (GPa) = 38.62344 41.00351 39.81347
#
# Velocity S-wave (km/s) = 3.91087 4.02957 3.97066
# Velocity P-wave (km/s) = 6.11411 6.24257 6.17867
#
# Compressibility (1/GPa) = 0.02330907
#
# Stress axis : x y z
#
# Youngs Moduli (GPa) = 63.79900 90.74282 93.37571
#
# Poissons Ratio (x) = 0.20252 0.34428
# Poissons Ratio (y) = 0.14239 0.10537
# Poissons Ratio (z) = 0.23523 0.10240
#
# Static dielectric constant tensor:
#      x y z
#    x 2.068690 0.000000 0.000000 
#    y 0.000000 2.059240 0.000000 
#    z 0.000000 0.000000 2.030020 
# 
# From -- ./inp_files/2445.got.cif
#   From: 2010.05.17/outbox.cif.g08.bks.cpg/sg19_2_cif.got.tgz:2445.got - 2010.06.03 22:46:19.
