data_PCOD9314103
_publ_section_title
;
Structure prediction by ZEFSAII (Michael W. Deem and Ramdas Pophale) SiO2 
 PCOD9314103
Probable space group: P 21 21 21
;
_chemical_formula_sum "Si O2"
_cell_formula_units_Z 20
_cell_length_a 8.838425
_cell_length_b 11.213536
_cell_length_c 7.509224
_cell_angle_alpha 90.000000
_cell_angle_beta 90.000000
_cell_angle_gamma 90.000000
_cell_volume 744.239168
_symmetry_space_group_name_H-M "P 21 21 21"
_symmetry_group_IT_number 19
_symmetry_cell_setting 'orthorhombic'
loop_
_space_group_symop_operation_xyz
x,y,z
1/2-x,-y,1/2+z
1/2+x,1/2-y,-z
-x,1/2+y,1/2-z
loop_
_atom_site_type_symbol
_atom_site_label
_atom_site_fract_x
_atom_site_fract_y
_atom_site_fract_z
Si Si1 0.404205 0.497378 0.592600
Si Si2 0.282862 0.679030 0.863762
Si Si3 0.166812 0.139610 0.832210
Si Si4 0.594191 0.670441 0.365850
Si Si5 0.412611 0.068525 0.582245
O O1 0.289523 0.592002 0.687285
O O2 0.314685 0.385963 0.515526
O O3 0.752335 0.384438 0.350582
O O4 0.521758 0.483718 0.755934
O O5 0.211147 0.801364 0.794522
O O6 0.457277 0.669194 0.926963
O O7 0.031975 0.230901 0.831459
O O8 0.300099 0.186809 0.960996
O O9 0.105041 0.018154 0.917559
O O10 0.494407 0.557437 0.429156
#
# Coordination Sequence:
#
# PCOD9314103 Si02
#       5
#     4   4   4   4   4
#     4   9  21  38  63  92 117 171 205 262 311 366
#     4  10  20  42  62  90 126 169 213 256 315 366
#     4  11  21  40  63  96 123 167 216 259 312 385
#     4  11  21  37  67  88 126 171 215 246 319 384
#     4   9  23  37  65  92 126 162 217 253 317 369
#
# _framework density 26.873080999999999
#
# number of rings (size 3 to 8) (size 9 to 14) (size 15 to 20)
#    1.200    0.800    2.000    1.200    5.600    0.000 
#    0.000    2.000    8.800    0.000    0.000    0.000 
#    0.000    0.000    0.000    0.000    0.000    0.000 
#
# Total GULP energy -111930.212814 kJ/mol
# GULP energy per Si atom -5596.510641 kJ/mol
# Density = 2.681192 g / cm^3
# Si number density = 26.873081 Si / 1000 Ang^3
#
#
#
# Elastic Constant Matrix: (Units=GPa)
#
#
# Indices 1 2 3 4 5 6 
#
# 1 161.1893 47.4675 35.1511 0.0000 0.0000 0.0000
# 2 47.4675 56.9640 40.6624 0.0000 0.0000 0.0000
# 3 35.1511 40.6624 142.3636 0.0000 0.0000 0.0000
# 4 0.0000 0.0000 0.0000 42.1351 0.0000 0.0000
# 5 0.0000 0.0000 0.0000 0.0000 33.9238 0.0000
# 6 0.0000 0.0000 0.0000 0.0000 0.0000 59.3395
#
#
#
# Elastic Compliance Matrix: (Units=1/GPa)
#
#
# Indices 1 2 3 4 5 6 
#
# 1 0.008222 -0.006786 -0.000092 0.000000 0.000000 0.000000
# 2 -0.006786 0.027651 -0.006222 0.000000 0.000000 0.000000
# 3 -0.000092 -0.006222 0.008824 0.000000 0.000000 0.000000
# 4 0.000000 0.000000 0.000000 0.023733 0.000000 0.000000
# 5 0.000000 0.000000 0.000000 0.000000 0.029478 0.000000
# 6 0.000000 0.000000 0.000000 0.000000 0.000000 0.016852
#
#
# Mechanical properties :
#
#
# Convention : Reuss Voigt Hill
#
# Bulk Modulus (GPa) = 54.06176 67.45321 60.75748
# Shear Modulus (GPa) = 33.98423 42.89541 38.43982
#
# Velocity S-wave (km/s) = 3.56001 3.99961 3.78619
# Velocity P-wave (km/s) = 6.08764 6.81794 6.46311
#
# Compressibility (1/GPa) = 0.01849736
#
# Stress axis : x y z
#
# Youngs Moduli (GPa) = 121.62088 36.16472 113.32450
#
# Poissons Ratio (x) = 0.24541 0.01042
# Poissons Ratio (y) = 0.82531 0.70514
# Poissons Ratio (z) = 0.01118 0.22503
#
# Static dielectric constant tensor:
#      x y z
#    x 2.062170 0.000000 0.000000 
#    y 0.000000 2.109510 0.000000 
#    z 0.000000 0.000000 2.275430 
# 
# From -- ./inp_files/2872.got.cif
#   From: 2010.05.17/outbox.cif.g08.bks.cpg/sg19_2_cif.got.tgz:2872.got - 2010.06.03 22:46:19.
