data_PCOD9314288
_publ_section_title
;
Structure prediction by ZEFSAII (Michael W. Deem and Ramdas Pophale) SiO2 
 PCOD9314288
Probable space group: P 21 21 21
;
_chemical_formula_sum "Si O2"
_cell_formula_units_Z 24
_cell_length_a 5.026952
_cell_length_b 25.643808
_cell_length_c 7.741277
_cell_angle_alpha 90.000000
_cell_angle_beta 90.000000
_cell_angle_gamma 90.000000
_cell_volume 997.929504
_symmetry_space_group_name_H-M "P 21 21 21"
_symmetry_group_IT_number 19
_symmetry_cell_setting 'orthorhombic'
loop_
_space_group_symop_operation_xyz
x,y,z
1/2-x,-y,1/2+z
1/2+x,1/2-y,-z
-x,1/2+y,1/2-z
loop_
_atom_site_type_symbol
_atom_site_label
_atom_site_fract_x
_atom_site_fract_y
_atom_site_fract_z
Si Si1 0.143711 0.875742 0.589157
Si Si2 0.642742 0.934809 0.618098
Si Si3 0.854333 0.391176 0.330339
Si Si4 0.619703 0.263756 0.903564
Si Si5 0.689370 0.723996 0.927437
Si Si6 0.855532 0.047264 0.708257
O O1 0.345288 0.918813 0.664955
O O2 0.148063 0.879425 0.377986
O O3 0.257623 0.819777 0.636176
O O4 0.849913 0.888374 0.654298
O O5 0.641784 0.941450 0.411554
O O6 0.756017 0.988628 0.688428
O O7 0.783764 0.338316 0.429880
O O8 0.643033 0.437234 0.362362
O O9 0.142874 0.413298 0.374678
O O10 0.462001 0.237281 0.749248
O O11 0.376356 0.269851 0.039705
O O12 0.474786 0.748073 0.061029
#
# Coordination Sequence:
#
# PCOD9314288 Si02
#       6
#     4   4   4   4   4   4
#     4  10  21  39  66  91 118 165 220 265 302 380
#     4  10  21  39  61  91 123 156 211 266 316 376
#     4  10  21  41  65  86 123 176 206 248 330 396
#     4  12  24  42  72  96 126 175 228 265 313 396
#     4  12  26  44  64  99 140 168 215 276 334 390
#     4  10  21  39  64  87 120 164 210 260 317 382
#
# _framework density 24.049796000000001
#
# number of rings (size 3 to 8) (size 9 to 14) (size 15 to 20)
#    0.000    1.333    1.667    4.000    4.667    0.000 
#    9.000    0.000    0.000    0.000    0.000    0.000 
#    0.000    0.000    0.000    0.000    0.000    0.000 
#
# Total GULP energy -134345.313856 kJ/mol
# GULP energy per Si atom -5597.721411 kJ/mol
# Density = 2.399506 g / cm^3
# Si number density = 24.049796 Si / 1000 Ang^3
#
#
#
# Elastic Constant Matrix: (Units=GPa)
#
#
# Indices 1 2 3 4 5 6 
#
# 1 87.9493 -15.3330 9.6146 0.0000 0.0000 0.0000
# 2 -15.3330 69.7412 -9.8685 0.0000 0.0000 0.0000
# 3 9.6146 -9.8685 28.7299 0.0000 0.0000 0.0000
# 4 0.0000 0.0000 0.0000 29.5527 0.0000 0.0000
# 5 0.0000 0.0000 0.0000 0.0000 27.4062 0.0000
# 6 0.0000 0.0000 0.0000 0.0000 0.0000 36.9723
#
#
#
# Elastic Compliance Matrix: (Units=1/GPa)
#
#
# Indices 1 2 3 4 5 6 
#
# 1 0.012114 0.002196 -0.003300 0.000000 0.000000 0.000000
# 2 0.002196 0.015470 0.004579 0.000000 0.000000 0.000000
# 3 -0.003300 0.004579 0.037484 0.000000 0.000000 0.000000
# 4 0.000000 0.000000 0.000000 0.033838 0.000000 0.000000
# 5 0.000000 0.000000 0.000000 0.000000 0.036488 0.000000
# 6 0.000000 0.000000 0.000000 0.000000 0.000000 0.027047
#
#
# Mechanical properties :
#
#
# Convention : Reuss Voigt Hill
#
# Bulk Modulus (GPa) = 13.88536 17.24962 15.56749
# Shear Modulus (GPa) = 27.85585 32.25339 30.05462
#
# Velocity S-wave (km/s) = 3.40701 3.66609 3.53892
# Velocity P-wave (km/s) = 4.61119 5.01082 4.81515
#
# Compressibility (1/GPa) = 0.07201832
#
# Stress axis : x y z
#
# Youngs Moduli (GPa) = 82.55042 64.64333 26.67810
#
# Poissons Ratio (x) = -0.14198 0.08802
# Poissons Ratio (y) = -0.18131 -0.12215
# Poissons Ratio (z) = 0.27238 -0.29598
#
# Static dielectric constant tensor:
#      x y z
#    x 1.869120 0.000000 0.000000 
#    y 0.000000 1.878330 0.000000 
#    z 0.000000 0.000000 2.049650 
# 
# From -- ./inp_files/2456.got.cif
#   From: 2010.05.17/outbox.cif.g08.bks.cpg/sg19_2_cif.got.tgz:2456.got - 2010.06.03 22:46:19.
