data_PCOD9314694
_publ_section_title
;
Structure prediction by ZEFSAII (Michael W. Deem and Ramdas Pophale) SiO2 
 PCOD9314694
Probable space group: P 21 21 21
;
_chemical_formula_sum "Si O2"
_cell_formula_units_Z 28
_cell_length_a 13.482128
_cell_length_b 9.016338
_cell_length_c 8.853035
_cell_angle_alpha 90.000000
_cell_angle_beta 90.000000
_cell_angle_gamma 90.000000
_cell_volume 1076.169826
_symmetry_space_group_name_H-M "P 21 21 21"
_symmetry_group_IT_number 19
_symmetry_cell_setting 'orthorhombic'
loop_
_space_group_symop_operation_xyz
x,y,z
1/2-x,-y,1/2+z
1/2+x,1/2-y,-z
-x,1/2+y,1/2-z
loop_
_atom_site_type_symbol
_atom_site_label
_atom_site_fract_x
_atom_site_fract_y
_atom_site_fract_z
Si Si1 0.830693 0.624866 0.563381
Si Si2 0.118783 0.674781 0.203588
Si Si3 0.356892 0.626318 0.223099
Si Si4 0.951427 0.500629 0.302449
Si Si5 0.330254 0.069427 0.158699
Si Si6 0.642778 0.293889 0.561441
Si Si7 0.367636 0.307845 0.357437
O O1 0.883971 0.762337 0.640646
O O2 0.904026 0.522153 0.466806
O O3 0.787179 0.527745 0.701650
O O4 0.745031 0.664368 0.443904
O O5 0.236795 0.653600 0.216007
O O6 0.067193 0.537174 0.287850
O O7 0.082626 0.839010 0.255723
O O8 0.091243 0.671573 0.025437
O O9 0.377953 0.460441 0.269717
O O10 0.395775 0.672368 0.058287
O O11 0.910901 0.643433 0.208375
O O12 0.404140 0.178278 0.245075
O O13 0.360518 0.939796 0.045987
O O14 0.751945 0.237139 0.611340
#
# Coordination Sequence:
#
# PCOD9314694 Si02
#       7
#     4   4   4   4   4   4   4
#     4  11  20  37  70  94 130 180 220 285 332 417
#     4  11  27  43  67 106 135 184 224 288 347 419
#     4  10  25  42  69 104 135 176 246 279 337 398
#     4  12  24  45  69  99 143 179 228 282 365 409
#     4  11  18  36  64  94 124 172 238 270 339 386
#     4  10  22  40  67  94 135 182 226 285 335 415
#     4  11  22  39  66 101 138 169 240 283 325 408
#
# _framework density 26.018196
#
# number of rings (size 3 to 8) (size 9 to 14) (size 15 to 20)
#    0.000    1.143    4.286    2.571    8.000    0.000 
#    0.000    1.429    6.286    0.000    0.000    0.000 
#    0.000    0.000    0.000    0.000    0.000    0.000 
#
# Total GULP energy -156570.452395 kJ/mol
# GULP energy per Si atom -5591.801871 kJ/mol
# Density = 2.595898 g / cm^3
# Si number density = 26.018196 Si / 1000 Ang^3
#
#
#
# Elastic Constant Matrix: (Units=GPa)
#
#
# Indices 1 2 3 4 5 6 
#
# 1 59.6801 -8.5430 17.8528 0.0000 0.0000 0.0000
# 2 -8.5430 122.3801 36.1406 0.0000 0.0000 0.0000
# 3 17.8528 36.1406 133.3936 0.0000 0.0000 0.0000
# 4 0.0000 0.0000 0.0000 58.6023 0.0000 0.0000
# 5 0.0000 0.0000 0.0000 0.0000 26.3642 0.0000
# 6 0.0000 0.0000 0.0000 0.0000 0.0000 27.3819
#
#
#
# Elastic Compliance Matrix: (Units=1/GPa)
#
#
# Indices 1 2 3 4 5 6 
#
# 1 0.017953 0.002134 -0.002981 0.000000 0.000000 0.000000
# 2 0.002134 0.009135 -0.002761 0.000000 0.000000 0.000000
# 3 -0.002981 -0.002761 0.008643 0.000000 0.000000 0.000000
# 4 0.000000 0.000000 0.000000 0.017064 0.000000 0.000000
# 5 0.000000 0.000000 0.000000 0.000000 0.037930 0.000000
# 6 0.000000 0.000000 0.000000 0.000000 0.000000 0.036521
#
#
# Mechanical properties :
#
#
# Convention : Reuss Voigt Hill
#
# Bulk Modulus (GPa) = 35.06775 45.15051 40.10913
# Shear Modulus (GPa) = 34.72989 40.46990 37.59990
#
# Velocity S-wave (km/s) = 3.65750 3.94819 3.80562
# Velocity P-wave (km/s) = 5.59855 6.17863 5.89573
#
# Compressibility (1/GPa) = 0.02851623
#
# Stress axis : x y z
#
# Youngs Moduli (GPa) = 55.70071 109.46367 115.69396
#
# Poissons Ratio (x) = -0.23354 0.34486
# Poissons Ratio (y) = -0.11884 0.31939
# Poissons Ratio (z) = 0.16603 0.30219
#
# Static dielectric constant tensor:
#      x y z
#    x 2.193310 0.000000 0.000000 
#    y 0.000000 2.012240 0.000000 
#    z 0.000000 0.000000 2.004070 
# 
# From -- ./inp_files/4144.got.cif
#   From: 2010.05.17/outbox.cif.g08.bks.cpg/sg19_3_cif.got.tgz:4144.got - 2010.06.03 22:46:19.
