data_PCOD9314869
_publ_section_title
;
Structure prediction by ZEFSAII (Michael W. Deem and Ramdas Pophale) SiO2 
 PCOD9314869
Probable space group: P 21 21 21
;
_chemical_formula_sum "Si O2"
_cell_formula_units_Z 28
_cell_length_a 18.411267
_cell_length_b 7.118363
_cell_length_c 8.811878
_cell_angle_alpha 90.000000
_cell_angle_beta 90.000000
_cell_angle_gamma 90.000000
_cell_volume 1154.867828
_symmetry_space_group_name_H-M "P 21 21 21"
_symmetry_group_IT_number 19
_symmetry_cell_setting 'orthorhombic'
loop_
_space_group_symop_operation_xyz
x,y,z
1/2-x,-y,1/2+z
1/2+x,1/2-y,-z
-x,1/2+y,1/2-z
loop_
_atom_site_type_symbol
_atom_site_label
_atom_site_fract_x
_atom_site_fract_y
_atom_site_fract_z
Si Si1 0.521260 0.867467 0.065682
Si Si2 0.736405 0.287616 0.548439
Si Si3 0.902773 0.889515 0.805727
Si Si4 0.278942 0.356025 0.140414
Si Si5 0.368971 0.186251 0.651982
Si Si6 0.832848 0.642914 0.551292
Si Si7 0.881987 0.430139 0.009339
O O1 0.472222 0.686945 0.105348
O O2 0.571132 0.934326 0.203807
O O3 0.572138 0.819529 0.924828
O O4 0.464606 0.034705 0.034884
O O5 0.749675 0.148045 0.687852
O O6 0.789148 0.250403 0.405064
O O7 0.774919 0.486747 0.606506
O O8 0.655791 0.365895 0.525711
O O9 0.878856 0.727323 0.687452
O O10 0.831174 0.967430 0.891539
O O11 0.211717 0.308219 0.031229
O O12 0.333878 0.182534 0.109872
O O13 0.376723 0.173966 0.830294
O O14 0.376410 0.978209 0.574970
#
# Coordination Sequence:
#
# PCOD9314869 Si02
#       7
#     4   4   4   4   4   4   4
#     4  12  26  39  67  90 134 180 205 264 320 399
#     4   9  18  44  69  90 124 166 222 256 326 378
#     4  12  24  44  59  98 130 171 222 254 324 391
#     4  11  21  41  69  97 122 171 214 273 319 376
#     4  10  22  43  66  94 129 166 214 264 329 376
#     4   9  21  39  67  93 123 165 209 272 310 371
#     4  11  22  40  67  98 124 167 214 267 328 377
#
# _framework density 24.245200000000001
#
# number of rings (size 3 to 8) (size 9 to 14) (size 15 to 20)
#    0.857    0.571    2.857    2.571    0.000    4.571 
#    5.143    0.000    0.000    0.000    0.000    0.000 
#    0.000    0.000    0.000    0.000    0.000    0.000 
#
# Total GULP energy -156619.558014 kJ/mol
# GULP energy per Si atom -5593.555643 kJ/mol
# Density = 2.419002 g / cm^3
# Si number density = 24.245200 Si / 1000 Ang^3
#
#
#
# Elastic Constant Matrix: (Units=GPa)
#
#
# Indices 1 2 3 4 5 6 
#
# 1 87.2789 -12.6268 6.8443 0.0000 0.0000 0.0000
# 2 -12.6268 39.1005 -19.8377 0.0000 0.0000 0.0000
# 3 6.8443 -19.8377 59.8364 0.0000 0.0000 0.0000
# 4 0.0000 0.0000 0.0000 22.8919 0.0000 0.0000
# 5 0.0000 0.0000 0.0000 0.0000 31.2291 0.0000
# 6 0.0000 0.0000 0.0000 0.0000 0.0000 46.7961
#
#
#
# Elastic Compliance Matrix: (Units=1/GPa)
#
#
# Indices 1 2 3 4 5 6 
#
# 1 0.012020 0.003828 -0.000106 0.000000 0.000000 0.000000
# 2 0.003828 0.031966 0.010160 0.000000 0.000000 0.000000
# 3 -0.000106 0.010160 0.020093 0.000000 0.000000 0.000000
# 4 0.000000 0.000000 0.000000 0.043684 0.000000 0.000000
# 5 0.000000 0.000000 0.000000 0.000000 0.032021 0.000000
# 6 0.000000 0.000000 0.000000 0.000000 0.000000 0.021369
#
#
# Mechanical properties :
#
#
# Convention : Reuss Voigt Hill
#
# Bulk Modulus (GPa) = 10.88825 14.99725 12.94275
# Shear Modulus (GPa) = 30.48732 34.30582 32.39657
#
# Velocity S-wave (km/s) = 3.54991 3.76567 3.65938
# Velocity P-wave (km/s) = 4.61553 5.01060 4.81712
#
# Compressibility (1/GPa) = 0.09184210
#
# Stress axis : x y z
#
# Youngs Moduli (GPa) = 83.19740 31.28333 49.76942
#
# Poissons Ratio (x) = -0.11975 0.00526
# Poissons Ratio (y) = -0.31847 -0.50565
# Poissons Ratio (z) = 0.00880 -0.31784
#
# Static dielectric constant tensor:
#      x y z
#    x 1.902620 0.000000 0.000000 
#    y 0.000000 2.053240 0.000000 
#    z 0.000000 0.000000 1.889460 
# 
# From -- ./inp_files/4302.got.cif
#   From: 2010.05.17/outbox.cif.g08.bks.cpg/sg19_3_cif.got.tgz:4302.got - 2010.06.03 22:46:19.
