data_PCOD9314345
_publ_section_title
;
Structure prediction by ZEFSAII (Michael W. Deem and Ramdas Pophale) SiO2 
 PCOD9314345
Probable space group: P 21 21 21
;
_chemical_formula_sum "Si O2"
_cell_formula_units_Z 32
_cell_length_a 20.602549
_cell_length_b 6.690419
_cell_length_c 11.342027
_cell_angle_alpha 90.000000
_cell_angle_beta 90.000000
_cell_angle_gamma 90.000000
_cell_volume 1563.381432
_symmetry_space_group_name_H-M "P 21 21 21"
_symmetry_group_IT_number 19
_symmetry_cell_setting 'orthorhombic'
loop_
_space_group_symop_operation_xyz
x,y,z
1/2-x,-y,1/2+z
1/2+x,1/2-y,-z
-x,1/2+y,1/2-z
loop_
_atom_site_type_symbol
_atom_site_label
_atom_site_fract_x
_atom_site_fract_y
_atom_site_fract_z
Si Si1 0.136745 0.410040 0.778416
Si Si2 0.066771 0.937205 0.180690
Si Si3 0.872298 0.532584 0.894527
Si Si4 0.350092 0.807510 0.846679
Si Si5 0.042696 0.676105 0.627728
Si Si6 0.921790 0.073594 0.140726
Si Si7 0.604554 0.437441 0.076987
Si Si8 0.294114 0.197383 0.271373
O O1 0.137377 0.232742 0.682056
O O2 0.078447 0.552440 0.731073
O O3 0.132065 0.288358 0.901482
O O4 0.195683 0.565256 0.778508
O O5 0.098774 0.117923 0.251255
O O6 0.989511 0.960557 0.168861
O O7 0.082964 0.746143 0.261364
O O8 0.096067 0.962361 0.050342
O O9 0.937965 0.410446 0.861755
O O10 0.814194 0.382903 0.857574
O O11 0.869063 0.593485 0.029515
O O12 0.360708 0.571588 0.854454
O O13 0.277506 0.861012 0.809554
O O14 0.070644 0.635807 0.496033
O O15 0.968694 0.604297 0.623314
O O16 0.652114 0.585813 0.147617
#
# Coordination Sequence:
#
# PCOD9314345 Si02
#       8
#     4   4   4   4   4   4   4   4
#     4  10  22  43  64  99 135 172 224 274 332 407
#     4  11  24  43  68 102 134 172 225 285 343 394
#     4  10  22  43  68  97 130 175 233 275 332 406
#     4  12  24  43  72  94 135 185 216 283 338 408
#     4  10  21  39  70 100 128 176 223 282 335 393
#     4  11  22  42  66 101 135 172 227 279 341 404
#     4  10  25  42  67 100 141 173 217 285 336 406
#     4  10  26  45  63 101 136 181 227 269 339 416
#
# _framework density 20.468454000000001
#
# number of rings (size 3 to 8) (size 9 to 14) (size 15 to 20)
#    0.000    1.500    3.750    0.000    7.000    3.000 
#    2.250    0.000    0.000    0.000    0.000    0.000 
#    0.000    0.000    0.000    0.000    0.000    0.000 
#
# Total GULP energy -178348.319296 kJ/mol
# GULP energy per Si atom -5573.384978 kJ/mol
# Density = 2.042187 g / cm^3
# Si number density = 20.468454 Si / 1000 Ang^3
#
#
#
# Elastic Constant Matrix: (Units=GPa)
#
#
# Indices 1 2 3 4 5 6 
#
# 1 56.0839 12.5865 17.1743 0.0000 0.0000 0.0000
# 2 12.5865 88.2014 18.2005 0.0000 0.0000 0.0000
# 3 17.1743 18.2005 73.7478 0.0000 0.0000 0.0000
# 4 0.0000 0.0000 0.0000 30.7812 0.0000 0.0000
# 5 0.0000 0.0000 0.0000 0.0000 19.9247 0.0000
# 6 0.0000 0.0000 0.0000 0.0000 0.0000 76.2537
#
#
#
# Elastic Compliance Matrix: (Units=1/GPa)
#
#
# Indices 1 2 3 4 5 6 
#
# 1 0.019511 -0.001946 -0.004064 0.000000 0.000000 0.000000
# 2 -0.001946 0.012140 -0.002543 0.000000 0.000000 0.000000
# 3 -0.004064 -0.002543 0.015134 0.000000 0.000000 0.000000
# 4 0.000000 0.000000 0.000000 0.032487 0.000000 0.000000
# 5 0.000000 0.000000 0.000000 0.000000 0.050189 0.000000
# 6 0.000000 0.000000 0.000000 0.000000 0.000000 0.013114
#
#
# Mechanical properties :
#
#
# Convention : Reuss Voigt Hill
#
# Bulk Modulus (GPa) = 33.69214 34.88396 34.28805
# Shear Modulus (GPa) = 29.48569 36.73007 33.10788
#
# Velocity S-wave (km/s) = 3.79957 4.24072 4.02619
# Velocity P-wave (km/s) = 5.97873 6.40765 6.19690
#
# Compressibility (1/GPa) = 0.02968051
#
# Stress axis : x y z
#
# Youngs Moduli (GPa) = 51.25189 82.37163 66.07797
#
# Poissons Ratio (x) = 0.16028 0.26851
# Poissons Ratio (y) = 0.09973 0.16803
# Poissons Ratio (z) = 0.20827 0.20947
#
# Static dielectric constant tensor:
#      x y z
#    x 1.711480 0.000000 0.000000 
#    y 0.000000 1.766440 0.000000 
#    z 0.000000 0.000000 1.448160 
# 
# From -- ./inp_files/1181.got.cif
#   From: 2010.05.17/outbox.cif.g08.bks.cpg/sg19_1_cif.got.tgz:1181.got - 2010.06.03 22:46:19.
