data_PCOD9314644
_publ_section_title
;
Structure prediction by ZEFSAII (Michael W. Deem and Ramdas Pophale) SiO2 
 PCOD9314644
Probable space group: P 21 21 21
;
_chemical_formula_sum "Si O2"
_cell_formula_units_Z 28
_cell_length_a 9.249056
_cell_length_b 14.967756
_cell_length_c 8.109326
_cell_angle_alpha 90.000000
_cell_angle_beta 90.000000
_cell_angle_gamma 90.000000
_cell_volume 1122.635738
_symmetry_space_group_name_H-M "P 21 21 21"
_symmetry_group_IT_number 19
_symmetry_cell_setting 'orthorhombic'
loop_
_space_group_symop_operation_xyz
x,y,z
1/2-x,-y,1/2+z
1/2+x,1/2-y,-z
-x,1/2+y,1/2-z
loop_
_atom_site_type_symbol
_atom_site_label
_atom_site_fract_x
_atom_site_fract_y
_atom_site_fract_z
Si Si1 0.115377 0.716342 0.673943
Si Si2 0.962647 0.910841 0.702277
Si Si3 0.903883 0.505730 0.110188
Si Si4 0.120544 0.966753 0.035380
Si Si5 0.843607 0.676040 0.816822
Si Si6 0.319244 0.313395 0.823890
Si Si7 0.892362 0.719253 0.151293
O O1 0.047387 0.816337 0.671546
O O2 0.107006 0.671029 0.497189
O O3 0.279074 0.730186 0.734256
O O4 0.011454 0.655774 0.787808
O O5 0.997875 0.972223 0.541564
O O6 0.791583 0.891899 0.715432
O O7 0.023920 0.942502 0.879004
O O8 0.963616 0.485808 0.294206
O O9 0.873608 0.611646 0.142489
O O10 0.744389 0.470382 0.049107
O O11 0.229602 0.894829 0.120707
O O12 0.782936 0.726334 0.658603
O O13 0.856368 0.748577 0.965678
O O14 0.441290 0.276881 0.700818
#
# Coordination Sequence:
#
# PCOD9314644 Si02
#       7
#     4   4   4   4   4   4   4
#     4  11  21  42  67  95 133 167 223 283 341 408
#     4  11  23  45  65  98 131 175 233 276 333 413
#     4  11  22  41  67  94 130 180 229 274 330 405
#     4  11  21  40  70  96 130 175 228 282 333 402
#     4  10  22  39  66  96 128 169 220 280 340 403
#     4  11  25  41  64  98 137 172 220 285 344 408
#     4  11  22  42  63  97 133 176 223 276 343 411
#
# _framework density 24.941303000000001
#
# number of rings (size 3 to 8) (size 9 to 14) (size 15 to 20)
#    0.000    1.143    4.286    3.429    2.000    1.143 
#    5.143    0.000    0.000    0.000    0.000    0.000 
#    0.000    0.000    0.000    0.000    0.000    0.000 
#
# Total GULP energy -155890.927586 kJ/mol
# GULP energy per Si atom -5567.533128 kJ/mol
# Density = 2.488454 g / cm^3
# Si number density = 24.941303 Si / 1000 Ang^3
#
#
#
# Elastic Constant Matrix: (Units=GPa)
#
#
# Indices 1 2 3 4 5 6 
#
# 1 93.6607 2.5793 8.4907 0.0000 0.0000 0.0000
# 2 2.5793 33.5788 10.1281 0.0000 0.0000 0.0000
# 3 8.4907 10.1281 145.5252 0.0000 0.0000 0.0000
# 4 0.0000 0.0000 0.0000 28.1077 0.0000 0.0000
# 5 0.0000 0.0000 0.0000 0.0000 9.7243 0.0000
# 6 0.0000 0.0000 0.0000 0.0000 0.0000 24.0525
#
#
#
# Elastic Compliance Matrix: (Units=1/GPa)
#
#
# Indices 1 2 3 4 5 6 
#
# 1 0.010747 -0.000650 -0.000582 0.000000 0.000000 0.000000
# 2 -0.000650 0.030459 -0.002082 0.000000 0.000000 0.000000
# 3 -0.000582 -0.002082 0.007050 0.000000 0.000000 0.000000
# 4 0.000000 0.000000 0.000000 0.035578 0.000000 0.000000
# 5 0.000000 0.000000 0.000000 0.000000 0.102835 0.000000
# 6 0.000000 0.000000 0.000000 0.000000 0.000000 0.041576
#
#
# Mechanical properties :
#
#
# Convention : Reuss Voigt Hill
#
# Bulk Modulus (GPa) = 24.02171 35.01788 29.51979
# Shear Modulus (GPa) = 20.10063 29.14801 24.62432
#
# Velocity S-wave (km/s) = 2.84195 3.42228 3.14553
# Velocity P-wave (km/s) = 4.51897 5.44854 5.00538
#
# Compressibility (1/GPa) = 0.04162901
#
# Stress axis : x y z
#
# Youngs Moduli (GPa) = 93.04509 32.83146 141.83393
#
# Poissons Ratio (x) = 0.02134 0.08252
# Poissons Ratio (y) = 0.06049 0.29528
# Poissons Ratio (z) = 0.05414 0.06835
#
# Static dielectric constant tensor:
#      x y z
#    x 2.029300 0.000000 0.000000 
#    y 0.000000 2.864380 0.000000 
#    z 0.000000 0.000000 1.699310 
# 
# From -- ./inp_files/2953.got.cif
#   From: 2010.05.17/outbox.cif.g08.bks.cpg/sg19_2_cif.got.tgz:2953.got - 2010.06.03 22:46:19.
