data_PCOD9314734
_publ_section_title
;
Structure prediction by ZEFSAII (Michael W. Deem and Ramdas Pophale) SiO2 
 PCOD9314734
Probable space group: P 21 21 21
;
_chemical_formula_sum "Si O2"
_cell_formula_units_Z 20
_cell_length_a 9.584792
_cell_length_b 15.596758
_cell_length_c 4.901782
_cell_angle_alpha 90.000000
_cell_angle_beta 90.000000
_cell_angle_gamma 90.000000
_cell_volume 732.775633
_symmetry_space_group_name_H-M "P 21 21 21"
_symmetry_group_IT_number 19
_symmetry_cell_setting 'orthorhombic'
loop_
_space_group_symop_operation_xyz
x,y,z
1/2-x,-y,1/2+z
1/2+x,1/2-y,-z
-x,1/2+y,1/2-z
loop_
_atom_site_type_symbol
_atom_site_label
_atom_site_fract_x
_atom_site_fract_y
_atom_site_fract_z
Si Si1 0.328223 0.039760 0.161414
Si Si2 0.024291 0.596048 0.917669
Si Si3 0.143758 0.492978 0.338786
Si Si4 0.815708 0.814613 0.054080
Si Si5 0.187493 0.202064 0.954271
O O1 0.309037 0.136117 0.051108
O O2 0.251407 0.977262 0.942579
O O3 0.482558 0.000666 0.183342
O O4 0.910872 0.647516 0.744256
O O5 0.161883 0.652112 0.863978
O O6 0.040595 0.568700 0.239957
O O7 0.251394 0.513506 0.578774
O O8 0.087550 0.397475 0.396454
O O9 0.865348 0.740767 0.259708
O O10 0.791628 0.782961 0.746146
#
# Coordination Sequence:
#
# PCOD9314734 Si02
#       5
#     4   4   4   4   4
#     4  10  22  41  65  94 127 175 231 273 336 426
#     4  10  24  44  68  90 136 184 216 282 348 400
#     4  10  22  41  65  94 127 175 231 273 336 426
#     4  11  24  42  65 101 136 172 231 291 343 412
#     4  11  24  42  65 101 136 172 231 291 343 412
#
# _framework density 27.293486000000001
#
# number of rings (size 3 to 8) (size 9 to 14) (size 15 to 20)
#    0.000    1.600    0.000    4.800    0.000   17.600 
#    0.000    0.000    0.000    0.000    0.000    0.000 
#    0.000    0.000    0.000    0.000    0.000    0.000 
#
# Total GULP energy -111573.854620 kJ/mol
# GULP energy per Si atom -5578.692731 kJ/mol
# Density = 2.723137 g / cm^3
# Si number density = 27.293486 Si / 1000 Ang^3
#
#
#
# Elastic Constant Matrix: (Units=GPa)
#
#
# Indices 1 2 3 4 5 6 
#
# 1 51.1324 -5.6163 4.8960 0.0000 0.0000 0.0000
# 2 -5.6163 117.9766 51.8160 0.0000 0.0000 0.0000
# 3 4.8960 51.8160 168.3242 0.0000 0.0000 0.0000
# 4 0.0000 0.0000 0.0000 81.6802 0.0000 0.0000
# 5 0.0000 0.0000 0.0000 0.0000 26.0051 0.0000
# 6 0.0000 0.0000 0.0000 0.0000 0.0000 37.1059
#
#
#
# Elastic Compliance Matrix: (Units=1/GPa)
#
#
# Indices 1 2 3 4 5 6 
#
# 1 0.019805 0.001383 -0.001002 0.000000 0.000000 0.000000
# 2 0.001383 0.009898 -0.003087 0.000000 0.000000 0.000000
# 3 -0.001002 -0.003087 0.006920 0.000000 0.000000 0.000000
# 4 0.000000 0.000000 0.000000 0.012243 0.000000 0.000000
# 5 0.000000 0.000000 0.000000 0.000000 0.038454 0.000000
# 6 0.000000 0.000000 0.000000 0.000000 0.000000 0.026950
#
#
# Mechanical properties :
#
#
# Convention : Reuss Voigt Hill
#
# Bulk Modulus (GPa) = 32.03996 48.84718 40.44357
# Shear Modulus (GPa) = 38.43612 48.04739 43.24176
#
# Velocity S-wave (km/s) = 3.75674 4.20026 3.98468
# Velocity P-wave (km/s) = 5.53010 6.43885 6.00170
#
# Compressibility (1/GPa) = 0.03121103
#
# Stress axis : x y z
#
# Youngs Moduli (GPa) = 50.49261 101.03067 144.50056
#
# Poissons Ratio (x) = -0.13970 0.14475
# Poissons Ratio (y) = -0.06982 0.44610
# Poissons Ratio (z) = 0.05058 0.31190
#
# Static dielectric constant tensor:
#      x y z
#    x 2.335930 0.000000 0.000000 
#    y 0.000000 2.273900 0.000000 
#    z 0.000000 0.000000 2.236070 
# 
# From -- ./inp_files/864.got.cif
#   From: 2010.05.17/outbox.cif.g08.bks.cpg/sg19_1_cif.got.tgz:864.got - 2010.06.03 22:46:19.
