data_PCOD9314838
_publ_section_title
;
Structure prediction by ZEFSAII (Michael W. Deem and Ramdas Pophale) SiO2 
 PCOD9314838
Probable space group: P 21 21 21
;
_chemical_formula_sum "Si O2"
_cell_formula_units_Z 28
_cell_length_a 8.333280
_cell_length_b 17.223666
_cell_length_c 8.288100
_cell_angle_alpha 90.000000
_cell_angle_beta 90.000000
_cell_angle_gamma 90.000000
_cell_volume 1189.587938
_symmetry_space_group_name_H-M "P 21 21 21"
_symmetry_group_IT_number 19
_symmetry_cell_setting 'orthorhombic'
loop_
_space_group_symop_operation_xyz
x,y,z
1/2-x,-y,1/2+z
1/2+x,1/2-y,-z
-x,1/2+y,1/2-z
loop_
_atom_site_type_symbol
_atom_site_label
_atom_site_fract_x
_atom_site_fract_y
_atom_site_fract_z
Si Si1 0.017809 0.803941 0.491574
Si Si2 0.294033 0.558105 0.516886
Si Si3 0.979170 0.700858 0.783734
Si Si4 0.084543 0.656621 0.269482
Si Si5 0.732909 0.756795 0.026394
Si Si6 0.720980 0.615621 0.237543
Si Si7 0.987987 0.027451 0.735704
O O1 0.912537 0.873909 0.421887
O O2 0.932099 0.754085 0.634105
O O3 0.058502 0.738675 0.362229
O O4 0.159573 0.843874 0.596074
O O5 0.407206 0.493388 0.436001
O O6 0.160225 0.527760 0.638898
O O7 0.196372 0.600950 0.373830
O O8 0.903086 0.737126 0.945497
O O9 0.933391 0.612287 0.761402
O O10 0.172804 0.701779 0.808971
O O11 0.912835 0.615354 0.246066
O O12 0.165204 0.683723 0.105156
O O13 0.679667 0.669787 0.082735
O O14 0.621837 0.536653 0.225535
#
# Coordination Sequence:
#
# PCOD9314838 Si02
#       7
#     4   4   4   4   4   4   4
#     4  10  22  42  69  97 126 173 234 282 317 392
#     4  11  25  43  70  97 135 182 223 273 344 411
#     4  11  23  44  67  98 133 174 227 281 333 396
#     4  12  22  42  71  99 128 180 234 277 337 396
#     4  11  24  41  71  96 132 177 232 282 331 399
#     4  10  25  43  63 102 138 174 224 284 342 410
#     4  11  27  45  67  97 146 178 218 281 346 412
#
# _framework density 23.537559999999999
#
# number of rings (size 3 to 8) (size 9 to 14) (size 15 to 20)
#    0.000    1.143    4.286    0.857    4.000    2.286 
#    0.000    0.000    0.000    0.000    0.000    0.000 
#    0.000    0.000    0.000    0.000    0.000    0.000 
#
# Total GULP energy -156226.156709 kJ/mol
# GULP energy per Si atom -5579.505597 kJ/mol
# Density = 2.348399 g / cm^3
# Si number density = 23.537560 Si / 1000 Ang^3
#
#
#
# Elastic Constant Matrix: (Units=GPa)
#
#
# Indices 1 2 3 4 5 6 
#
# 1 57.9286 1.0198 -16.5979 0.0000 0.0000 0.0000
# 2 1.0198 68.2345 -12.8417 0.0000 0.0000 0.0000
# 3 -16.5979 -12.8417 14.1127 0.0000 0.0000 0.0000
# 4 0.0000 0.0000 0.0000 36.4077 0.0000 0.0000
# 5 0.0000 0.0000 0.0000 0.0000 27.8452 0.0000
# 6 0.0000 0.0000 0.0000 0.0000 0.0000 29.7637
#
#
#
# Elastic Compliance Matrix: (Units=1/GPa)
#
#
# Indices 1 2 3 4 5 6 
#
# 1 0.028653 0.007136 0.040192 0.000000 0.000000 0.000000
# 2 0.007136 0.019461 0.026101 0.000000 0.000000 0.000000
# 3 0.040192 0.026101 0.141878 0.000000 0.000000 0.000000
# 4 0.000000 0.000000 0.000000 0.027467 0.000000 0.000000
# 5 0.000000 0.000000 0.000000 0.000000 0.035913 0.000000
# 6 0.000000 0.000000 0.000000 0.000000 0.000000 0.033598
#
#
# Mechanical properties :
#
#
# Convention : Reuss Voigt Hill
#
# Bulk Modulus (GPa) = 2.96870 9.27070 6.11970
# Shear Modulus (GPa) = 19.81020 30.04968 24.92994
#
# Velocity S-wave (km/s) = 2.90425 3.57693 3.25800
# Velocity P-wave (km/s) = 3.53698 4.58328 4.09370
#
# Compressibility (1/GPa) = 0.33684810
#
# Stress axis : x y z
#
# Youngs Moduli (GPa) = 34.90053 51.38527 7.04832
#
# Poissons Ratio (x) = -0.36668 -0.28328
# Poissons Ratio (y) = -0.24904 -0.18397
# Poissons Ratio (z) = -1.40271 -1.34119
#
# Static dielectric constant tensor:
#      x y z
#    x 1.961210 0.000000 0.000000 
#    y 0.000000 1.884510 0.000000 
#    z 0.000000 0.000000 1.896850 
# 
# From -- ./inp_files/3002.got.cif
#   From: 2010.05.17/outbox.cif.g08.bks.cpg/sg19_2_cif.got.tgz:3002.got - 2010.06.03 22:46:19.
