data_PCOD9314782
_publ_section_title
;
Structure prediction by ZEFSAII (Michael W. Deem and Ramdas Pophale) SiO2 
 PCOD9314782
Probable space group: P 21 21 21
;
_chemical_formula_sum "Si O2"
_cell_formula_units_Z 32
_cell_length_a 7.586013
_cell_length_b 22.611215
_cell_length_c 8.385964
_cell_angle_alpha 90.000000
_cell_angle_beta 90.000000
_cell_angle_gamma 90.000000
_cell_volume 1438.435775
_symmetry_space_group_name_H-M "P 21 21 21"
_symmetry_group_IT_number 19
_symmetry_cell_setting 'orthorhombic'
loop_
_space_group_symop_operation_xyz
x,y,z
1/2-x,-y,1/2+z
1/2+x,1/2-y,-z
-x,1/2+y,1/2-z
loop_
_atom_site_type_symbol
_atom_site_label
_atom_site_fract_x
_atom_site_fract_y
_atom_site_fract_z
Si Si1 0.936360 0.268869 0.364255
Si Si2 0.928754 0.837541 0.591280
Si Si3 0.132586 0.163920 0.832368
Si Si4 0.585274 0.853743 0.029342
Si Si5 0.438774 0.622102 0.064523
Si Si6 0.796596 0.563460 0.136937
Si Si7 0.311946 0.064455 0.992083
Si Si8 0.774542 0.741133 0.388803
O O1 0.791552 0.298193 0.248276
O O2 0.874851 0.207997 0.441184
O O3 0.977837 0.318012 0.495012
O O4 0.114194 0.254250 0.267934
O O5 0.021810 0.890840 0.497072
O O6 0.086504 0.790410 0.630661
O O7 0.871385 0.865624 0.756736
O O8 0.786299 0.801201 0.492317
O O9 0.184260 0.096315 0.865772
O O10 0.978636 0.163637 0.705048
O O11 0.117404 0.193252 0.005331
O O12 0.763949 0.891696 0.034560
O O13 0.430381 0.887531 0.933333
O O14 0.599462 0.576645 0.071082
O O15 0.855218 0.500362 0.069286
O O16 0.772155 0.564347 0.329335
#
# Coordination Sequence:
#
# PCOD9314782 Si02
#       8
#     4   4   4   4   4   4   4   4
#     4  12  22  38  62  96 141 177 223 281 347 409
#     4  10  22  42  61  98 136 178 228 274 354 396
#     4  11  23  41  65 100 138 189 228 274 363 404
#     4  12  24  41  67  98 138 179 224 286 341 419
#     4  11  26  40  64  99 136 178 226 287 339 419
#     4  11  24  47  73  97 136 181 243 279 354 405
#     4  10  22  45  74  94 137 189 224 294 339 422
#     4  11  21  36  62  94 136 177 224 279 333 416
#
# _framework density 22.246386999999999
#
# number of rings (size 3 to 8) (size 9 to 14) (size 15 to 20)
#    0.000    1.000    3.750    5.250    3.500    0.000 
#    0.000    3.750    0.000    0.000    0.000    0.000 
#    0.000    0.000    0.000    0.000    0.000    0.000 
#
# Total GULP energy -179000.036213 kJ/mol
# GULP energy per Si atom -5593.751132 kJ/mol
# Density = 2.219575 g / cm^3
# Si number density = 22.246387 Si / 1000 Ang^3
#
#
#
# Elastic Constant Matrix: (Units=GPa)
#
#
# Indices 1 2 3 4 5 6 
#
# 1 78.4100 1.0830 8.4825 0.0000 0.0000 0.0000
# 2 1.0830 80.5465 18.5658 0.0000 0.0000 0.0000
# 3 8.4825 18.5658 53.7392 0.0000 0.0000 0.0000
# 4 0.0000 0.0000 0.0000 31.8966 0.0000 0.0000
# 5 0.0000 0.0000 0.0000 0.0000 26.7028 0.0000
# 6 0.0000 0.0000 0.0000 0.0000 0.0000 20.7323
#
#
#
# Elastic Compliance Matrix: (Units=1/GPa)
#
#
# Indices 1 2 3 4 5 6 
#
# 1 0.012983 0.000324 -0.002161 0.000000 0.000000 0.000000
# 2 0.000324 0.013497 -0.004714 0.000000 0.000000 0.000000
# 3 -0.002161 -0.004714 0.020578 0.000000 0.000000 0.000000
# 4 0.000000 0.000000 0.000000 0.031351 0.000000 0.000000
# 5 0.000000 0.000000 0.000000 0.000000 0.037449 0.000000
# 6 0.000000 0.000000 0.000000 0.000000 0.000000 0.048234
#
#
# Mechanical properties :
#
#
# Convention : Reuss Voigt Hill
#
# Bulk Modulus (GPa) = 29.45068 29.88424 29.66746
# Shear Modulus (GPa) = 26.52313 28.17062 27.34688
#
# Velocity S-wave (km/s) = 3.45664 3.56237 3.50990
# Velocity P-wave (km/s) = 5.40354 5.51209 5.45808
#
# Compressibility (1/GPa) = 0.03395507
#
# Stress axis : x y z
#
# Youngs Moduli (GPa) = 77.02507 74.08805 48.59518
#
# Poissons Ratio (x) = -0.02397 0.10502
# Poissons Ratio (y) = -0.02492 0.22909
# Poissons Ratio (z) = 0.16646 0.34926
#
# Static dielectric constant tensor:
#      x y z
#    x 1.859430 0.000000 0.000000 
#    y 0.000000 1.793260 0.000000 
#    z 0.000000 0.000000 1.835410 
# 
# From -- ./inp_files/3239.got.cif
#   From: 2010.05.17/outbox.cif.g08.bks.cpg/sg19_2_cif.got.tgz:3239.got - 2010.06.03 22:46:19.
