data_PCOD9314464
_publ_section_title
;
Structure prediction by ZEFSAII (Michael W. Deem and Ramdas Pophale) SiO2 
 PCOD9314464
Probable space group: P 21 21 21
;
_chemical_formula_sum "Si O2"
_cell_formula_units_Z 32
_cell_length_a 13.736811
_cell_length_b 7.761045
_cell_length_c 12.003173
_cell_angle_alpha 90.000000
_cell_angle_beta 90.000000
_cell_angle_gamma 90.000000
_cell_volume 1279.682380
_symmetry_space_group_name_H-M "P 21 21 21"
_symmetry_group_IT_number 19
_symmetry_cell_setting 'orthorhombic'
loop_
_space_group_symop_operation_xyz
x,y,z
1/2-x,-y,1/2+z
1/2+x,1/2-y,-z
-x,1/2+y,1/2-z
loop_
_atom_site_type_symbol
_atom_site_label
_atom_site_fract_x
_atom_site_fract_y
_atom_site_fract_z
Si Si1 0.845694 0.800145 0.440858
Si Si2 0.603635 0.125122 0.502678
Si Si3 0.958569 0.085516 0.781448
Si Si4 0.040162 0.993273 0.170267
Si Si5 0.146743 0.278261 0.809074
Si Si6 0.978988 0.509259 0.065669
Si Si7 0.274425 0.207306 0.613392
Si Si8 0.655727 0.652801 0.390201
O O1 0.914080 0.672037 0.371310
O O2 0.834176 0.728364 0.565264
O O3 0.737103 0.802106 0.397910
O O4 0.906481 0.973782 0.442811
O O5 0.566554 0.034585 0.616300
O O6 0.553298 0.311821 0.511875
O O7 0.716495 0.177488 0.478529
O O8 0.559382 0.015274 0.399277
O O9 0.907269 0.272246 0.789273
O O10 0.069724 0.138599 0.762546
O O11 0.907095 0.962155 0.694091
O O12 0.044881 0.996327 0.303483
O O13 0.113087 0.846645 0.121009
O O14 0.240207 0.285484 0.731460
O O15 0.918390 0.368985 0.993338
O O16 0.220134 0.019348 0.612183
#
# Coordination Sequence:
#
# PCOD9314464 Si02
#       8
#     4   4   4   4   4   4   4   4
#     4  11  23  40  65  91 130 169 216 262 325 383
#     4  10  22  39  62  94 129 166 216 271 324 383
#     4  11  22  38  66  89 130 164 215 269 327 378
#     4  11  21  42  65  91 129 179 212 266 320 390
#     4  11  21  38  64  94 120 170 209 268 317 384
#     4  11  22  39  64  92 130 174 215 264 323 391
#     4   9  22  38  64  94 128 164 225 258 324 388
#     4  10  21  42  60  93 130 168 210 272 314 387
#
# _framework density 25.006204
#
# number of rings (size 3 to 8) (size 9 to 14) (size 15 to 20)
#    0.000    1.500    2.500    2.250    3.500    2.000 
#    0.000    5.000    0.000    0.000    0.000    0.000 
#    0.000    0.000    0.000    0.000    0.000    0.000 
#
# Total GULP energy -178872.355947 kJ/mol
# GULP energy per Si atom -5589.761123 kJ/mol
# Density = 2.494929 g / cm^3
# Si number density = 25.006204 Si / 1000 Ang^3
#
#
#
# Elastic Constant Matrix: (Units=GPa)
#
#
# Indices 1 2 3 4 5 6 
#
# 1 91.8018 5.9610 19.1344 0.0000 0.0000 0.0000
# 2 5.9610 96.0791 5.2676 0.0000 0.0000 0.0000
# 3 19.1344 5.2676 71.0647 0.0000 0.0000 0.0000
# 4 0.0000 0.0000 0.0000 24.6297 0.0000 0.0000
# 5 0.0000 0.0000 0.0000 0.0000 21.8301 0.0000
# 6 0.0000 0.0000 0.0000 0.0000 0.0000 29.1691
#
#
#
# Elastic Compliance Matrix: (Units=1/GPa)
#
#
# Indices 1 2 3 4 5 6 
#
# 1 0.011569 -0.000549 -0.003074 0.000000 0.000000 0.000000
# 2 -0.000549 0.010477 -0.000629 0.000000 0.000000 0.000000
# 3 -0.003074 -0.000629 0.014946 0.000000 0.000000 0.000000
# 4 0.000000 0.000000 0.000000 0.040601 0.000000 0.000000
# 5 0.000000 0.000000 0.000000 0.000000 0.045808 0.000000
# 6 0.000000 0.000000 0.000000 0.000000 0.000000 0.034283
#
#
# Mechanical properties :
#
#
# Convention : Reuss Voigt Hill
#
# Bulk Modulus (GPa) = 35.10308 35.51907 35.31108
# Shear Modulus (GPa) = 28.45998 30.36463 29.41230
#
# Velocity S-wave (km/s) = 3.37726 3.48844 3.43330
# Velocity P-wave (km/s) = 5.41074 5.51911 5.46519
#
# Compressibility (1/GPa) = 0.02848753
#
# Stress axis : x y z
#
# Youngs Moduli (GPa) = 86.43417 95.45052 66.90721
#
# Poissons Ratio (x) = 0.05243 0.20570
# Poissons Ratio (y) = 0.04747 0.04206
# Poissons Ratio (z) = 0.26573 0.06001
#
# Static dielectric constant tensor:
#      x y z
#    x 1.987980 0.000000 0.000000 
#    y 0.000000 2.053960 0.000000 
#    z 0.000000 0.000000 1.980090 
# 
# From -- ./inp_files/5288.got.cif
#   From: 2010.05.17/outbox.cif.g08.bks.cpg/sg19_3_cif.got.tgz:5288.got - 2010.06.03 22:46:19.
