data_PCOD9314544
_publ_section_title
;
Structure prediction by ZEFSAII (Michael W. Deem and Ramdas Pophale) SiO2 
 PCOD9314544
Probable space group: P 21 21 21
;
_chemical_formula_sum "Si O2"
_cell_formula_units_Z 20
_cell_length_a 7.806825
_cell_length_b 7.760573
_cell_length_c 12.480603
_cell_angle_alpha 90.000000
_cell_angle_beta 90.000000
_cell_angle_gamma 90.000000
_cell_volume 756.142766
_symmetry_space_group_name_H-M "P 21 21 21"
_symmetry_group_IT_number 19
_symmetry_cell_setting 'orthorhombic'
loop_
_space_group_symop_operation_xyz
x,y,z
1/2-x,-y,1/2+z
1/2+x,1/2-y,-z
-x,1/2+y,1/2-z
loop_
_atom_site_type_symbol
_atom_site_label
_atom_site_fract_x
_atom_site_fract_y
_atom_site_fract_z
Si Si1 0.153341 0.746477 0.362776
Si Si2 0.638122 0.014815 0.444013
Si Si3 0.654660 0.732603 0.117699
Si Si4 0.966475 0.940280 0.713865
Si Si5 0.010623 0.623811 0.136210
O O1 0.142820 0.640478 0.473260
O O2 0.352333 0.717212 0.330530
O O3 0.076048 0.935678 0.376430
O O4 0.058419 0.663657 0.259524
O O5 0.635144 0.980388 0.315898
O O6 0.817970 0.123644 0.438344
O O7 0.450896 0.100371 0.454143
O O8 0.536798 0.902355 0.132689
O O9 0.637705 0.631429 0.234337
O O10 0.856355 0.754801 0.105441
#
# Coordination Sequence:
#
# PCOD9314544 Si02
#       5
#     4   4   4   4   4
#     4  11  23  45  66 102 137 175 232 274 339 408
#     4   9  24  41  65 101 130 175 234 265 339 413
#     4  10  21  44  64  97 131 180 219 277 338 391
#     4   9  21  43  64  95 138 168 224 280 328 395
#     4  11  23  41  73  91 140 178 219 284 338 393
#
# _framework density 26.450033000000001
#
# number of rings (size 3 to 8) (size 9 to 14) (size 15 to 20)
#    1.200    0.800    0.000    3.600    2.800    0.000 
#   14.400    0.000    0.000    0.000    0.000    0.000 
#    0.000    0.000    0.000    0.000    0.000    0.000 
#
# Total GULP energy -111592.593034 kJ/mol
# GULP energy per Si atom -5579.629652 kJ/mol
# Density = 2.638983 g / cm^3
# Si number density = 26.450033 Si / 1000 Ang^3
#
#
#
# Elastic Constant Matrix: (Units=GPa)
#
#
# Indices 1 2 3 4 5 6 
#
# 1 111.8726 4.9819 6.5451 0.0000 0.0000 0.0000
# 2 4.9819 65.8736 -22.8657 0.0000 0.0000 0.0000
# 3 6.5451 -22.8657 68.7336 0.0000 0.0000 0.0000
# 4 0.0000 0.0000 0.0000 32.4380 0.0000 0.0000
# 5 0.0000 0.0000 0.0000 0.0000 36.3778 0.0000
# 6 0.0000 0.0000 0.0000 0.0000 0.0000 45.2478
#
#
#
# Elastic Compliance Matrix: (Units=1/GPa)
#
#
# Indices 1 2 3 4 5 6 
#
# 1 0.009060 -0.001113 -0.001233 0.000000 0.000000 0.000000
# 2 -0.001113 0.017299 0.005861 0.000000 0.000000 0.000000
# 3 -0.001233 0.005861 0.016616 0.000000 0.000000 0.000000
# 4 0.000000 0.000000 0.000000 0.030828 0.000000 0.000000
# 5 0.000000 0.000000 0.000000 0.000000 0.027489 0.000000
# 6 0.000000 0.000000 0.000000 0.000000 0.000000 0.022101
#
#
# Mechanical properties :
#
#
# Convention : Reuss Voigt Hill
#
# Bulk Modulus (GPa) = 19.99802 24.86695 22.43248
# Shear Modulus (GPa) = 37.58470 40.00062 38.79266
#
# Velocity S-wave (km/s) = 3.77366 3.89306 3.83383
# Velocity P-wave (km/s) = 5.15407 5.44332 5.30067
#
# Compressibility (1/GPa) = 0.05000496
#
# Stress axis : x y z
#
# Youngs Moduli (GPa) = 110.36970 57.80605 60.18245
#
# Poissons Ratio (x) = 0.06435 0.07421
# Poissons Ratio (y) = 0.12287 -0.35273
# Poissons Ratio (z) = 0.13610 -0.33880
#
# Static dielectric constant tensor:
#      x y z
#    x 2.030460 0.000000 0.000000 
#    y 0.000000 2.162490 0.000000 
#    z 0.000000 0.000000 2.209020 
# 
# From -- ./inp_files/5811.got.cif
#   From: 2010.05.17/outbox.cif.g08.bks.cpg/sg19_3_cif.got.tgz:5811.got - 2010.06.03 22:46:19.
