data_PCOD9314756
_publ_section_title
;
Structure prediction by ZEFSAII (Michael W. Deem and Ramdas Pophale) SiO2 
 PCOD9314756
Probable space group: P 21 21 21
;
_chemical_formula_sum "Si O2"
_cell_formula_units_Z 32
_cell_length_a 5.547976
_cell_length_b 13.006832
_cell_length_c 20.164760
_cell_angle_alpha 90.000000
_cell_angle_beta 90.000000
_cell_angle_gamma 90.000000
_cell_volume 1455.121179
_symmetry_space_group_name_H-M "P 21 21 21"
_symmetry_group_IT_number 19
_symmetry_cell_setting 'orthorhombic'
loop_
_space_group_symop_operation_xyz
x,y,z
1/2-x,-y,1/2+z
1/2+x,1/2-y,-z
-x,1/2+y,1/2-z
loop_
_atom_site_type_symbol
_atom_site_label
_atom_site_fract_x
_atom_site_fract_y
_atom_site_fract_z
Si Si1 0.074961 0.648753 0.539307
Si Si2 0.921752 0.476573 0.053689
Si Si3 0.707319 0.170762 0.097432
Si Si4 0.584700 0.528766 0.784535
Si Si5 0.415377 0.965635 0.095817
Si Si6 0.692095 0.827081 0.186801
Si Si7 0.196845 0.245982 0.762202
Si Si8 0.986241 0.630276 0.174893
O O1 0.835782 0.582987 0.559714
O O2 0.014711 0.757647 0.572589
O O3 0.336289 0.596054 0.553544
O O4 0.093699 0.668347 0.460224
O O5 0.972822 0.556569 0.112251
O O6 0.891100 0.534561 0.983105
O O7 0.786553 0.215836 0.167539
O O8 0.602618 0.057917 0.106610
O O9 0.685318 0.509924 0.858167
O O10 0.311653 0.566794 0.790161
O O11 0.700238 0.633207 0.754507
O O12 0.627403 0.435617 0.735172
O O13 0.513138 0.860733 0.128330
O O14 0.583562 0.775382 0.252765
O O15 0.863434 0.739090 0.159098
O O16 0.263104 0.330235 0.706474
#
# Coordination Sequence:
#
# PCOD9314756 Si02
#       8
#     4   4   4   4   4   4   4   4
#     4  11  26  45  70 111 145 192 242 299 377 454
#     4  11  27  46  71 104 150 189 248 303 372 442
#     4  11  22  44  72 103 147 189 241 306 375 447
#     4  10  22  41  68  96 138 174 241 296 373 439
#     4  10  23  42  65  97 134 186 234 297 360 448
#     4  10  23  44  63 101 132 183 248 294 372 446
#     4  10  23  41  68 102 133 183 240 301 368 449
#     4  11  24  43  69 100 137 190 238 310 369 433
#
# _framework density 21.991296999999999
#
# number of rings (size 3 to 8) (size 9 to 14) (size 15 to 20)
#    0.000    1.500    0.000    3.750    8.750    1.000 
#   11.250    0.000    0.000    0.000    0.000    0.000 
#    0.000    0.000    0.000    0.000    0.000    0.000 
#
# Total GULP energy -178457.269562 kJ/mol
# GULP energy per Si atom -5576.789674 kJ/mol
# Density = 2.194124 g / cm^3
# Si number density = 21.991297 Si / 1000 Ang^3
#
#
#
# Elastic Constant Matrix: (Units=GPa)
#
#
# Indices 1 2 3 4 5 6 
#
# 1 56.3884 20.2684 20.6439 0.0000 0.0000 0.0000
# 2 20.2684 91.2103 46.6090 0.0000 0.0000 0.0000
# 3 20.6439 46.6090 107.1417 0.0000 0.0000 0.0000
# 4 0.0000 0.0000 0.0000 45.4331 0.0000 0.0000
# 5 0.0000 0.0000 0.0000 0.0000 27.6385 0.0000
# 6 0.0000 0.0000 0.0000 0.0000 0.0000 26.1251
#
#
#
# Elastic Compliance Matrix: (Units=1/GPa)
#
#
# Indices 1 2 3 4 5 6 
#
# 1 0.019757 -0.003144 -0.002439 0.000000 0.000000 0.000000
# 2 -0.003144 0.014598 -0.005745 0.000000 0.000000 0.000000
# 3 -0.002439 -0.005745 0.012302 0.000000 0.000000 0.000000
# 4 0.000000 0.000000 0.000000 0.022010 0.000000 0.000000
# 5 0.000000 0.000000 0.000000 0.000000 0.036181 0.000000
# 6 0.000000 0.000000 0.000000 0.000000 0.000000 0.038277
#
#
# Mechanical properties :
#
#
# Convention : Reuss Voigt Hill
#
# Bulk Modulus (GPa) = 41.66299 47.75367 44.70833
# Shear Modulus (GPa) = 28.77156 30.98727 29.87942
#
# Velocity S-wave (km/s) = 3.62099 3.75783 3.69004
# Velocity P-wave (km/s) = 6.03891 6.37105 6.20720
#
# Compressibility (1/GPa) = 0.02400212
#
# Stress axis : x y z
#
# Youngs Moduli (GPa) = 50.61447 68.50325 81.28478
#
# Poissons Ratio (x) = 0.21537 0.19826
# Poissons Ratio (y) = 0.15913 0.46695
# Poissons Ratio (z) = 0.12345 0.39352
#
# Static dielectric constant tensor:
#      x y z
#    x 1.977270 0.000000 0.000000 
#    y 0.000000 1.788720 0.000000 
#    z 0.000000 0.000000 1.812440 
# 
# From -- ./inp_files/6942.got.cif
#   From: 2010.05.17/outbox.cif.g08.bks.cpg/sg19_4_cif.got.tgz:6942.got - 2010.06.03 22:46:19.
