data_PCOD9314650
_publ_section_title
;
Structure prediction by ZEFSAII (Michael W. Deem and Ramdas Pophale) SiO2 
 PCOD9314650
Probable space group: P 21 21 21
;
_chemical_formula_sum "Si O2"
_cell_formula_units_Z 32
_cell_length_a 12.475918
_cell_length_b 7.900019
_cell_length_c 16.086159
_cell_angle_alpha 90.000000
_cell_angle_beta 90.000000
_cell_angle_gamma 90.000000
_cell_volume 1585.451658
_symmetry_space_group_name_H-M "P 21 21 21"
_symmetry_group_IT_number 19
_symmetry_cell_setting 'orthorhombic'
loop_
_space_group_symop_operation_xyz
x,y,z
1/2-x,-y,1/2+z
1/2+x,1/2-y,-z
-x,1/2+y,1/2-z
loop_
_atom_site_type_symbol
_atom_site_label
_atom_site_fract_x
_atom_site_fract_y
_atom_site_fract_z
Si Si1 0.360890 0.637258 0.446324
Si Si2 0.231434 0.628969 0.287545
Si Si3 0.528807 0.416869 0.149852
Si Si4 0.294874 0.294718 0.092753
Si Si5 0.592735 0.474510 0.476492
Si Si6 0.600267 0.533928 0.666772
Si Si7 0.384766 0.689446 0.728155
Si Si8 0.582607 0.234883 0.323935
O O1 0.308889 0.570263 0.361728
O O2 0.394228 0.829251 0.418018
O O3 0.274088 0.621429 0.518885
O O4 0.471183 0.544518 0.467632
O O5 0.183886 0.816348 0.307994
O O6 0.143473 0.481901 0.279132
O O7 0.306689 0.646723 0.206466
O O8 0.409058 0.371462 0.118542
O O9 0.554158 0.345961 0.242084
O O10 0.520448 0.616035 0.161574
O O11 0.217374 0.281556 0.170450
O O12 0.325686 0.111996 0.058614
O O13 0.616039 0.463459 0.573920
O O14 0.602051 0.321838 0.412103
O O15 0.487996 0.634496 0.674945
O O16 0.598408 0.365207 0.723223
#
# Coordination Sequence:
#
# PCOD9314650 Si02
#       8
#     4   4   4   4   4   4   4   4
#     4  10  22  41  67  96 132 171 217 270 340 392
#     4  11  23  46  70  96 135 177 225 277 333 401
#     4  10  22  39  68  94 129 172 217 277 331 393
#     4  11  21  42  66  91 130 175 214 271 337 385
#     4  11  24  43  65  98 136 168 224 284 327 403
#     4  12  25  44  67  99 136 178 224 275 334 407
#     4  12  25  43  70  96 132 184 223 267 336 408
#     4  11  22  44  67  98 130 169 226 281 334 397
#
# _framework density 20.183523000000001
#
# number of rings (size 3 to 8) (size 9 to 14) (size 15 to 20)
#    0.000    1.000    5.000    3.000    0.000    2.000 
#    2.250    1.250    0.000    0.000    0.000    0.000 
#    0.000    0.000    0.000    0.000    0.000    0.000 
#
# Total GULP energy -178411.013379 kJ/mol
# GULP energy per Si atom -5575.344168 kJ/mol
# Density = 2.013758 g / cm^3
# Si number density = 20.183523 Si / 1000 Ang^3
#
#
#
# Elastic Constant Matrix: (Units=GPa)
#
#
# Indices 1 2 3 4 5 6 
#
# 1 75.6549 5.3189 11.1373 0.0000 0.0000 0.0000
# 2 5.3189 36.0149 22.5255 0.0000 0.0000 0.0000
# 3 11.1373 22.5255 80.7773 0.0000 0.0000 0.0000
# 4 0.0000 0.0000 0.0000 19.2339 0.0000 0.0000
# 5 0.0000 0.0000 0.0000 0.0000 -37.4038 0.0000
# 6 0.0000 0.0000 0.0000 0.0000 0.0000 29.1562
#
#
#
# Elastic Compliance Matrix: (Units=1/GPa)
#
#
# Indices 1 2 3 4 5 6 
#
# 1 0.013522 -0.001006 -0.001584 0.000000 0.000000 0.000000
# 2 -0.001006 0.033707 -0.009261 0.000000 0.000000 0.000000
# 3 -0.001584 -0.009261 0.015181 0.000000 0.000000 0.000000
# 4 0.000000 0.000000 0.000000 0.051992 0.000000 0.000000
# 5 0.000000 0.000000 0.000000 0.000000 -0.026735 0.000000
# 6 0.000000 0.000000 0.000000 0.000000 0.000000 0.034298
#
#
# Mechanical properties :
#
#
# Convention : Reuss Voigt Hill
#
# Bulk Modulus (GPa) = 25.83473 30.04560 27.94016
# Shear Modulus (GPa) = 31.53219 12.42827 21.98023
#
# Velocity S-wave (km/s) = 3.95685 2.48415 3.30361
# Velocity P-wave (km/s) = 5.80545 4.81108 5.33150
#
# Compressibility (1/GPa) = 0.03870759
#
# Stress axis : x y z
#
# Youngs Moduli (GPa) = 73.95458 29.66735 65.87388
#
# Poissons Ratio (x) = 0.02986 0.10432
# Poissons Ratio (y) = 0.07443 0.61004
# Poissons Ratio (z) = 0.11712 0.27474
#
# Static dielectric constant tensor:
#      x y z
#    x 1.745640 0.000000 0.000000 
#    y 0.000000 1.796760 0.000000 
#    z 0.000000 0.000000 1.805890 
# 
# From -- ./inp_files/5231.got.cif
#   From: 2010.05.17/outbox.cif.g08.bks.cpg/sg19_3_cif.got.tgz:5231.got - 2010.06.03 22:46:19.
