data_PCOD9314921
_publ_section_title
;
Structure prediction by ZEFSAII (Michael W. Deem and Ramdas Pophale) SiO2 
 PCOD9314921
Probable space group: P 21 21 21
;
_chemical_formula_sum "Si O2"
_cell_formula_units_Z 28
_cell_length_a 7.607327
_cell_length_b 12.528937
_cell_length_c 13.417449
_cell_angle_alpha 90.000000
_cell_angle_beta 90.000000
_cell_angle_gamma 90.000000
_cell_volume 1278.840152
_symmetry_space_group_name_H-M "P 21 21 21"
_symmetry_group_IT_number 19
_symmetry_cell_setting 'orthorhombic'
loop_
_space_group_symop_operation_xyz
x,y,z
1/2-x,-y,1/2+z
1/2+x,1/2-y,-z
-x,1/2+y,1/2-z
loop_
_atom_site_type_symbol
_atom_site_label
_atom_site_fract_x
_atom_site_fract_y
_atom_site_fract_z
Si Si1 0.682491 0.955889 0.742932
Si Si2 0.555113 0.487376 0.308922
Si Si3 0.627994 0.890264 0.521951
Si Si4 0.163626 0.992322 0.360676
Si Si5 0.551853 0.342833 0.485826
Si Si6 0.165536 0.386064 0.556429
Si Si7 0.032333 0.842918 0.525439
O O1 0.616246 0.898636 0.642213
O O2 0.515472 0.010536 0.794603
O O3 0.776065 0.883318 0.827726
O O4 0.848043 0.029532 0.712933
O O5 0.672129 0.487758 0.211585
O O6 0.619958 0.397052 0.384975
O O7 0.571832 0.599456 0.369462
O O8 0.834652 0.877138 0.499552
O O9 0.542416 0.783900 0.478962
O O10 0.574932 0.002777 0.473597
O O11 0.153490 0.103309 0.422051
O O12 0.153651 0.897868 0.441670
O O13 0.351691 0.380233 0.499628
O O14 0.560212 0.216855 0.477438
#
# Coordination Sequence:
#
# PCOD9314921 Si02
#       7
#     4   4   4   4   4   4   4
#     4  10  22  44  68  94 138 174 222 286 330 396
#     4  10  22  45  68 103 135 177 234 269 342 413
#     4  11  23  46  65  97 139 174 222 284 340 395
#     4  10  22  45  68 103 135 177 234 269 342 413
#     4  10  23  45  65  99 142 171 221 290 329 403
#     4  11  23  46  65  97 139 174 222 284 340 395
#     4  10  23  45  65  99 142 171 221 290 329 403
#
# _framework density 21.894839999999999
#
# number of rings (size 3 to 8) (size 9 to 14) (size 15 to 20)
#    0.000    1.714    5.714    0.000    6.000    2.286 
#    7.714    0.000    0.000    0.000    0.000    0.000 
#    0.000    0.000    0.000    0.000    0.000    0.000 
#
# Total GULP energy -156474.046421 kJ/mol
# GULP energy per Si atom -5588.358801 kJ/mol
# Density = 2.184501 g / cm^3
# Si number density = 21.894840 Si / 1000 Ang^3
#
#
#
# Elastic Constant Matrix: (Units=GPa)
#
#
# Indices 1 2 3 4 5 6 
#
# 1 56.0284 17.5578 31.9947 0.0000 0.0000 0.0000
# 2 17.5578 163.9590 42.6358 0.0000 0.0000 0.0000
# 3 31.9947 42.6358 108.3030 0.0000 0.0000 0.0000
# 4 0.0000 0.0000 0.0000 3.3059 0.0000 0.0000
# 5 0.0000 0.0000 0.0000 0.0000 36.0786 0.0000
# 6 0.0000 0.0000 0.0000 0.0000 0.0000 24.0107
#
#
#
# Elastic Compliance Matrix: (Units=1/GPa)
#
#
# Indices 1 2 3 4 5 6 
#
# 1 0.021547 -0.000727 -0.006079 0.000000 0.000000 0.000000
# 2 -0.000727 0.006819 -0.002470 0.000000 0.000000 0.000000
# 3 -0.006079 -0.002470 0.012002 0.000000 0.000000 0.000000
# 4 0.000000 0.000000 0.000000 0.302494 0.000000 0.000000
# 5 0.000000 0.000000 0.000000 0.000000 0.027717 0.000000
# 6 0.000000 0.000000 0.000000 0.000000 0.000000 0.041648
#
#
# Mechanical properties :
#
#
# Convention : Reuss Voigt Hill
#
# Bulk Modulus (GPa) = 45.83699 56.96300 51.39999
# Shear Modulus (GPa) = 11.41419 28.41917 19.91668
#
# Velocity S-wave (km/s) = 2.28572 3.60666 3.01932
# Velocity P-wave (km/s) = 5.28645 6.58917 5.97343
#
# Compressibility (1/GPa) = 0.02181644
#
# Stress axis : x y z
#
# Youngs Moduli (GPa) = 46.40931 146.64580 83.32187
#
# Poissons Ratio (x) = 0.10654 0.50655
# Poissons Ratio (y) = 0.03372 0.20579
# Poissons Ratio (z) = 0.28214 0.36220
#
# Static dielectric constant tensor:
#      x y z
#    x 1.816460 0.000000 0.000000 
#    y 0.000000 1.830110 0.000000 
#    z 0.000000 0.000000 1.829340 
# 
# From -- ./inp_files/4602.got.cif
#   From: 2010.05.17/outbox.cif.g08.bks.cpg/sg19_3_cif.got.tgz:4602.got - 2010.06.03 22:46:19.
