data_PCOD9314955
_publ_section_title
;
Structure prediction by ZEFSAII (Michael W. Deem and Ramdas Pophale) SiO2 
 PCOD9314955
Probable space group: P 21 21 21
;
_chemical_formula_sum "Si O2"
_cell_formula_units_Z 32
_cell_length_a 17.630849
_cell_length_b 13.166463
_cell_length_c 5.700945
_cell_angle_alpha 90.000000
_cell_angle_beta 90.000000
_cell_angle_gamma 90.000000
_cell_volume 1323.394118
_symmetry_space_group_name_H-M "P 21 21 21"
_symmetry_group_IT_number 19
_symmetry_cell_setting 'orthorhombic'
loop_
_space_group_symop_operation_xyz
x,y,z
1/2-x,-y,1/2+z
1/2+x,1/2-y,-z
-x,1/2+y,1/2-z
loop_
_atom_site_type_symbol
_atom_site_label
_atom_site_fract_x
_atom_site_fract_y
_atom_site_fract_z
Si Si1 0.044493 0.517383 0.176082
Si Si2 0.520766 0.122956 0.203721
Si Si3 0.267447 0.370021 0.129239
Si Si4 0.667183 0.070309 0.491125
Si Si5 0.410070 0.294674 0.354978
Si Si6 0.788962 0.367233 0.547115
Si Si7 0.209305 0.180956 0.936596
Si Si8 0.913762 0.537397 0.535899
O O1 0.117695 0.500624 0.334764
O O2 0.063324 0.608310 0.999066
O O3 0.967038 0.540650 0.309634
O O4 0.033801 0.405930 0.063324
O O5 0.600812 0.115375 0.332894
O O6 0.477224 0.225569 0.258733
O O7 0.467175 0.027434 0.287935
O O8 0.216261 0.350760 0.360612
O O9 0.353530 0.332955 0.153970
O O10 0.227757 0.301411 0.935511
O O11 0.274586 0.491176 0.123710
O O12 0.354161 0.218215 0.490214
O O13 0.750127 0.354327 0.810331
O O14 0.836813 0.471248 0.533062
O O15 0.738969 0.362031 0.312348
O O16 0.121164 0.149363 0.936084
#
# Coordination Sequence:
#
# PCOD9314955 Si02
#       8
#     4   4   4   4   4   4   4   4
#     4  11  23  44  68  95 140 185 231 297 354 431
#     4  10  24  45  68  99 142 185 236 292 362 434
#     4  11  24  43  74  98 139 180 246 297 360 423
#     4  11  24  46  66 102 134 188 237 299 357 427
#     4  10  22  45  71 100 136 188 236 294 362 430
#     4  10  23  42  69  97 142 186 232 288 354 427
#     4  11  24  42  68 108 135 183 234 293 355 424
#     4  10  24  39  66  99 138 181 232 282 362 420
#
# _framework density 24.180247999999999
#
# number of rings (size 3 to 8) (size 9 to 14) (size 15 to 20)
#    0.000    1.500    1.250    2.250    8.750    1.000 
#    4.500    0.000    0.000    0.000    0.000    0.000 
#    0.000    0.000    0.000    0.000    0.000    0.000 
#
# Total GULP energy -178649.385514 kJ/mol
# GULP energy per Si atom -5582.793297 kJ/mol
# Density = 2.412521 g / cm^3
# Si number density = 24.180248 Si / 1000 Ang^3
#
#
#
# Elastic Constant Matrix: (Units=GPa)
#
#
# Indices 1 2 3 4 5 6 
#
# 1 128.0251 43.9303 73.4855 0.0000 0.0000 0.0000
# 2 43.9303 75.4858 15.2941 0.0000 0.0000 0.0000
# 3 73.4855 15.2941 77.0993 0.0000 0.0000 0.0000
# 4 0.0000 0.0000 0.0000 25.2119 0.0000 0.0000
# 5 0.0000 0.0000 0.0000 0.0000 49.5771 0.0000
# 6 0.0000 0.0000 0.0000 0.0000 0.0000 31.7227
#
#
#
# Elastic Compliance Matrix: (Units=1/GPa)
#
#
# Indices 1 2 3 4 5 6 
#
# 1 0.021696 -0.008790 -0.018935 0.000000 0.000000 0.000000
# 2 -0.008790 0.017363 0.004933 0.000000 0.000000 0.000000
# 3 -0.018935 0.004933 0.030039 0.000000 0.000000 0.000000
# 4 0.000000 0.000000 0.000000 0.039664 0.000000 0.000000
# 5 0.000000 0.000000 0.000000 0.000000 0.020171 0.000000
# 6 0.000000 0.000000 0.000000 0.000000 0.000000 0.031523
#
#
# Mechanical properties :
#
#
# Convention : Reuss Voigt Hill
#
# Bulk Modulus (GPa) = 42.52546 60.67001 51.59774
# Shear Modulus (GPa) = 23.37785 31.16236 27.27011
#
# Velocity S-wave (km/s) = 3.11274 3.59382 3.36189
# Velocity P-wave (km/s) = 5.52665 6.50891 6.03779
#
# Compressibility (1/GPa) = 0.02351532
#
# Stress axis : x y z
#
# Youngs Moduli (GPa) = 46.09190 57.59261 33.28964
#
# Poissons Ratio (x) = 0.50623 0.63035
# Poissons Ratio (y) = 0.40514 -0.16423
# Poissons Ratio (z) = 0.87276 -0.28413
#
# Static dielectric constant tensor:
#      x y z
#    x 1.869120 0.000000 0.000000 
#    y 0.000000 2.018700 0.000000 
#    z 0.000000 0.000000 1.979340 
# 
# From -- ./inp_files/1833.got.cif
#   From: 2010.05.17/outbox.cif.g08.bks.cpg/sg19_1_cif.got.tgz:1833.got - 2010.06.03 22:46:19.
