data_PCOD9314165
_publ_section_title
;
Structure prediction by ZEFSAII (Michael W. Deem and Ramdas Pophale) SiO2 
 PCOD9314165
Probable space group: P 21 21 21
;
_chemical_formula_sum "Si O2"
_cell_formula_units_Z 32
_cell_length_a 7.502821
_cell_length_b 14.919793
_cell_length_c 11.765758
_cell_angle_alpha 90.000000
_cell_angle_beta 90.000000
_cell_angle_gamma 90.000000
_cell_volume 1317.065260
_symmetry_space_group_name_H-M "P 21 21 21"
_symmetry_group_IT_number 19
_symmetry_cell_setting 'orthorhombic'
loop_
_space_group_symop_operation_xyz
x,y,z
1/2-x,-y,1/2+z
1/2+x,1/2-y,-z
-x,1/2+y,1/2-z
loop_
_atom_site_type_symbol
_atom_site_label
_atom_site_fract_x
_atom_site_fract_y
_atom_site_fract_z
Si Si1 0.729020 0.825838 0.879998
Si Si2 0.574223 0.010730 0.792647
Si Si3 0.494752 0.818120 0.100505
Si Si4 0.097252 0.009555 0.511556
Si Si5 0.373556 0.267975 0.849943
Si Si6 0.742730 0.674541 0.443006
Si Si7 0.864572 0.142864 0.844491
Si Si8 0.193581 0.549104 0.438520
O O1 0.922140 0.781864 0.883388
O O2 0.628934 0.764958 0.785150
O O3 0.700833 0.926753 0.833753
O O4 0.646880 0.816140 0.004762
O O5 0.662945 0.106094 0.822679
O O6 0.577903 0.000366 0.657111
O O7 0.404169 0.997124 0.873624
O O8 0.545341 0.857815 0.222904
O O9 0.354622 0.890573 0.049781
O O10 0.191707 0.927997 0.575092
O O11 0.884679 0.996482 0.541095
O O12 0.566499 0.298848 0.893491
O O13 0.255338 0.353212 0.889255
O O14 0.289873 0.188387 0.922050
O O15 0.626755 0.755501 0.389076
O O16 0.914171 0.074076 0.946255
#
# Coordination Sequence:
#
# PCOD9314165 Si02
#       8
#     4   4   4   4   4   4   4   4
#     4  10  25  43  69  96 139 180 234 287 346 426
#     4   9  18  40  65  97 130 176 223 281 351 412
#     4  11  24  44  66  95 137 185 235 284 354 420
#     4  10  21  41  65  96 134 180 226 294 343 419
#     4  10  22  40  67  99 133 176 223 290 357 409
#     4  11  23  40  67 101 137 171 236 292 351 413
#     4  10  21  34  69  97 129 183 229 273 352 412
#     4   9  18  36  64  95 129 169 228 275 340 413
#
# _framework density 24.296441000000002
#
# number of rings (size 3 to 8) (size 9 to 14) (size 15 to 20)
#    0.000    2.000    1.250    2.250    8.750    0.000 
#    0.000   11.250    0.000    0.000    0.000    0.000 
#    0.000    0.000    0.000    0.000    0.000    0.000 
#
# Total GULP energy -178408.521903 kJ/mol
# GULP energy per Si atom -5575.266309 kJ/mol
# Density = 2.424114 g / cm^3
# Si number density = 24.296441 Si / 1000 Ang^3
#
#
#
# Elastic Constant Matrix: (Units=GPa)
#
#
# Indices 1 2 3 4 5 6 
#
# 1 47.8438 4.0444 24.1170 0.0000 0.0000 0.0000
# 2 4.0444 74.6490 5.7059 0.0000 0.0000 0.0000
# 3 24.1170 5.7059 159.6250 0.0000 0.0000 0.0000
# 4 0.0000 0.0000 0.0000 27.9393 0.0000 0.0000
# 5 0.0000 0.0000 0.0000 0.0000 14.2186 0.0000
# 6 0.0000 0.0000 0.0000 0.0000 0.0000 31.3516
#
#
#
# Elastic Compliance Matrix: (Units=1/GPa)
#
#
# Indices 1 2 3 4 5 6 
#
# 1 0.022694 -0.000970 -0.003394 0.000000 0.000000 0.000000
# 2 -0.000970 0.013474 -0.000335 0.000000 0.000000 0.000000
# 3 -0.003394 -0.000335 0.006789 0.000000 0.000000 0.000000
# 4 0.000000 0.000000 0.000000 0.035792 0.000000 0.000000
# 5 0.000000 0.000000 0.000000 0.000000 0.070330 0.000000
# 6 0.000000 0.000000 0.000000 0.000000 0.000000 0.031896
#
#
# Mechanical properties :
#
#
# Convention : Reuss Voigt Hill
#
# Bulk Modulus (GPa) = 29.79797 38.87250 34.33523
# Shear Modulus (GPa) = 24.80631 31.25192 28.02911
#
# Velocity S-wave (km/s) = 3.19875 3.59036 3.40020
# Velocity P-wave (km/s) = 5.09251 5.76382 5.43853
#
# Compressibility (1/GPa) = 0.03355934
#
# Stress axis : x y z
#
# Youngs Moduli (GPa) = 44.06401 74.21594 147.28716
#
# Poissons Ratio (x) = 0.07200 0.49991
# Poissons Ratio (y) = 0.04275 0.04935
# Poissons Ratio (z) = 0.14956 0.02487
#
# Static dielectric constant tensor:
#      x y z
#    x 1.992740 0.000000 0.000000 
#    y 0.000000 1.953330 0.000000 
#    z 0.000000 0.000000 2.031240 
# 
# From -- ./inp_files/4738.got.cif
#   From: 2010.05.17/outbox.cif.g08.bks.cpg/sg19_3_cif.got.tgz:4738.got - 2010.06.03 22:46:19.
