data_PCOD9314844
_publ_section_title
;
Structure prediction by ZEFSAII (Michael W. Deem and Ramdas Pophale) SiO2 
 PCOD9314844
Probable space group: P 21 21 21
;
_chemical_formula_sum "Si O2"
_cell_formula_units_Z 28
_cell_length_a 14.698342
_cell_length_b 5.464422
_cell_length_c 12.733836
_cell_angle_alpha 90.000000
_cell_angle_beta 90.000000
_cell_angle_gamma 90.000000
_cell_volume 1022.755519
_symmetry_space_group_name_H-M "P 21 21 21"
_symmetry_group_IT_number 19
_symmetry_cell_setting 'orthorhombic'
loop_
_space_group_symop_operation_xyz
x,y,z
1/2-x,-y,1/2+z
1/2+x,1/2-y,-z
-x,1/2+y,1/2-z
loop_
_atom_site_type_symbol
_atom_site_label
_atom_site_fract_x
_atom_site_fract_y
_atom_site_fract_z
Si Si1 0.907517 0.109225 0.378791
Si Si2 0.470203 0.865622 0.078818
Si Si3 0.167035 0.785537 0.412957
Si Si4 0.430856 0.375601 0.126645
Si Si5 0.256552 0.815951 0.011884
Si Si6 0.111294 0.103407 0.229961
Si Si7 0.268685 0.393318 0.283248
O O1 0.801890 0.163513 0.405877
O O2 0.930760 0.380682 0.334805
O O3 0.962788 0.074148 0.484462
O O4 0.924857 0.867845 0.308476
O O5 0.499055 0.601214 0.120107
O O6 0.362628 0.821127 0.048180
O O7 0.469245 0.106642 0.149177
O O8 0.108300 0.661170 0.505214
O O9 0.201671 0.618927 0.316605
O O10 0.251864 0.898530 0.478275
O O11 0.114044 0.003790 0.349997
O O12 0.357012 0.441566 0.215548
O O13 0.223091 0.699695 0.902404
O O14 0.218271 0.172512 0.220351
#
# Coordination Sequence:
#
# PCOD9314844 Si02
#       7
#     4   4   4   4   4   4   4
#     4  12  25  45  74 106 144 195 243 301 377 440
#     4  11  24  46  70 104 149 188 235 310 366 432
#     4  10  22  42  71 107 145 186 247 299 370 442
#     4  11  24  43  68  97 148 189 233 307 360 430
#     4  10  24  42  70 106 143 188 244 304 362 450
#     4  11  23  40  69 103 139 179 242 295 361 445
#     4  11  22  42  72 107 138 197 248 294 374 435
#
# _framework density 27.377023999999999
#
# number of rings (size 3 to 8) (size 9 to 14) (size 15 to 20)
#    0.000    1.143    2.857    3.429    6.000    0.000 
#    0.000   18.571    0.000    0.000    0.000    0.000 
#    0.000    0.000    0.000    0.000    0.000    0.000 
#
# Total GULP energy -156072.128516 kJ/mol
# GULP energy per Si atom -5574.004590 kJ/mol
# Density = 2.731471 g / cm^3
# Si number density = 27.377024 Si / 1000 Ang^3
#
#
#
# Elastic Constant Matrix: (Units=GPa)
#
#
# Indices 1 2 3 4 5 6 
#
# 1 79.5882 19.3027 31.1311 0.0000 0.0000 0.0000
# 2 19.3027 228.3310 63.9556 0.0000 0.0000 0.0000
# 3 31.1311 63.9556 151.8913 0.0000 0.0000 0.0000
# 4 0.0000 0.0000 0.0000 49.4676 0.0000 0.0000
# 5 0.0000 0.0000 0.0000 0.0000 53.7176 0.0000
# 6 0.0000 0.0000 0.0000 0.0000 0.0000 -9.1765
#
#
#
# Elastic Compliance Matrix: (Units=1/GPa)
#
#
# Indices 1 2 3 4 5 6 
#
# 1 0.013695 -0.000421 -0.002630 0.000000 0.000000 0.000000
# 2 -0.000421 0.004978 -0.002010 0.000000 0.000000 0.000000
# 3 -0.002630 -0.002010 0.007969 0.000000 0.000000 0.000000
# 4 0.000000 0.000000 0.000000 0.020215 0.000000 0.000000
# 5 0.000000 0.000000 0.000000 0.000000 0.018616 0.000000
# 6 0.000000 0.000000 0.000000 0.000000 0.000000 -0.108974
#
#
# Mechanical properties :
#
#
# Convention : Reuss Voigt Hill
#
# Bulk Modulus (GPa) = 60.52830 76.50993 68.51911
# Shear Modulus (GPa) = -179.39300 41.82980 -68.78160
#
# Velocity S-wave (km/s) = -8.10365 3.91310 -5.01781
# Velocity P-wave (km/s) = 8.08713 6.95873 2.91357
#
# Compressibility (1/GPa) = 0.01652120
#
# Stress axis : x y z
#
# Youngs Moduli (GPa) = 73.01714 200.87754 125.48863
#
# Poissons Ratio (x) = 0.08462 0.32998
# Poissons Ratio (y) = 0.03076 0.25220
# Poissons Ratio (z) = 0.19201 0.40372
#
# Static dielectric constant tensor:
#      x y z
#    x 2.223580 0.000000 0.000000 
#    y 0.000000 2.286720 0.000000 
#    z 0.000000 0.000000 2.159380 
# 
# From -- ./inp_files/6285.got.cif
#   From: 2010.05.17/outbox.cif.g08.bks.cpg/sg19_4_cif.got.tgz:6285.got - 2010.06.03 22:46:19.
