data_PCOD9314654
_publ_section_title
;
Structure prediction by ZEFSAII (Michael W. Deem and Ramdas Pophale) SiO2 
 PCOD9314654
Probable space group: P 21 21 21
;
_chemical_formula_sum "Si O2"
_cell_formula_units_Z 32
_cell_length_a 11.359986
_cell_length_b 6.113419
_cell_length_c 19.975014
_cell_angle_alpha 90.000000
_cell_angle_beta 90.000000
_cell_angle_gamma 90.000000
_cell_volume 1387.231848
_symmetry_space_group_name_H-M "P 21 21 21"
_symmetry_group_IT_number 19
_symmetry_cell_setting 'orthorhombic'
loop_
_space_group_symop_operation_xyz
x,y,z
1/2-x,-y,1/2+z
1/2+x,1/2-y,-z
-x,1/2+y,1/2-z
loop_
_atom_site_type_symbol
_atom_site_label
_atom_site_fract_x
_atom_site_fract_y
_atom_site_fract_z
Si Si1 0.886542 0.212260 0.210317
Si Si2 0.438044 0.882720 0.029777
Si Si3 0.847641 0.558318 0.315452
Si Si4 0.843113 0.298485 0.072367
Si Si5 0.014718 0.371205 0.661882
Si Si6 0.906350 0.740558 0.585276
Si Si7 0.815299 0.107899 0.740276
Si Si8 0.560518 0.525301 0.955797
O O1 0.852080 0.327581 0.278649
O O2 0.860982 0.378326 0.148717
O O3 0.024920 0.160351 0.205201
O O4 0.799393 0.004121 0.206494
O O5 0.424179 0.710922 0.091638
O O6 0.500344 0.079272 0.068060
O O7 0.520272 0.769650 0.973046
O O8 0.345374 0.010217 0.982654
O O9 0.740658 0.705926 0.288894
O O10 0.851536 0.516026 0.394833
O O11 0.722990 0.164306 0.078783
O O12 0.946394 0.124946 0.059734
O O13 0.945774 0.599816 0.648314
O O14 0.913643 0.208774 0.690154
O O15 0.114143 0.429138 0.715736
O O16 0.899299 0.564836 0.526258
#
# Coordination Sequence:
#
# PCOD9314654 Si02
#       8
#     4   4   4   4   4   4   4   4
#     4  11  24  42  70 107 141 187 235 301 367 429
#     4  10  23  45  69  98 144 181 243 301 355 456
#     4  11  24  43  70 107 144 182 238 297 367 433
#     4  10  22  39  69  96 135 184 235 296 356 433
#     4  11  28  46  71 105 140 200 245 296 381 435
#     4  10  22  44  66  95 137 184 241 293 355 440
#     4  12  28  46  72 106 151 192 248 315 361 460
#     4   9  23  39  63 102 134 180 229 289 366 420
#
# _framework density 23.067523999999999
#
# number of rings (size 3 to 8) (size 9 to 14) (size 15 to 20)
#    0.000    1.500    1.250    1.500    7.000    9.000 
#    0.000    2.500    0.000    0.000    0.000    0.000 
#    0.000    0.000    0.000    0.000    0.000    0.000 
#
# Total GULP energy -178434.029011 kJ/mol
# GULP energy per Si atom -5576.063407 kJ/mol
# Density = 2.301502 g / cm^3
# Si number density = 23.067524 Si / 1000 Ang^3
#
#
#
# Elastic Constant Matrix: (Units=GPa)
#
#
# Indices 1 2 3 4 5 6 
#
# 1 66.8148 -1.8602 5.7152 0.0000 0.0000 0.0000
# 2 -1.8602 51.8444 13.4455 0.0000 0.0000 0.0000
# 3 5.7152 13.4455 81.4971 0.0000 0.0000 0.0000
# 4 0.0000 0.0000 0.0000 44.2398 0.0000 0.0000
# 5 0.0000 0.0000 0.0000 0.0000 16.4747 0.0000
# 6 0.0000 0.0000 0.0000 0.0000 0.0000 11.4279
#
#
#
# Elastic Compliance Matrix: (Units=1/GPa)
#
#
# Indices 1 2 3 4 5 6 
#
# 1 0.015093 0.000853 -0.001199 0.000000 0.000000 0.000000
# 2 0.000853 0.020199 -0.003392 0.000000 0.000000 0.000000
# 3 -0.001199 -0.003392 0.012914 0.000000 0.000000 0.000000
# 4 0.000000 0.000000 0.000000 0.022604 0.000000 0.000000
# 5 0.000000 0.000000 0.000000 0.000000 0.060699 0.000000
# 6 0.000000 0.000000 0.000000 0.000000 0.000000 0.087505
#
#
# Mechanical properties :
#
#
# Convention : Reuss Voigt Hill
#
# Bulk Modulus (GPa) = 24.55289 26.08416 25.31853
# Shear Modulus (GPa) = 20.82742 26.61887 23.72314
#
# Velocity S-wave (km/s) = 3.00807 3.40068 3.21038
# Velocity P-wave (km/s) = 4.76778 5.17221 4.97410
#
# Compressibility (1/GPa) = 0.04072840
#
# Stress axis : x y z
#
# Youngs Moduli (GPa) = 66.25565 49.50787 77.43469
#
# Poissons Ratio (x) = -0.04221 0.09285
# Poissons Ratio (y) = -0.05648 0.26267
# Poissons Ratio (z) = 0.07945 0.16794
#
# Static dielectric constant tensor:
#      x y z
#    x 1.967280 0.000000 0.000000 
#    y 0.000000 1.869190 0.000000 
#    z 0.000000 0.000000 1.928540 
# 
# From -- ./inp_files/2001.got.cif
#   From: 2010.05.17/outbox.cif.g08.bks.cpg/sg19_2_cif.got.tgz:2001.got - 2010.06.03 22:46:19.
