data_PCOD9314383
_publ_section_title
;
Structure prediction by ZEFSAII (Michael W. Deem and Ramdas Pophale) SiO2 
 PCOD9314383
Probable space group: P 21 21 21
;
_chemical_formula_sum "Si O2"
_cell_formula_units_Z 20
_cell_length_a 18.119066
_cell_length_b 8.508122
_cell_length_c 5.325801
_cell_angle_alpha 90.000000
_cell_angle_beta 90.000000
_cell_angle_gamma 90.000000
_cell_volume 821.021350
_symmetry_space_group_name_H-M "P 21 21 21"
_symmetry_group_IT_number 19
_symmetry_cell_setting 'orthorhombic'
loop_
_space_group_symop_operation_xyz
x,y,z
1/2-x,-y,1/2+z
1/2+x,1/2-y,-z
-x,1/2+y,1/2-z
loop_
_atom_site_type_symbol
_atom_site_label
_atom_site_fract_x
_atom_site_fract_y
_atom_site_fract_z
Si Si1 0.076115 0.159019 0.739150
Si Si2 0.497783 0.087390 0.556481
Si Si3 0.816145 0.156071 0.720401
Si Si4 0.228271 0.292427 0.778660
Si Si5 0.950354 0.231623 0.038466
O O1 0.163146 0.167151 0.745087
O O2 0.044217 0.257480 0.507751
O O3 0.036372 0.255109 0.964821
O O4 0.039826 0.992769 0.809937
O O5 0.436062 0.135168 0.758673
O O6 0.549915 0.945750 0.652762
O O7 0.785139 0.210847 0.453168
O O8 0.809157 0.966331 0.729377
O O9 0.766888 0.219798 0.952062
O O10 0.897650 0.208681 0.800169
#
# Coordination Sequence:
#
# PCOD9314383 Si02
#       5
#     4   4   4   4   4
#     4  10  23  42  68 104 135 188 240 300 350 438
#     4  10  24  38  72  99 147 175 251 287 377 413
#     4  10  22  39  68 103 146 180 241 292 364 420
#     4  10  21  40  67 106 136 191 235 301 347 438
#     4  10  24  41  67 108 136 190 229 310 346 447
#
# _framework density 24.359904
#
# number of rings (size 3 to 8) (size 9 to 14) (size 15 to 20)
#    1.200    0.800    2.000    0.000    8.400    1.600 
#    0.000    0.000    4.400    0.000    0.000    0.000 
#    0.000    0.000    0.000    0.000    0.000    0.000 
#
# Total GULP energy -111521.229354 kJ/mol
# GULP energy per Si atom -5576.061468 kJ/mol
# Density = 2.430446 g / cm^3
# Si number density = 24.359904 Si / 1000 Ang^3
#
#
#
# Elastic Constant Matrix: (Units=GPa)
#
#
# Indices 1 2 3 4 5 6 
#
# 1 76.0054 21.9845 2.4165 0.0000 0.0000 0.0000
# 2 21.9845 63.2979 4.4500 0.0000 0.0000 0.0000
# 3 2.4165 4.4500 66.3559 0.0000 0.0000 0.0000
# 4 0.0000 0.0000 0.0000 37.2541 0.0000 0.0000
# 5 0.0000 0.0000 0.0000 0.0000 39.0921 0.0000
# 6 0.0000 0.0000 0.0000 0.0000 0.0000 31.1374
#
#
#
# Elastic Compliance Matrix: (Units=1/GPa)
#
#
# Indices 1 2 3 4 5 6 
#
# 1 0.014629 -0.005067 -0.000193 0.000000 0.000000 0.000000
# 2 -0.005067 0.017628 -0.000998 0.000000 0.000000 0.000000
# 3 -0.000193 -0.000998 0.015144 0.000000 0.000000 0.000000
# 4 0.000000 0.000000 0.000000 0.026843 0.000000 0.000000
# 5 0.000000 0.000000 0.000000 0.000000 0.025581 0.000000
# 6 0.000000 0.000000 0.000000 0.000000 0.000000 0.032116
#
#
# Mechanical properties :
#
#
# Convention : Reuss Voigt Hill
#
# Bulk Modulus (GPa) = 28.66504 29.26232 28.96368
# Shear Modulus (GPa) = 32.03390 33.28395 32.65892
#
# Velocity S-wave (km/s) = 3.63026 3.70042 3.66551
# Velocity P-wave (km/s) = 5.41891 5.50418 5.46171
#
# Compressibility (1/GPa) = 0.03488570
#
# Stress axis : x y z
#
# Youngs Moduli (GPa) = 68.35828 56.72660 66.03195
#
# Poissons Ratio (x) = 0.28745 0.01274
# Poissons Ratio (y) = 0.34639 0.06588
# Poissons Ratio (z) = 0.01319 0.05659
#
# Static dielectric constant tensor:
#      x y z
#    x 1.929450 0.000000 0.000000 
#    y 0.000000 2.030860 0.000000 
#    z 0.000000 0.000000 1.977910 
# 
# From -- ./inp_files/1686.got.cif
#   From: 2010.05.17/outbox.cif.g08.bks.cpg/sg19_1_cif.got.tgz:1686.got - 2010.06.03 22:46:19.
