data_PCOD9314627
_publ_section_title
;
Structure prediction by ZEFSAII (Michael W. Deem and Ramdas Pophale) SiO2 
 PCOD9314627
Probable space group: P 21 21 21
;
_chemical_formula_sum "Si O2"
_cell_formula_units_Z 32
_cell_length_a 12.386094
_cell_length_b 19.180814
_cell_length_c 6.650454
_cell_angle_alpha 90.000000
_cell_angle_beta 90.000000
_cell_angle_gamma 90.000000
_cell_volume 1579.984038
_symmetry_space_group_name_H-M "P 21 21 21"
_symmetry_group_IT_number 19
_symmetry_cell_setting 'orthorhombic'
loop_
_space_group_symop_operation_xyz
x,y,z
1/2-x,-y,1/2+z
1/2+x,1/2-y,-z
-x,1/2+y,1/2-z
loop_
_atom_site_type_symbol
_atom_site_label
_atom_site_fract_x
_atom_site_fract_y
_atom_site_fract_z
Si Si1 0.590825 0.743733 0.274712
Si Si2 0.927718 0.311525 0.186137
Si Si3 0.765088 0.724867 0.980039
Si Si4 0.419795 0.651077 0.040451
Si Si5 0.987611 0.487101 0.625543
Si Si6 0.105227 0.049085 0.257213
Si Si7 0.526710 0.373085 0.395748
Si Si8 0.679142 0.565206 0.436660
O O1 0.564350 0.746163 0.511376
O O2 0.559729 0.815998 0.168637
O O3 0.711708 0.722094 0.204205
O O4 0.506356 0.688267 0.185868
O O5 0.837650 0.287754 0.341884
O O6 0.030837 0.335264 0.316218
O O7 0.879124 0.376387 0.065100
O O8 0.856848 0.668321 0.912922
O O9 0.814473 0.801356 0.948268
O O10 0.417293 0.570667 0.111668
O O11 0.958601 0.501065 0.395703
O O12 0.888284 0.448797 0.735649
O O13 0.991098 0.560598 0.746635
O O14 0.198569 0.082406 0.120337
O O15 0.023394 0.097709 0.377741
O O16 0.168014 0.004289 0.427263
#
# Coordination Sequence:
#
# PCOD9314627 Si02
#       8
#     4   4   4   4   4   4   4   4
#     4  10  22  42  62  84 126 158 215 252 296 372
#     4  11  21  36  64  85 117 161 202 250 309 356
#     4  10  23  40  61  87 120 162 207 256 306 363
#     4  10  22  39  60  88 121 160 202 256 309 369
#     4  11  21  36  58  86 129 157 200 252 310 377
#     4  11  21  32  55  89 129 156 192 238 313 372
#     4  10  24  38  60  93 122 164 200 257 313 367
#     4  11  20  31  56  90 122 158 188 237 310 370
#
# _framework density 20.253367000000001
#
# number of rings (size 3 to 8) (size 9 to 14) (size 15 to 20)
#    0.000    1.500    3.750    1.500    3.500    5.000 
#    0.000    0.000    5.500    0.000    0.000    0.000 
#    0.000    0.000    0.000    0.000    0.000    0.000 
#
# Total GULP energy -178281.595304 kJ/mol
# GULP energy per Si atom -5571.299853 kJ/mol
# Density = 2.020727 g / cm^3
# Si number density = 20.253367 Si / 1000 Ang^3
#
#
#
# Elastic Constant Matrix: (Units=GPa)
#
#
# Indices 1 2 3 4 5 6 
#
# 1 23.1761 18.8972 -4.1635 0.0000 0.0000 0.0000
# 2 18.8972 100.9078 21.9198 0.0000 0.0000 0.0000
# 3 -4.1635 21.9198 81.8428 0.0000 0.0000 0.0000
# 4 0.0000 0.0000 0.0000 32.9668 0.0000 0.0000
# 5 0.0000 0.0000 0.0000 0.0000 13.4972 0.0000
# 6 0.0000 0.0000 0.0000 0.0000 0.0000 24.3134
#
#
#
# Elastic Compliance Matrix: (Units=1/GPa)
#
#
# Indices 1 2 3 4 5 6 
#
# 1 0.053333 -0.011230 0.005721 0.000000 0.000000 0.000000
# 2 -0.011230 0.012887 -0.004023 0.000000 0.000000 0.000000
# 3 0.005721 -0.004023 0.013587 0.000000 0.000000 0.000000
# 4 0.000000 0.000000 0.000000 0.030334 0.000000 0.000000
# 5 0.000000 0.000000 0.000000 0.000000 0.074089 0.000000
# 6 0.000000 0.000000 0.000000 0.000000 0.000000 0.041130
#
#
# Mechanical properties :
#
#
# Convention : Reuss Voigt Hill
#
# Bulk Modulus (GPa) = 16.46308 31.02597 23.74453
# Shear Modulus (GPa) = 18.89139 25.44038 22.16589
#
# Velocity S-wave (km/s) = 3.05741 3.54800 3.31181
# Velocity P-wave (km/s) = 4.53981 5.66892 5.13549
#
# Compressibility (1/GPa) = 0.06074197
#
# Stress axis : x y z
#
# Youngs Moduli (GPa) = 18.75028 77.59736 73.59979
#
# Poissons Ratio (x) = 0.87145 -0.42106
# Poissons Ratio (y) = 0.21057 0.29608
# Poissons Ratio (z) = -0.10727 0.31216
#
# Static dielectric constant tensor:
#      x y z
#    x 1.692890 0.000000 0.000000 
#    y 0.000000 1.808150 0.000000 
#    z 0.000000 0.000000 1.775390 
# 
# From -- ./inp_files/1154.got.cif
#   From: 2010.05.17/outbox.cif.g08.bks.cpg/sg19_1_cif.got.tgz:1154.got - 2010.06.03 22:46:19.
