data_PCOD9314231
_publ_section_title
;
Structure prediction by ZEFSAII (Michael W. Deem and Ramdas Pophale) SiO2 
 PCOD9314231
Probable space group: P 21 21 21
;
_chemical_formula_sum "Si O2"
_cell_formula_units_Z 28
_cell_length_a 5.097593
_cell_length_b 12.413722
_cell_length_c 17.484575
_cell_angle_alpha 90.000000
_cell_angle_beta 90.000000
_cell_angle_gamma 90.000000
_cell_volume 1106.425696
_symmetry_space_group_name_H-M "P 21 21 21"
_symmetry_group_IT_number 19
_symmetry_cell_setting 'orthorhombic'
loop_
_space_group_symop_operation_xyz
x,y,z
1/2-x,-y,1/2+z
1/2+x,1/2-y,-z
-x,1/2+y,1/2-z
loop_
_atom_site_type_symbol
_atom_site_label
_atom_site_fract_x
_atom_site_fract_y
_atom_site_fract_z
Si Si1 0.031470 0.619600 0.959856
Si Si2 0.496438 0.310394 0.975182
Si Si3 0.028536 0.853930 0.931988
Si Si4 0.532298 0.596815 0.744047
Si Si5 0.899676 0.570133 0.617996
Si Si6 0.465144 0.512334 0.315658
Si Si7 0.254865 0.230458 0.181717
O O1 0.024550 0.728913 0.908444
O O2 0.047819 0.516592 0.905486
O O3 0.285876 0.628809 0.011867
O O4 0.789041 0.626782 0.017660
O O5 0.571875 0.314274 0.886893
O O6 0.195194 0.280009 0.989684
O O7 0.576593 0.410635 0.027404
O O8 0.016232 0.947286 0.868773
O O9 0.612229 0.581973 0.654596
O O10 0.800291 0.564239 0.785012
O O11 0.426586 0.719007 0.747839
O O12 0.306994 0.521209 0.777174
O O13 0.075443 0.666407 0.652722
O O14 0.551456 0.633829 0.300337
#
# Coordination Sequence:
#
# PCOD9314231 Si02
#       7
#     4   4   4   4   4   4   4
#     4  10  23  48  67 110 136 192 235 293 357 426
#     4  10  21  37  70 100 138 168 215 299 359 410
#     4  10  23  42  77 101 146 174 243 301 355 423
#     4  12  27  48  66 104 143 195 240 286 355 442
#     4  11  24  45  72 111 140 186 235 303 368 428
#     4  12  28  46  74  98 147 197 239 296 352 437
#     4  11  26  48  70 108 142 184 249 298 368 432
#
# _framework density 25.306716000000002
#
# number of rings (size 3 to 8) (size 9 to 14) (size 15 to 20)
#    0.000    1.143    2.857    1.714    4.000    5.714 
#    2.571    0.000    0.000    0.000    0.000    0.000 
#    0.000    0.000    0.000    0.000    0.000    0.000 
#
# Total GULP energy -156761.313494 kJ/mol
# GULP energy per Si atom -5598.618339 kJ/mol
# Density = 2.524912 g / cm^3
# Si number density = 25.306716 Si / 1000 Ang^3
#
#
#
# Elastic Constant Matrix: (Units=GPa)
#
#
# Indices 1 2 3 4 5 6 
#
# 1 162.3320 34.1241 22.3210 0.0000 0.0000 0.0000
# 2 34.1241 136.9258 23.5294 0.0000 0.0000 0.0000
# 3 22.3210 23.5294 44.5096 0.0000 0.0000 0.0000
# 4 0.0000 0.0000 0.0000 36.3168 0.0000 0.0000
# 5 0.0000 0.0000 0.0000 0.0000 39.5454 0.0000
# 6 0.0000 0.0000 0.0000 0.0000 0.0000 30.1823
#
#
#
# Elastic Compliance Matrix: (Units=1/GPa)
#
#
# Indices 1 2 3 4 5 6 
#
# 1 0.006796 -0.001219 -0.002764 0.000000 0.000000 0.000000
# 2 -0.001219 0.008252 -0.003751 0.000000 0.000000 0.000000
# 3 -0.002764 -0.003751 0.025836 0.000000 0.000000 0.000000
# 4 0.000000 0.000000 0.000000 0.027535 0.000000 0.000000
# 5 0.000000 0.000000 0.000000 0.000000 0.025287 0.000000
# 6 0.000000 0.000000 0.000000 0.000000 0.000000 0.033132
#
#
# Mechanical properties :
#
#
# Convention : Reuss Voigt Hill
#
# Bulk Modulus (GPa) = 39.34432 55.96849 47.65641
# Shear Modulus (GPa) = 33.16122 38.79509 35.97816
#
# Velocity S-wave (km/s) = 3.62383 3.91960 3.77461
# Velocity P-wave (km/s) = 5.75242 6.53057 6.15381
#
# Compressibility (1/GPa) = 0.02541663
#
# Stress axis : x y z
#
# Youngs Moduli (GPa) = 147.13488 121.18975 38.70567
#
# Poissons Ratio (x) = 0.14771 0.10698
# Poissons Ratio (y) = 0.17933 0.14518
# Poissons Ratio (z) = 0.40669 0.45456
#
# Static dielectric constant tensor:
#      x y z
#    x 1.945090 0.000000 0.000000 
#    y 0.000000 2.028310 0.000000 
#    z 0.000000 0.000000 2.060750 
# 
# From -- ./inp_files/6440.got.cif
#   From: 2010.05.17/outbox.cif.g08.bks.cpg/sg19_4_cif.got.tgz:6440.got - 2010.06.03 22:46:19.
