data_PCOD9314115
_publ_section_title
;
Structure prediction by ZEFSAII (Michael W. Deem and Ramdas Pophale) SiO2 
 PCOD9314115
Probable space group: P 21 21 21
;
_chemical_formula_sum "Si O2"
_cell_formula_units_Z 24
_cell_length_a 5.525719
_cell_length_b 9.990079
_cell_length_c 16.046793
_cell_angle_alpha 90.000000
_cell_angle_beta 90.000000
_cell_angle_gamma 90.000000
_cell_volume 885.820994
_symmetry_space_group_name_H-M "P 21 21 21"
_symmetry_group_IT_number 19
_symmetry_cell_setting 'orthorhombic'
loop_
_space_group_symop_operation_xyz
x,y,z
1/2-x,-y,1/2+z
1/2+x,1/2-y,-z
-x,1/2+y,1/2-z
loop_
_atom_site_type_symbol
_atom_site_label
_atom_site_fract_x
_atom_site_fract_y
_atom_site_fract_z
Si Si1 0.190970 0.991195 0.351577
Si Si2 0.609732 0.928043 0.586033
Si Si3 0.597903 0.671350 0.001843
Si Si4 0.652228 0.836150 0.777530
Si Si5 0.032787 0.245950 0.927451
Si Si6 0.333449 0.204901 0.242795
O O1 0.322123 0.085364 0.418526
O O2 0.914608 0.043225 0.341205
O O3 0.309609 0.045385 0.264949
O O4 0.260176 0.844575 0.380822
O O5 0.628747 0.897118 0.684041
O O6 0.504056 0.826708 0.514655
O O7 0.890046 0.900450 0.559450
O O8 0.482100 0.065705 0.567963
O O9 0.345195 0.749388 0.019410
O O10 0.907410 0.764580 0.782378
O O11 0.413979 0.742487 0.782764
O O12 0.837958 0.255648 0.853662
#
# Coordination Sequence:
#
# PCOD9314115 Si02
#       6
#     4   4   4   4   4   4
#     4   9  23  43  66 101 139 180 237 288 363 413
#     4  10  22  42  71 105 142 183 246 290 366 413
#     4  11  27  46  70  98 142 195 237 289 350 435
#     4   9  20  40  61  93 133 174 222 280 340 421
#     4  10  20  42  68 106 135 185 230 312 339 426
#     4   9  20  39  60  95 133 175 220 273 360 406
#
# _framework density 27.093510999999999
#
# number of rings (size 3 to 8) (size 9 to 14) (size 15 to 20)
#    1.000    1.333    0.000    1.000    2.333    6.667 
#   18.000    0.000    0.000    0.000    0.000    0.000 
#    0.000    0.000    0.000    0.000    0.000    0.000 
#
# Total GULP energy -133666.666765 kJ/mol
# GULP energy per Si atom -5569.444449 kJ/mol
# Density = 2.703184 g / cm^3
# Si number density = 27.093511 Si / 1000 Ang^3
#
#
#
# Elastic Constant Matrix: (Units=GPa)
#
#
# Indices 1 2 3 4 5 6 
#
# 1 143.8139 29.4581 -2.1724 0.0000 0.0000 0.0000
# 2 29.4581 81.6256 43.3546 0.0000 0.0000 0.0000
# 3 -2.1724 43.3546 111.5321 0.0000 0.0000 0.0000
# 4 0.0000 0.0000 0.0000 37.4899 0.0000 0.0000
# 5 0.0000 0.0000 0.0000 0.0000 45.2040 0.0000
# 6 0.0000 0.0000 0.0000 0.0000 0.0000 35.1378
#
#
#
# Elastic Compliance Matrix: (Units=1/GPa)
#
#
# Indices 1 2 3 4 5 6 
#
# 1 0.007716 -0.003610 0.001554 0.000000 0.000000 0.000000
# 2 -0.003610 0.017127 -0.006728 0.000000 0.000000 0.000000
# 3 0.001554 -0.006728 0.011612 0.000000 0.000000 0.000000
# 4 0.000000 0.000000 0.000000 0.026674 0.000000 0.000000
# 5 0.000000 0.000000 0.000000 0.000000 0.022122 0.000000
# 6 0.000000 0.000000 0.000000 0.000000 0.000000 0.028459
#
#
# Mechanical properties :
#
#
# Convention : Reuss Voigt Hill
#
# Bulk Modulus (GPa) = 52.94793 53.13912 53.04352
# Shear Modulus (GPa) = 36.34386 41.32175 38.83281
#
# Velocity S-wave (km/s) = 3.66652 3.90956 3.78999
# Velocity P-wave (km/s) = 6.12450 6.32735 6.22675
#
# Compressibility (1/GPa) = 0.01888648
#
# Stress axis : x y z
#
# Youngs Moduli (GPa) = 129.59517 58.38608 86.12075
#
# Poissons Ratio (x) = 0.21077 -0.13379
# Poissons Ratio (y) = 0.46783 0.57942
# Poissons Ratio (z) = -0.20133 0.39282
#
# Static dielectric constant tensor:
#      x y z
#    x 2.383400 0.000000 0.000000 
#    y 0.000000 2.234170 0.000000 
#    z 0.000000 0.000000 2.161390 
# 
# From -- ./inp_files/6870.got.cif
#   From: 2010.05.17/outbox.cif.g08.bks.cpg/sg19_4_cif.got.tgz:6870.got - 2010.06.03 22:46:19.
