data_PCOD9314432
_publ_section_title
;
Structure prediction by ZEFSAII (Michael W. Deem and Ramdas Pophale) SiO2 
 PCOD9314432
Probable space group: P 21 21 21
;
_chemical_formula_sum "Si O2"
_cell_formula_units_Z 32
_cell_length_a 10.911785
_cell_length_b 20.678085
_cell_length_c 5.265483
_cell_angle_alpha 90.000000
_cell_angle_beta 90.000000
_cell_angle_gamma 90.000000
_cell_volume 1188.076297
_symmetry_space_group_name_H-M "P 21 21 21"
_symmetry_group_IT_number 19
_symmetry_cell_setting 'orthorhombic'
loop_
_space_group_symop_operation_xyz
x,y,z
1/2-x,-y,1/2+z
1/2+x,1/2-y,-z
-x,1/2+y,1/2-z
loop_
_atom_site_type_symbol
_atom_site_label
_atom_site_fract_x
_atom_site_fract_y
_atom_site_fract_z
Si Si1 0.225381 0.536566 0.414408
Si Si2 0.983196 0.581042 0.176812
Si Si3 0.588052 0.672080 0.872400
Si Si4 0.145113 0.355538 0.590864
Si Si5 0.616476 0.808549 0.136386
Si Si6 0.671481 0.515874 0.375761
Si Si7 0.259214 0.860633 0.525893
Si Si8 0.069287 0.247701 0.972783
O O1 0.245265 0.519836 0.707731
O O2 0.085014 0.551491 0.358079
O O3 0.303369 0.595673 0.299888
O O4 0.941527 0.528851 0.963462
O O5 0.869410 0.600952 0.347020
O O6 0.037376 0.645126 0.046513
O O7 0.484794 0.623625 0.975643
O O8 0.715060 0.643453 0.767202
O O9 0.509133 0.705336 0.647470
O O10 0.620380 0.734027 0.044150
O O11 0.249125 0.339449 0.382026
O O12 0.117101 0.288134 0.732744
O O13 0.533223 0.804593 0.386361
O O14 0.734279 0.495161 0.113504
O O15 0.649477 0.593719 0.369752
O O16 0.309830 0.788336 0.576028
#
# Coordination Sequence:
#
# PCOD9314432 Si02
#       8
#     4   4   4   4   4   4   4   4
#     4  11  28  50  80 110 149 206 264 324 388 469
#     4  10  23  46  72 106 146 198 253 323 384 466
#     4  11  24  41  67 103 144 194 240 319 379 468
#     4  10  25  44  67 106 149 191 258 312 399 459
#     4  10  21  41  65  99 139 193 246 305 383 462
#     4  10  23  43  68 101 138 190 245 310 372 441
#     4  11  23  43  71 103 144 191 253 307 388 460
#     4  11  23  38  68 100 143 191 241 314 381 469
#
# _framework density 26.934298999999999
#
# number of rings (size 3 to 8) (size 9 to 14) (size 15 to 20)
#    0.000    1.500    2.500    0.750    5.250    4.000 
#    9.000    0.000    0.000    0.000    0.000    0.000 
#    0.000    0.000    0.000    0.000    0.000    0.000 
#
# Total GULP energy -178943.501107 kJ/mol
# GULP energy per Si atom -5591.984410 kJ/mol
# Density = 2.687300 g / cm^3
# Si number density = 26.934299 Si / 1000 Ang^3
#
#
#
# Elastic Constant Matrix: (Units=GPa)
#
#
# Indices 1 2 3 4 5 6 
#
# 1 119.1293 30.1885 47.7744 0.0000 0.0000 0.0000
# 2 30.1885 47.1427 17.5803 0.0000 0.0000 0.0000
# 3 47.7744 17.5803 79.5522 0.0000 0.0000 0.0000
# 4 0.0000 0.0000 0.0000 24.2021 0.0000 0.0000
# 5 0.0000 0.0000 0.0000 0.0000 38.9858 0.0000
# 6 0.0000 0.0000 0.0000 0.0000 0.0000 23.7698
#
#
#
# Elastic Compliance Matrix: (Units=1/GPa)
#
#
# Indices 1 2 3 4 5 6 
#
# 1 0.012265 -0.005566 -0.006136 0.000000 0.000000 0.000000
# 2 -0.005566 0.025643 -0.002324 0.000000 0.000000 0.000000
# 3 -0.006136 -0.002324 0.016769 0.000000 0.000000 0.000000
# 4 0.000000 0.000000 0.000000 0.041319 0.000000 0.000000
# 5 0.000000 0.000000 0.000000 0.000000 0.025650 0.000000
# 6 0.000000 0.000000 0.000000 0.000000 0.000000 0.042070
#
#
# Mechanical properties :
#
#
# Convention : Reuss Voigt Hill
#
# Bulk Modulus (GPa) = 37.55852 48.54562 43.05207
# Shear Modulus (GPa) = 24.91973 27.41027 26.16500
#
# Velocity S-wave (km/s) = 3.04502 3.19356 3.12017
# Velocity P-wave (km/s) = 5.13202 5.62683 5.38511
#
# Compressibility (1/GPa) = 0.02662512
#
# Stress axis : x y z
#
# Youngs Moduli (GPa) = 81.53007 38.99656 59.63450
#
# Poissons Ratio (x) = 0.21706 0.36591
# Poissons Ratio (y) = 0.45381 0.13860
# Poissons Ratio (z) = 0.50025 0.09064
#
# Static dielectric constant tensor:
#      x y z
#    x 2.129760 0.000000 0.000000 
#    y 0.000000 2.168970 0.000000 
#    z 0.000000 0.000000 2.134850 
# 
# From -- ./inp_files/1171.got.cif
#   From: 2010.05.17/outbox.cif.g08.bks.cpg/sg19_1_cif.got.tgz:1171.got - 2010.06.03 22:46:19.
