data_PCOD9314212
_publ_section_title
;
Structure prediction by ZEFSAII (Michael W. Deem and Ramdas Pophale) SiO2 
 PCOD9314212
Probable space group: P 21 21 21
;
_chemical_formula_sum "Si O2"
_cell_formula_units_Z 28
_cell_length_a 8.354605
_cell_length_b 21.410311
_cell_length_c 7.113268
_cell_angle_alpha 90.000000
_cell_angle_beta 90.000000
_cell_angle_gamma 90.000000
_cell_volume 1272.383618
_symmetry_space_group_name_H-M "P 21 21 21"
_symmetry_group_IT_number 19
_symmetry_cell_setting 'orthorhombic'
loop_
_space_group_symop_operation_xyz
x,y,z
1/2-x,-y,1/2+z
1/2+x,1/2-y,-z
-x,1/2+y,1/2-z
loop_
_atom_site_type_symbol
_atom_site_label
_atom_site_fract_x
_atom_site_fract_y
_atom_site_fract_z
Si Si1 0.367375 0.156785 0.025520
Si Si2 0.036725 0.612079 0.074189
Si Si3 0.969670 0.531216 0.752596
Si Si4 0.341036 0.962585 0.646692
Si Si5 0.391643 0.599402 0.222084
Si Si6 0.698346 0.273986 0.669925
Si Si7 0.956348 0.330571 0.398678
O O1 0.269569 0.096785 0.097141
O O2 0.540332 0.147329 0.122471
O O3 0.275030 0.213978 0.124745
O O4 0.379097 0.156362 0.802676
O O5 0.211893 0.612688 0.161752
O O6 0.941917 0.554398 0.170565
O O7 0.937546 0.673803 0.126141
O O8 0.032645 0.592979 0.855267
O O9 0.078706 0.470689 0.795965
O O10 0.959474 0.532925 0.528130
O O11 0.785464 0.517231 0.814192
O O12 0.500834 0.611942 0.035575
O O13 0.837198 0.287839 0.520412
O O14 0.617991 0.207561 0.642197
#
# Coordination Sequence:
#
# PCOD9314212 Si02
#       7
#     4   4   4   4   4   4   4
#     4   9  22  41  62  91 123 162 208 254 312 374
#     4  11  23  41  58  90 134 155 213 265 299 382
#     4  11  22  37  62  86 122 168 205 256 317 361
#     4  10  21  37  62  85 116 165 210 251 310 370
#     4  10  25  39  59  97 125 165 215 252 317 376
#     4  10  23  40  64  95 117 170 207 250 319 371
#     4  11  22  43  69  88 135 161 206 266 306 376
#
# _framework density 22.005942000000001
#
# number of rings (size 3 to 8) (size 9 to 14) (size 15 to 20)
#    0.000    1.714    1.429    2.571    4.000    4.571 
#    0.000    2.857    0.000    0.000    0.000    0.000 
#    0.000    0.000    0.000    0.000    0.000    0.000 
#
# Total GULP energy -156449.548286 kJ/mol
# GULP energy per Si atom -5587.483867 kJ/mol
# Density = 2.195586 g / cm^3
# Si number density = 22.005942 Si / 1000 Ang^3
#
#
#
# Elastic Constant Matrix: (Units=GPa)
#
#
# Indices 1 2 3 4 5 6 
#
# 1 40.6583 -1.1514 -15.3486 0.0000 0.0000 0.0000
# 2 -1.1514 27.3066 -1.2736 0.0000 0.0000 0.0000
# 3 -15.3486 -1.2736 90.6035 0.0000 0.0000 0.0000
# 4 0.0000 0.0000 0.0000 11.2784 0.0000 0.0000
# 5 0.0000 0.0000 0.0000 0.0000 29.4939 0.0000
# 6 0.0000 0.0000 0.0000 0.0000 0.0000 24.1448
#
#
#
# Elastic Compliance Matrix: (Units=1/GPa)
#
#
# Indices 1 2 3 4 5 6 
#
# 1 0.026323 0.001319 0.004478 0.000000 0.000000 0.000000
# 2 0.001319 0.036711 0.000739 0.000000 0.000000 0.000000
# 3 0.004478 0.000739 0.011806 0.000000 0.000000 0.000000
# 4 0.000000 0.000000 0.000000 0.088665 0.000000 0.000000
# 5 0.000000 0.000000 0.000000 0.000000 0.033905 0.000000
# 6 0.000000 0.000000 0.000000 0.000000 0.000000 0.041417
#
#
# Mechanical properties :
#
#
# Convention : Reuss Voigt Hill
#
# Bulk Modulus (GPa) = 11.37497 13.66901 12.52199
# Shear Modulus (GPa) = 19.60328 24.73956 22.17142
#
# Velocity S-wave (km/s) = 2.98789 3.35658 3.17759
# Velocity P-wave (km/s) = 4.13323 4.60946 4.37783
#
# Compressibility (1/GPa) = 0.08791231
#
# Stress axis : x y z
#
# Youngs Moduli (GPa) = 37.98969 27.23954 84.70232
#
# Poissons Ratio (x) = -0.03592 -0.37928
# Poissons Ratio (y) = -0.05010 -0.06263
# Poissons Ratio (z) = -0.17011 -0.02014
#
# Static dielectric constant tensor:
#      x y z
#    x 1.801410 0.000000 0.000000 
#    y 0.000000 1.817200 0.000000 
#    z 0.000000 0.000000 1.815120 
# 
# From -- ./inp_files/655.got.cif
#   From: 2010.05.17/outbox.cif.g08.bks.cpg/sg19_1_cif.got.tgz:655.got - 2010.06.03 22:46:19.
