data_PCOD9314302
_publ_section_title
;
Structure prediction by ZEFSAII (Michael W. Deem and Ramdas Pophale) SiO2 
 PCOD9314302
Probable space group: P 21 21 21
;
_chemical_formula_sum "Si O2"
_cell_formula_units_Z 16
_cell_length_a 4.766872
_cell_length_b 10.388163
_cell_length_c 12.539950
_cell_angle_alpha 90.000000
_cell_angle_beta 90.000000
_cell_angle_gamma 90.000000
_cell_volume 620.966327
_symmetry_space_group_name_H-M "P 21 21 21"
_symmetry_group_IT_number 19
_symmetry_cell_setting 'orthorhombic'
loop_
_space_group_symop_operation_xyz
x,y,z
1/2-x,-y,1/2+z
1/2+x,1/2-y,-z
-x,1/2+y,1/2-z
loop_
_atom_site_type_symbol
_atom_site_label
_atom_site_fract_x
_atom_site_fract_y
_atom_site_fract_z
Si Si1 0.602019 0.816963 0.954814
Si Si2 0.029840 0.003701 0.635413
Si Si3 0.252669 0.748441 0.426915
Si Si4 0.030221 0.356902 0.271314
O O1 0.513422 0.777092 0.836603
O O2 0.427772 0.713209 0.026959
O O3 0.526023 0.947633 0.014270
O O4 0.843565 0.093458 0.713493
O O5 0.343881 0.036431 0.667441
O O6 0.920872 0.859881 0.638846
O O7 0.499327 0.807367 0.500034
O O8 0.090593 0.839507 0.345249
#
# Coordination Sequence:
#
# PCOD9314302 Si02
#       4
#     4   4   4   4
#     4   8  16  32  57  85 113 149 204 253 292 355
#     4  10  21  41  63  89 121 159 203 258 309 358
#     4  12  26  42  61  95 133 163 204 259 316 373
#     4  10  21  39  63  89 119 165 211 244 301 378
#
# _framework density 25.766290999999999
#
# number of rings (size 3 to 8) (size 9 to 14) (size 15 to 20)
#    0.000    2.000    0.000    3.000    0.000    4.000 
#    0.000   10.000    0.000    0.000    0.000    0.000 
#    0.000    0.000    0.000    0.000    0.000    0.000 
#
# Total GULP energy -89517.634138 kJ/mol
# GULP energy per Si atom -5594.852134 kJ/mol
# Density = 2.570765 g / cm^3
# Si number density = 25.766291 Si / 1000 Ang^3
#
#
#
# Elastic Constant Matrix: (Units=GPa)
#
#
# Indices 1 2 3 4 5 6 
#
# 1 88.3018 -13.9743 7.1838 0.0000 0.0000 0.0000
# 2 -13.9743 46.4408 24.4302 0.0000 0.0000 0.0000
# 3 7.1838 24.4302 68.0241 0.0000 0.0000 0.0000
# 4 0.0000 0.0000 0.0000 33.7972 0.0000 0.0000
# 5 0.0000 0.0000 0.0000 0.0000 24.9886 0.0000
# 6 0.0000 0.0000 0.0000 0.0000 0.0000 29.8749
#
#
#
# Elastic Compliance Matrix: (Units=1/GPa)
#
#
# Indices 1 2 3 4 5 6 
#
# 1 0.012458 0.005475 -0.003282 0.000000 0.000000 0.000000
# 2 0.005475 0.028955 -0.010977 0.000000 0.000000 0.000000
# 3 -0.003282 -0.010977 0.018990 0.000000 0.000000 0.000000
# 4 0.000000 0.000000 0.000000 0.029588 0.000000 0.000000
# 5 0.000000 0.000000 0.000000 0.000000 0.040018 0.000000
# 6 0.000000 0.000000 0.000000 0.000000 0.000000 0.033473
#
#
# Mechanical properties :
#
#
# Convention : Reuss Voigt Hill
#
# Bulk Modulus (GPa) = 23.34535 26.44955 24.89745
# Shear Modulus (GPa) = 25.59794 30.07395 27.83594
#
# Velocity S-wave (km/s) = 3.15535 3.42011 3.29039
# Velocity P-wave (km/s) = 4.72811 5.08760 4.91115
#
# Compressibility (1/GPa) = 0.04283509
#
# Stress axis : x y z
#
# Youngs Moduli (GPa) = 80.26769 34.53649 52.66038
#
# Poissons Ratio (x) = -0.18910 0.17284
# Poissons Ratio (y) = -0.43949 0.57806
# Poissons Ratio (z) = 0.26345 0.37911
#
# Static dielectric constant tensor:
#      x y z
#    x 1.927590 0.000000 0.000000 
#    y 0.000000 2.036650 0.000000 
#    z 0.000000 0.000000 2.044310 
# 
# From -- ./inp_files/263.got.cif
#   From: 2010.05.17/outbox.cif.g08.bks.cpg/sg19_1_cif.got.tgz:263.got - 2010.06.03 22:46:19.
