data_PCOD9314520
_publ_section_title
;
Structure prediction by ZEFSAII (Michael W. Deem and Ramdas Pophale) SiO2 
 PCOD9314520
Probable space group: P 21 21 21
;
_chemical_formula_sum "Si O2"
_cell_formula_units_Z 32
_cell_length_a 8.288889
_cell_length_b 10.231868
_cell_length_c 15.135100
_cell_angle_alpha 90.000000
_cell_angle_beta 90.000000
_cell_angle_gamma 90.000000
_cell_volume 1283.620213
_symmetry_space_group_name_H-M "P 21 21 21"
_symmetry_group_IT_number 19
_symmetry_cell_setting 'orthorhombic'
loop_
_space_group_symop_operation_xyz
x,y,z
1/2-x,-y,1/2+z
1/2+x,1/2-y,-z
-x,1/2+y,1/2-z
loop_
_atom_site_type_symbol
_atom_site_label
_atom_site_fract_x
_atom_site_fract_y
_atom_site_fract_z
Si Si1 0.729577 0.210450 0.492682
Si Si2 0.814993 0.185283 0.880811
Si Si3 0.336401 0.095707 0.998995
Si Si4 0.394370 0.922240 0.145862
Si Si5 0.461546 0.989489 0.695779
Si Si6 0.735449 0.812065 0.193409
Si Si7 0.063915 0.539338 0.122663
Si Si8 0.494271 0.962981 0.502875
O O1 0.648892 0.301510 0.418710
O O2 0.759185 0.250405 0.595144
O O3 0.892832 0.152850 0.446409
O O4 0.614011 0.083498 0.500302
O O5 0.786204 0.259259 0.788714
O O6 0.721636 0.049644 0.866401
O O7 0.764184 0.267489 0.968163
O O8 0.983264 0.134559 0.920655
O O9 0.440224 0.068937 0.914454
O O10 0.189270 0.994948 0.995085
O O11 0.436290 0.046928 0.083853
O O12 0.221899 0.953929 0.193239
O O13 0.562069 0.890318 0.194560
O O14 0.599730 0.102716 0.697684
O O15 0.497456 0.910066 0.784827
O O16 0.500400 0.913258 0.604552
#
# Coordination Sequence:
#
# PCOD9314520 Si02
#       8
#     4   4   4   4   4   4   4   4
#     4  10  22  44  65  95 128 174 213 275 329 377
#     4  10  22  43  63  94 131 173 212 269 334 387
#     4  11  22  39  63  95 128 172 218 266 321 403
#     4  11  24  43  65 100 129 168 228 260 332 389
#     4   9  22  43  63  97 131 168 216 271 322 393
#     4  10  22  42  66  91 132 170 214 274 319 385
#     4  10  21  43  67  90 134 168 218 269 329 389
#     4   9  21  41  64  90 133 167 217 268 324 385
#
# _framework density 24.929493999999998
#
# number of rings (size 3 to 8) (size 9 to 14) (size 15 to 20)
#    0.000    2.000    1.250    0.750    7.000    0.000 
#   22.500    0.000    0.000    0.000    0.000    0.000 
#    0.000    0.000    0.000    0.000    0.000    0.000 
#
# Total GULP energy -178178.913011 kJ/mol
# GULP energy per Si atom -5568.091032 kJ/mol
# Density = 2.487275 g / cm^3
# Si number density = 24.929494 Si / 1000 Ang^3
#
#
#
# Elastic Constant Matrix: (Units=GPa)
#
#
# Indices 1 2 3 4 5 6 
#
# 1 101.7458 -0.1577 25.3783 0.0000 0.0000 0.0000
# 2 -0.1577 32.4403 23.2360 0.0000 0.0000 0.0000
# 3 25.3783 23.2360 95.8849 0.0000 0.0000 0.0000
# 4 0.0000 0.0000 0.0000 30.3092 0.0000 0.0000
# 5 0.0000 0.0000 0.0000 0.0000 33.3821 0.0000
# 6 0.0000 0.0000 0.0000 0.0000 0.0000 13.9039
#
#
#
# Elastic Compliance Matrix: (Units=1/GPa)
#
#
# Indices 1 2 3 4 5 6 
#
# 1 0.010690 0.002515 -0.003439 0.000000 0.000000 0.000000
# 2 0.002515 0.037892 -0.009848 0.000000 0.000000 0.000000
# 3 -0.003439 -0.009848 0.013726 0.000000 0.000000 0.000000
# 4 0.000000 0.000000 0.000000 0.032993 0.000000 0.000000
# 5 0.000000 0.000000 0.000000 0.000000 0.029956 0.000000
# 6 0.000000 0.000000 0.000000 0.000000 0.000000 0.071922
#
#
# Mechanical properties :
#
#
# Convention : Reuss Voigt Hill
#
# Bulk Modulus (GPa) = 24.53134 36.33156 30.43145
# Shear Modulus (GPa) = 21.52285 27.62669 24.57477
#
# Velocity S-wave (km/s) = 2.94147 3.33256 3.14310
# Velocity P-wave (km/s) = 4.62579 5.42341 5.04040
#
# Compressibility (1/GPa) = 0.04076418
#
# Stress axis : x y z
#
# Youngs Moduli (GPa) = 93.54476 26.39080 72.85513
#
# Poissons Ratio (x) = -0.06638 0.25054
# Poissons Ratio (y) = -0.23528 0.71749
# Poissons Ratio (z) = 0.32169 0.25990
#
# Static dielectric constant tensor:
#      x y z
#    x 2.006760 0.000000 0.000000 
#    y 0.000000 2.149170 0.000000 
#    z 0.000000 0.000000 2.021670 
# 
# From -- ./inp_files/5905.got.cif
#   From: 2010.05.17/outbox.cif.g08.bks.cpg/sg19_3_cif.got.tgz:5905.got - 2010.06.03 22:46:19.
