data_PCOD9314519
_publ_section_title
;
Structure prediction by ZEFSAII (Michael W. Deem and Ramdas Pophale) SiO2 
 PCOD9314519
Probable space group: P 21 21 21
;
_chemical_formula_sum "Si O2"
_cell_formula_units_Z 28
_cell_length_a 11.440255
_cell_length_b 10.687426
_cell_length_c 8.856733
_cell_angle_alpha 90.000000
_cell_angle_beta 90.000000
_cell_angle_gamma 90.000000
_cell_volume 1082.885100
_symmetry_space_group_name_H-M "P 21 21 21"
_symmetry_group_IT_number 19
_symmetry_cell_setting 'orthorhombic'
loop_
_space_group_symop_operation_xyz
x,y,z
1/2-x,-y,1/2+z
1/2+x,1/2-y,-z
-x,1/2+y,1/2-z
loop_
_atom_site_type_symbol
_atom_site_label
_atom_site_fract_x
_atom_site_fract_y
_atom_site_fract_z
Si Si1 0.360541 0.025654 0.495237
Si Si2 0.280245 0.451444 0.577412
Si Si3 0.287589 0.342471 0.264992
Si Si4 0.130299 0.146031 0.445708
Si Si5 0.997053 0.728647 0.547478
Si Si6 0.055518 0.349650 0.675251
Si Si7 0.418007 0.248021 0.722246
O O1 0.219249 0.033983 0.484566
O O2 0.427765 0.093954 0.357207
O O3 0.401835 0.117977 0.632009
O O4 0.411504 0.886402 0.494767
O O5 0.324744 0.425710 0.410327
O O6 0.303993 0.579305 0.663260
O O7 0.138953 0.442894 0.580914
O O8 0.306750 0.332804 0.684799
O O9 0.216870 0.234400 0.348699
O O10 0.396849 0.306664 0.162058
O O11 0.083113 0.216501 0.595122
O O12 0.014963 0.153831 0.343955
O O13 0.929101 0.829491 0.648053
O O14 0.055128 0.774891 0.394476
#
# Coordination Sequence:
#
# PCOD9314519 Si02
#       7
#     4   4   4   4   4   4   4
#     4  11  22  47  68  92 143 179 222 290 346 401
#     4  11  22  41  70 101 137 177 225 291 339 403
#     4  11  21  41  70 102 129 182 233 279 341 405
#     4  10  22  45  67  91 143 179 222 286 343 409
#     4  12  25  41  70 105 135 185 236 277 355 416
#     4  10  21  43  66  96 132 177 222 286 336 405
#     4  11  25  42  65 103 137 179 232 287 338 409
#
# _framework density 25.856853999999998
#
# number of rings (size 3 to 8) (size 9 to 14) (size 15 to 20)
#    0.000    1.143    5.714    1.714    4.000    3.429 
#    0.000    0.000    0.000    0.000    0.000    0.000 
#    0.000    0.000    0.000    0.000    0.000    0.000 
#
# Total GULP energy -156424.485385 kJ/mol
# GULP energy per Si atom -5586.588764 kJ/mol
# Density = 2.579800 g / cm^3
# Si number density = 25.856854 Si / 1000 Ang^3
#
#
#
# Elastic Constant Matrix: (Units=GPa)
#
#
# Indices 1 2 3 4 5 6 
#
# 1 68.0747 -1.8542 11.0167 0.0000 0.0000 0.0000
# 2 -1.8542 28.8939 9.0371 0.0000 0.0000 0.0000
# 3 11.0167 9.0371 148.5633 0.0000 0.0000 0.0000
# 4 0.0000 0.0000 0.0000 21.4486 0.0000 0.0000
# 5 0.0000 0.0000 0.0000 0.0000 35.6441 0.0000
# 6 0.0000 0.0000 0.0000 0.0000 0.0000 29.8829
#
#
#
# Elastic Compliance Matrix: (Units=1/GPa)
#
#
# Indices 1 2 3 4 5 6 
#
# 1 0.014918 0.001329 -0.001187 0.000000 0.000000 0.000000
# 2 0.001329 0.035399 -0.002252 0.000000 0.000000 0.000000
# 3 -0.001187 -0.002252 0.006956 0.000000 0.000000 0.000000
# 4 0.000000 0.000000 0.000000 0.046623 0.000000 0.000000
# 5 0.000000 0.000000 0.000000 0.000000 0.028055 0.000000
# 6 0.000000 0.000000 0.000000 0.000000 0.000000 0.033464
#
#
# Mechanical properties :
#
#
# Convention : Reuss Voigt Hill
#
# Bulk Modulus (GPa) = 18.84925 31.32570 25.08747
# Shear Modulus (GPa) = 26.69228 32.55061 29.62145
#
# Velocity S-wave (km/s) = 3.21644 3.55192 3.38833
# Velocity P-wave (km/s) = 4.59344 5.38171 5.00312
#
# Compressibility (1/GPa) = 0.05305251
#
# Stress axis : x y z
#
# Youngs Moduli (GPa) = 67.03300 28.24939 143.75784
#
# Poissons Ratio (x) = -0.03753 0.17065
# Poissons Ratio (y) = -0.08906 0.32372
# Poissons Ratio (z) = 0.07957 0.06361
#
# Static dielectric constant tensor:
#      x y z
#    x 2.188700 0.000000 0.000000 
#    y 0.000000 2.200150 0.000000 
#    z 0.000000 0.000000 1.987840 
# 
# From -- ./inp_files/3446.got.cif
#   From: 2010.05.17/outbox.cif.g08.bks.cpg/sg19_2_cif.got.tgz:3446.got - 2010.06.03 22:46:19.
