data_PCOD9314722
_publ_section_title
;
Structure prediction by ZEFSAII (Michael W. Deem and Ramdas Pophale) SiO2 
 PCOD9314722
Probable space group: P 21 21 21
;
_chemical_formula_sum "Si O2"
_cell_formula_units_Z 24
_cell_length_a 6.389568
_cell_length_b 13.410381
_cell_length_c 11.924833
_cell_angle_alpha 90.000000
_cell_angle_beta 90.000000
_cell_angle_gamma 90.000000
_cell_volume 1021.797695
_symmetry_space_group_name_H-M "P 21 21 21"
_symmetry_group_IT_number 19
_symmetry_cell_setting 'orthorhombic'
loop_
_space_group_symop_operation_xyz
x,y,z
1/2-x,-y,1/2+z
1/2+x,1/2-y,-z
-x,1/2+y,1/2-z
loop_
_atom_site_type_symbol
_atom_site_label
_atom_site_fract_x
_atom_site_fract_y
_atom_site_fract_z
Si Si1 0.500678 0.044222 0.753810
Si Si2 0.000148 0.388029 0.893092
Si Si3 0.885300 0.655500 0.750766
Si Si4 0.181112 0.593297 0.934201
Si Si5 0.741914 0.804062 0.412066
Si Si6 0.240439 0.643628 0.183292
O O1 0.255695 0.058878 0.745363
O O2 0.618520 0.058041 0.636083
O O3 0.597944 0.128883 0.837401
O O4 0.556762 0.933711 0.792531
O O5 0.023984 0.498148 0.945456
O O6 0.069844 0.393442 0.763046
O O7 0.797267 0.316029 0.903436
O O8 0.185960 0.330891 0.963027
O O9 0.722446 0.744252 0.774174
O O10 0.052759 0.664967 0.851115
O O11 0.019657 0.658296 0.637480
O O12 0.257716 0.638423 0.049996
#
# Coordination Sequence:
#
# PCOD9314722 Si02
#       6
#     4   4   4   4   4   4
#     4  10  22  44  64  92 132 172 221 273 324 397
#     4  10  22  41  68  96 133 175 215 281 331 382
#     4  10  24  42  66  96 128 179 220 263 344 395
#     4  10  22  43  63  90 134 166 217 278 326 400
#     4  10  22  41  66  95 133 166 225 273 322 397
#     4  10  22  41  63  97 130 170 218 272 325 393
#
# _framework density 23.488015999999998
#
# number of rings (size 3 to 8) (size 9 to 14) (size 15 to 20)
#    0.000    2.000    1.667    0.000    7.000    1.333 
#    9.000    1.667    0.000    0.000    0.000    0.000 
#    0.000    0.000    0.000    0.000    0.000    0.000 
#
# Total GULP energy -133778.487498 kJ/mol
# GULP energy per Si atom -5574.103646 kJ/mol
# Density = 2.343456 g / cm^3
# Si number density = 23.488016 Si / 1000 Ang^3
#
#
#
# Elastic Constant Matrix: (Units=GPa)
#
#
# Indices 1 2 3 4 5 6 
#
# 1 58.4952 21.4660 49.2226 0.0000 0.0000 0.0000
# 2 21.4660 61.5221 6.1600 0.0000 0.0000 0.0000
# 3 49.2226 6.1600 108.8556 0.0000 0.0000 0.0000
# 4 0.0000 0.0000 0.0000 26.5288 0.0000 0.0000
# 5 0.0000 0.0000 0.0000 0.0000 19.0895 0.0000
# 6 0.0000 0.0000 0.0000 0.0000 0.0000 36.0898
#
#
#
# Elastic Compliance Matrix: (Units=1/GPa)
#
#
# Indices 1 2 3 4 5 6 
#
# 1 0.032751 -0.010001 -0.014244 0.000000 0.000000 0.000000
# 2 -0.010001 0.019401 0.003425 0.000000 0.000000 0.000000
# 3 -0.014244 0.003425 0.015433 0.000000 0.000000 0.000000
# 4 0.000000 0.000000 0.000000 0.037695 0.000000 0.000000
# 5 0.000000 0.000000 0.000000 0.000000 0.052385 0.000000
# 6 0.000000 0.000000 0.000000 0.000000 0.000000 0.027709
#
#
# Mechanical properties :
#
#
# Convention : Reuss Voigt Hill
#
# Bulk Modulus (GPa) = 38.54303 42.50779 40.52541
# Shear Modulus (GPa) = 21.21671 26.47657 23.84664
#
# Velocity S-wave (km/s) = 3.00875 3.36108 3.18978
# Velocity P-wave (km/s) = 5.33998 5.76189 5.55494
#
# Compressibility (1/GPa) = 0.02594503
#
# Stress axis : x y z
#
# Youngs Moduli (GPa) = 30.53311 51.54367 64.79442
#
# Poissons Ratio (x) = 0.51550 0.92291
# Poissons Ratio (y) = 0.30537 -0.22189
# Poissons Ratio (z) = 0.43490 -0.17651
#
# Static dielectric constant tensor:
#      x y z
#    x 1.846980 0.000000 0.000000 
#    y 0.000000 2.001430 0.000000 
#    z 0.000000 0.000000 1.891320 
# 
# From -- ./inp_files/4441.got.cif
#   From: 2010.05.17/outbox.cif.g08.bks.cpg/sg19_3_cif.got.tgz:4441.got - 2010.06.03 22:46:19.
