data_PCOD9314388
_publ_section_title
;
Structure prediction by ZEFSAII (Michael W. Deem and Ramdas Pophale) SiO2 
 PCOD9314388
Probable space group: P 21 21 21
;
_chemical_formula_sum "Si O2"
_cell_formula_units_Z 20
_cell_length_a 18.931283
_cell_length_b 7.241855
_cell_length_c 5.245415
_cell_angle_alpha 90.000000
_cell_angle_beta 90.000000
_cell_angle_gamma 90.000000
_cell_volume 719.133841
_symmetry_space_group_name_H-M "P 21 21 21"
_symmetry_group_IT_number 19
_symmetry_cell_setting 'orthorhombic'
loop_
_space_group_symop_operation_xyz
x,y,z
1/2-x,-y,1/2+z
1/2+x,1/2-y,-z
-x,1/2+y,1/2-z
loop_
_atom_site_type_symbol
_atom_site_label
_atom_site_fract_x
_atom_site_fract_y
_atom_site_fract_z
Si Si1 0.980659 0.899610 0.054604
Si Si2 0.066250 0.209133 0.927699
Si Si3 0.146674 0.673250 0.442036
Si Si4 0.804071 0.881966 0.376763
Si Si5 0.295708 0.954960 0.952519
O O1 0.055118 0.998798 0.010548
O O2 0.968665 0.745111 0.843714
O O3 0.967515 0.827278 0.338691
O O4 0.923078 0.060344 0.990728
O O5 0.146913 0.277616 0.920836
O O6 0.317302 0.749997 0.869534
O O7 0.165740 0.586682 0.164262
O O8 0.142965 0.891885 0.475536
O O9 0.220707 0.619558 0.580237
O O10 0.251584 0.025365 0.703983
#
# Coordination Sequence:
#
# PCOD9314388 Si02
#       5
#     4   4   4   4   4
#     4  11  25  45  68  97 132 177 220 270 334 393
#     4  11  25  45  68  97 132 177 220 270 334 393
#     4  10  21  40  67  96 130 169 217 273 326 389
#     4  10  21  40  67  96 130 169 217 273 326 389
#     4  10  22  38  60 100 130 166 212 266 334 388
#
# _framework density 27.811233000000001
#
# number of rings (size 3 to 8) (size 9 to 14) (size 15 to 20)
#    0.000    1.600    0.000    3.600    2.800    9.600 
#   14.400    0.000    0.000    0.000    0.000    0.000 
#    0.000    0.000    0.000    0.000    0.000    0.000 
#
# Total GULP energy -112023.432016 kJ/mol
# GULP energy per Si atom -5601.171601 kJ/mol
# Density = 2.774793 g / cm^3
# Si number density = 27.811233 Si / 1000 Ang^3
#
#
#
# Elastic Constant Matrix: (Units=GPa)
#
#
# Indices 1 2 3 4 5 6 
#
# 1 76.5580 20.9493 24.2229 0.0000 0.0000 0.0000
# 2 20.9493 91.8934 5.3946 0.0000 0.0000 0.0000
# 3 24.2229 5.3946 104.5012 0.0000 0.0000 0.0000
# 4 0.0000 0.0000 0.0000 36.4815 0.0000 0.0000
# 5 0.0000 0.0000 0.0000 0.0000 48.5669 0.0000
# 6 0.0000 0.0000 0.0000 0.0000 0.0000 62.1459
#
#
#
# Elastic Compliance Matrix: (Units=1/GPa)
#
#
# Indices 1 2 3 4 5 6 
#
# 1 0.014991 -0.003223 -0.003308 0.000000 0.000000 0.000000
# 2 -0.003223 0.011608 0.000148 0.000000 0.000000 0.000000
# 3 -0.003308 0.000148 0.010329 0.000000 0.000000 0.000000
# 4 0.000000 0.000000 0.000000 0.027411 0.000000 0.000000
# 5 0.000000 0.000000 0.000000 0.000000 0.020590 0.000000
# 6 0.000000 0.000000 0.000000 0.000000 0.000000 0.016091
#
#
# Mechanical properties :
#
#
# Convention : Reuss Voigt Hill
#
# Bulk Modulus (GPa) = 41.39071 41.56515 41.47793
# Shear Modulus (GPa) = 41.03707 44.26456 42.65082
#
# Velocity S-wave (km/s) = 3.84547 3.99382 3.92035
# Velocity P-wave (km/s) = 5.88488 6.02042 5.95303
#
# Compressibility (1/GPa) = 0.02416001
#
# Stress axis : x y z
#
# Youngs Moduli (GPa) = 66.70762 86.14509 96.81945
#
# Poissons Ratio (x) = 0.27767 0.32032
# Poissons Ratio (y) = 0.21502 -0.01432
# Poissons Ratio (z) = 0.22070 -0.01274
#
# Static dielectric constant tensor:
#      x y z
#    x 2.218060 0.000000 0.000000 
#    y 0.000000 2.150280 0.000000 
#    z 0.000000 0.000000 2.167770 
# 
# From -- ./inp_files/1684.got.cif
#   From: 2010.05.17/outbox.cif.g08.bks.cpg/sg19_1_cif.got.tgz:1684.got - 2010.06.03 22:46:19.
