data_PCOD9314739
_publ_section_title
;
Structure prediction by ZEFSAII (Michael W. Deem and Ramdas Pophale) SiO2 
 PCOD9314739
Probable space group: P 21 21 21
;
_chemical_formula_sum "Si O2"
_cell_formula_units_Z 28
_cell_length_a 9.484467
_cell_length_b 5.145535
_cell_length_c 20.109799
_cell_angle_alpha 90.000000
_cell_angle_beta 90.000000
_cell_angle_gamma 90.000000
_cell_volume 981.411621
_symmetry_space_group_name_H-M "P 21 21 21"
_symmetry_group_IT_number 19
_symmetry_cell_setting 'orthorhombic'
loop_
_space_group_symop_operation_xyz
x,y,z
1/2-x,-y,1/2+z
1/2+x,1/2-y,-z
-x,1/2+y,1/2-z
loop_
_atom_site_type_symbol
_atom_site_label
_atom_site_fract_x
_atom_site_fract_y
_atom_site_fract_z
Si Si1 0.322421 0.771783 0.486340
Si Si2 0.006992 0.831217 0.052414
Si Si3 0.784963 0.596113 0.131052
Si Si4 0.017968 0.359182 0.209446
Si Si5 0.732853 0.102474 0.373068
Si Si6 0.518327 0.484737 0.209156
Si Si7 0.078407 0.970041 0.565326
O O1 0.181058 0.752935 0.531011
O O2 0.412286 0.593814 0.436048
O O3 0.433967 0.885933 0.538728
O O4 0.286448 0.005000 0.436451
O O5 0.145027 0.654157 0.069989
O O6 0.892690 0.821744 0.110745
O O7 0.932196 0.709274 0.988251
O O8 0.662423 0.617236 0.184091
O O9 0.894195 0.378122 0.155685
O O10 0.162233 0.484383 0.182411
O O11 0.034804 0.069666 0.235939
O O12 0.588004 0.948206 0.353578
O O13 0.662056 0.393258 0.374657
O O14 0.544226 0.202928 0.241213
#
# Coordination Sequence:
#
# PCOD9314739 Si02
#       7
#     4   4   4   4   4   4   4
#     4  10  22  41  66 103 138 179 227 283 348 425
#     4   9  21  46  64  98 138 178 233 275 344 430
#     4  10  23  44  69  99 137 186 227 291 353 412
#     4  11  24  50  73 102 137 184 244 291 340 416
#     4  10  23  44  69  99 137 186 227 291 353 412
#     4  12  27  46  67 104 139 178 235 298 350 404
#     4  10  22  41  66 103 138 179 227 283 348 425
#
# _framework density 28.530332999999999
#
# number of rings (size 3 to 8) (size 9 to 14) (size 15 to 20)
#    0.000    1.714    0.000    2.571    2.000    5.714 
#   33.429    0.000    0.000    0.000    0.000    0.000 
#    0.000    0.000    0.000    0.000    0.000    0.000 
#
# Total GULP energy -156408.615605 kJ/mol
# GULP energy per Si atom -5586.021986 kJ/mol
# Density = 2.846540 g / cm^3
# Si number density = 28.530333 Si / 1000 Ang^3
#
#
#
# Elastic Constant Matrix: (Units=GPa)
#
#
# Indices 1 2 3 4 5 6 
#
# 1 161.8691 -10.0003 15.2330 0.0000 0.0000 0.0000
# 2 -10.0003 -3.1055 -32.2357 0.0000 0.0000 0.0000
# 3 15.2330 -32.2357 45.4427 0.0000 0.0000 0.0000
# 4 0.0000 0.0000 0.0000 4.0754 0.0000 0.0000
# 5 0.0000 0.0000 0.0000 0.0000 62.4672 0.0000
# 6 0.0000 0.0000 0.0000 0.0000 0.0000 46.4779
#
#
#
# Elastic Compliance Matrix: (Units=1/GPa)
#
#
# Indices 1 2 3 4 5 6 
#
# 1 0.006378 0.000198 -0.001998 0.000000 0.000000 0.000000
# 2 0.000198 -0.038496 -0.027374 0.000000 0.000000 0.000000
# 3 -0.001998 -0.027374 0.003257 0.000000 0.000000 0.000000
# 4 0.000000 0.000000 0.000000 0.245373 0.000000 0.000000
# 5 0.000000 0.000000 0.000000 0.000000 0.016008 0.000000
# 6 0.000000 0.000000 0.000000 0.000000 0.000000 0.021516
#
#
# Mechanical properties :
#
#
# Convention : Reuss Voigt Hill
#
# Bulk Modulus (GPa) = -11.46668 16.68891 2.61112
# Shear Modulus (GPa) = 17.64822 38.01805 27.83313
#
# Velocity S-wave (km/s) = 2.48982 3.65437 3.12679
# Velocity P-wave (km/s) = 2.05858 4.86499 3.73536
#
# Compressibility (1/GPa) = -0.08720919
#
# Stress axis : x y z
#
# Youngs Moduli (GPa) = 156.78770 -25.97676 307.04144
#
# Poissons Ratio (x) = 0.00514 0.61337
# Poissons Ratio (y) = -0.03102 8.40503
# Poissons Ratio (z) = 0.31321 -0.71109
#
# Static dielectric constant tensor:
#      x y z
#    x 2.204340 0.000000 0.000000 
#    y 0.000000 2.337200 0.000000 
#    z 0.000000 0.000000 2.629170 
# 
# From -- ./inp_files/7259.got.cif
#   From: 2010.05.17/outbox.cif.g08.bks.cpg/sg19_4_cif.got.tgz:7259.got - 2010.06.03 22:46:19.
