data_PCOD9314586
_publ_section_title
;
Structure prediction by ZEFSAII (Michael W. Deem and Ramdas Pophale) SiO2 
 PCOD9314586
Probable space group: P 21 21 21
;
_chemical_formula_sum "Si O2"
_cell_formula_units_Z 28
_cell_length_a 7.815699
_cell_length_b 16.736618
_cell_length_c 8.338081
_cell_angle_alpha 90.000000
_cell_angle_beta 90.000000
_cell_angle_gamma 90.000000
_cell_volume 1090.690773
_symmetry_space_group_name_H-M "P 21 21 21"
_symmetry_group_IT_number 19
_symmetry_cell_setting 'orthorhombic'
loop_
_space_group_symop_operation_xyz
x,y,z
1/2-x,-y,1/2+z
1/2+x,1/2-y,-z
-x,1/2+y,1/2-z
loop_
_atom_site_type_symbol
_atom_site_label
_atom_site_fract_x
_atom_site_fract_y
_atom_site_fract_z
Si Si1 0.656124 0.668166 0.675060
Si Si2 0.695114 0.628428 0.353058
Si Si3 0.169330 0.545796 0.310807
Si Si4 0.416478 0.639640 0.120759
Si Si5 0.832815 0.465448 0.396141
Si Si6 0.227591 0.388756 0.154971
Si Si7 0.117747 0.244179 0.336387
O O1 0.752824 0.678271 0.509974
O O2 0.745827 0.607990 0.797231
O O3 0.478238 0.621122 0.634610
O O4 0.570784 0.743949 0.758606
O O5 0.509003 0.652689 0.289628
O O6 0.698724 0.536847 0.414701
O O7 0.811984 0.658014 0.204495
O O8 0.239618 0.598127 0.164915
O O9 0.264905 0.460631 0.279586
O O10 0.195421 0.587958 0.483425
O O11 0.974344 0.518875 0.304269
O O12 0.545820 0.577015 0.029707
O O13 0.398935 0.717639 0.011604
O O14 0.253207 0.304606 0.246183
#
# Coordination Sequence:
#
# PCOD9314586 Si02
#       7
#     4   4   4   4   4   4   4
#     4   8  19  40  54  80 122 150 195 244 291 353
#     4  12  22  38  64  86 119 159 196 252 318 344
#     4  11  17  35  65  89 113 163 197 245 288 356
#     4  11  21  39  62  86 124 157 198 253 297 354
#     4  10  22  36  60  92 118 154 204 250 291 362
#     4   9  17  35  59  86 114 154 203 238 285 357
#     4   9  22  39  54  85 122 157 195 248 294 368
#
# _framework density 25.671804999999999
#
# number of rings (size 3 to 8) (size 9 to 14) (size 15 to 20)
#    0.857    1.143    4.286    0.857    0.000    2.286 
#    0.000    4.286    0.000    0.000    0.000    0.000 
#    0.000    0.000    0.000    0.000    0.000    0.000 
#
# Total GULP energy -155931.987995 kJ/mol
# GULP energy per Si atom -5568.999571 kJ/mol
# Density = 2.561337 g / cm^3
# Si number density = 25.671805 Si / 1000 Ang^3
#
#
#
# Elastic Constant Matrix: (Units=GPa)
#
#
# Indices 1 2 3 4 5 6 
#
# 1 21.7345 22.2333 8.2900 0.0000 0.0000 0.0000
# 2 22.2333 93.2871 24.2893 0.0000 0.0000 0.0000
# 3 8.2900 24.2893 100.9584 0.0000 0.0000 0.0000
# 4 0.0000 0.0000 0.0000 30.8723 0.0000 0.0000
# 5 0.0000 0.0000 0.0000 0.0000 16.3423 0.0000
# 6 0.0000 0.0000 0.0000 0.0000 0.0000 19.5151
#
#
#
# Elastic Compliance Matrix: (Units=1/GPa)
#
#
# Indices 1 2 3 4 5 6 
#
# 1 0.061089 -0.014139 -0.001615 0.000000 0.000000 0.000000
# 2 -0.014139 0.014708 -0.002378 0.000000 0.000000 0.000000
# 3 -0.001615 -0.002378 0.010610 0.000000 0.000000 0.000000
# 4 0.000000 0.000000 0.000000 0.032391 0.000000 0.000000
# 5 0.000000 0.000000 0.000000 0.000000 0.061191 0.000000
# 6 0.000000 0.000000 0.000000 0.000000 0.000000 0.051242
#
#
# Mechanical properties :
#
#
# Convention : Reuss Voigt Hill
#
# Bulk Modulus (GPa) = 19.94226 36.17835 28.06031
# Shear Modulus (GPa) = 17.59265 24.09044 20.84154
#
# Velocity S-wave (km/s) = 2.62065 3.06666 2.85238
# Velocity P-wave (km/s) = 4.11607 5.16357 4.66929
#
# Compressibility (1/GPa) = 0.05014477
#
# Stress axis : x y z
#
# Youngs Moduli (GPa) = 16.36948 67.98796 94.25349
#
# Poissons Ratio (x) = 0.96129 0.15218
# Poissons Ratio (y) = 0.23145 0.22410
# Poissons Ratio (z) = 0.02643 0.16165
#
# Static dielectric constant tensor:
#      x y z
#    x 2.098010 0.000000 0.000000 
#    y 0.000000 2.105840 0.000000 
#    z 0.000000 0.000000 2.085640 
# 
# From -- ./inp_files/2934.got.cif
#   From: 2010.05.17/outbox.cif.g08.bks.cpg/sg19_2_cif.got.tgz:2934.got - 2010.06.03 22:46:19.
