data_PCOD9314578
_publ_section_title
;
Structure prediction by ZEFSAII (Michael W. Deem and Ramdas Pophale) SiO2 
 PCOD9314578
Probable space group: P 21 21 21
;
_chemical_formula_sum "Si O2"
_cell_formula_units_Z 24
_cell_length_a 11.707410
_cell_length_b 7.464371
_cell_length_c 10.320098
_cell_angle_alpha 90.000000
_cell_angle_beta 90.000000
_cell_angle_gamma 90.000000
_cell_volume 901.857385
_symmetry_space_group_name_H-M "P 21 21 21"
_symmetry_group_IT_number 19
_symmetry_cell_setting 'orthorhombic'
loop_
_space_group_symop_operation_xyz
x,y,z
1/2-x,-y,1/2+z
1/2+x,1/2-y,-z
-x,1/2+y,1/2-z
loop_
_atom_site_type_symbol
_atom_site_label
_atom_site_fract_x
_atom_site_fract_y
_atom_site_fract_z
Si Si1 0.398649 0.840329 0.119798
Si Si2 0.804621 0.236580 0.190236
Si Si3 0.360874 0.892373 0.517857
Si Si4 0.066495 0.742262 0.655382
Si Si5 0.555801 0.764794 0.906818
Si Si6 0.807142 0.908341 0.316419
O O1 0.287448 0.769913 0.193996
O O2 0.504551 0.773638 0.206808
O O3 0.433556 0.788720 0.973979
O O4 0.397684 0.053863 0.134710
O O5 0.747192 0.332189 0.069985
O O6 0.924665 0.292905 0.255405
O O7 0.814773 0.020373 0.182559
O O8 0.473173 0.814166 0.449564
O O9 0.347239 0.793372 0.655575
O O10 0.378895 0.103117 0.522016
O O11 0.173188 0.609799 0.652947
O O12 0.620268 0.957603 0.909812
#
# Coordination Sequence:
#
# PCOD9314578 Si02
#       6
#     4   4   4   4   4   4
#     4  11  19  36  61  89 119 153 197 251 292 339
#     4   9  21  37  57  90 115 150 202 240 284 355
#     4  11  20  40  59  86 123 154 195 245 297 340
#     4  11  20  34  61  90 117 152 202 246 292 347
#     4  10  22  35  57  89 123 151 189 249 292 351
#     4  10  22  36  55  92 119 150 195 243 295 350
#
# _framework density 26.611744999999999
#
# number of rings (size 3 to 8) (size 9 to 14) (size 15 to 20)
#    1.000    0.667    1.667    6.000    0.000    0.000 
#    0.000    0.000    0.000   14.000    0.000    0.000 
#    0.000    0.000    0.000    0.000    0.000    0.000 
#
# Total GULP energy -134077.044575 kJ/mol
# GULP energy per Si atom -5586.543524 kJ/mol
# Density = 2.655118 g / cm^3
# Si number density = 26.611745 Si / 1000 Ang^3
#
#
#
# Elastic Constant Matrix: (Units=GPa)
#
#
# Indices 1 2 3 4 5 6 
#
# 1 74.0432 19.5806 49.9429 0.0000 0.0000 0.0000
# 2 19.5806 145.7220 25.8008 0.0000 0.0000 0.0000
# 3 49.9429 25.8008 66.2713 0.0000 0.0000 0.0000
# 4 0.0000 0.0000 0.0000 17.6433 0.0000 0.0000
# 5 0.0000 0.0000 0.0000 0.0000 57.5088 0.0000
# 6 0.0000 0.0000 0.0000 0.0000 0.0000 36.8491
#
#
#
# Elastic Compliance Matrix: (Units=1/GPa)
#
#
# Indices 1 2 3 4 5 6 
#
# 1 0.027468 -0.000028 -0.020690 0.000000 0.000000 0.000000
# 2 -0.000028 0.007370 -0.002849 0.000000 0.000000 0.000000
# 3 -0.020690 -0.002849 0.031791 0.000000 0.000000 0.000000
# 4 0.000000 0.000000 0.000000 0.056679 0.000000 0.000000
# 5 0.000000 0.000000 0.000000 0.000000 0.017389 0.000000
# 6 0.000000 0.000000 0.000000 0.000000 0.000000 0.027138
#
#
# Mechanical properties :
#
#
# Convention : Reuss Voigt Hill
#
# Bulk Modulus (GPa) = 51.28908 52.96501 52.12704
# Shear Modulus (GPa) = 22.57681 35.11437 28.84559
#
# Velocity S-wave (km/s) = 2.91585 3.63644 3.29590
# Velocity P-wave (km/s) = 5.53635 6.13006 5.84076
#
# Compressibility (1/GPa) = 0.01949733
#
# Stress axis : x y z
#
# Youngs Moduli (GPa) = 36.40539 135.67668 31.45579
#
# Poissons Ratio (x) = 0.00376 0.65081
# Poissons Ratio (y) = 0.00101 0.08961
# Poissons Ratio (z) = 0.75322 0.38649
#
# Static dielectric constant tensor:
#      x y z
#    x 2.091230 0.000000 0.000000 
#    y 0.000000 2.023450 0.000000 
#    z 0.000000 0.000000 2.148200 
# 
# From -- ./inp_files/6058.got.cif
#   From: 2010.05.17/outbox.cif.g08.bks.cpg/sg19_4_cif.got.tgz:6058.got - 2010.06.03 22:46:19.
