data_PCOD9314877
_publ_section_title
;
Structure prediction by ZEFSAII (Michael W. Deem and Ramdas Pophale) SiO2 
 PCOD9314877
Probable space group: P 21 21 21
;
_chemical_formula_sum "Si O2"
_cell_formula_units_Z 20
_cell_length_a 7.410899
_cell_length_b 9.088297
_cell_length_c 11.902777
_cell_angle_alpha 90.000000
_cell_angle_beta 90.000000
_cell_angle_gamma 90.000000
_cell_volume 801.681206
_symmetry_space_group_name_H-M "P 21 21 21"
_symmetry_group_IT_number 19
_symmetry_cell_setting 'orthorhombic'
loop_
_space_group_symop_operation_xyz
x,y,z
1/2-x,-y,1/2+z
1/2+x,1/2-y,-z
-x,1/2+y,1/2-z
loop_
_atom_site_type_symbol
_atom_site_label
_atom_site_fract_x
_atom_site_fract_y
_atom_site_fract_z
Si Si1 0.929028 0.467710 0.182892
Si Si2 0.690749 0.098825 0.618759
Si Si3 0.728943 0.620501 0.366980
Si Si4 0.327440 0.721155 0.417504
Si Si5 0.054903 0.147510 0.533134
O O1 0.821857 0.595965 0.248692
O O2 0.782883 0.345238 0.149168
O O3 0.008007 0.545341 0.072028
O O4 0.161372 0.217763 0.044267
O O5 0.578735 0.094380 0.733211
O O6 0.605978 0.197693 0.520138
O O7 0.896454 0.156726 0.623504
O O8 0.713417 0.928232 0.586455
O O9 0.525535 0.683697 0.369845
O O10 0.713696 0.452016 0.415074
#
# Coordination Sequence:
#
# PCOD9314877 Si02
#       5
#     4   4   4   4   4
#     4  11  23  44  69  96 133 178 224 273 333 398
#     4  11  22  42  67  95 133 170 219 273 328 395
#     4  10  22  43  67  96 135 175 222 278 331 396
#     4  10  23  42  68  98 132 180 225 272 335 398
#     4  10  24  41  65  97 129 171 220 276 333 391
#
# _framework density 24.947573999999999
#
# number of rings (size 3 to 8) (size 9 to 14) (size 15 to 20)
#    0.000    1.600    0.000    3.600    0.000    8.000 
#    0.000   18.000    0.000    0.000    0.000    0.000 
#    0.000    0.000    0.000    0.000    0.000    0.000 
#
# Total GULP energy -112060.780851 kJ/mol
# GULP energy per Si atom -5603.039043 kJ/mol
# Density = 2.489079 g / cm^3
# Si number density = 24.947574 Si / 1000 Ang^3
#
#
#
# Elastic Constant Matrix: (Units=GPa)
#
#
# Indices 1 2 3 4 5 6 
#
# 1 72.7216 42.3420 32.7929 0.0000 0.0000 0.0000
# 2 42.3420 124.5416 41.6441 0.0000 0.0000 0.0000
# 3 32.7929 41.6441 106.9181 0.0000 0.0000 0.0000
# 4 0.0000 0.0000 0.0000 39.0029 0.0000 0.0000
# 5 0.0000 0.0000 0.0000 0.0000 42.7186 0.0000
# 6 0.0000 0.0000 0.0000 0.0000 0.0000 45.0974
#
#
#
# Elastic Compliance Matrix: (Units=1/GPa)
#
#
# Indices 1 2 3 4 5 6 
#
# 1 0.018318 -0.005000 -0.003671 0.000000 0.000000 0.000000
# 2 -0.005000 0.010597 -0.002594 0.000000 0.000000 0.000000
# 3 -0.003671 -0.002594 0.011489 0.000000 0.000000 0.000000
# 4 0.000000 0.000000 0.000000 0.025639 0.000000 0.000000
# 5 0.000000 0.000000 0.000000 0.000000 0.023409 0.000000
# 6 0.000000 0.000000 0.000000 0.000000 0.000000 0.022174
#
#
# Mechanical properties :
#
#
# Convention : Reuss Voigt Hill
#
# Bulk Modulus (GPa) = 55.94682 59.74880 57.84781
# Shear Modulus (GPa) = 35.68542 37.85729 36.77136
#
# Velocity S-wave (km/s) = 3.78619 3.89970 3.84336
# Velocity P-wave (km/s) = 6.44888 6.65422 6.55235
#
# Compressibility (1/GPa) = 0.01787412
#
# Stress axis : x y z
#
# Youngs Moduli (GPa) = 54.59195 94.36838 87.03959
#
# Poissons Ratio (x) = 0.47187 0.31949
# Poissons Ratio (y) = 0.27298 0.22576
# Poissons Ratio (z) = 0.20039 0.24477
#
# Static dielectric constant tensor:
#      x y z
#    x 1.975420 0.000000 0.000000 
#    y 0.000000 1.981220 0.000000 
#    z 0.000000 0.000000 1.928850 
# 
# From -- ./inp_files/2589.got.cif
#   From: 2010.05.17/outbox.cif.g08.bks.cpg/sg19_2_cif.got.tgz:2589.got - 2010.06.03 22:46:19.
