data_PCOD9314303
_publ_section_title
;
Structure prediction by ZEFSAII (Michael W. Deem and Ramdas Pophale) SiO2 
 PCOD9314303
Probable space group: P 21 21 21
;
_chemical_formula_sum "Si O2"
_cell_formula_units_Z 32
_cell_length_a 12.589883
_cell_length_b 8.044175
_cell_length_c 13.614191
_cell_angle_alpha 90.000000
_cell_angle_beta 90.000000
_cell_angle_gamma 90.000000
_cell_volume 1378.780217
_symmetry_space_group_name_H-M "P 21 21 21"
_symmetry_group_IT_number 19
_symmetry_cell_setting 'orthorhombic'
loop_
_space_group_symop_operation_xyz
x,y,z
1/2-x,-y,1/2+z
1/2+x,1/2-y,-z
-x,1/2+y,1/2-z
loop_
_atom_site_type_symbol
_atom_site_label
_atom_site_fract_x
_atom_site_fract_y
_atom_site_fract_z
Si Si1 0.453609 0.452795 0.924654
Si Si2 0.471079 0.459934 0.295059
Si Si3 0.096215 0.546584 0.138076
Si Si4 0.754016 0.136645 0.208199
Si Si5 0.590468 0.318871 0.764879
Si Si6 0.762432 0.506356 0.121400
Si Si7 0.033559 0.891731 0.898185
Si Si8 0.455189 0.088446 0.017180
O O1 0.346959 0.443922 0.860049
O O2 0.553703 0.444398 0.850866
O O3 0.460194 0.279779 0.984790
O O4 0.462676 0.595499 0.004865
O O5 0.354564 0.539010 0.303158
O O6 0.477105 0.277275 0.338995
O O7 0.503966 0.470122 0.182497
O O8 0.547623 0.564417 0.367172
O O9 0.205253 0.622842 0.178739
O O10 0.091958 0.362690 0.187933
O O11 0.005357 0.660687 0.187118
O O12 0.059554 0.507270 0.027403
O O13 0.745464 0.325730 0.171306
O O14 0.694843 0.372859 0.707343
O O15 0.655323 0.574413 0.074792
O O16 0.854226 0.483958 0.040600
#
# Coordination Sequence:
#
# PCOD9314303 Si02
#       8
#     4   4   4   4   4   4   4   4
#     4   9  20  39  62  88 119 155 195 242 293 347
#     4  12  26  42  61  85 118 157 198 245 294 351
#     4   9  17  32  57  88 120 152 190 238 288 341
#     4  10  21  39  63  89 120 156 195 243 297 351
#     4   9  17  32  57  88 120 152 190 238 288 341
#     4  10  21  39  63  89 120 156 195 243 297 351
#     4  12  26  42  61  85 118 157 198 245 294 351
#     4   9  20  39  62  88 119 155 195 242 293 347
#
# _framework density 23.208921
#
# number of rings (size 3 to 8) (size 9 to 14) (size 15 to 20)
#    0.000    2.000    0.000    5.250    0.000    8.000 
#    0.000    2.500    0.000    0.000    0.000    0.000 
#    0.000    0.000    0.000    0.000    0.000    0.000 
#
# Total GULP energy -178937.949495 kJ/mol
# GULP energy per Si atom -5591.810922 kJ/mol
# Density = 2.315610 g / cm^3
# Si number density = 23.208921 Si / 1000 Ang^3
#
#
#
# Elastic Constant Matrix: (Units=GPa)
#
#
# Indices 1 2 3 4 5 6 
#
# 1 59.6600 5.2026 9.3347 0.0000 0.0000 0.0000
# 2 5.2026 57.0489 4.1616 0.0000 0.0000 0.0000
# 3 9.3347 4.1616 85.8469 0.0000 0.0000 0.0000
# 4 0.0000 0.0000 0.0000 34.8567 0.0000 0.0000
# 5 0.0000 0.0000 0.0000 0.0000 17.7132 0.0000
# 6 0.0000 0.0000 0.0000 0.0000 0.0000 24.6678
#
#
#
# Elastic Compliance Matrix: (Units=1/GPa)
#
#
# Indices 1 2 3 4 5 6 
#
# 1 0.017168 -0.001435 -0.001797 0.000000 0.000000 0.000000
# 2 -0.001435 0.017711 -0.000703 0.000000 0.000000 0.000000
# 3 -0.001797 -0.000703 0.011878 0.000000 0.000000 0.000000
# 4 0.000000 0.000000 0.000000 0.028689 0.000000 0.000000
# 5 0.000000 0.000000 0.000000 0.000000 0.056455 0.000000
# 6 0.000000 0.000000 0.000000 0.000000 0.000000 0.040539
#
#
# Mechanical properties :
#
#
# Convention : Reuss Voigt Hill
#
# Bulk Modulus (GPa) = 25.71468 26.66149 26.18808
# Shear Modulus (GPa) = 25.87041 27.70468 26.78755
#
# Velocity S-wave (km/s) = 3.34230 3.45876 3.40103
# Velocity P-wave (km/s) = 5.09885 5.24053 5.17018
#
# Compressibility (1/GPa) = 0.03888829
#
# Stress axis : x y z
#
# Youngs Moduli (GPa) = 58.24808 56.46243 84.18839
#
# Poissons Ratio (x) = 0.08100 0.15131
# Poissons Ratio (y) = 0.08356 0.05915
# Poissons Ratio (z) = 0.10469 0.03967
#
# Static dielectric constant tensor:
#      x y z
#    x 1.866070 0.000000 0.000000 
#    y 0.000000 1.900340 0.000000 
#    z 0.000000 0.000000 1.872830 
# 
# From -- ./inp_files/6098.got.cif
#   From: 2010.05.17/outbox.cif.g08.bks.cpg/sg19_4_cif.got.tgz:6098.got - 2010.06.03 22:46:19.
