data_PCOD9314664
_publ_section_title
;
Structure prediction by ZEFSAII (Michael W. Deem and Ramdas Pophale) SiO2 
 PCOD9314664
Probable space group: P 21 21 21
;
_chemical_formula_sum "Si O2"
_cell_formula_units_Z 16
_cell_length_a 5.098154
_cell_length_b 4.953610
_cell_length_c 21.464148
_cell_angle_alpha 90.000000
_cell_angle_beta 90.000000
_cell_angle_gamma 90.000000
_cell_volume 542.061317
_symmetry_space_group_name_H-M "P 21 21 21"
_symmetry_group_IT_number 19
_symmetry_cell_setting 'orthorhombic'
loop_
_space_group_symop_operation_xyz
x,y,z
1/2-x,-y,1/2+z
1/2+x,1/2-y,-z
-x,1/2+y,1/2-z
loop_
_atom_site_type_symbol
_atom_site_label
_atom_site_fract_x
_atom_site_fract_y
_atom_site_fract_z
Si Si1 0.337357 0.853162 0.763648
Si Si2 0.135073 0.394016 0.390183
Si Si3 0.737558 0.934718 0.486042
Si Si4 0.626410 0.751869 0.362339
O O1 0.411756 0.157167 0.747631
O O2 0.289003 0.819791 0.836955
O O3 0.145763 0.720169 0.712254
O O4 0.176805 0.332364 0.463283
O O5 0.349634 0.626171 0.378391
O O6 0.856029 0.533406 0.377507
O O7 0.511919 0.714093 0.502061
O O8 0.700805 0.985898 0.412081
#
# Coordination Sequence:
#
# PCOD9314664 Si02
#       4
#     4   4   4   4
#     4  10  22  40  62  88 120 156 196 242 292 348
#     4   9  18  33  56  84 115 151 192 238 288 343
#     4   8  14  28  52  80 110 146 188 234 284 338
#     4   9  18  33  56  84 115 151 192 238 288 343
#
# _framework density 29.516953999999998
#
# number of rings (size 3 to 8) (size 9 to 14) (size 15 to 20)
#    0.000    3.000    0.000    0.000    0.000    8.000 
#    0.000    0.000    0.000   42.000    0.000    0.000 
#    0.000    0.000    0.000    0.000    0.000    0.000 
#
# Total GULP energy -89660.748216 kJ/mol
# GULP energy per Si atom -5603.796763 kJ/mol
# Density = 2.944977 g / cm^3
# Si number density = 29.516954 Si / 1000 Ang^3
#
#
#
# Elastic Constant Matrix: (Units=GPa)
#
#
# Indices 1 2 3 4 5 6 
#
# 1 115.0569 48.4203 47.4852 0.0000 0.0000 0.0000
# 2 48.4203 96.3068 48.9770 0.0000 0.0000 0.0000
# 3 47.4852 48.9770 199.3300 0.0000 0.0000 0.0000
# 4 0.0000 0.0000 0.0000 41.9498 0.0000 0.0000
# 5 0.0000 0.0000 0.0000 0.0000 56.3954 0.0000
# 6 0.0000 0.0000 0.0000 0.0000 0.0000 8.1908
#
#
#
# Elastic Compliance Matrix: (Units=1/GPa)
#
#
# Indices 1 2 3 4 5 6 
#
# 1 0.011400 -0.004972 -0.001494 0.000000 0.000000 0.000000
# 2 -0.004972 0.014035 -0.002264 0.000000 0.000000 0.000000
# 3 -0.001494 -0.002264 0.005929 0.000000 0.000000 0.000000
# 4 0.000000 0.000000 0.000000 0.023838 0.000000 0.000000
# 5 0.000000 0.000000 0.000000 0.000000 0.017732 0.000000
# 6 0.000000 0.000000 0.000000 0.000000 0.000000 0.122088
#
#
# Mechanical properties :
#
#
# Convention : Reuss Voigt Hill
#
# Bulk Modulus (GPa) = 71.92272 77.82872 74.87572
# Shear Modulus (GPa) = 23.02908 39.02796 31.02852
#
# Velocity S-wave (km/s) = 2.79623 3.64018 3.24575
# Velocity P-wave (km/s) = 5.90294 6.64023 6.28241
#
# Compressibility (1/GPa) = 0.01390381
#
# Stress axis : x y z
#
# Youngs Moduli (GPa) = 87.71624 71.25264 168.66143
#
# Poissons Ratio (x) = 0.35426 0.25202
# Poissons Ratio (y) = 0.43612 0.38185
# Poissons Ratio (z) = 0.13107 0.16131
#
# Static dielectric constant tensor:
#      x y z
#    x 2.260450 0.000000 0.000000 
#    y 0.000000 2.169730 0.000000 
#    z 0.000000 0.000000 2.526990 
# 
# From -- ./inp_files/108.got.cif
#   From: 2010.05.17/outbox.cif.g08.bks.cpg/sg19_1_cif.got.tgz:108.got - 2010.06.03 22:46:19.
