data_PCOD9314291
_publ_section_title
;
Structure prediction by ZEFSAII (Michael W. Deem and Ramdas Pophale) SiO2 
 PCOD9314291
Probable space group: P 21 21 21
;
_chemical_formula_sum "Si O2"
_cell_formula_units_Z 16
_cell_length_a 8.481311
_cell_length_b 7.180445
_cell_length_c 11.400632
_cell_angle_alpha 90.000000
_cell_angle_beta 90.000000
_cell_angle_gamma 90.000000
_cell_volume 694.293782
_symmetry_space_group_name_H-M "P 21 21 21"
_symmetry_group_IT_number 19
_symmetry_cell_setting 'orthorhombic'
loop_
_space_group_symop_operation_xyz
x,y,z
1/2-x,-y,1/2+z
1/2+x,1/2-y,-z
-x,1/2+y,1/2-z
loop_
_atom_site_type_symbol
_atom_site_label
_atom_site_fract_x
_atom_site_fract_y
_atom_site_fract_z
Si Si1 0.188170 0.759486 0.847493
Si Si2 0.641764 0.357314 0.237082
Si Si3 0.839169 0.638241 0.371839
Si Si4 0.301738 0.409726 0.936559
O O1 0.151278 0.978325 0.861979
O O2 0.334372 0.761586 0.756043
O O3 0.235120 0.618656 0.949158
O O4 0.032505 0.685978 0.780979
O O5 0.739196 0.452355 0.342900
O O6 0.719140 0.177885 0.179110
O O7 0.748315 0.777698 0.457483
O O8 0.013310 0.599788 0.414997
#
# Coordination Sequence:
#
# PCOD9314291 Si02
#       4
#     4   4   4   4
#     4  10  21  39  62  89 119 158 196 246 301 350
#     4  10  21  39  62  89 119 158 196 246 301 350
#     4  10  24  38  63  90 117 164 196 254 290 358
#     4  12  20  44  59  86 129 150 206 246 298 356
#
# _framework density 23.045000000000002
#
# number of rings (size 3 to 8) (size 9 to 14) (size 15 to 20)
#    1.500    0.000    2.500    4.500    0.000    0.000 
#    4.500    0.000    0.000    0.000    0.000    0.000 
#    0.000    0.000    0.000    0.000    0.000    0.000 
#
# Total GULP energy -89320.806896 kJ/mol
# GULP energy per Si atom -5582.550431 kJ/mol
# Density = 2.299255 g / cm^3
# Si number density = 23.045000 Si / 1000 Ang^3
#
#
#
# Elastic Constant Matrix: (Units=GPa)
#
#
# Indices 1 2 3 4 5 6 
#
# 1 92.0926 31.0912 8.5895 0.0000 0.0000 0.0000
# 2 31.0912 102.0930 9.8159 0.0000 0.0000 0.0000
# 3 8.5895 9.8159 31.7291 0.0000 0.0000 0.0000
# 4 0.0000 0.0000 0.0000 40.4229 0.0000 0.0000
# 5 0.0000 0.0000 0.0000 0.0000 26.8544 0.0000
# 6 0.0000 0.0000 0.0000 0.0000 0.0000 29.1328
#
#
#
# Elastic Compliance Matrix: (Units=1/GPa)
#
#
# Indices 1 2 3 4 5 6 
#
# 1 0.012254 -0.003518 -0.002229 0.000000 0.000000 0.000000
# 2 -0.003518 0.011105 -0.002483 0.000000 0.000000 0.000000
# 3 -0.002229 -0.002483 0.032889 0.000000 0.000000 0.000000
# 4 0.000000 0.000000 0.000000 0.024738 0.000000 0.000000
# 5 0.000000 0.000000 0.000000 0.000000 0.037238 0.000000
# 6 0.000000 0.000000 0.000000 0.000000 0.000000 0.034326
#
#
# Mechanical properties :
#
#
# Convention : Reuss Voigt Hill
#
# Bulk Modulus (GPa) = 25.13337 36.10086 30.61711
# Shear Modulus (GPa) = 27.43155 31.04322 29.23738
#
# Velocity S-wave (km/s) = 3.45388 3.67423 3.56576
# Velocity P-wave (km/s) = 5.18031 5.80511 5.50159
#
# Compressibility (1/GPa) = 0.03978774
#
# Stress axis : x y z
#
# Youngs Moduli (GPa) = 81.60549 90.04981 30.40576
#
# Poissons Ratio (x) = 0.31675 0.06778
# Poissons Ratio (y) = 0.28705 0.07551
# Poissons Ratio (z) = 0.18191 0.22362
#
# Static dielectric constant tensor:
#      x y z
#    x 1.781950 0.000000 0.000000 
#    y 0.000000 1.864980 0.000000 
#    z 0.000000 0.000000 1.937040 
# 
# From -- ./inp_files/2567.got.cif
#   From: 2010.05.17/outbox.cif.g08.bks.cpg/sg19_2_cif.got.tgz:2567.got - 2010.06.03 22:46:19.
