data_PCOD9314928
_publ_section_title
;
Structure prediction by ZEFSAII (Michael W. Deem and Ramdas Pophale) SiO2 
 PCOD9314928
Probable space group: P 21 21 21
;
_chemical_formula_sum "Si O2"
_cell_formula_units_Z 28
_cell_length_a 5.471025
_cell_length_b 17.607896
_cell_length_c 10.927280
_cell_angle_alpha 90.000000
_cell_angle_beta 90.000000
_cell_angle_gamma 90.000000
_cell_volume 1052.660278
_symmetry_space_group_name_H-M "P 21 21 21"
_symmetry_group_IT_number 19
_symmetry_cell_setting 'orthorhombic'
loop_
_space_group_symop_operation_xyz
x,y,z
1/2-x,-y,1/2+z
1/2+x,1/2-y,-z
-x,1/2+y,1/2-z
loop_
_atom_site_type_symbol
_atom_site_label
_atom_site_fract_x
_atom_site_fract_y
_atom_site_fract_z
Si Si1 0.712501 0.651570 0.235968
Si Si2 0.490355 0.925083 0.180716
Si Si3 0.166304 0.309556 0.370359
Si Si4 0.143516 0.847254 0.363173
Si Si5 0.766298 0.948577 0.409987
Si Si6 0.297397 0.323857 0.891438
Si Si7 0.605822 0.567131 0.005131
O O1 0.755795 0.724307 0.147875
O O2 0.959668 0.652984 0.316270
O O3 0.700281 0.580632 0.142963
O O4 0.456823 0.660922 0.314006
O O5 0.606233 0.861480 0.093865
O O6 0.688799 0.965744 0.268119
O O7 0.367690 0.872118 0.282545
O O8 0.287439 0.965207 0.099266
O O9 0.071553 0.329535 0.233964
O O10 0.963967 0.348758 0.454258
O O11 0.052884 0.926992 0.419517
O O12 0.192319 0.766296 0.424398
O O13 0.685696 0.873404 0.486430
O O14 0.636682 0.015640 0.484047
#
# Coordination Sequence:
#
# PCOD9314928 Si02
#       7
#     4   4   4   4   4   4   4
#     4  11  26  46  76 113 149 195 260 318 380 456
#     4  10  22  44  70 100 144 196 246 306 388 434
#     4   9  21  42  68 101 138 188 248 312 376 438
#     4   9  21  42  68 101 138 188 248 312 376 438
#     4  11  27  43  73 107 154 204 250 321 381 468
#     4  11  26  46  76 113 149 195 260 318 380 456
#     4  11  27  43  73 107 154 204 250 321 381 468
#
# _framework density 26.599274999999999
#
# number of rings (size 3 to 8) (size 9 to 14) (size 15 to 20)
#    0.000    1.714    1.429    0.000   10.000    4.571 
#    0.000    0.000    0.000    0.000    0.000    0.000 
#    0.000    0.000    0.000    0.000    0.000    0.000 
#
# Total GULP energy -156088.757584 kJ/mol
# GULP energy per Si atom -5574.598485 kJ/mol
# Density = 2.653873 g / cm^3
# Si number density = 26.599275 Si / 1000 Ang^3
#
#
#
# Elastic Constant Matrix: (Units=GPa)
#
#
# Indices 1 2 3 4 5 6 
#
# 1 125.0546 22.5543 57.4560 0.0000 0.0000 0.0000
# 2 22.5543 82.0881 46.4244 0.0000 0.0000 0.0000
# 3 57.4560 46.4244 131.2222 0.0000 0.0000 0.0000
# 4 0.0000 0.0000 0.0000 33.2293 0.0000 0.0000
# 5 0.0000 0.0000 0.0000 0.0000 64.9323 0.0000
# 6 0.0000 0.0000 0.0000 0.0000 0.0000 35.1535
#
#
#
# Elastic Compliance Matrix: (Units=1/GPa)
#
#
# Indices 1 2 3 4 5 6 
#
# 1 0.010018 -0.000340 -0.004266 0.000000 0.000000 0.000000
# 2 -0.000340 0.015241 -0.005243 0.000000 0.000000 0.000000
# 3 -0.004266 -0.005243 0.011344 0.000000 0.000000 0.000000
# 4 0.000000 0.000000 0.000000 0.030094 0.000000 0.000000
# 5 0.000000 0.000000 0.000000 0.000000 0.015401 0.000000
# 6 0.000000 0.000000 0.000000 0.000000 0.000000 0.028447
#
#
# Mechanical properties :
#
#
# Convention : Reuss Voigt Hill
#
# Bulk Modulus (GPa) = 59.15787 65.69270 62.42528
# Shear Modulus (GPa) = 36.79827 40.79169 38.79498
#
# Velocity S-wave (km/s) = 3.72349 3.92032 3.82317
# Velocity P-wave (km/s) = 6.38549 6.72627 6.55809
#
# Compressibility (1/GPa) = 0.01690392
#
# Stress axis : x y z
#
# Youngs Moduli (GPa) = 99.82176 65.61417 88.15596
#
# Poissons Ratio (x) = 0.02229 0.37609
# Poissons Ratio (y) = 0.03392 0.46221
# Poissons Ratio (z) = 0.42585 0.34402
#
# Static dielectric constant tensor:
#      x y z
#    x 2.317920 0.000000 0.000000 
#    y 0.000000 2.080300 0.000000 
#    z 0.000000 0.000000 2.166800 
# 
# From -- ./inp_files/4498.got.cif
#   From: 2010.05.17/outbox.cif.g08.bks.cpg/sg19_3_cif.got.tgz:4498.got - 2010.06.03 22:46:19.
