data_PCOD9314807
_publ_section_title
;
Structure prediction by ZEFSAII (Michael W. Deem and Ramdas Pophale) SiO2 
 PCOD9314807
Probable space group: P 21 21 21
;
_chemical_formula_sum "Si O2"
_cell_formula_units_Z 32
_cell_length_a 17.574618
_cell_length_b 12.005784
_cell_length_c 6.943937
_cell_angle_alpha 90.000000
_cell_angle_beta 90.000000
_cell_angle_gamma 90.000000
_cell_volume 1465.150345
_symmetry_space_group_name_H-M "P 21 21 21"
_symmetry_group_IT_number 19
_symmetry_cell_setting 'orthorhombic'
loop_
_space_group_symop_operation_xyz
x,y,z
1/2-x,-y,1/2+z
1/2+x,1/2-y,-z
-x,1/2+y,1/2-z
loop_
_atom_site_type_symbol
_atom_site_label
_atom_site_fract_x
_atom_site_fract_y
_atom_site_fract_z
Si Si1 0.618709 0.348782 0.635136
Si Si2 0.336493 0.397755 0.525513
Si Si3 0.282402 0.230023 0.245914
Si Si4 0.005424 0.222780 0.046513
Si Si5 0.727431 0.901629 0.589032
Si Si6 0.960403 0.022458 0.770653
Si Si7 0.099473 0.920877 0.539812
Si Si8 0.122906 0.306156 0.729216
O O1 0.694746 0.302822 0.735774
O O2 0.622802 0.480641 0.602512
O O3 0.616466 0.289338 0.427960
O O4 0.544933 0.316599 0.758410
O O5 0.314637 0.275734 0.448081
O O6 0.268133 0.482374 0.463904
O O7 0.339474 0.409888 0.755116
O O8 0.411918 0.434694 0.413155
O O9 0.330736 0.130097 0.158011
O O10 0.292487 0.334984 0.102403
O O11 0.071726 0.276507 0.913308
O O12 0.974246 0.120181 0.921064
O O13 0.942356 0.318490 0.066609
O O14 0.792435 0.830011 0.698546
O O15 0.911104 0.920862 0.855936
O O16 0.038981 0.973080 0.690012
#
# Coordination Sequence:
#
# PCOD9314807 Si02
#       8
#     4   4   4   4   4   4   4   4
#     4  12  26  43  73  99 143 188 235 288 359 424
#     4  11  22  41  73 103 138 180 231 295 344 417
#     4  12  25  45  68 108 141 184 240 290 355 426
#     4  11  23  46  69  99 143 182 237 293 347 423
#     4  11  22  41  70 103 139 177 224 293 356 401
#     4  10  23  45  70  96 143 181 230 298 347 409
#     4  11  27  47  69 104 141 188 241 286 359 430
#     4  10  22  42  66 100 134 180 228 285 355 408
#
# _framework density 21.840762000000002
#
# number of rings (size 3 to 8) (size 9 to 14) (size 15 to 20)
#    0.000    1.000    6.250    0.000    1.750    3.000 
#    2.250    0.000    0.000    0.000    0.000    0.000 
#    0.000    0.000    0.000    0.000    0.000    0.000 
#
# Total GULP energy -179144.014341 kJ/mol
# GULP energy per Si atom -5598.250448 kJ/mol
# Density = 2.179105 g / cm^3
# Si number density = 21.840762 Si / 1000 Ang^3
#
#
#
# Elastic Constant Matrix: (Units=GPa)
#
#
# Indices 1 2 3 4 5 6 
#
# 1 34.9101 -5.8564 0.2740 0.0000 0.0000 0.0000
# 2 -5.8564 88.8994 8.6774 0.0000 0.0000 0.0000
# 3 0.2740 8.6774 61.8519 0.0000 0.0000 0.0000
# 4 0.0000 0.0000 0.0000 27.7651 0.0000 0.0000
# 5 0.0000 0.0000 0.0000 0.0000 32.9999 0.0000
# 6 0.0000 0.0000 0.0000 0.0000 0.0000 33.9900
#
#
#
# Elastic Compliance Matrix: (Units=1/GPa)
#
#
# Indices 1 2 3 4 5 6 
#
# 1 0.028975 0.001948 -0.000402 0.000000 0.000000 0.000000
# 2 0.001948 0.011536 -0.001627 0.000000 0.000000 0.000000
# 3 -0.000402 -0.001627 0.016398 0.000000 0.000000 0.000000
# 4 0.000000 0.000000 0.000000 0.036016 0.000000 0.000000
# 5 0.000000 0.000000 0.000000 0.000000 0.030303 0.000000
# 6 0.000000 0.000000 0.000000 0.000000 0.000000 0.029420
#
#
# Mechanical properties :
#
#
# Convention : Reuss Voigt Hill
#
# Bulk Modulus (GPa) = 17.62205 21.31682 19.46943
# Shear Modulus (GPa) = 29.11623 31.12208 30.11915
#
# Velocity S-wave (km/s) = 3.65514 3.77895 3.71756
# Velocity P-wave (km/s) = 5.08914 5.36861 5.23074
#
# Compressibility (1/GPa) = 0.05674709
#
# Stress axis : x y z
#
# Youngs Moduli (GPa) = 34.51255 86.68657 60.98417
#
# Poissons Ratio (x) = -0.16886 0.02449
# Poissons Ratio (y) = -0.06723 0.09922
# Poissons Ratio (z) = 0.01386 0.14104
#
# Static dielectric constant tensor:
#      x y z
#    x 1.799630 0.000000 0.000000 
#    y 0.000000 1.779430 0.000000 
#    z 0.000000 0.000000 1.785970 
# 
# From -- ./inp_files/2043.got.cif
#   From: 2010.05.17/outbox.cif.g08.bks.cpg/sg19_2_cif.got.tgz:2043.got - 2010.06.03 22:46:19.
