data_PCOD9314343
_publ_section_title
;
Structure prediction by ZEFSAII (Michael W. Deem and Ramdas Pophale) SiO2 
 PCOD9314343
Probable space group: P 21 21 21
;
_chemical_formula_sum "Si O2"
_cell_formula_units_Z 20
_cell_length_a 5.081128
_cell_length_b 9.382277
_cell_length_c 18.360273
_cell_angle_alpha 90.000000
_cell_angle_beta 90.000000
_cell_angle_gamma 90.000000
_cell_volume 875.281039
_symmetry_space_group_name_H-M "P 21 21 21"
_symmetry_group_IT_number 19
_symmetry_cell_setting 'orthorhombic'
loop_
_space_group_symop_operation_xyz
x,y,z
1/2-x,-y,1/2+z
1/2+x,1/2-y,-z
-x,1/2+y,1/2-z
loop_
_atom_site_type_symbol
_atom_site_label
_atom_site_fract_x
_atom_site_fract_y
_atom_site_fract_z
Si Si1 0.687046 0.224498 0.548571
Si Si2 0.233953 0.912654 0.256652
Si Si3 0.643017 0.064329 0.011756
Si Si4 0.269874 0.234260 0.289360
Si Si5 0.141482 0.119714 0.925577
O O1 0.401837 0.236325 0.512774
O O2 0.716294 0.300599 0.625704
O O3 0.760783 0.059858 0.564041
O O4 0.453035 0.815737 0.217062
O O5 0.289138 0.892024 0.342089
O O6 0.953205 0.844506 0.237198
O O7 0.257407 0.084025 0.245325
O O8 0.355294 0.045116 0.977975
O O9 0.851105 0.066131 0.945328
O O10 0.653368 0.214845 0.051444
#
# Coordination Sequence:
#
# PCOD9314343 Si02
#       5
#     4   4   4   4   4
#     4  12  25  44  70  96 138 175 235 282 339 401
#     4  12  26  47  69 102 144 182 234 280 351 421
#     4  10  21  39  68  98 124 173 227 268 338 391
#     4  12  28  45  74 103 141 189 230 286 355 411
#     4  10  22  41  67  95 135 171 216 282 331 402
#
# _framework density 22.849805
#
# number of rings (size 3 to 8) (size 9 to 14) (size 15 to 20)
#    0.000    0.800    0.000    7.200    5.600    0.000 
#    0.000    0.000    0.000    0.000    0.000    0.000 
#    0.000    0.000    0.000    0.000    0.000    0.000 
#
# Total GULP energy -111957.317476 kJ/mol
# GULP energy per Si atom -5597.865874 kJ/mol
# Density = 2.279780 g / cm^3
# Si number density = 22.849805 Si / 1000 Ang^3
#
#
#
# Elastic Constant Matrix: (Units=GPa)
#
#
# Indices 1 2 3 4 5 6 
#
# 1 87.8928 17.1141 -14.4781 0.0000 0.0000 0.0000
# 2 17.1141 95.7388 0.8174 0.0000 0.0000 0.0000
# 3 -14.4781 0.8174 66.7355 0.0000 0.0000 0.0000
# 4 0.0000 0.0000 0.0000 31.0640 0.0000 0.0000
# 5 0.0000 0.0000 0.0000 0.0000 31.0638 0.0000
# 6 0.0000 0.0000 0.0000 0.0000 0.0000 33.7553
#
#
#
# Elastic Compliance Matrix: (Units=1/GPa)
#
#
# Indices 1 2 3 4 5 6 
#
# 1 0.012251 -0.002213 0.002685 0.000000 0.000000 0.000000
# 2 -0.002213 0.010846 -0.000613 0.000000 0.000000 0.000000
# 3 0.002685 -0.000613 0.015575 0.000000 0.000000 0.000000
# 4 0.000000 0.000000 0.000000 0.032192 0.000000 0.000000
# 5 0.000000 0.000000 0.000000 0.000000 0.032192 0.000000
# 6 0.000000 0.000000 0.000000 0.000000 0.000000 0.029625
#
#
# Mechanical properties :
#
#
# Convention : Reuss Voigt Hill
#
# Bulk Modulus (GPa) = 26.04897 28.58599 27.31748
# Shear Modulus (GPa) = 34.30351 35.63751 34.97051
#
# Velocity S-wave (km/s) = 3.87881 3.95351 3.91634
# Velocity P-wave (km/s) = 5.61116 5.77736 5.69487
#
# Compressibility (1/GPa) = 0.03838923
#
# Stress axis : x y z
#
# Youngs Moduli (GPa) = 81.62845 92.20086 64.20750
#
# Poissons Ratio (x) = 0.20402 -0.17239
# Poissons Ratio (y) = 0.18063 0.03935
# Poissons Ratio (z) = -0.21916 0.05651
#
# Static dielectric constant tensor:
#      x y z
#    x 1.823550 0.000000 0.000000 
#    y 0.000000 1.976550 0.000000 
#    z 0.000000 0.000000 1.805840 
# 
# From -- ./inp_files/346.got.cif
#   From: 2010.05.17/outbox.cif.g08.bks.cpg/sg19_1_cif.got.tgz:346.got - 2010.06.03 22:46:19.
