data_PCOD9314282
_publ_section_title
;
Structure prediction by ZEFSAII (Michael W. Deem and Ramdas Pophale) SiO2 
 PCOD9314282
Probable space group: P 21 21 21
;
_chemical_formula_sum "Si O2"
_cell_formula_units_Z 32
_cell_length_a 6.826368
_cell_length_b 7.588741
_cell_length_c 31.104572
_cell_angle_alpha 90.000000
_cell_angle_beta 90.000000
_cell_angle_gamma 90.000000
_cell_volume 1611.326900
_symmetry_space_group_name_H-M "P 21 21 21"
_symmetry_group_IT_number 19
_symmetry_cell_setting 'orthorhombic'
loop_
_space_group_symop_operation_xyz
x,y,z
1/2-x,-y,1/2+z
1/2+x,1/2-y,-z
-x,1/2+y,1/2-z
loop_
_atom_site_type_symbol
_atom_site_label
_atom_site_fract_x
_atom_site_fract_y
_atom_site_fract_z
Si Si1 0.590097 0.991261 0.978133
Si Si2 0.875384 0.546504 0.801429
Si Si3 0.644538 0.176092 0.899237
Si Si4 0.668836 0.901883 0.549699
Si Si5 0.258931 0.609407 0.250116
Si Si6 0.287514 0.108710 0.519871
Si Si7 0.450752 0.008386 0.099743
Si Si8 0.076954 0.282805 0.199105
O O1 0.664291 0.803968 0.995326
O O2 0.666652 0.008346 0.929741
O O3 0.357632 0.985494 0.986201
O O4 0.691852 0.137492 0.008483
O O5 0.809732 0.737542 0.784212
O O6 0.933542 0.557127 0.851571
O O7 0.714296 0.390870 0.797525
O O8 0.053074 0.476914 0.772294
O O9 0.458706 0.263272 0.923521
O O10 0.834232 0.303412 0.901903
O O11 0.591953 0.152136 0.849859
O O12 0.826451 0.978211 0.583579
O O13 0.494121 0.019473 0.530156
O O14 0.143077 0.446174 0.228711
O O15 0.132765 0.711506 0.286057
O O16 0.167209 0.104772 0.564633
#
# Coordination Sequence:
#
# PCOD9314282 Si02
#       8
#     4   4   4   4   4   4   4   4
#     4  11  22  37  60  88 124 164 210 261 310 381
#     4  11  23  42  68  98 136 169 223 272 338 398
#     4  10  24  39  63  92 125 162 214 265 318 394
#     4  10  21  40  61  86 121 165 204 257 321 367
#     4  12  23  42  71  99 133 181 215 278 339 400
#     4  10  21  39  59  87 122 163 209 253 311 373
#     4   9  22  41  62  90 124 164 204 270 319 381
#     4  11  24  44  66 102 133 172 225 274 336 408
#
# _framework density 19.85941
#
# number of rings (size 3 to 8) (size 9 to 14) (size 15 to 20)
#    0.000    1.500    3.750    0.750    7.000    0.000 
#    0.000    1.250    0.000    0.000    0.000    0.000 
#    0.000    0.000    0.000    0.000    0.000    0.000 
#
# Total GULP energy -178418.208853 kJ/mol
# GULP energy per Si atom -5575.569027 kJ/mol
# Density = 1.981421 g / cm^3
# Si number density = 19.859410 Si / 1000 Ang^3
#
#
#
# Elastic Constant Matrix: (Units=GPa)
#
#
# Indices 1 2 3 4 5 6 
#
# 1 73.8107 12.6508 -9.4684 0.0000 0.0000 0.0000
# 2 12.6508 53.1885 2.6534 0.0000 0.0000 0.0000
# 3 -9.4684 2.6534 66.2468 0.0000 0.0000 0.0000
# 4 0.0000 0.0000 0.0000 24.6156 0.0000 0.0000
# 5 0.0000 0.0000 0.0000 0.0000 25.1686 0.0000
# 6 0.0000 0.0000 0.0000 0.0000 0.0000 18.1727
#
#
#
# Elastic Compliance Matrix: (Units=1/GPa)
#
#
# Indices 1 2 3 4 5 6 
#
# 1 0.014439 -0.003544 0.002206 0.000000 0.000000 0.000000
# 2 -0.003544 0.019709 -0.001296 0.000000 0.000000 0.000000
# 3 0.002206 -0.001296 0.015462 0.000000 0.000000 0.000000
# 4 0.000000 0.000000 0.000000 0.040625 0.000000 0.000000
# 5 0.000000 0.000000 0.000000 0.000000 0.039732 0.000000
# 6 0.000000 0.000000 0.000000 0.000000 0.000000 0.055027
#
#
# Mechanical properties :
#
#
# Convention : Reuss Voigt Hill
#
# Bulk Modulus (GPa) = 22.55280 22.76859 22.66069
# Shear Modulus (GPa) = 24.38514 26.08540 25.23527
#
# Velocity S-wave (km/s) = 3.50793 3.62816 3.56855
# Velocity P-wave (km/s) = 5.27146 5.38899 5.33055
#
# Compressibility (1/GPa) = 0.04434040
#
# Stress axis : x y z
#
# Youngs Moduli (GPa) = 69.25891 50.73899 64.67373
#
# Poissons Ratio (x) = 0.17983 -0.14265
# Poissons Ratio (y) = 0.24547 0.08381
# Poissons Ratio (z) = -0.15276 0.06576
#
# Static dielectric constant tensor:
#      x y z
#    x 1.712130 0.000000 0.000000 
#    y 0.000000 1.731720 0.000000 
#    z 0.000000 0.000000 1.698660 
# 
# From -- ./inp_files/702.got.cif
#   From: 2010.05.17/outbox.cif.g08.bks.cpg/sg19_1_cif.got.tgz:702.got - 2010.06.03 22:46:19.
