data_PCOD9314046
_publ_section_title
;
Structure prediction by ZEFSAII (Michael W. Deem and Ramdas Pophale) SiO2 
 PCOD9314046
Probable space group: P 21 21 21
;
_chemical_formula_sum "Si O2"
_cell_formula_units_Z 32
_cell_length_a 8.948150
_cell_length_b 15.082491
_cell_length_c 9.679780
_cell_angle_alpha 90.000000
_cell_angle_beta 90.000000
_cell_angle_gamma 90.000000
_cell_volume 1306.386902
_symmetry_space_group_name_H-M "P 21 21 21"
_symmetry_group_IT_number 19
_symmetry_cell_setting 'orthorhombic'
loop_
_space_group_symop_operation_xyz
x,y,z
1/2-x,-y,1/2+z
1/2+x,1/2-y,-z
-x,1/2+y,1/2-z
loop_
_atom_site_type_symbol
_atom_site_label
_atom_site_fract_x
_atom_site_fract_y
_atom_site_fract_z
Si Si1 0.073481 0.234044 0.676145
Si Si2 0.708900 0.575308 0.418552
Si Si3 0.976833 0.996457 0.113923
Si Si4 0.326695 0.343952 0.797871
Si Si5 0.431438 0.702093 0.793610
Si Si6 0.200319 0.811044 0.967551
Si Si7 0.169385 0.715914 0.607937
Si Si8 0.374892 0.001631 0.343857
O O1 0.164880 0.314411 0.745569
O O2 0.205252 0.176896 0.607512
O O3 0.963355 0.270016 0.557332
O O4 0.967090 0.189043 0.790253
O O5 0.667816 0.676867 0.395630
O O6 0.750173 0.562414 0.582113
O O7 0.604127 0.512797 0.320993
O O8 0.869415 0.547961 0.354489
O O9 0.855418 0.051075 0.200248
O O10 0.984961 0.894013 0.155759
O O11 0.979191 0.003652 0.945215
O O12 0.446595 0.280029 0.721999
O O13 0.353607 0.318604 0.956004
O O14 0.298424 0.739291 0.887306
O O15 0.336547 0.688438 0.652811
O O16 0.192527 0.903469 0.890668
#
# Coordination Sequence:
#
# PCOD9314046 Si02
#       8
#     4   4   4   4   4   4   4   4
#     4  11  24  39  74 101 140 188 245 295 376 443
#     4  10  22  40  67 103 132 191 243 308 364 452
#     4  10  24  40  70 101 139 195 236 318 368 450
#     4  12  24  45  70 105 145 199 240 309 386 447
#     4  11  22  45  72  97 149 186 249 301 382 438
#     4  11  22  44  69 106 133 197 236 312 362 445
#     4  11  24  45  70 103 146 192 248 306 377 456
#     4  10  20  40  66  96 138 176 247 295 359 443
#
# _framework density 24.495038999999998
#
# number of rings (size 3 to 8) (size 9 to 14) (size 15 to 20)
#    0.750    0.500    3.750    3.000    1.750    1.000 
#    4.500    2.500    0.000    0.000    0.000    0.000 
#    0.000    0.000    0.000    0.000    0.000    0.000 
#
# Total GULP energy -178397.682304 kJ/mol
# GULP energy per Si atom -5574.927572 kJ/mol
# Density = 2.443929 g / cm^3
# Si number density = 24.495039 Si / 1000 Ang^3
#
#
#
# Elastic Constant Matrix: (Units=GPa)
#
#
# Indices 1 2 3 4 5 6 
#
# 1 97.7952 14.0977 13.2277 0.0000 0.0000 0.0000
# 2 14.0977 99.5956 18.4239 0.0000 0.0000 0.0000
# 3 13.2277 18.4239 82.4962 0.0000 0.0000 0.0000
# 4 0.0000 0.0000 0.0000 30.7569 0.0000 0.0000
# 5 0.0000 0.0000 0.0000 0.0000 33.5149 0.0000
# 6 0.0000 0.0000 0.0000 0.0000 0.0000 25.6684
#
#
#
# Elastic Compliance Matrix: (Units=1/GPa)
#
#
# Indices 1 2 3 4 5 6 
#
# 1 0.010596 -0.001237 -0.001423 0.000000 0.000000 0.000000
# 2 -0.001237 0.010618 -0.002173 0.000000 0.000000 0.000000
# 3 -0.001423 -0.002173 0.012835 0.000000 0.000000 0.000000
# 4 0.000000 0.000000 0.000000 0.032513 0.000000 0.000000
# 5 0.000000 0.000000 0.000000 0.000000 0.029837 0.000000
# 6 0.000000 0.000000 0.000000 0.000000 0.000000 0.038958
#
#
# Mechanical properties :
#
#
# Convention : Reuss Voigt Hill
#
# Bulk Modulus (GPa) = 41.01038 41.26508 41.13773
# Shear Modulus (GPa) = 32.64753 33.59720 33.12237
#
# Velocity S-wave (km/s) = 3.65474 3.70752 3.68123
# Velocity P-wave (km/s) = 5.88117 5.93384 5.90757
#
# Compressibility (1/GPa) = 0.02438407
#
# Stress axis : x y z
#
# Youngs Moduli (GPa) = 94.37362 94.18306 77.91079
#
# Poissons Ratio (x) = 0.11647 0.11085
# Poissons Ratio (y) = 0.11671 0.16930
# Poissons Ratio (z) = 0.13428 0.20465
#
# Static dielectric constant tensor:
#      x y z
#    x 2.000750 0.000000 0.000000 
#    y 0.000000 1.944010 0.000000 
#    z 0.000000 0.000000 2.099250 
# 
# From -- ./inp_files/4733.got.cif
#   From: 2010.05.17/outbox.cif.g08.bks.cpg/sg19_3_cif.got.tgz:4733.got - 2010.06.03 22:46:19.
