data_PCOD9314721
_publ_section_title
;
Structure prediction by ZEFSAII (Michael W. Deem and Ramdas Pophale) SiO2 
 PCOD9314721
Probable space group: P 21 21 21
;
_chemical_formula_sum "Si O2"
_cell_formula_units_Z 28
_cell_length_a 7.231436
_cell_length_b 7.450720
_cell_length_c 20.563459
_cell_angle_alpha 90.000000
_cell_angle_beta 90.000000
_cell_angle_gamma 90.000000
_cell_volume 1107.946932
_symmetry_space_group_name_H-M "P 21 21 21"
_symmetry_group_IT_number 19
_symmetry_cell_setting 'orthorhombic'
loop_
_space_group_symop_operation_xyz
x,y,z
1/2-x,-y,1/2+z
1/2+x,1/2-y,-z
-x,1/2+y,1/2-z
loop_
_atom_site_type_symbol
_atom_site_label
_atom_site_fract_x
_atom_site_fract_y
_atom_site_fract_z
Si Si1 0.298315 0.553683 0.124585
Si Si2 0.666302 0.702918 0.652370
Si Si3 0.609429 0.463537 0.912115
Si Si4 0.759556 0.946172 0.016406
Si Si5 0.499514 0.181904 0.085916
Si Si6 0.536108 0.742771 0.796980
Si Si7 0.814510 0.316040 0.636930
O O1 0.390470 0.365274 0.103336
O O2 0.470800 0.666081 0.152212
O O3 0.135306 0.576687 0.176051
O O4 0.227599 0.627303 0.055177
O O5 0.494815 0.784144 0.613223
O O6 0.847260 0.831560 0.643246
O O7 0.615277 0.697714 0.727455
O O8 0.477809 0.519569 0.971845
O O9 0.586198 0.594563 0.850526
O O10 0.825502 0.447059 0.924371
O O11 0.707376 0.810481 0.074301
O O12 0.639323 0.128693 0.027008
O O13 0.265908 0.014868 0.877348
O O14 0.314991 0.756102 0.803282
#
# Coordination Sequence:
#
# PCOD9314721 Si02
#       7
#     4   4   4   4   4   4   4
#     4  11  25  41  66 103 133 183 229 284 353 407
#     4  10  22  42  66  97 131 175 231 282 344 414
#     4  10  22  41  63  93 130 182 223 279 345 399
#     4  10  24  41  65  97 137 180 232 282 341 421
#     4  10  23  42  64  96 137 178 228 281 342 410
#     4  11  23  40  66  98 134 177 227 284 346 414
#     4  10  23  43  64  98 134 179 228 282 343 407
#
# _framework density 25.271968000000001
#
# number of rings (size 3 to 8) (size 9 to 14) (size 15 to 20)
#    0.000    1.714    0.000    2.571    6.000    4.571 
#    0.000    1.429    0.000    0.000    0.000    0.000 
#    0.000    0.000    0.000    0.000    0.000    0.000 
#
# Total GULP energy -156522.257990 kJ/mol
# GULP energy per Si atom -5590.080642 kJ/mol
# Density = 2.521445 g / cm^3
# Si number density = 25.271968 Si / 1000 Ang^3
#
#
#
# Elastic Constant Matrix: (Units=GPa)
#
#
# Indices 1 2 3 4 5 6 
#
# 1 167.1228 13.6526 24.8365 0.0000 0.0000 0.0000
# 2 13.6526 82.2352 17.1830 0.0000 0.0000 0.0000
# 3 24.8365 17.1830 95.2175 0.0000 0.0000 0.0000
# 4 0.0000 0.0000 0.0000 19.4953 0.0000 0.0000
# 5 0.0000 0.0000 0.0000 0.0000 24.9696 0.0000
# 6 0.0000 0.0000 0.0000 0.0000 0.0000 44.0479
#
#
#
# Elastic Compliance Matrix: (Units=1/GPa)
#
#
# Indices 1 2 3 4 5 6 
#
# 1 0.006266 -0.000726 -0.001503 0.000000 0.000000 0.000000
# 2 -0.000726 0.012721 -0.002106 0.000000 0.000000 0.000000
# 3 -0.001503 -0.002106 0.011275 0.000000 0.000000 0.000000
# 4 0.000000 0.000000 0.000000 0.051294 0.000000 0.000000
# 5 0.000000 0.000000 0.000000 0.000000 0.040049 0.000000
# 6 0.000000 0.000000 0.000000 0.000000 0.000000 0.022703
#
#
# Mechanical properties :
#
#
# Convention : Reuss Voigt Hill
#
# Bulk Modulus (GPa) = 46.31755 50.65773 48.48764
# Shear Modulus (GPa) = 31.21570 36.96281 34.08925
#
# Velocity S-wave (km/s) = 3.51834 3.82855 3.67672
# Velocity P-wave (km/s) = 5.90529 6.29541 6.10347
#
# Compressibility (1/GPa) = 0.02159009
#
# Stress axis : x y z
#
# Youngs Moduli (GPa) = 159.58172 78.61081 88.69561
#
# Poissons Ratio (x) = 0.05709 0.13335
# Poissons Ratio (y) = 0.11589 0.18681
# Poissons Ratio (z) = 0.23993 0.16557
#
# Static dielectric constant tensor:
#      x y z
#    x 1.964220 0.000000 0.000000 
#    y 0.000000 2.199770 0.000000 
#    z 0.000000 0.000000 1.893360 
# 
# From -- ./inp_files/7270.got.cif
#   From: 2010.05.17/outbox.cif.g08.bks.cpg/sg19_4_cif.got.tgz:7270.got - 2010.06.03 22:46:19.
