data_PCOD9314063
_publ_section_title
;
Structure prediction by ZEFSAII (Michael W. Deem and Ramdas Pophale) SiO2 
 PCOD9314063
Probable space group: P 21 21 21
;
_chemical_formula_sum "Si O2"
_cell_formula_units_Z 28
_cell_length_a 7.005584
_cell_length_b 5.496378
_cell_length_c 25.970149
_cell_angle_alpha 90.000000
_cell_angle_beta 90.000000
_cell_angle_gamma 90.000000
_cell_volume 999.989359
_symmetry_space_group_name_H-M "P 21 21 21"
_symmetry_group_IT_number 19
_symmetry_cell_setting 'orthorhombic'
loop_
_space_group_symop_operation_xyz
x,y,z
1/2-x,-y,1/2+z
1/2+x,1/2-y,-z
-x,1/2+y,1/2-z
loop_
_atom_site_type_symbol
_atom_site_label
_atom_site_fract_x
_atom_site_fract_y
_atom_site_fract_z
Si Si1 0.904194 0.377951 0.180729
Si Si2 0.370440 0.044770 0.531506
Si Si3 0.483739 0.765190 0.369421
Si Si4 0.095832 0.684899 0.741041
Si Si5 0.184146 0.449168 0.057678
Si Si6 0.420594 0.402318 0.452889
Si Si7 0.003585 0.867870 0.203551
O O1 0.711543 0.396076 0.148280
O O2 0.034321 0.615865 0.174101
O O3 0.874803 0.375052 0.243579
O O4 0.002755 0.117532 0.172739
O O5 0.419702 0.290659 0.563006
O O6 0.401988 0.124264 0.472144
O O7 0.140078 0.030963 0.534788
O O8 0.437605 0.797260 0.557317
O O9 0.595994 0.710165 0.316977
O O10 0.638220 0.906589 0.404669
O O11 0.407116 0.518276 0.397130
O O12 0.287430 0.650808 0.773854
O O13 0.019949 0.408351 0.733400
O O14 0.218597 0.469605 0.994865
#
# Coordination Sequence:
#
# PCOD9314063 Si02
#       7
#     4   4   4   4   4   4   4
#     4  10  21  37  67  86 123 164 208 253 318 378
#     4   9  20  38  62  84 123 164 205 264 317 371
#     4  11  22  41  68  96 122 183 213 260 335 391
#     4  12  23  40  64  98 131 167 216 270 315 387
#     4   9  22  37  61  90 125 160 216 265 316 380
#     4   9  22  40  64  91 126 169 211 271 319 380
#     4  10  20  41  58  91 128 161 201 267 310 359
#
# _framework density 28.000302000000001
#
# number of rings (size 3 to 8) (size 9 to 14) (size 15 to 20)
#    0.857    1.143    2.857    0.000    4.000    4.571 
#    0.000    5.714    6.286    0.000    0.000    0.000 
#    0.000    0.000    0.000    0.000    0.000    0.000 
#
# Total GULP energy -156143.976562 kJ/mol
# GULP energy per Si atom -5576.570591 kJ/mol
# Density = 2.793657 g / cm^3
# Si number density = 28.000302 Si / 1000 Ang^3
#
#
#
# Elastic Constant Matrix: (Units=GPa)
#
#
# Indices 1 2 3 4 5 6 
#
# 1 53.5583 -15.7941 5.4033 0.0000 0.0000 0.0000
# 2 -15.7941 204.7045 17.4801 0.0000 0.0000 0.0000
# 3 5.4033 17.4801 131.3727 0.0000 0.0000 0.0000
# 4 0.0000 0.0000 0.0000 18.3713 0.0000 0.0000
# 5 0.0000 0.0000 0.0000 0.0000 69.8076 0.0000
# 6 0.0000 0.0000 0.0000 0.0000 0.0000 34.6379
#
#
#
# Elastic Compliance Matrix: (Units=1/GPa)
#
#
# Indices 1 2 3 4 5 6 
#
# 1 0.019235 0.001569 -0.001000 0.000000 0.000000 0.000000
# 2 0.001569 0.005069 -0.000739 0.000000 0.000000 0.000000
# 3 -0.001000 -0.000739 0.007751 0.000000 0.000000 0.000000
# 4 0.000000 0.000000 0.000000 0.054433 0.000000 0.000000
# 5 0.000000 0.000000 0.000000 0.000000 0.014325 0.000000
# 6 0.000000 0.000000 0.000000 0.000000 0.000000 0.028870
#
#
# Mechanical properties :
#
#
# Convention : Reuss Voigt Hill
#
# Bulk Modulus (GPa) = 31.52928 44.86824 38.19876
# Shear Modulus (GPa) = 35.56315 50.06643 42.81479
#
# Velocity S-wave (km/s) = 3.56771 4.23314 3.91459
# Velocity P-wave (km/s) = 5.31566 6.32073 5.83986
#
# Compressibility (1/GPa) = 0.03171655
#
# Stress axis : x y z
#
# Youngs Moduli (GPa) = 51.98870 197.26618 129.00900
#
# Poissons Ratio (x) = -0.30960 0.12900
# Poissons Ratio (y) = -0.08159 0.09535
# Poissons Ratio (z) = 0.05199 0.14579
#
# Static dielectric constant tensor:
#      x y z
#    x 2.196270 0.000000 0.000000 
#    y 0.000000 2.306280 0.000000 
#    z 0.000000 0.000000 2.191450 
# 
# From -- ./inp_files/7574.got.cif
#   From: 2010.05.17/outbox.cif.g08.bks.cpg/sg19_4_cif.got.tgz:7574.got - 2010.06.03 22:46:19.
