data_PCOD9314709
_publ_section_title
;
Structure prediction by ZEFSAII (Michael W. Deem and Ramdas Pophale) SiO2 
 PCOD9314709
Probable space group: P 21 21 21
;
_chemical_formula_sum "Si O2"
_cell_formula_units_Z 32
_cell_length_a 10.739705
_cell_length_b 15.566272
_cell_length_c 9.213352
_cell_angle_alpha 90.000000
_cell_angle_beta 90.000000
_cell_angle_gamma 90.000000
_cell_volume 1540.262106
_symmetry_space_group_name_H-M "P 21 21 21"
_symmetry_group_IT_number 19
_symmetry_cell_setting 'orthorhombic'
loop_
_space_group_symop_operation_xyz
x,y,z
1/2-x,-y,1/2+z
1/2+x,1/2-y,-z
-x,1/2+y,1/2-z
loop_
_atom_site_type_symbol
_atom_site_label
_atom_site_fract_x
_atom_site_fract_y
_atom_site_fract_z
Si Si1 0.336859 0.614898 0.506807
Si Si2 0.062596 0.172139 0.702133
Si Si3 0.700685 0.769067 0.305637
Si Si4 0.411260 0.189917 0.909465
Si Si5 0.177773 0.095016 0.254424
Si Si6 0.287467 0.945108 0.417617
Si Si7 0.222531 0.690123 0.215954
Si Si8 0.947709 0.071680 0.444291
O O1 0.255978 0.638358 0.649709
O O2 0.452197 0.680411 0.527518
O O3 0.270349 0.633324 0.353315
O O4 0.394641 0.520913 0.515554
O O5 0.110161 0.113431 0.836179
O O6 0.167896 0.243777 0.676005
O O7 0.931426 0.218273 0.730812
O O8 0.036380 0.108829 0.569319
O O9 0.672905 0.729763 0.464247
O O10 0.787326 0.696229 0.234745
O O11 0.345489 0.099350 0.878900
O O12 0.391966 0.251377 0.773596
O O13 0.037438 0.075726 0.304513
O O14 0.273917 0.040258 0.353513
O O15 0.194300 0.061864 0.089461
O O16 0.170564 0.632112 0.087937
#
# Coordination Sequence:
#
# PCOD9314709 Si02
#       8
#     4   4   4   4   4   4   4   4
#     4  11  22  43  68  95 136 178 229 276 347 419
#     4  11  25  44  66  97 137 180 231 283 349 407
#     4  10  23  39  68  94 129 178 226 272 342 414
#     4   9  18  41  67  91 125 179 221 269 334 422
#     4  11  23  44  69 102 135 182 232 281 343 410
#     4  10  22  40  69  99 133 177 230 280 339 411
#     4  10  24  43  68  97 137 181 226 283 348 411
#     4  12  27  42  69 101 142 173 233 294 346 408
#
# _framework density 20.775687000000001
#
# number of rings (size 3 to 8) (size 9 to 14) (size 15 to 20)
#    0.000    1.500    2.500    2.250    8.750    0.000 
#    0.000    0.000    0.000    0.000    0.000    0.000 
#    0.000    0.000    0.000    0.000    0.000    0.000 
#
# Total GULP energy -178609.257518 kJ/mol
# GULP energy per Si atom -5581.539297 kJ/mol
# Density = 2.072840 g / cm^3
# Si number density = 20.775687 Si / 1000 Ang^3
#
#
#
# Elastic Constant Matrix: (Units=GPa)
#
#
# Indices 1 2 3 4 5 6 
#
# 1 64.4296 22.7527 19.9746 0.0000 0.0000 0.0000
# 2 22.7527 88.1818 29.6863 0.0000 0.0000 0.0000
# 3 19.9746 29.6863 67.6631 0.0000 0.0000 0.0000
# 4 0.0000 0.0000 0.0000 25.2287 0.0000 0.0000
# 5 0.0000 0.0000 0.0000 0.0000 26.5386 0.0000
# 6 0.0000 0.0000 0.0000 0.0000 0.0000 30.4742
#
#
#
# Elastic Compliance Matrix: (Units=1/GPa)
#
#
# Indices 1 2 3 4 5 6 
#
# 1 0.017880 -0.003328 -0.003818 0.000000 0.000000 0.000000
# 2 -0.003328 0.013925 -0.005127 0.000000 0.000000 0.000000
# 3 -0.003818 -0.005127 0.018156 0.000000 0.000000 0.000000
# 4 0.000000 0.000000 0.000000 0.039637 0.000000 0.000000
# 5 0.000000 0.000000 0.000000 0.000000 0.037681 0.000000
# 6 0.000000 0.000000 0.000000 0.000000 0.000000 0.032815
#
#
# Mechanical properties :
#
#
# Convention : Reuss Voigt Hill
#
# Bulk Modulus (GPa) = 39.34804 40.56683 39.95743
# Shear Modulus (GPa) = 25.89190 26.30570 26.09880
#
# Velocity S-wave (km/s) = 3.53407 3.56220 3.54816
# Velocity P-wave (km/s) = 5.96938 6.04049 6.00504
#
# Compressibility (1/GPa) = 0.02541423
#
# Stress axis : x y z
#
# Youngs Moduli (GPa) = 55.92922 71.81401 55.07940
#
# Poissons Ratio (x) = 0.23899 0.21030
# Poissons Ratio (y) = 0.18613 0.28239
# Poissons Ratio (z) = 0.21354 0.36818
#
# Static dielectric constant tensor:
#      x y z
#    x 1.758610 0.000000 0.000000 
#    y 0.000000 1.782880 0.000000 
#    z 0.000000 0.000000 1.762870 
# 
# From -- ./inp_files/3582.got.cif
#   From: 2010.05.17/outbox.cif.g08.bks.cpg/sg19_2_cif.got.tgz:3582.got - 2010.06.03 22:46:19.
