data_PCOD9314384
_publ_section_title
;
Structure prediction by ZEFSAII (Michael W. Deem and Ramdas Pophale) SiO2 
 PCOD9314384
Probable space group: P 21 21 21
;
_chemical_formula_sum "Si O2"
_cell_formula_units_Z 20
_cell_length_a 5.094219
_cell_length_b 18.768021
_cell_length_c 7.850640
_cell_angle_alpha 90.000000
_cell_angle_beta 90.000000
_cell_angle_gamma 90.000000
_cell_volume 750.587201
_symmetry_space_group_name_H-M "P 21 21 21"
_symmetry_group_IT_number 19
_symmetry_cell_setting 'orthorhombic'
loop_
_space_group_symop_operation_xyz
x,y,z
1/2-x,-y,1/2+z
1/2+x,1/2-y,-z
-x,1/2+y,1/2-z
loop_
_atom_site_type_symbol
_atom_site_label
_atom_site_fract_x
_atom_site_fract_y
_atom_site_fract_z
Si Si1 0.438683 0.221690 0.919621
Si Si2 0.371501 0.832336 0.125358
Si Si3 0.426220 0.472175 0.784570
Si Si4 0.372818 0.610347 0.025646
Si Si5 0.285915 0.075449 0.927267
O O1 0.499939 0.137786 0.938016
O O2 0.215441 0.240483 0.058800
O O3 0.269195 0.227429 0.744493
O O4 0.655638 0.833398 0.041955
O O5 0.379099 0.896821 0.265150
O O6 0.154619 0.853306 0.986592
O O7 0.368414 0.543234 0.893730
O O8 0.197280 0.424672 0.706111
O O9 0.608939 0.427634 0.908676
O O10 0.586746 0.501032 0.621119
#
# Coordination Sequence:
#
# PCOD9314384 Si02
#       5
#     4   4   4   4   4
#     4  10  21  40  67  89 127 169 228 271 304 386
#     4   9  21  38  58  92 123 163 219 249 327 369
#     4  11  21  38  62  99 137 169 207 272 332 405
#     4  11  21  35  58  89 134 166 199 263 319 401
#     4   9  22  37  63  97 127 167 215 257 340 375
#
# _framework density 26.645803999999998
#
# number of rings (size 3 to 8) (size 9 to 14) (size 15 to 20)
#    1.200    0.800    0.000    4.800    0.000    3.200 
#    0.000    0.000    0.000    4.800    0.000    0.000 
#    0.000    0.000    0.000    0.000    0.000    0.000 
#
# Total GULP energy -111845.194198 kJ/mol
# GULP energy per Si atom -5592.259710 kJ/mol
# Density = 2.658516 g / cm^3
# Si number density = 26.645804 Si / 1000 Ang^3
#
#
#
# Elastic Constant Matrix: (Units=GPa)
#
#
# Indices 1 2 3 4 5 6 
#
# 1 100.7450 5.8363 25.9076 0.0000 0.0000 0.0000
# 2 5.8363 34.7928 29.4820 0.0000 0.0000 0.0000
# 3 25.9076 29.4820 89.0142 0.0000 0.0000 0.0000
# 4 0.0000 0.0000 0.0000 42.2285 0.0000 0.0000
# 5 0.0000 0.0000 0.0000 0.0000 45.3806 0.0000
# 6 0.0000 0.0000 0.0000 0.0000 0.0000 26.5839
#
#
#
# Elastic Compliance Matrix: (Units=1/GPa)
#
#
# Indices 1 2 3 4 5 6 
#
# 1 0.010764 0.001180 -0.003524 0.000000 0.000000 0.000000
# 2 0.001180 0.040084 -0.013620 0.000000 0.000000 0.000000
# 3 -0.003524 -0.013620 0.016771 0.000000 0.000000 0.000000
# 4 0.000000 0.000000 0.000000 0.023681 0.000000 0.000000
# 5 0.000000 0.000000 0.000000 0.000000 0.022036 0.000000
# 6 0.000000 0.000000 0.000000 0.000000 0.000000 0.037617
#
#
# Mechanical properties :
#
#
# Convention : Reuss Voigt Hill
#
# Bulk Modulus (GPa) = 28.01701 38.55600 33.28650
# Shear Modulus (GPa) = 25.67049 33.72699 29.69874
#
# Velocity S-wave (km/s) = 3.10723 3.56160 3.34215
# Velocity P-wave (km/s) = 4.83845 5.60487 5.23570
#
# Compressibility (1/GPa) = 0.03569261
#
# Stress axis : x y z
#
# Youngs Moduli (GPa) = 92.90365 24.94734 59.62789
#
# Poissons Ratio (x) = -0.02945 0.21011
# Poissons Ratio (y) = -0.10965 0.81212
# Poissons Ratio (z) = 0.32737 0.33978
#
# Static dielectric constant tensor:
#      x y z
#    x 2.031120 0.000000 0.000000 
#    y 0.000000 2.202470 0.000000 
#    z 0.000000 0.000000 2.105890 
# 
# From -- ./inp_files/2398.got.cif
#   From: 2010.05.17/outbox.cif.g08.bks.cpg/sg19_2_cif.got.tgz:2398.got - 2010.06.03 22:46:19.
