data_PCOD9314012
_publ_section_title
;
Structure prediction by ZEFSAII (Michael W. Deem and Ramdas Pophale) SiO2 
 PCOD9314012
Probable space group: P 21 21 21
;
_chemical_formula_sum "Si O2"
_cell_formula_units_Z 20
_cell_length_a 10.072337
_cell_length_b 10.756011
_cell_length_c 6.696415
_cell_angle_alpha 90.000000
_cell_angle_beta 90.000000
_cell_angle_gamma 90.000000
_cell_volume 725.477330
_symmetry_space_group_name_H-M "P 21 21 21"
_symmetry_group_IT_number 19
_symmetry_cell_setting 'orthorhombic'
loop_
_space_group_symop_operation_xyz
x,y,z
1/2-x,-y,1/2+z
1/2+x,1/2-y,-z
-x,1/2+y,1/2-z
loop_
_atom_site_type_symbol
_atom_site_label
_atom_site_fract_x
_atom_site_fract_y
_atom_site_fract_z
Si Si1 0.523716 0.688185 0.191043
Si Si2 0.919100 0.584614 0.136619
Si Si3 0.603177 0.940876 0.208708
Si Si4 0.803647 0.332839 0.318740
Si Si5 0.770373 0.745796 0.397864
O O1 0.507271 0.826939 0.280252
O O2 0.426008 0.572851 0.193974
O O3 0.653829 0.651515 0.320119
O O4 0.579229 0.709254 0.968372
O O5 0.856808 0.459369 0.224672
O O6 0.904880 0.683600 0.318411
O O7 0.054689 0.546287 0.020977
O O8 0.816953 0.642021 0.972267
O O9 0.739064 0.874091 0.277244
O O10 0.758232 0.246246 0.133693
#
# Coordination Sequence:
#
# PCOD9314012 Si02
#       5
#     4   4   4   4   4
#     4   9  21  36  58  85 119 150 192 241 286 353
#     4  11  18  33  60  85 114 150 198 241 285 336
#     4  10  20  40  57  85 122 155 193 242 295 343
#     4  11  18  35  60  90 110 152 200 257 277 325
#     4   9  21  34  55  87 117 141 203 243 275 345
#
# _framework density 27.568059000000002
#
# number of rings (size 3 to 8) (size 9 to 14) (size 15 to 20)
#    1.200    0.800    4.000    1.200    0.000    1.600 
#    0.000    0.000    4.400    0.000    0.000    0.000 
#    0.000    0.000    0.000    0.000    0.000    0.000 
#
# Total GULP energy -111381.863727 kJ/mol
# GULP energy per Si atom -5569.093186 kJ/mol
# Density = 2.750531 g / cm^3
# Si number density = 27.568059 Si / 1000 Ang^3
#
#
#
# Elastic Constant Matrix: (Units=GPa)
#
#
# Indices 1 2 3 4 5 6 
#
# 1 53.6901 32.2405 54.8413 0.0000 0.0000 0.0000
# 2 32.2405 97.7169 32.8786 0.0000 0.0000 0.0000
# 3 54.8413 32.8786 201.8683 0.0000 0.0000 0.0000
# 4 0.0000 0.0000 0.0000 40.7324 0.0000 0.0000
# 5 0.0000 0.0000 0.0000 0.0000 44.0478 0.0000
# 6 0.0000 0.0000 0.0000 0.0000 0.0000 27.9652
#
#
#
# Elastic Compliance Matrix: (Units=1/GPa)
#
#
# Indices 1 2 3 4 5 6 
#
# 1 0.030387 -0.007668 -0.007006 0.000000 0.000000 0.000000
# 2 -0.007668 0.012762 0.000005 0.000000 0.000000 0.000000
# 3 -0.007006 0.000005 0.006856 0.000000 0.000000 0.000000
# 4 0.000000 0.000000 0.000000 0.024550 0.000000 0.000000
# 5 0.000000 0.000000 0.000000 0.000000 0.022703 0.000000
# 6 0.000000 0.000000 0.000000 0.000000 0.000000 0.035759
#
#
# Mechanical properties :
#
#
# Convention : Reuss Voigt Hill
#
# Bulk Modulus (GPa) = 48.39008 65.91071 57.15040
# Shear Modulus (GPa) = 29.54298 38.10341 33.82320
#
# Velocity S-wave (km/s) = 3.27714 3.72177 3.50651
# Velocity P-wave (km/s) = 5.64895 6.51376 6.09671
#
# Compressibility (1/GPa) = 0.02066539
#
# Stress axis : x y z
#
# Youngs Moduli (GPa) = 32.90930 78.35669 145.85101
#
# Poissons Ratio (x) = 0.60087 1.02185
# Poissons Ratio (y) = 0.25236 -0.00068
# Poissons Ratio (z) = 0.23057 -0.00036
#
# Static dielectric constant tensor:
#      x y z
#    x 2.372940 0.000000 0.000000 
#    y 0.000000 2.165810 0.000000 
#    z 0.000000 0.000000 2.210290 
# 
# From -- ./inp_files/1385.got.cif
#   From: 2010.05.17/outbox.cif.g08.bks.cpg/sg19_1_cif.got.tgz:1385.got - 2010.06.03 22:46:19.
