data_PCOD9314332
_publ_section_title
;
Structure prediction by ZEFSAII (Michael W. Deem and Ramdas Pophale) SiO2 
 PCOD9314332
Probable space group: P 21 21 21
;
_chemical_formula_sum "Si O2"
_cell_formula_units_Z 32
_cell_length_a 15.448663
_cell_length_b 5.528212
_cell_length_c 18.135203
_cell_angle_alpha 90.000000
_cell_angle_beta 90.000000
_cell_angle_gamma 90.000000
_cell_volume 1548.809523
_symmetry_space_group_name_H-M "P 21 21 21"
_symmetry_group_IT_number 19
_symmetry_cell_setting 'orthorhombic'
loop_
_space_group_symop_operation_xyz
x,y,z
1/2-x,-y,1/2+z
1/2+x,1/2-y,-z
-x,1/2+y,1/2-z
loop_
_atom_site_type_symbol
_atom_site_label
_atom_site_fract_x
_atom_site_fract_y
_atom_site_fract_z
Si Si1 0.811366 0.349528 0.402257
Si Si2 0.535599 0.994513 0.906462
Si Si3 0.462550 0.714907 0.282897
Si Si4 0.204038 0.799710 0.937640
Si Si5 0.403975 0.694602 0.438422
Si Si6 0.350942 0.018575 0.840380
Si Si7 0.238194 0.362920 0.751136
Si Si8 0.157203 0.245208 0.196713
O O1 0.910532 0.257170 0.414165
O O2 0.764185 0.285632 0.477490
O O3 0.768341 0.240625 0.328679
O O4 0.812706 0.627355 0.379787
O O5 0.434439 0.014733 0.891767
O O6 0.580655 0.087666 0.831352
O O7 0.556943 0.140820 0.981128
O O8 0.502148 0.469938 0.247974
O O9 0.472021 0.705175 0.371418
O O10 0.359506 0.704291 0.267448
O O11 0.145058 0.045534 0.936690
O O12 0.154981 0.546359 0.922432
O O13 0.280687 0.853408 0.881618
O O14 0.379879 0.924514 0.759954
O O15 0.300412 0.262357 0.815902
O O16 0.259543 0.640771 0.736176
#
# Coordination Sequence:
#
# PCOD9314332 Si02
#       8
#     4   4   4   4   4   4   4   4
#     4   9  21  40  66  92 137 174 220 275 346 402
#     4  10  23  40  62 104 133 180 218 283 341 411
#     4  12  27  45  74 101 133 182 235 294 339 401
#     4  11  22  44  69  93 131 186 219 279 335 413
#     4  11  23  47  68  93 138 176 226 275 352 390
#     4  11  24  37  68  96 134 175 231 272 341 419
#     4  10  23  42  65 100 131 182 223 284 346 410
#     4  10  21  39  66  93 137 173 218 274 338 410
#
# _framework density 20.661031000000001
#
# number of rings (size 3 to 8) (size 9 to 14) (size 15 to 20)
#    0.000    1.500    2.500    1.500    8.750    1.000 
#    0.000    0.000    0.000    0.000    0.000    0.000 
#    0.000    0.000    0.000    0.000    0.000    0.000 
#
# Total GULP energy -178190.130739 kJ/mol
# GULP energy per Si atom -5568.441586 kJ/mol
# Density = 2.061401 g / cm^3
# Si number density = 20.661031 Si / 1000 Ang^3
#
#
#
# Elastic Constant Matrix: (Units=GPa)
#
#
# Indices 1 2 3 4 5 6 
#
# 1 72.0838 28.2748 26.5234 0.0000 0.0000 0.0000
# 2 28.2748 82.6794 19.4895 0.0000 0.0000 0.0000
# 3 26.5234 19.4895 117.1348 0.0000 0.0000 0.0000
# 4 0.0000 0.0000 0.0000 35.6731 0.0000 0.0000
# 5 0.0000 0.0000 0.0000 0.0000 33.7263 0.0000
# 6 0.0000 0.0000 0.0000 0.0000 0.0000 15.3651
#
#
#
# Elastic Compliance Matrix: (Units=1/GPa)
#
#
# Indices 1 2 3 4 5 6 
#
# 1 0.016975 -0.005099 -0.002995 0.000000 0.000000 0.000000
# 2 -0.005099 0.014120 -0.001195 0.000000 0.000000 0.000000
# 3 -0.002995 -0.001195 0.009414 0.000000 0.000000 0.000000
# 4 0.000000 0.000000 0.000000 0.028032 0.000000 0.000000
# 5 0.000000 0.000000 0.000000 0.000000 0.029650 0.000000
# 6 0.000000 0.000000 0.000000 0.000000 0.000000 0.065083
#
#
# Mechanical properties :
#
#
# Convention : Reuss Voigt Hill
#
# Bulk Modulus (GPa) = 45.59721 46.71925 46.15823
# Shear Modulus (GPa) = 26.43214 30.12693 28.27953
#
# Velocity S-wave (km/s) = 3.58064 3.82272 3.70366
# Velocity P-wave (km/s) = 6.26193 6.49196 6.37798
#
# Compressibility (1/GPa) = 0.02193116
#
# Stress axis : x y z
#
# Youngs Moduli (GPa) = 58.91022 70.81986 106.22237
#
# Poissons Ratio (x) = 0.36111 0.31817
# Poissons Ratio (y) = 0.30039 0.12692
# Poissons Ratio (z) = 0.17645 0.08462
#
# Static dielectric constant tensor:
#      x y z
#    x 1.731220 0.000000 0.000000 
#    y 0.000000 1.920530 0.000000 
#    z 0.000000 0.000000 1.754510 
# 
# From -- ./inp_files/1805.got.cif
#   From: 2010.05.17/outbox.cif.g08.bks.cpg/sg19_1_cif.got.tgz:1805.got - 2010.06.03 22:46:19.
