data_PCOD9314845
_publ_section_title
;
Structure prediction by ZEFSAII (Michael W. Deem and Ramdas Pophale) SiO2 
 PCOD9314845
Probable space group: P 21 21 21
;
_chemical_formula_sum "Si O2"
_cell_formula_units_Z 32
_cell_length_a 14.694612
_cell_length_b 8.676931
_cell_length_c 12.182341
_cell_angle_alpha 90.000000
_cell_angle_beta 90.000000
_cell_angle_gamma 90.000000
_cell_volume 1553.298844
_symmetry_space_group_name_H-M "P 21 21 21"
_symmetry_group_IT_number 19
_symmetry_cell_setting 'orthorhombic'
loop_
_space_group_symop_operation_xyz
x,y,z
1/2-x,-y,1/2+z
1/2+x,1/2-y,-z
-x,1/2+y,1/2-z
loop_
_atom_site_type_symbol
_atom_site_label
_atom_site_fract_x
_atom_site_fract_y
_atom_site_fract_z
Si Si1 0.342747 0.210840 0.666666
Si Si2 0.179107 0.121633 0.250319
Si Si3 0.799413 0.415166 0.549373
Si Si4 0.714633 0.964314 0.658124
Si Si5 0.738566 0.737890 0.454849
Si Si6 0.386417 0.378721 0.224263
Si Si7 0.492940 0.145397 0.378785
Si Si8 0.552344 0.207077 0.612110
O O1 0.299985 0.215673 0.544741
O O2 0.318258 0.348631 0.746002
O O3 0.450404 0.181419 0.654447
O O4 0.305469 0.051946 0.714244
O O5 0.257187 0.147591 0.339576
O O6 0.184366 0.226852 0.141346
O O7 0.088512 0.148199 0.319094
O O8 0.746256 0.568901 0.510955
O O9 0.905654 0.447591 0.572171
O O10 0.741856 0.865357 0.550071
O O11 0.802569 0.050567 0.706423
O O12 0.628477 0.075687 0.633302
O O13 0.651597 0.779047 0.379098
O O14 0.451632 0.272614 0.297911
O O15 0.441619 0.524726 0.178788
O O16 0.542964 0.225147 0.481664
#
# Coordination Sequence:
#
# PCOD9314845 Si02
#       8
#     4   4   4   4   4   4   4   4
#     4  10  24  40  68 100 131 177 227 286 347 411
#     4  11  21  44  68  95 134 177 229 278 346 418
#     4  10  22  42  71  97 136 179 235 282 345 418
#     4  12  24  45  70 102 139 184 234 283 353 419
#     4  11  23  43  70 100 131 182 232 284 341 416
#     4  12  27  46  69 103 143 188 235 289 350 419
#     4  11  26  46  66 103 142 180 233 293 348 411
#     4  11  23  42  66  98 136 171 227 289 340 412
#
# _framework density 20.601317000000002
#
# number of rings (size 3 to 8) (size 9 to 14) (size 15 to 20)
#    0.000    1.000    5.000    0.750    3.500    3.000 
#    2.250    0.000    0.000    0.000    0.000    0.000 
#    0.000    0.000    0.000    0.000    0.000    0.000 
#
# Total GULP energy -178562.160242 kJ/mol
# GULP energy per Si atom -5580.067508 kJ/mol
# Density = 2.055443 g / cm^3
# Si number density = 20.601317 Si / 1000 Ang^3
#
#
#
# Elastic Constant Matrix: (Units=GPa)
#
#
# Indices 1 2 3 4 5 6 
#
# 1 67.3620 18.8050 41.8089 0.0000 0.0000 0.0000
# 2 18.8050 65.2505 42.2858 0.0000 0.0000 0.0000
# 3 41.8089 42.2858 114.2897 0.0000 0.0000 0.0000
# 4 0.0000 0.0000 0.0000 31.2146 0.0000 0.0000
# 5 0.0000 0.0000 0.0000 0.0000 36.5250 0.0000
# 6 0.0000 0.0000 0.0000 0.0000 0.0000 38.9072
#
#
#
# Elastic Compliance Matrix: (Units=1/GPa)
#
#
# Indices 1 2 3 4 5 6 
#
# 1 0.019289 -0.001297 -0.006576 0.000000 0.000000 0.000000
# 2 -0.001297 0.020246 -0.007016 0.000000 0.000000 0.000000
# 3 -0.006576 -0.007016 0.013751 0.000000 0.000000 0.000000
# 4 0.000000 0.000000 0.000000 0.032036 0.000000 0.000000
# 5 0.000000 0.000000 0.000000 0.000000 0.027378 0.000000
# 6 0.000000 0.000000 0.000000 0.000000 0.000000 0.025702
#
#
# Mechanical properties :
#
#
# Convention : Reuss Voigt Hill
#
# Bulk Modulus (GPa) = 42.54056 50.30017 46.42036
# Shear Modulus (GPa) = 28.40603 30.92953 29.66778
#
# Velocity S-wave (km/s) = 3.71731 3.87891 3.79897
# Velocity P-wave (km/s) = 6.25450 6.67310 6.46719
#
# Compressibility (1/GPa) = 0.02350698
#
# Stress axis : x y z
#
# Youngs Moduli (GPa) = 51.84327 49.39148 72.72015
#
# Poissons Ratio (x) = 0.06407 0.47822
# Poissons Ratio (y) = 0.06725 0.51023
# Poissons Ratio (z) = 0.34093 0.34655
#
# Static dielectric constant tensor:
#      x y z
#    x 1.665790 0.000000 0.000000 
#    y 0.000000 1.732810 0.000000 
#    z 0.000000 0.000000 1.758580 
# 
# From -- ./inp_files/5269.got.cif
#   From: 2010.05.17/outbox.cif.g08.bks.cpg/sg19_3_cif.got.tgz:5269.got - 2010.06.03 22:46:19.
