data_PCOD9314898
_publ_section_title
;
Structure prediction by ZEFSAII (Michael W. Deem and Ramdas Pophale) SiO2 
 PCOD9314898
Probable space group: P 21 21 21
;
_chemical_formula_sum "Si O2"
_cell_formula_units_Z 28
_cell_length_a 8.809187
_cell_length_b 10.068235
_cell_length_c 13.144662
_cell_angle_alpha 90.000000
_cell_angle_beta 90.000000
_cell_angle_gamma 90.000000
_cell_volume 1165.839045
_symmetry_space_group_name_H-M "P 21 21 21"
_symmetry_group_IT_number 19
_symmetry_cell_setting 'orthorhombic'
loop_
_space_group_symop_operation_xyz
x,y,z
1/2-x,-y,1/2+z
1/2+x,1/2-y,-z
-x,1/2+y,1/2-z
loop_
_atom_site_type_symbol
_atom_site_label
_atom_site_fract_x
_atom_site_fract_y
_atom_site_fract_z
Si Si1 0.613266 0.299127 0.111822
Si Si2 0.043716 0.928400 0.999635
Si Si3 0.819174 0.852613 0.297010
Si Si4 0.430590 0.133551 0.945291
Si Si5 0.255057 0.063946 0.127319
Si Si6 0.523161 0.929739 0.224415
Si Si7 0.259797 0.318755 0.425566
O O1 0.567647 0.448786 0.077358
O O2 0.793701 0.281073 0.105165
O O3 0.544104 0.293816 0.225017
O O4 0.530447 0.209625 0.029301
O O5 0.152303 0.806508 0.970201
O O6 0.868925 0.882970 0.004795
O O7 0.098659 0.985956 0.110079
O O8 0.776825 0.719691 0.360323
O O9 0.677322 0.953060 0.288684
O O10 0.829294 0.795841 0.182012
O O11 0.962069 0.913663 0.354783
O O12 0.337469 0.036986 0.018877
O O13 0.373775 0.017363 0.211275
O O14 0.602455 0.911857 0.114280
#
# Coordination Sequence:
#
# PCOD9314898 Si02
#       7
#     4   4   4   4   4   4   4
#     4  11  22  39  71  94 133 174 219 273 340 382
#     4  11  23  44  66  92 128 183 214 274 338 401
#     4  10  22  44  59  99 133 163 227 275 315 404
#     4  11  20  41  65  97 128 175 218 279 326 397
#     4  11  22  42  69  92 133 175 219 271 339 389
#     4  10  23  40  64  99 132 167 216 275 325 396
#     4  10  24  44  62  95 137 165 225 273 329 407
#
# _framework density 24.017036000000001
#
# number of rings (size 3 to 8) (size 9 to 14) (size 15 to 20)
#    0.857    0.571    4.286    1.714    2.000    2.286 
#    0.000    1.429    0.000    0.000    0.000    0.000 
#    0.000    0.000    0.000    0.000    0.000    0.000 
#
# Total GULP energy -155882.989147 kJ/mol
# GULP energy per Si atom -5567.249612 kJ/mol
# Density = 2.396237 g / cm^3
# Si number density = 24.017036 Si / 1000 Ang^3
#
#
#
# Elastic Constant Matrix: (Units=GPa)
#
#
# Indices 1 2 3 4 5 6 
#
# 1 56.6606 8.5252 6.0328 0.0000 0.0000 0.0000
# 2 8.5252 37.8035 3.8055 0.0000 0.0000 0.0000
# 3 6.0328 3.8055 62.7596 0.0000 0.0000 0.0000
# 4 0.0000 0.0000 0.0000 22.9653 0.0000 0.0000
# 5 0.0000 0.0000 0.0000 0.0000 53.0260 0.0000
# 6 0.0000 0.0000 0.0000 0.0000 0.0000 35.7287
#
#
#
# Elastic Compliance Matrix: (Units=1/GPa)
#
#
# Indices 1 2 3 4 5 6 
#
# 1 0.018413 -0.003999 -0.001528 0.000000 0.000000 0.000000
# 2 -0.003999 0.027483 -0.001282 0.000000 0.000000 0.000000
# 3 -0.001528 -0.001282 0.016158 0.000000 0.000000 0.000000
# 4 0.000000 0.000000 0.000000 0.043544 0.000000 0.000000
# 5 0.000000 0.000000 0.000000 0.000000 0.018859 0.000000
# 6 0.000000 0.000000 0.000000 0.000000 0.000000 0.027989
#
#
# Mechanical properties :
#
#
# Convention : Reuss Voigt Hill
#
# Bulk Modulus (GPa) = 20.64476 21.55006 21.09741
# Shear Modulus (GPa) = 27.44102 31.60136 29.52119
#
# Velocity S-wave (km/s) = 3.38385 3.63132 3.50977
# Velocity P-wave (km/s) = 4.88690 5.15502 5.02275
#
# Compressibility (1/GPa) = 0.04843844
#
# Stress axis : x y z
#
# Youngs Moduli (GPa) = 54.30874 36.38564 61.88735
#
# Poissons Ratio (x) = 0.14549 0.09453
# Poissons Ratio (y) = 0.21716 0.07935
# Poissons Ratio (z) = 0.08296 0.04665
#
# Static dielectric constant tensor:
#      x y z
#    x 1.992560 0.000000 0.000000 
#    y 0.000000 1.920850 0.000000 
#    z 0.000000 0.000000 2.118450 
# 
# From -- ./inp_files/5885.got.cif
#   From: 2010.05.17/outbox.cif.g08.bks.cpg/sg19_3_cif.got.tgz:5885.got - 2010.06.03 22:46:19.
