data_PCOD9314166
_publ_section_title
;
Structure prediction by ZEFSAII (Michael W. Deem and Ramdas Pophale) SiO2 
 PCOD9314166
Probable space group: P 21 21 21
;
_chemical_formula_sum "Si O2"
_cell_formula_units_Z 32
_cell_length_a 21.363114
_cell_length_b 14.128976
_cell_length_c 5.230497
_cell_angle_alpha 90.000000
_cell_angle_beta 90.000000
_cell_angle_gamma 90.000000
_cell_volume 1578.767592
_symmetry_space_group_name_H-M "P 21 21 21"
_symmetry_group_IT_number 19
_symmetry_cell_setting 'orthorhombic'
loop_
_space_group_symop_operation_xyz
x,y,z
1/2-x,-y,1/2+z
1/2+x,1/2-y,-z
-x,1/2+y,1/2-z
loop_
_atom_site_type_symbol
_atom_site_label
_atom_site_fract_x
_atom_site_fract_y
_atom_site_fract_z
Si Si1 0.440522 0.363640 0.789202
Si Si2 0.300524 0.115523 0.432356
Si Si3 0.174720 0.083068 0.667420
Si Si4 0.068816 0.139578 0.959908
Si Si5 0.403889 0.028286 0.756308
Si Si6 0.101359 0.742631 0.791218
Si Si7 0.959760 0.918119 0.339900
Si Si8 0.467846 0.688390 0.163214
O O1 0.406253 0.314648 0.553911
O O2 0.439530 0.475456 0.729206
O O3 0.514464 0.334993 0.832321
O O4 0.409551 0.326643 0.051455
O O5 0.231466 0.135825 0.531314
O O6 0.335095 0.197728 0.277507
O O7 0.299055 0.016026 0.279861
O O8 0.347386 0.094218 0.669747
O O9 0.143405 0.144110 0.896696
O O10 0.123739 0.049288 0.454304
O O11 0.044904 0.201668 0.724201
O O12 0.069428 0.026591 0.004501
O O13 0.464587 0.079006 0.860874
O O14 0.043075 0.815322 0.819094
O O15 0.938323 0.872474 0.605380
O O16 0.943834 0.851146 0.102524
#
# Coordination Sequence:
#
# PCOD9314166 Si02
#       8
#     4   4   4   4   4   4   4   4
#     4  10  23  38  57  82 119 154 198 247 301 339
#     4  11  22  35  56  85 116 165 199 230 280 354
#     4  11  22  37  55  84 126 159 200 229 288 356
#     4   9  23  34  54  81 114 158 187 243 291 346
#     4  10  21  35  54  77 121 155 189 226 285 343
#     4  11  22  37  57  84 119 157 197 244 285 353
#     4  11  22  35  59  84 113 155 188 240 296 350
#     4  11  21  35  56  85 114 147 198 233 296 347
#
# _framework density 20.268974
#
# number of rings (size 3 to 8) (size 9 to 14) (size 15 to 20)
#    0.000    1.500    2.500    3.000   14.000    0.000 
#    0.000    0.000    0.000    0.000    0.000    3.500 
#    0.000    0.000    0.000    0.000    0.000    0.000 
#
# Total GULP energy -178178.159587 kJ/mol
# GULP energy per Si atom -5568.067487 kJ/mol
# Density = 2.022284 g / cm^3
# Si number density = 20.268974 Si / 1000 Ang^3
#
#
#
# Elastic Constant Matrix: (Units=GPa)
#
#
# Indices 1 2 3 4 5 6 
#
# 1 47.0075 2.9349 9.3275 0.0000 0.0000 0.0000
# 2 2.9349 32.7353 19.8120 0.0000 0.0000 0.0000
# 3 9.3275 19.8120 80.4407 0.0000 0.0000 0.0000
# 4 0.0000 0.0000 0.0000 31.1079 0.0000 0.0000
# 5 0.0000 0.0000 0.0000 0.0000 16.4816 0.0000
# 6 0.0000 0.0000 0.0000 0.0000 0.0000 19.3366
#
#
#
# Elastic Compliance Matrix: (Units=1/GPa)
#
#
# Indices 1 2 3 4 5 6 
#
# 1 0.021781 -0.000499 -0.002403 0.000000 0.000000 0.000000
# 2 -0.000499 0.035911 -0.008787 0.000000 0.000000 0.000000
# 3 -0.002403 -0.008787 0.014874 0.000000 0.000000 0.000000
# 4 0.000000 0.000000 0.000000 0.032146 0.000000 0.000000
# 5 0.000000 0.000000 0.000000 0.000000 0.060674 0.000000
# 6 0.000000 0.000000 0.000000 0.000000 0.000000 0.051715
#
#
# Mechanical properties :
#
#
# Convention : Reuss Voigt Hill
#
# Bulk Modulus (GPa) = 20.32942 24.92581 22.62761
# Shear Modulus (GPa) = 19.46478 21.92583 20.69530
#
# Velocity S-wave (km/s) = 3.10227 3.29255 3.19883
# Velocity P-wave (km/s) = 4.78369 5.17482 4.98310
#
# Compressibility (1/GPa) = 0.04918979
#
# Stress axis : x y z
#
# Youngs Moduli (GPa) = 45.91130 27.84689 67.23024
#
# Poissons Ratio (x) = 0.01388 0.16154
# Poissons Ratio (y) = 0.02289 0.59073
# Poissons Ratio (z) = 0.11032 0.24468
#
# Static dielectric constant tensor:
#      x y z
#    x 1.758330 0.000000 0.000000 
#    y 0.000000 1.750480 0.000000 
#    z 0.000000 0.000000 1.837620 
# 
# From -- ./inp_files/2058.got.cif
#   From: 2010.05.17/outbox.cif.g08.bks.cpg/sg19_2_cif.got.tgz:2058.got - 2010.06.03 22:46:19.
