data_PCOD9314861
_publ_section_title
;
Structure prediction by ZEFSAII (Michael W. Deem and Ramdas Pophale) SiO2 
 PCOD9314861
Probable space group: P 21 21 21
;
_chemical_formula_sum "Si O2"
_cell_formula_units_Z 24
_cell_length_a 11.816793
_cell_length_b 7.406467
_cell_length_c 13.112967
_cell_angle_alpha 90.000000
_cell_angle_beta 90.000000
_cell_angle_gamma 90.000000
_cell_volume 1147.655886
_symmetry_space_group_name_H-M "P 21 21 21"
_symmetry_group_IT_number 19
_symmetry_cell_setting 'orthorhombic'
loop_
_space_group_symop_operation_xyz
x,y,z
1/2-x,-y,1/2+z
1/2+x,1/2-y,-z
-x,1/2+y,1/2-z
loop_
_atom_site_type_symbol
_atom_site_label
_atom_site_fract_x
_atom_site_fract_y
_atom_site_fract_z
Si Si1 0.832383 0.165928 0.751612
Si Si2 0.726925 0.146821 0.539709
Si Si3 0.156544 0.598484 0.169487
Si Si4 0.529757 0.135209 0.144323
Si Si5 0.058982 0.054404 0.445717
Si Si6 0.765522 0.259530 0.120738
O O1 0.790113 0.225420 0.639950
O O2 0.909707 0.298514 0.815445
O O3 0.723291 0.088595 0.809484
O O4 0.913570 0.995226 0.727788
O O5 0.793409 0.177077 0.435263
O O6 0.608073 0.248271 0.532095
O O7 0.715928 0.932541 0.562379
O O8 0.186354 0.722814 0.265680
O O9 0.024908 0.563919 0.150330
O O10 0.629304 0.281509 0.125059
O O11 0.510385 0.024481 0.040944
O O12 0.163502 0.919408 0.427788
#
# Coordination Sequence:
#
# PCOD9314861 Si02
#       6
#     4   4   4   4   4   4
#     4  10  23  41  66  94 130 165 219 266 315 382
#     4  10  23  44  62  95 130 168 217 260 316 383
#     4  10  22  43  64  95 134 162 217 273 308 387
#     4  10  23  42  66  92 128 169 212 265 315 389
#     4  12  24  42  69  93 129 171 212 260 338 371
#     4  10  25  44  61 101 129 165 219 264 318 382
#
# _framework density 20.912191
#
# number of rings (size 3 to 8) (size 9 to 14) (size 15 to 20)
#    0.000    2.000    3.333    1.000   11.667    0.000 
#    3.000    0.000    0.000    0.000    0.000    0.000 
#    0.000    0.000    0.000    0.000    0.000    0.000 
#
# Total GULP energy -133976.912888 kJ/mol
# GULP energy per Si atom -5582.371370 kJ/mol
# Density = 2.086459 g / cm^3
# Si number density = 20.912191 Si / 1000 Ang^3
#
#
#
# Elastic Constant Matrix: (Units=GPa)
#
#
# Indices 1 2 3 4 5 6 
#
# 1 51.5516 12.2456 0.1146 0.0000 0.0000 0.0000
# 2 12.2456 28.9718 1.4773 0.0000 0.0000 0.0000
# 3 0.1146 1.4773 61.4676 0.0000 0.0000 0.0000
# 4 0.0000 0.0000 0.0000 3.9279 0.0000 0.0000
# 5 0.0000 0.0000 0.0000 0.0000 33.0416 0.0000
# 6 0.0000 0.0000 0.0000 0.0000 0.0000 34.3120
#
#
#
# Elastic Compliance Matrix: (Units=1/GPa)
#
#
# Indices 1 2 3 4 5 6 
#
# 1 0.021565 -0.009124 0.000179 0.000000 0.000000 0.000000
# 2 -0.009124 0.038419 -0.000906 0.000000 0.000000 0.000000
# 3 0.000179 -0.000906 0.016290 0.000000 0.000000 0.000000
# 4 0.000000 0.000000 0.000000 0.254587 0.000000 0.000000
# 5 0.000000 0.000000 0.000000 0.000000 0.030265 0.000000
# 6 0.000000 0.000000 0.000000 0.000000 0.000000 0.029144
#
#
# Mechanical properties :
#
#
# Convention : Reuss Voigt Hill
#
# Bulk Modulus (GPa) = 17.67675 18.85179 18.26427
# Shear Modulus (GPa) = 11.65961 22.79988 17.22975
#
# Velocity S-wave (km/s) = 2.36381 3.30550 2.87350
# Velocity P-wave (km/s) = 3.99016 4.85827 4.44545
#
# Compressibility (1/GPa) = 0.05657149
#
# Stress axis : x y z
#
# Youngs Moduli (GPa) = 46.37148 26.02878 61.38670
#
# Poissons Ratio (x) = 0.23749 -0.01099
# Poissons Ratio (y) = 0.42310 0.05564
# Poissons Ratio (z) = -0.00830 0.02359
#
# Static dielectric constant tensor:
#      x y z
#    x 1.774550 0.000000 0.000000 
#    y 0.000000 1.763620 0.000000 
#    z 0.000000 0.000000 1.750790 
# 
# From -- ./inp_files/3413.got.cif
#   From: 2010.05.17/outbox.cif.g08.bks.cpg/sg19_2_cif.got.tgz:3413.got - 2010.06.03 22:46:19.
