data_PCOD9314469
_publ_section_title
;
Structure prediction by ZEFSAII (Michael W. Deem and Ramdas Pophale) SiO2 
 PCOD9314469
Probable space group: P 21 21 21
;
_chemical_formula_sum "Si O2"
_cell_formula_units_Z 32
_cell_length_a 9.159041
_cell_length_b 19.144358
_cell_length_c 8.760600
_cell_angle_alpha 90.000000
_cell_angle_beta 90.000000
_cell_angle_gamma 90.000000
_cell_volume 1536.118295
_symmetry_space_group_name_H-M "P 21 21 21"
_symmetry_group_IT_number 19
_symmetry_cell_setting 'orthorhombic'
loop_
_space_group_symop_operation_xyz
x,y,z
1/2-x,-y,1/2+z
1/2+x,1/2-y,-z
-x,1/2+y,1/2-z
loop_
_atom_site_type_symbol
_atom_site_label
_atom_site_fract_x
_atom_site_fract_y
_atom_site_fract_z
Si Si1 0.602377 0.120877 0.547198
Si Si2 0.113132 0.232809 0.546653
Si Si3 0.991993 0.399156 0.881243
Si Si4 0.935943 0.010026 0.880167
Si Si5 0.730799 0.142704 0.878646
Si Si6 0.670028 0.727526 0.216241
Si Si7 0.233326 0.900423 0.090874
Si Si8 0.229285 0.977864 0.403260
O O1 0.658998 0.185316 0.444619
O O2 0.640487 0.132689 0.722149
O O3 0.427071 0.121989 0.539675
O O4 0.646790 0.044760 0.490142
O O5 0.179203 0.214884 0.377835
O O6 0.183733 0.169596 0.641561
O O7 0.944263 0.235823 0.597260
O O8 0.908330 0.340516 0.783415
O O9 0.040871 0.463779 0.773180
O O10 0.875742 0.428308 0.002072
O O11 0.127986 0.367443 0.974966
O O12 0.849378 0.081322 0.870440
O O13 0.098436 0.026993 0.939962
O O14 0.800247 0.218884 0.854626
O O15 0.218835 0.955391 0.228147
O O16 0.309076 0.943072 0.953341
#
# Coordination Sequence:
#
# PCOD9314469 Si02
#       8
#     4   4   4   4   4   4   4   4
#     4  10  21  42  64  91 132 175 221 271 348 404
#     4  11  21  43  68  96 131 181 232 279 327 425
#     4  12  24  46  66 100 144 173 224 298 342 406
#     4  11  22  44  66  98 131 178 232 273 348 416
#     4  11  25  42  67  99 135 178 221 287 347 411
#     4  11  25  43  68 100 137 184 232 277 353 405
#     4  11  21  39  66  95 130 173 229 273 350 406
#     4  11  23  39  69  97 130 180 221 288 339 411
#
# _framework density 20.831728999999999
#
# number of rings (size 3 to 8) (size 9 to 14) (size 15 to 20)
#    0.000    1.000    5.000    2.250    0.000    2.000 
#    0.000    1.250    0.000    0.000    0.000    0.000 
#    0.000    0.000    0.000    0.000    0.000    0.000 
#
# Total GULP energy -178391.254126 kJ/mol
# GULP energy per Si atom -5574.726691 kJ/mol
# Density = 2.078431 g / cm^3
# Si number density = 20.831729 Si / 1000 Ang^3
#
#
#
# Elastic Constant Matrix: (Units=GPa)
#
#
# Indices 1 2 3 4 5 6 
#
# 1 67.3469 32.3270 14.1398 0.0000 0.0000 0.0000
# 2 32.3270 80.9320 15.2061 0.0000 0.0000 0.0000
# 3 14.1398 15.2061 51.8404 0.0000 0.0000 0.0000
# 4 0.0000 0.0000 0.0000 30.4885 0.0000 0.0000
# 5 0.0000 0.0000 0.0000 0.0000 27.0751 0.0000
# 6 0.0000 0.0000 0.0000 0.0000 0.0000 33.7514
#
#
#
# Elastic Compliance Matrix: (Units=1/GPa)
#
#
# Indices 1 2 3 4 5 6 
#
# 1 0.018830 -0.006939 -0.003101 0.000000 0.000000 0.000000
# 2 -0.006939 0.015634 -0.002693 0.000000 0.000000 0.000000
# 3 -0.003101 -0.002693 0.020926 0.000000 0.000000 0.000000
# 4 0.000000 0.000000 0.000000 0.032799 0.000000 0.000000
# 5 0.000000 0.000000 0.000000 0.000000 0.036934 0.000000
# 6 0.000000 0.000000 0.000000 0.000000 0.000000 0.029628
#
#
# Mechanical properties :
#
#
# Convention : Reuss Voigt Hill
#
# Bulk Modulus (GPa) = 33.41781 35.94057 34.67919
# Shear Modulus (GPa) = 26.28928 27.49276 26.89102
#
# Velocity S-wave (km/s) = 3.55629 3.63678 3.59676
# Velocity P-wave (km/s) = 5.73930 5.90975 5.82515
#
# Compressibility (1/GPa) = 0.02992416
#
# Stress axis : x y z
#
# Youngs Moduli (GPa) = 53.10621 63.96451 47.78817
#
# Poissons Ratio (x) = 0.44384 0.14818
# Poissons Ratio (y) = 0.36850 0.12870
# Poissons Ratio (z) = 0.16467 0.17226
#
# Static dielectric constant tensor:
#      x y z
#    x 1.744200 0.000000 0.000000 
#    y 0.000000 1.800250 0.000000 
#    z 0.000000 0.000000 1.785720 
# 
# From -- ./inp_files/3112.got.cif
#   From: 2010.05.17/outbox.cif.g08.bks.cpg/sg19_2_cif.got.tgz:3112.got - 2010.06.03 22:46:19.
