data_PCOD9314414
_publ_section_title
;
Structure prediction by ZEFSAII (Michael W. Deem and Ramdas Pophale) SiO2 
 PCOD9314414
Probable space group: P 21 21 21
;
_chemical_formula_sum "Si O2"
_cell_formula_units_Z 28
_cell_length_a 7.933193
_cell_length_b 9.677691
_cell_length_c 13.785442
_cell_angle_alpha 90.000000
_cell_angle_beta 90.000000
_cell_angle_gamma 90.000000
_cell_volume 1058.377179
_symmetry_space_group_name_H-M "P 21 21 21"
_symmetry_group_IT_number 19
_symmetry_cell_setting 'orthorhombic'
loop_
_space_group_symop_operation_xyz
x,y,z
1/2-x,-y,1/2+z
1/2+x,1/2-y,-z
-x,1/2+y,1/2-z
loop_
_atom_site_type_symbol
_atom_site_label
_atom_site_fract_x
_atom_site_fract_y
_atom_site_fract_z
Si Si1 0.634403 0.100511 0.586029
Si Si2 0.373639 0.197585 0.749474
Si Si3 0.177987 0.474219 0.746574
Si Si4 0.624078 0.389258 0.957104
Si Si5 0.801405 0.429731 0.753662
Si Si6 0.128012 0.396896 0.081854
Si Si7 0.867264 0.612131 0.051803
O O1 0.481839 0.149957 0.656986
O O2 0.787861 0.065405 0.657667
O O3 0.561088 0.957759 0.543308
O O4 0.648878 0.231106 0.514144
O O5 0.320101 0.355218 0.747552
O O6 0.214061 0.096220 0.749241
O O7 0.482587 0.156416 0.843222
O O8 0.215979 0.565159 0.651228
O O9 0.997867 0.402169 0.747257
O O10 0.709850 0.379953 0.850575
O O11 0.636551 0.231215 0.992455
O O12 0.737668 0.502096 0.009495
O O13 0.694522 0.375094 0.663288
O O14 0.048409 0.538687 0.040766
#
# Coordination Sequence:
#
# PCOD9314414 Si02
#       7
#     4   4   4   4   4   4   4
#     4  10  21  41  63  90 123 177 209 256 317 379
#     4   9  18  37  63  91 123 164 213 252 309 381
#     4  11  20  36  69  95 130 166 216 258 322 374
#     4  11  24  45  66  92 133 165 218 263 317 383
#     4  10  24  39  64  98 127 166 213 266 317 371
#     4  10  21  41  63  90 123 177 209 256 317 379
#     4  11  24  45  66  92 133 165 218 263 317 383
#
# _framework density 26.455598999999999
#
# number of rings (size 3 to 8) (size 9 to 14) (size 15 to 20)
#    0.000    1.714    2.857    2.571    4.000    2.286 
#    5.143    2.857    0.000    0.000    0.000    0.000 
#    0.000    0.000    0.000    0.000    0.000    0.000 
#
# Total GULP energy -156826.114953 kJ/mol
# GULP energy per Si atom -5600.932677 kJ/mol
# Density = 2.639539 g / cm^3
# Si number density = 26.455599 Si / 1000 Ang^3
#
#
#
# Elastic Constant Matrix: (Units=GPa)
#
#
# Indices 1 2 3 4 5 6 
#
# 1 81.0530 28.3939 8.0950 0.0000 0.0000 0.0000
# 2 28.3939 169.4884 13.6814 0.0000 0.0000 0.0000
# 3 8.0950 13.6814 56.8512 0.0000 0.0000 0.0000
# 4 0.0000 0.0000 0.0000 35.1226 0.0000 0.0000
# 5 0.0000 0.0000 0.0000 0.0000 31.9083 0.0000
# 6 0.0000 0.0000 0.0000 0.0000 0.0000 46.6609
#
#
#
# Elastic Compliance Matrix: (Units=1/GPa)
#
#
# Indices 1 2 3 4 5 6 
#
# 1 0.013211 -0.002102 -0.001375 0.000000 0.000000 0.000000
# 2 -0.002102 0.006352 -0.001229 0.000000 0.000000 0.000000
# 3 -0.001375 -0.001229 0.018081 0.000000 0.000000 0.000000
# 4 0.000000 0.000000 0.000000 0.028472 0.000000 0.000000
# 5 0.000000 0.000000 0.000000 0.000000 0.031340 0.000000
# 6 0.000000 0.000000 0.000000 0.000000 0.000000 0.021431
#
#
# Mechanical properties :
#
#
# Convention : Reuss Voigt Hill
#
# Bulk Modulus (GPa) = 35.42208 45.30369 40.36289
# Shear Modulus (GPa) = 36.30798 39.88650 38.09724
#
# Velocity S-wave (km/s) = 3.70863 3.88709 3.79891
# Velocity P-wave (km/s) = 5.63532 6.10800 5.87641
#
# Compressibility (1/GPa) = 0.02823098
#
# Stress axis : x y z
#
# Youngs Moduli (GPa) = 75.69217 157.44279 55.30540
#
# Poissons Ratio (x) = 0.33098 0.07606
# Poissons Ratio (y) = 0.15912 0.06798
# Poissons Ratio (z) = 0.10410 0.19352
#
# Static dielectric constant tensor:
#      x y z
#    x 2.023900 0.000000 0.000000 
#    y 0.000000 2.176900 0.000000 
#    z 0.000000 0.000000 2.086000 
# 
# From -- ./inp_files/2951.got.cif
#   From: 2010.05.17/outbox.cif.g08.bks.cpg/sg19_2_cif.got.tgz:2951.got - 2010.06.03 22:46:19.
