data_PCOD9314450
_publ_section_title
;
Structure prediction by ZEFSAII (Michael W. Deem and Ramdas Pophale) SiO2 
 PCOD9314450
Probable space group: P 21 21 21
;
_chemical_formula_sum "Si O2"
_cell_formula_units_Z 32
_cell_length_a 12.264591
_cell_length_b 10.781243
_cell_length_c 11.965054
_cell_angle_alpha 90.000000
_cell_angle_beta 90.000000
_cell_angle_gamma 90.000000
_cell_volume 1582.109607
_symmetry_space_group_name_H-M "P 21 21 21"
_symmetry_group_IT_number 19
_symmetry_cell_setting 'orthorhombic'
loop_
_space_group_symop_operation_xyz
x,y,z
1/2-x,-y,1/2+z
1/2+x,1/2-y,-z
-x,1/2+y,1/2-z
loop_
_atom_site_type_symbol
_atom_site_label
_atom_site_fract_x
_atom_site_fract_y
_atom_site_fract_z
Si Si1 0.995866 0.803329 0.367302
Si Si2 0.319763 0.862824 0.524946
Si Si3 0.605040 0.630794 0.395443
Si Si4 0.680371 0.783831 0.189843
Si Si5 0.956183 0.414288 0.548750
Si Si6 0.209707 0.674627 0.352614
Si Si7 0.904849 0.950456 0.750010
Si Si8 0.899590 0.908423 0.158292
O O1 0.037855 0.838657 0.491834
O O2 0.106856 0.753810 0.310931
O O3 0.905609 0.696621 0.388762
O O4 0.942752 0.905654 0.286624
O O5 0.216158 0.938845 0.572371
O O6 0.263958 0.749718 0.455991
O O7 0.386261 0.959609 0.450950
O O8 0.658092 0.737122 0.316627
O O9 0.516996 0.573029 0.314453
O O10 0.613210 0.695480 0.106248
O O11 0.806380 0.801966 0.155591
O O12 0.636216 0.922478 0.198009
O O13 0.063038 0.445238 0.621597
O O14 0.000832 0.384902 0.425682
O O15 0.311270 0.650093 0.272239
O O16 0.155385 0.539905 0.374888
#
# Coordination Sequence:
#
# PCOD9314450 Si02
#       8
#     4   4   4   4   4   4   4   4
#     4  11  21  41  70  96 132 170 235 279 336 413
#     4  11  21  42  70  94 129 174 232 274 342 414
#     4  10  21  41  68  95 123 179 223 283 329 404
#     4  10  23  43  66  97 132 180 226 286 341 410
#     4  11  25  42  67  97 141 176 228 286 342 420
#     4  10  23  41  69  98 126 179 227 283 340 409
#     4  10  22  41  67  94 130 174 229 271 347 414
#     4  11  24  43  65 101 139 178 224 290 349 404
#
# _framework density 20.226158999999999
#
# number of rings (size 3 to 8) (size 9 to 14) (size 15 to 20)
#    0.000    1.500    3.750    0.750    3.500    2.000 
#   15.750    0.000    0.000    0.000    0.000    0.000 
#    0.000    0.000    0.000    0.000    0.000    0.000 
#
# Total GULP energy -178172.385425 kJ/mol
# GULP energy per Si atom -5567.887045 kJ/mol
# Density = 2.018012 g / cm^3
# Si number density = 20.226159 Si / 1000 Ang^3
#
#
#
# Elastic Constant Matrix: (Units=GPa)
#
#
# Indices 1 2 3 4 5 6 
#
# 1 86.3070 4.8317 26.6355 0.0000 0.0000 0.0000
# 2 4.8317 45.1722 21.0134 0.0000 0.0000 0.0000
# 3 26.6355 21.0134 69.6580 0.0000 0.0000 0.0000
# 4 0.0000 0.0000 0.0000 18.0172 0.0000 0.0000
# 5 0.0000 0.0000 0.0000 0.0000 23.4305 0.0000
# 6 0.0000 0.0000 0.0000 0.0000 0.0000 32.1802
#
#
#
# Elastic Compliance Matrix: (Units=1/GPa)
#
#
# Indices 1 2 3 4 5 6 
#
# 1 0.013183 0.001087 -0.005369 0.000000 0.000000 0.000000
# 2 0.001087 0.025841 -0.008211 0.000000 0.000000 0.000000
# 3 -0.005369 -0.008211 0.018886 0.000000 0.000000 0.000000
# 4 0.000000 0.000000 0.000000 0.055502 0.000000 0.000000
# 5 0.000000 0.000000 0.000000 0.000000 0.042679 0.000000
# 6 0.000000 0.000000 0.000000 0.000000 0.000000 0.031075
#
#
# Mechanical properties :
#
#
# Convention : Reuss Voigt Hill
#
# Bulk Modulus (GPa) = 30.37267 34.01094 32.19180
# Shear Modulus (GPa) = 22.40891 24.63603 23.52247
#
# Velocity S-wave (km/s) = 3.33215 3.49381 3.41394
# Velocity P-wave (km/s) = 5.46383 5.75565 5.61163
#
# Compressibility (1/GPa) = 0.03292434
#
# Stress axis : x y z
#
# Youngs Moduli (GPa) = 75.85800 38.69835 52.95006
#
# Poissons Ratio (x) = -0.04208 0.28427
# Poissons Ratio (y) = -0.08249 0.43478
# Poissons Ratio (z) = 0.40726 0.31776
#
# Static dielectric constant tensor:
#      x y z
#    x 1.739240 0.000000 0.000000 
#    y 0.000000 1.729430 0.000000 
#    z 0.000000 0.000000 1.760320 
# 
# From -- ./inp_files/5058.got.cif
#   From: 2010.05.17/outbox.cif.g08.bks.cpg/sg19_3_cif.got.tgz:5058.got - 2010.06.03 22:46:19.
