data_PCOD9314266
_publ_section_title
;
Structure prediction by ZEFSAII (Michael W. Deem and Ramdas Pophale) SiO2 
 PCOD9314266
Probable space group: P 21 21 21
;
_chemical_formula_sum "Si O2"
_cell_formula_units_Z 28
_cell_length_a 6.731167
_cell_length_b 7.660154
_cell_length_c 18.083225
_cell_angle_alpha 90.000000
_cell_angle_beta 90.000000
_cell_angle_gamma 90.000000
_cell_volume 932.403194
_symmetry_space_group_name_H-M "P 21 21 21"
_symmetry_group_IT_number 19
_symmetry_cell_setting 'orthorhombic'
loop_
_space_group_symop_operation_xyz
x,y,z
1/2-x,-y,1/2+z
1/2+x,1/2-y,-z
-x,1/2+y,1/2-z
loop_
_atom_site_type_symbol
_atom_site_label
_atom_site_fract_x
_atom_site_fract_y
_atom_site_fract_z
Si Si1 0.893996 0.921371 0.081944
Si Si2 0.790494 0.824695 0.921013
Si Si3 0.180333 0.076355 0.759194
Si Si4 0.921054 0.119977 0.867084
Si Si5 0.706371 0.564045 0.461841
Si Si6 0.860527 0.908766 0.711392
Si Si7 0.955571 0.530238 0.118532
O O1 0.016804 0.734952 0.097140
O O2 0.060959 0.059743 0.059996
O O3 0.778360 0.980920 0.154493
O O4 0.768707 0.878537 0.009023
O O5 0.853877 0.623123 0.926985
O O6 0.688662 0.021503 0.882158
O O7 0.998011 0.924612 0.896558
O O8 0.223442 0.265877 0.722348
O O9 0.917363 0.067374 0.774697
O O10 0.363816 0.984020 0.801697
O O11 0.110286 0.925537 0.701618
O O12 0.888232 0.262942 0.930951
O O13 0.139624 0.212537 0.836583
O O14 0.645657 0.547137 0.547246
#
# Coordination Sequence:
#
# PCOD9314266 Si02
#       7
#     4   4   4   4   4   4   4
#     4  10  21  38  65  93 132 169 209 276 330 397
#     4  10  22  39  63 100 131 164 212 271 342 387
#     4  10  23  41  63  91 122 179 223 266 318 391
#     4  10  24  38  68  90 126 168 212 278 316 396
#     4  10  22  39  63 100 131 164 212 271 342 387
#     4  10  23  41  63  91 122 179 223 266 318 391
#     4  10  21  38  65  93 132 169 209 276 330 397
#
# _framework density 30.029926
#
# number of rings (size 3 to 8) (size 9 to 14) (size 15 to 20)
#    0.857    1.143    0.000    2.571    4.000    4.571 
#    0.000    1.429    0.000    0.000    0.000    0.000 
#    0.000    0.000    0.000    0.000    0.000    0.000 
#
# Total GULP energy -155904.137422 kJ/mol
# GULP energy per Si atom -5568.004908 kJ/mol
# Density = 2.996158 g / cm^3
# Si number density = 30.029926 Si / 1000 Ang^3
#
#
#
# Elastic Constant Matrix: (Units=GPa)
#
#
# Indices 1 2 3 4 5 6 
#
# 1 89.4884 9.2945 54.2977 0.0000 0.0000 0.0000
# 2 9.2945 154.3120 50.0185 0.0000 0.0000 0.0000
# 3 54.2977 50.0185 115.1902 0.0000 0.0000 0.0000
# 4 0.0000 0.0000 0.0000 72.4162 0.0000 0.0000
# 5 0.0000 0.0000 0.0000 0.0000 81.5736 0.0000
# 6 0.0000 0.0000 0.0000 0.0000 0.0000 60.1407
#
#
#
# Elastic Compliance Matrix: (Units=1/GPa)
#
#
# Indices 1 2 3 4 5 6 
#
# 1 0.016037 0.001728 -0.008310 0.000000 0.000000 0.000000
# 2 0.001728 0.007728 -0.004170 0.000000 0.000000 0.000000
# 3 -0.008310 -0.004170 0.014409 0.000000 0.000000 0.000000
# 4 0.000000 0.000000 0.000000 0.013809 0.000000 0.000000
# 5 0.000000 0.000000 0.000000 0.000000 0.012259 0.000000
# 6 0.000000 0.000000 0.000000 0.000000 0.000000 0.016628
#
#
# Mechanical properties :
#
#
# Convention : Reuss Voigt Hill
#
# Bulk Modulus (GPa) = 59.98847 65.13469 62.56158
# Shear Modulus (GPa) = 46.32610 59.18477 52.75543
#
# Velocity S-wave (km/s) = 3.93194 4.44425 4.19592
# Velocity P-wave (km/s) = 6.37441 6.93341 6.65978
#
# Compressibility (1/GPa) = 0.01666987
#
# Stress axis : x y z
#
# Youngs Moduli (GPa) = 62.35529 129.39982 69.40125
#
# Poissons Ratio (x) = -0.22354 0.57670
# Poissons Ratio (y) = -0.10772 0.28940
# Poissons Ratio (z) = 0.51815 0.53960
#
# Static dielectric constant tensor:
#      x y z
#    x 2.438530 0.000000 0.000000 
#    y 0.000000 2.298110 0.000000 
#    z 0.000000 0.000000 2.264810 
# 
# From -- ./inp_files/6619.got.cif
#   From: 2010.05.17/outbox.cif.g08.bks.cpg/sg19_4_cif.got.tgz:6619.got - 2010.06.03 22:46:19.
