data_PCOD9314810
_publ_section_title
;
Structure prediction by ZEFSAII (Michael W. Deem and Ramdas Pophale) SiO2 
 PCOD9314810
Probable space group: P 21 21 21
;
_chemical_formula_sum "Si O2"
_cell_formula_units_Z 32
_cell_length_a 7.626554
_cell_length_b 13.507984
_cell_length_c 11.938478
_cell_angle_alpha 90.000000
_cell_angle_beta 90.000000
_cell_angle_gamma 90.000000
_cell_volume 1229.894475
_symmetry_space_group_name_H-M "P 21 21 21"
_symmetry_group_IT_number 19
_symmetry_cell_setting 'orthorhombic'
loop_
_space_group_symop_operation_xyz
x,y,z
1/2-x,-y,1/2+z
1/2+x,1/2-y,-z
-x,1/2+y,1/2-z
loop_
_atom_site_type_symbol
_atom_site_label
_atom_site_fract_x
_atom_site_fract_y
_atom_site_fract_z
Si Si1 0.401475 0.457704 0.773017
Si Si2 0.989528 0.349686 0.143257
Si Si3 0.900479 0.722861 0.691861
Si Si4 0.576822 0.522210 0.459443
Si Si5 0.531176 0.437202 0.025073
Si Si6 0.655609 0.880826 0.131160
Si Si7 0.466742 0.080493 0.282511
Si Si8 0.369410 0.788998 0.810268
O O1 0.502638 0.546735 0.710006
O O2 0.226113 0.522808 0.801219
O O3 0.461665 0.359949 0.703295
O O4 0.459729 0.436828 0.900618
O O5 0.800698 0.306117 0.173919
O O6 0.129178 0.272082 0.192066
O O7 0.017517 0.382938 0.015646
O O8 0.985711 0.670151 0.582696
O O9 0.009832 0.673703 0.793627
O O10 0.908840 0.837163 0.725950
O O11 0.765942 0.529886 0.514794
O O12 0.451051 0.427598 0.471991
O O13 0.610792 0.525815 0.326741
O O14 0.458991 0.518137 0.113219
O O15 0.818644 0.805262 0.109264
O O16 0.296426 0.140834 0.324834
#
# Coordination Sequence:
#
# PCOD9314810 Si02
#       8
#     4   4   4   4   4   4   4   4
#     4  11  23  43  68 101 143 186 238 296 364 419
#     4  10  24  41  69 105 141 189 235 304 359 427
#     4  10  22  42  66 102 138 178 239 288 354 430
#     4  11  22  41  69  98 141 182 234 288 365 420
#     4  11  23  43  72  97 143 185 232 299 359 425
#     4  10  23  42  68 101 144 183 234 295 353 437
#     4  11  23  41  68 103 135 186 230 299 360 430
#     4  10  22  43  64 101 143 179 236 287 350 432
#
# _framework density 26.01849
#
# number of rings (size 3 to 8) (size 9 to 14) (size 15 to 20)
#    0.000    1.500    2.500    2.250    3.500    3.000 
#    0.000   17.500    0.000    0.000    0.000    0.000 
#    0.000    0.000    0.000    0.000    0.000    0.000 
#
# Total GULP energy -178403.217913 kJ/mol
# GULP energy per Si atom -5575.100560 kJ/mol
# Density = 2.595927 g / cm^3
# Si number density = 26.018490 Si / 1000 Ang^3
#
#
#
# Elastic Constant Matrix: (Units=GPa)
#
#
# Indices 1 2 3 4 5 6 
#
# 1 49.0950 -0.7060 21.8289 0.0000 0.0000 0.0000
# 2 -0.7060 157.3734 48.1349 0.0000 0.0000 0.0000
# 3 21.8289 48.1349 79.4385 0.0000 0.0000 0.0000
# 4 0.0000 0.0000 0.0000 23.6489 0.0000 0.0000
# 5 0.0000 0.0000 0.0000 0.0000 31.1870 0.0000
# 6 0.0000 0.0000 0.0000 0.0000 0.0000 35.2434
#
#
#
# Elastic Compliance Matrix: (Units=1/GPa)
#
#
# Indices 1 2 3 4 5 6 
#
# 1 0.024049 0.002613 -0.008192 0.000000 0.000000 0.000000
# 2 0.002613 0.008084 -0.005617 0.000000 0.000000 0.000000
# 3 -0.008192 -0.005617 0.018243 0.000000 0.000000 0.000000
# 4 0.000000 0.000000 0.000000 0.042285 0.000000 0.000000
# 5 0.000000 0.000000 0.000000 0.000000 0.032065 0.000000
# 6 0.000000 0.000000 0.000000 0.000000 0.000000 0.028374
#
#
# Mechanical properties :
#
#
# Convention : Reuss Voigt Hill
#
# Bulk Modulus (GPa) = 35.73306 47.15806 41.44556
# Shear Modulus (GPa) = 27.05370 32.45913 29.75642
#
# Velocity S-wave (km/s) = 3.22807 3.53589 3.38548
# Velocity P-wave (km/s) = 5.25904 5.90205 5.58980
#
# Compressibility (1/GPa) = 0.02798529
#
# Stress axis : x y z
#
# Youngs Moduli (GPa) = 41.58250 123.70218 54.81652
#
# Poissons Ratio (x) = -0.32329 0.44905
# Poissons Ratio (y) = -0.10868 0.30788
# Poissons Ratio (z) = 0.34064 0.69478
#
# Static dielectric constant tensor:
#      x y z
#    x 2.230220 0.000000 0.000000 
#    y 0.000000 2.145000 0.000000 
#    z 0.000000 0.000000 2.080960 
# 
# From -- ./inp_files/4742.got.cif
#   From: 2010.05.17/outbox.cif.g08.bks.cpg/sg19_3_cif.got.tgz:4742.got - 2010.06.03 22:46:19.
