data_PCOD9314490
_publ_section_title
;
Structure prediction by ZEFSAII (Michael W. Deem and Ramdas Pophale) SiO2 
 PCOD9314490
Probable space group: P 21 21 21
;
_chemical_formula_sum "Si O2"
_cell_formula_units_Z 24
_cell_length_a 8.117938
_cell_length_b 16.456707
_cell_length_c 7.184143
_cell_angle_alpha 90.000000
_cell_angle_beta 90.000000
_cell_angle_gamma 90.000000
_cell_volume 959.762187
_symmetry_space_group_name_H-M "P 21 21 21"
_symmetry_group_IT_number 19
_symmetry_cell_setting 'orthorhombic'
loop_
_space_group_symop_operation_xyz
x,y,z
1/2-x,-y,1/2+z
1/2+x,1/2-y,-z
-x,1/2+y,1/2-z
loop_
_atom_site_type_symbol
_atom_site_label
_atom_site_fract_x
_atom_site_fract_y
_atom_site_fract_z
Si Si1 0.268191 0.629199 0.520638
Si Si2 0.768244 0.190912 0.362880
Si Si3 0.261750 0.102896 0.204917
Si Si4 0.034278 0.836936 0.060466
Si Si5 0.459775 0.031240 0.872873
Si Si6 0.066202 0.216598 0.922969
O O1 0.337660 0.656028 0.970025
O O2 0.345210 0.547174 0.597092
O O3 0.422065 0.694032 0.519324
O O4 0.220862 0.626470 0.302748
O O5 0.929797 0.242367 0.398167
O O6 0.391590 0.326437 0.103897
O O7 0.372460 0.142869 0.366425
O O8 0.376840 0.047326 0.073783
O O9 0.116871 0.051763 0.300489
O O10 0.177694 0.163384 0.058875
O O11 0.087629 0.902717 0.213134
O O12 0.344943 0.762787 0.230151
#
# Coordination Sequence:
#
# PCOD9314490 Si02
#       6
#     4   4   4   4   4   4
#     4  10  21  42  68  95 137 169 217 281 337 383
#     4  10  24  36  66 102 126 168 220 272 334 388
#     4  12  24  45  66  96 136 183 223 275 332 403
#     4  12  24  40  68 100 128 172 232 268 340 392
#     4  12  24  45  66  96 136 183 223 275 332 403
#     4  10  21  42  68  95 137 169 217 281 337 383
#
# _framework density 25.006194000000001
#
# number of rings (size 3 to 8) (size 9 to 14) (size 15 to 20)
#    1.000    0.000    5.000    3.000    7.000    0.000 
#    0.000    5.000    0.000    0.000    0.000    0.000 
#    0.000    0.000    0.000    0.000    0.000    0.000 
#
# Total GULP energy -134054.637706 kJ/mol
# GULP energy per Si atom -5585.609904 kJ/mol
# Density = 2.494928 g / cm^3
# Si number density = 25.006194 Si / 1000 Ang^3
#
#
#
# Elastic Constant Matrix: (Units=GPa)
#
#
# Indices 1 2 3 4 5 6 
#
# 1 66.7949 -8.8247 13.1520 0.0000 0.0000 0.0000
# 2 -8.8247 40.2913 7.8276 0.0000 0.0000 0.0000
# 3 13.1520 7.8276 85.0744 0.0000 0.0000 0.0000
# 4 0.0000 0.0000 0.0000 41.6669 0.0000 0.0000
# 5 0.0000 0.0000 0.0000 0.0000 42.9300 0.0000
# 6 0.0000 0.0000 0.0000 0.0000 0.0000 27.2734
#
#
#
# Elastic Compliance Matrix: (Units=1/GPa)
#
#
# Indices 1 2 3 4 5 6 
#
# 1 0.016073 0.004076 -0.002860 0.000000 0.000000 0.000000
# 2 0.004076 0.026305 -0.003050 0.000000 0.000000 0.000000
# 3 -0.002860 -0.003050 0.012477 0.000000 0.000000 0.000000
# 4 0.000000 0.000000 0.000000 0.024000 0.000000 0.000000
# 5 0.000000 0.000000 0.000000 0.000000 0.023294 0.000000
# 6 0.000000 0.000000 0.000000 0.000000 0.000000 0.036666
#
#
# Mechanical properties :
#
#
# Convention : Reuss Voigt Hill
#
# Bulk Modulus (GPa) = 19.53656 24.05226 21.79441
# Shear Modulus (GPa) = 31.33923 34.37444 32.85684
#
# Velocity S-wave (km/s) = 3.54398 3.71163 3.62877
# Velocity P-wave (km/s) = 4.95742 5.29223 5.12756
#
# Compressibility (1/GPa) = 0.05118609
#
# Stress axis : x y z
#
# Youngs Moduli (GPa) = 62.21691 38.01616 80.14631
#
# Poissons Ratio (x) = -0.15495 0.22920
# Poissons Ratio (y) = -0.25359 0.24448
# Poissons Ratio (z) = 0.17793 0.11596
#
# Static dielectric constant tensor:
#      x y z
#    x 2.028490 0.000000 0.000000 
#    y 0.000000 1.966080 0.000000 
#    z 0.000000 0.000000 1.989750 
# 
# From -- ./inp_files/1528.got.cif
#   From: 2010.05.17/outbox.cif.g08.bks.cpg/sg19_1_cif.got.tgz:1528.got - 2010.06.03 22:46:19.
