data_PCOD9314079
_publ_section_title
;
Structure prediction by ZEFSAII (Michael W. Deem and Ramdas Pophale) SiO2 
 PCOD9314079
Probable space group: P 21 21 21
;
_chemical_formula_sum "Si O2"
_cell_formula_units_Z 20
_cell_length_a 5.314565
_cell_length_b 12.404083
_cell_length_c 11.845161
_cell_angle_alpha 90.000000
_cell_angle_beta 90.000000
_cell_angle_gamma 90.000000
_cell_volume 780.860321
_symmetry_space_group_name_H-M "P 21 21 21"
_symmetry_group_IT_number 19
_symmetry_cell_setting 'orthorhombic'
loop_
_space_group_symop_operation_xyz
x,y,z
1/2-x,-y,1/2+z
1/2+x,1/2-y,-z
-x,1/2+y,1/2-z
loop_
_atom_site_type_symbol
_atom_site_label
_atom_site_fract_x
_atom_site_fract_y
_atom_site_fract_z
Si Si1 0.408726 0.259615 0.567978
Si Si2 0.160671 0.509765 0.031044
Si Si3 0.461319 0.876932 0.610199
Si Si4 0.822565 0.562992 0.812188
Si Si5 0.782866 0.331198 0.108765
O O1 0.700845 0.263179 0.531250
O O2 0.321552 0.380247 0.601448
O O3 0.367623 0.158001 0.649203
O O4 0.409807 0.462049 0.974884
O O5 0.007736 0.544477 0.916860
O O6 0.008054 0.418180 0.097692
O O7 0.650133 0.787245 0.653232
O O8 0.286302 0.813249 0.522141
O O9 0.309859 0.947139 0.699110
O O10 0.914238 0.610977 0.693473
#
# Coordination Sequence:
#
# PCOD9314079 Si02
#       5
#     4   4   4   4   4
#     4  10  20  41  65  96 136 173 224 292 345 402
#     4  10  22  43  64  92 136 174 222 289 336 412
#     4  11  22  45  64  96 138 169 224 285 344 414
#     4  10  24  41  65 100 129 177 232 272 349 420
#     4  11  24  42  66  98 131 181 222 282 352 418
#
# _framework density 25.612779
#
# number of rings (size 3 to 8) (size 9 to 14) (size 15 to 20)
#    0.000    1.600    4.000    0.000    2.800    1.600 
#    0.000    0.000    0.000    0.000    0.000    0.000 
#    0.000    0.000    0.000    0.000    0.000    0.000 
#
# Total GULP energy -111621.341890 kJ/mol
# GULP energy per Si atom -5581.067095 kJ/mol
# Density = 2.555448 g / cm^3
# Si number density = 25.612779 Si / 1000 Ang^3
#
#
#
# Elastic Constant Matrix: (Units=GPa)
#
#
# Indices 1 2 3 4 5 6 
#
# 1 32.6976 -0.2230 0.2230 0.0000 0.0000 0.0000
# 2 -0.2230 143.4440 23.6195 0.0000 0.0000 0.0000
# 3 0.2230 23.6195 85.4102 0.0000 0.0000 0.0000
# 4 0.0000 0.0000 0.0000 39.2866 0.0000 0.0000
# 5 0.0000 0.0000 0.0000 0.0000 13.8460 0.0000
# 6 0.0000 0.0000 0.0000 0.0000 0.0000 40.0119
#
#
#
# Elastic Compliance Matrix: (Units=1/GPa)
#
#
# Indices 1 2 3 4 5 6 
#
# 1 0.030584 0.000064 -0.000097 0.000000 0.000000 0.000000
# 2 0.000064 0.007304 -0.002020 0.000000 0.000000 0.000000
# 3 -0.000097 -0.002020 0.012267 0.000000 0.000000 0.000000
# 4 0.000000 0.000000 0.000000 0.025454 0.000000 0.000000
# 5 0.000000 0.000000 0.000000 0.000000 0.072223 0.000000
# 6 0.000000 0.000000 0.000000 0.000000 0.000000 0.024993
#
#
# Mechanical properties :
#
#
# Convention : Reuss Voigt Hill
#
# Bulk Modulus (GPa) = 21.71658 34.31008 28.01333
# Shear Modulus (GPa) = 26.00343 34.49105 30.24724
#
# Velocity S-wave (km/s) = 3.18976 3.67363 3.44021
# Velocity P-wave (km/s) = 4.69716 5.60525 5.17118
#
# Compressibility (1/GPa) = 0.04604777
#
# Stress axis : x y z
#
# Youngs Moduli (GPa) = 32.69643 136.90973 81.51895
#
# Poissons Ratio (x) = -0.00871 0.00794
# Poissons Ratio (y) = -0.00208 0.16467
# Poissons Ratio (z) = 0.00319 0.27656
#
# Static dielectric constant tensor:
#      x y z
#    x 2.085320 0.000000 0.000000 
#    y 0.000000 2.030930 0.000000 
#    z 0.000000 0.000000 2.096420 
# 
# From -- ./inp_files/5633.got.cif
#   From: 2010.05.17/outbox.cif.g08.bks.cpg/sg19_3_cif.got.tgz:5633.got - 2010.06.03 22:46:19.
