data_PCOD9314095
_publ_section_title
;
Structure prediction by ZEFSAII (Michael W. Deem and Ramdas Pophale) SiO2 
 PCOD9314095
Probable space group: P 21 21 21
;
_chemical_formula_sum "Si O2"
_cell_formula_units_Z 32
_cell_length_a 5.576931
_cell_length_b 14.245521
_cell_length_c 18.599555
_cell_angle_alpha 90.000000
_cell_angle_beta 90.000000
_cell_angle_gamma 90.000000
_cell_volume 1477.665597
_symmetry_space_group_name_H-M "P 21 21 21"
_symmetry_group_IT_number 19
_symmetry_cell_setting 'orthorhombic'
loop_
_space_group_symop_operation_xyz
x,y,z
1/2-x,-y,1/2+z
1/2+x,1/2-y,-z
-x,1/2+y,1/2-z
loop_
_atom_site_type_symbol
_atom_site_label
_atom_site_fract_x
_atom_site_fract_y
_atom_site_fract_z
Si Si1 0.477932 0.104052 0.235219
Si Si2 0.474561 0.288948 0.535139
Si Si3 0.629256 0.782242 0.668761
Si Si4 0.093492 0.033565 0.121743
Si Si5 0.496789 0.700986 0.526117
Si Si6 0.026777 0.009801 0.523275
Si Si7 0.187221 0.232020 0.311533
Si Si8 0.799080 0.067448 0.676912
O O1 0.615307 0.193926 0.202790
O O2 0.293951 0.075172 0.173563
O O3 0.349628 0.138523 0.306915
O O4 0.635740 0.009555 0.237232
O O5 0.217205 0.249626 0.506219
O O6 0.477248 0.401774 0.526474
O O7 0.523062 0.266037 0.618343
O O8 0.584330 0.878424 0.622902
O O9 0.573770 0.704560 0.609902
O O10 0.462556 0.770181 0.737959
O O11 0.193800 0.002284 0.045730
O O12 0.983095 0.945947 0.163438
O O13 0.241091 0.756468 0.512963
O O14 0.455888 0.593455 0.502641
O O15 0.905179 0.038901 0.599227
O O16 0.349614 0.325024 0.310169
#
# Coordination Sequence:
#
# PCOD9314095 Si02
#       8
#     4   4   4   4   4   4   4   4
#     4   9  21  39  66  97 132 177 236 283 353 433
#     4  12  28  49  74 104 140 196 255 303 360 431
#     4  10  22  41  65  99 142 182 230 292 363 427
#     4   9  17  38  65  93 127 178 226 281 345 434
#     4  12  25  43  74 109 144 188 238 299 366 442
#     4  11  23  41  71 101 142 185 243 302 361 431
#     4  11  24  44  69  98 145 187 235 303 357 431
#     4  10  20  41  70  99 132 193 237 281 369 429
#
# _framework density 21.655775999999999
#
# number of rings (size 3 to 8) (size 9 to 14) (size 15 to 20)
#    0.000    1.500    2.500    3.000    3.500    2.000 
#    9.000    0.000    0.000    0.000    0.000    0.000 
#    0.000    0.000    0.000    0.000    0.000    0.000 
#
# Total GULP energy -178195.103114 kJ/mol
# GULP energy per Si atom -5568.596972 kJ/mol
# Density = 2.160649 g / cm^3
# Si number density = 21.655776 Si / 1000 Ang^3
#
#
#
# Elastic Constant Matrix: (Units=GPa)
#
#
# Indices 1 2 3 4 5 6 
#
# 1 64.2270 21.5192 14.8803 0.0000 0.0000 0.0000
# 2 21.5192 128.7333 23.1758 0.0000 0.0000 0.0000
# 3 14.8803 23.1758 71.7269 0.0000 0.0000 0.0000
# 4 0.0000 0.0000 0.0000 33.5394 0.0000 0.0000
# 5 0.0000 0.0000 0.0000 0.0000 20.1518 0.0000
# 6 0.0000 0.0000 0.0000 0.0000 0.0000 20.8740
#
#
#
# Elastic Compliance Matrix: (Units=1/GPa)
#
#
# Indices 1 2 3 4 5 6 
#
# 1 0.016996 -0.002343 -0.002769 0.000000 0.000000 0.000000
# 2 -0.002343 0.008571 -0.002283 0.000000 0.000000 0.000000
# 3 -0.002769 -0.002283 0.015254 0.000000 0.000000 0.000000
# 4 0.000000 0.000000 0.000000 0.029816 0.000000 0.000000
# 5 0.000000 0.000000 0.000000 0.000000 0.049623 0.000000
# 6 0.000000 0.000000 0.000000 0.000000 0.000000 0.047906
#
#
# Mechanical properties :
#
#
# Convention : Reuss Voigt Hill
#
# Bulk Modulus (GPa) = 38.41579 42.64862 40.53221
# Shear Modulus (GPa) = 26.09151 28.58717 27.33934
#
# Velocity S-wave (km/s) = 3.47483 3.63722 3.55695
# Velocity P-wave (km/s) = 5.82040 6.11357 5.96879
#
# Compressibility (1/GPa) = 0.02603096
#
# Stress axis : x y z
#
# Youngs Moduli (GPa) = 58.83667 116.67735 65.55657
#
# Poissons Ratio (x) = 0.27333 0.18153
# Poissons Ratio (y) = 0.13783 0.14968
# Poissons Ratio (z) = 0.16292 0.26641
#
# Static dielectric constant tensor:
#      x y z
#    x 2.014910 0.000000 0.000000 
#    y 0.000000 1.868060 0.000000 
#    z 0.000000 0.000000 1.764350 
# 
# From -- ./inp_files/6450.got.cif
#   From: 2010.05.17/outbox.cif.g08.bks.cpg/sg19_4_cif.got.tgz:6450.got - 2010.06.03 22:46:19.
