data_PCOD9314661
_publ_section_title
;
Structure prediction by ZEFSAII (Michael W. Deem and Ramdas Pophale) SiO2 
 PCOD9314661
Probable space group: P 21 21 21
;
_chemical_formula_sum "Si O2"
_cell_formula_units_Z 24
_cell_length_a 21.675191
_cell_length_b 9.301440
_cell_length_c 5.458904
_cell_angle_alpha 90.000000
_cell_angle_beta 90.000000
_cell_angle_gamma 90.000000
_cell_volume 1100.572303
_symmetry_space_group_name_H-M "P 21 21 21"
_symmetry_group_IT_number 19
_symmetry_cell_setting 'orthorhombic'
loop_
_space_group_symop_operation_xyz
x,y,z
1/2-x,-y,1/2+z
1/2+x,1/2-y,-z
-x,1/2+y,1/2-z
loop_
_atom_site_type_symbol
_atom_site_label
_atom_site_fract_x
_atom_site_fract_y
_atom_site_fract_z
Si Si1 0.613696 0.397440 0.158043
Si Si2 0.897431 0.318867 0.922104
Si Si3 0.679686 0.099706 0.148776
Si Si4 0.327614 0.437365 0.851678
Si Si5 0.506424 0.776759 0.061894
Si Si6 0.024575 0.990266 0.217702
O O1 0.635153 0.541330 0.300874
O O2 0.551815 0.336612 0.290131
O O3 0.660136 0.266146 0.138539
O O4 0.587743 0.448278 0.896420
O O5 0.857684 0.217865 0.095930
O O6 0.930170 0.227115 0.709985
O O7 0.955236 0.386544 0.064726
O O8 0.753692 0.084551 0.149573
O O9 0.656305 0.016523 0.904108
O O10 0.657599 0.033060 0.407441
O O11 0.513176 0.879892 0.827880
O O12 0.493837 0.612701 0.980808
#
# Coordination Sequence:
#
# PCOD9314661 Si02
#       6
#     4   4   4   4   4   4
#     4  10  23  42  62  97 130 171 219 269 331 394
#     4  10  23  42  62  97 130 171 219 269 331 394
#     4  10  24  46  69  98 131 171 225 277 330 391
#     4  10  24  46  69  98 131 171 225 277 330 391
#     4  10  22  40  60  92 132 162 220 256 330 388
#     4  10  22  40  60  90 130 172 208 270 316 400
#
# _framework density 21.806833999999998
#
# number of rings (size 3 to 8) (size 9 to 14) (size 15 to 20)
#    0.000    2.000    0.000    1.000    9.333    6.667 
#    6.000    0.000    0.000    0.000    0.000    0.000 
#    0.000    0.000    0.000    0.000    0.000    0.000 
#
# Total GULP energy -134077.039160 kJ/mol
# GULP energy per Si atom -5586.543298 kJ/mol
# Density = 2.175720 g / cm^3
# Si number density = 21.806834 Si / 1000 Ang^3
#
#
#
# Elastic Constant Matrix: (Units=GPa)
#
#
# Indices 1 2 3 4 5 6 
#
# 1 22.3891 17.4515 13.6024 0.0000 0.0000 0.0000
# 2 17.4515 77.7201 27.1878 0.0000 0.0000 0.0000
# 3 13.6024 27.1878 91.1508 0.0000 0.0000 0.0000
# 4 0.0000 0.0000 0.0000 46.9847 0.0000 0.0000
# 5 0.0000 0.0000 0.0000 0.0000 17.5248 0.0000
# 6 0.0000 0.0000 0.0000 0.0000 0.0000 45.2421
#
#
#
# Elastic Compliance Matrix: (Units=1/GPa)
#
#
# Indices 1 2 3 4 5 6 
#
# 1 0.056237 -0.010821 -0.005165 0.000000 0.000000 0.000000
# 2 -0.010821 0.016448 -0.003291 0.000000 0.000000 0.000000
# 3 -0.005165 -0.003291 0.012723 0.000000 0.000000 0.000000
# 4 0.000000 0.000000 0.000000 0.021284 0.000000 0.000000
# 5 0.000000 0.000000 0.000000 0.000000 0.057062 0.000000
# 6 0.000000 0.000000 0.000000 0.000000 0.000000 0.022103
#
#
# Mechanical properties :
#
#
# Convention : Reuss Voigt Hill
#
# Bulk Modulus (GPa) = 21.34269 34.19370 27.76820
# Shear Modulus (GPa) = 20.83091 30.81821 25.82456
#
# Velocity S-wave (km/s) = 3.09406 3.76338 3.44501
# Velocity P-wave (km/s) = 4.75107 5.88204 5.34654
#
# Compressibility (1/GPa) = 0.04685445
#
# Stress axis : x y z
#
# Youngs Moduli (GPa) = 17.78196 60.79868 78.59667
#
# Poissons Ratio (x) = 0.65790 0.40592
# Poissons Ratio (y) = 0.19242 0.25867
# Poissons Ratio (z) = 0.09184 0.20009
#
# Static dielectric constant tensor:
#      x y z
#    x 1.762870 0.000000 0.000000 
#    y 0.000000 1.806380 0.000000 
#    z 0.000000 0.000000 1.842130 
# 
# From -- ./inp_files/499.got.cif
#   From: 2010.05.17/outbox.cif.g08.bks.cpg/sg19_1_cif.got.tgz:499.got - 2010.06.03 22:46:19.
