data_PCOD9314098
_publ_section_title
;
Structure prediction by ZEFSAII (Michael W. Deem and Ramdas Pophale) SiO2 
 PCOD9314098
Probable space group: P 21 21 21
;
_chemical_formula_sum "Si O2"
_cell_formula_units_Z 32
_cell_length_a 18.967681
_cell_length_b 14.382540
_cell_length_c 5.449730
_cell_angle_alpha 90.000000
_cell_angle_beta 90.000000
_cell_angle_gamma 90.000000
_cell_volume 1486.705040
_symmetry_space_group_name_H-M "P 21 21 21"
_symmetry_group_IT_number 19
_symmetry_cell_setting 'orthorhombic'
loop_
_space_group_symop_operation_xyz
x,y,z
1/2-x,-y,1/2+z
1/2+x,1/2-y,-z
-x,1/2+y,1/2-z
loop_
_atom_site_type_symbol
_atom_site_label
_atom_site_fract_x
_atom_site_fract_y
_atom_site_fract_z
Si Si1 0.211131 0.473919 0.734466
Si Si2 0.008157 0.062691 0.176510
Si Si3 0.668631 0.737896 0.731816
Si Si4 0.674379 0.238971 0.160944
Si Si5 0.948801 0.228585 0.857923
Si Si6 0.611712 0.903758 0.001030
Si Si7 0.589042 0.277314 0.658372
Si Si8 0.036041 0.859132 0.018714
O O1 0.237700 0.489355 0.456402
O O2 0.189579 0.370779 0.811365
O O3 0.142953 0.538310 0.778749
O O4 0.066694 0.113306 0.341317
O O5 0.935521 0.038474 0.316315
O O6 0.030566 0.969053 0.046729
O O7 0.990720 0.154124 0.014735
O O8 0.749017 0.711181 0.686613
O O9 0.626937 0.756159 0.479990
O O10 0.668537 0.839068 0.865733
O O11 0.613956 0.671638 0.880211
O O12 0.627961 0.263097 0.398674
O O13 0.637500 0.259385 0.899441
O O14 0.940535 0.173277 0.605629
O O15 0.974938 0.327797 0.764893
O O16 0.525160 0.199735 0.660499
#
# Coordination Sequence:
#
# PCOD9314098 Si02
#       8
#     4   4   4   4   4   4   4   4
#     4  12  24  39  64 104 140 187 235 279 369 449
#     4  11  24  44  68 103 138 188 242 312 343 436
#     4  10  22  44  66  97 136 191 233 290 351 444
#     4  12  27  43  68 100 156 184 229 308 366 418
#     4  10  20  41  71  99 138 180 251 293 353 428
#     4  10  21  38  66  93 143 179 235 287 356 428
#     4  12  26  47  67 109 144 184 238 307 362 420
#     4  11  24  44  74 101 139 193 249 290 370 423
#
# _framework density 21.524108999999999
#
# number of rings (size 3 to 8) (size 9 to 14) (size 15 to 20)
#    0.000    1.000    5.000    3.000    7.000    1.000 
#    0.000    1.250    0.000    0.000    0.000    0.000 
#    0.000    0.000    0.000    0.000    0.000    0.000 
#
# Total GULP energy -178386.262355 kJ/mol
# GULP energy per Si atom -5574.570699 kJ/mol
# Density = 2.147512 g / cm^3
# Si number density = 21.524109 Si / 1000 Ang^3
#
#
#
# Elastic Constant Matrix: (Units=GPa)
#
#
# Indices 1 2 3 4 5 6 
#
# 1 80.2970 28.8281 19.8370 0.0000 0.0000 0.0000
# 2 28.8281 97.7563 17.1512 0.0000 0.0000 0.0000
# 3 19.8370 17.1512 83.0444 0.0000 0.0000 0.0000
# 4 0.0000 0.0000 0.0000 24.1418 0.0000 0.0000
# 5 0.0000 0.0000 0.0000 0.0000 34.2587 0.0000
# 6 0.0000 0.0000 0.0000 0.0000 0.0000 24.6295
#
#
#
# Elastic Compliance Matrix: (Units=1/GPa)
#
#
# Indices 1 2 3 4 5 6 
#
# 1 0.014479 -0.003801 -0.002674 0.000000 0.000000 0.000000
# 2 -0.003801 0.011612 -0.001490 0.000000 0.000000 0.000000
# 3 -0.002674 -0.001490 0.012988 0.000000 0.000000 0.000000
# 4 0.000000 0.000000 0.000000 0.041422 0.000000 0.000000
# 5 0.000000 0.000000 0.000000 0.000000 0.029190 0.000000
# 6 0.000000 0.000000 0.000000 0.000000 0.000000 0.040602
#
#
# Mechanical properties :
#
#
# Convention : Reuss Voigt Hill
#
# Bulk Modulus (GPa) = 43.19737 43.63670 43.41704
# Shear Modulus (GPa) = 28.74588 29.62474 29.18531
#
# Velocity S-wave (km/s) = 3.65844 3.71395 3.68630
# Velocity P-wave (km/s) = 6.16104 6.22162 6.19141
#
# Compressibility (1/GPa) = 0.02314956
#
# Stress axis : x y z
#
# Youngs Moduli (GPa) = 69.06658 86.11932 76.99297
#
# Poissons Ratio (x) = 0.32731 0.20585
# Poissons Ratio (y) = 0.26250 0.11474
# Poissons Ratio (z) = 0.18466 0.12835
#
# Static dielectric constant tensor:
#      x y z
#    x 1.878610 0.000000 0.000000 
#    y 0.000000 1.783530 0.000000 
#    z 0.000000 0.000000 1.858800 
# 
# From -- ./inp_files/1816.got.cif
#   From: 2010.05.17/outbox.cif.g08.bks.cpg/sg19_1_cif.got.tgz:1816.got - 2010.06.03 22:46:19.
