data_PCOD9314860
_publ_section_title
;
Structure prediction by ZEFSAII (Michael W. Deem and Ramdas Pophale) SiO2 
 PCOD9314860
Probable space group: P 21 21 21
;
_chemical_formula_sum "Si O2"
_cell_formula_units_Z 20
_cell_length_a 11.113465
_cell_length_b 4.905288
_cell_length_c 15.080545
_cell_angle_alpha 90.000000
_cell_angle_beta 90.000000
_cell_angle_gamma 90.000000
_cell_volume 822.112088
_symmetry_space_group_name_H-M "P 21 21 21"
_symmetry_group_IT_number 19
_symmetry_cell_setting 'orthorhombic'
loop_
_space_group_symop_operation_xyz
x,y,z
1/2-x,-y,1/2+z
1/2+x,1/2-y,-z
-x,1/2+y,1/2-z
loop_
_atom_site_type_symbol
_atom_site_label
_atom_site_fract_x
_atom_site_fract_y
_atom_site_fract_z
Si Si1 0.247663 0.044667 0.807259
Si Si2 0.497000 0.241237 0.881173
Si Si3 0.446677 0.341794 0.302456
Si Si4 0.849166 0.273757 0.364640
Si Si5 0.081438 0.998797 0.957829
O O1 0.378352 0.103688 0.845436
O O2 0.196626 0.734747 0.800821
O O3 0.249287 0.165885 0.708327
O O4 0.159356 0.156738 0.884634
O O5 0.536887 0.528913 0.838278
O O6 0.607085 0.034230 0.867060
O O7 0.491534 0.318140 0.985325
O O8 0.501789 0.117741 0.234873
O O9 0.480690 0.240779 0.401317
O O10 0.831612 0.372498 0.466004
#
# Coordination Sequence:
#
# PCOD9314860 Si02
#       5
#     4   4   4   4   4
#     4  10  22  44  70  96 132 181 212 274 340 382
#     4  10  22  43  64  95 133 166 227 269 318 401
#     4  10  24  42  63  93 132 167 217 266 326 389
#     4  10  22  43  64  98 130 173 223 271 321 401
#     4   8  24  42  63  98 131 169 223 264 331 385
#
# _framework density 24.327584000000002
#
# number of rings (size 3 to 8) (size 9 to 14) (size 15 to 20)
#    2.400    0.000    0.000    1.200    2.800    4.800 
#   10.800    0.000    0.000    0.000    0.000    0.000 
#    0.000    0.000    0.000    0.000    0.000    0.000 
#
# Total GULP energy -111383.764903 kJ/mol
# GULP energy per Si atom -5569.188245 kJ/mol
# Density = 2.427221 g / cm^3
# Si number density = 24.327584 Si / 1000 Ang^3
#
#
#
# Elastic Constant Matrix: (Units=GPa)
#
#
# Indices 1 2 3 4 5 6 
#
# 1 52.2182 3.7260 37.9539 0.0000 0.0000 0.0000
# 2 3.7260 71.0879 6.5690 0.0000 0.0000 0.0000
# 3 37.9539 6.5690 180.6571 0.0000 0.0000 0.0000
# 4 0.0000 0.0000 0.0000 28.4121 0.0000 0.0000
# 5 0.0000 0.0000 0.0000 0.0000 43.1044 0.0000
# 6 0.0000 0.0000 0.0000 0.0000 0.0000 29.0418
#
#
#
# Elastic Compliance Matrix: (Units=1/GPa)
#
#
# Indices 1 2 3 4 5 6 
#
# 1 0.022641 -0.000750 -0.004729 0.000000 0.000000 0.000000
# 2 -0.000750 0.014139 -0.000357 0.000000 0.000000 0.000000
# 3 -0.004729 -0.000357 0.006542 0.000000 0.000000 0.000000
# 4 0.000000 0.000000 0.000000 0.035196 0.000000 0.000000
# 5 0.000000 0.000000 0.000000 0.000000 0.023199 0.000000
# 6 0.000000 0.000000 0.000000 0.000000 0.000000 0.034433
#
#
# Mechanical properties :
#
#
# Convention : Reuss Voigt Hill
#
# Bulk Modulus (GPa) = 31.59442 44.49565 38.04504
# Shear Modulus (GPa) = 31.57096 37.15929 34.36512
#
# Velocity S-wave (km/s) = 3.60633 3.91251 3.76253
# Velocity P-wave (km/s) = 5.50964 6.22416 5.87777
#
# Compressibility (1/GPa) = 0.03165115
#
# Stress axis : x y z
#
# Youngs Moduli (GPa) = 44.16689 70.72469 152.86052
#
# Poissons Ratio (x) = 0.05302 0.72294
# Poissons Ratio (y) = 0.03311 0.05451
# Poissons Ratio (z) = 0.20888 0.02522
#
# Static dielectric constant tensor:
#      x y z
#    x 2.009180 0.000000 0.000000 
#    y 0.000000 2.011620 0.000000 
#    z 0.000000 0.000000 1.975000 
# 
# From -- ./inp_files/5322.got.cif
#   From: 2010.05.17/outbox.cif.g08.bks.cpg/sg19_3_cif.got.tgz:5322.got - 2010.06.03 22:46:19.
