data_PCOD9314122
_publ_section_title
;
Structure prediction by ZEFSAII (Michael W. Deem and Ramdas Pophale) SiO2 
 PCOD9314122
Probable space group: P 21 21 21
;
_chemical_formula_sum "Si O2"
_cell_formula_units_Z 16
_cell_length_a 5.003566
_cell_length_b 12.390569
_cell_length_c 10.220393
_cell_angle_alpha 90.000000
_cell_angle_beta 90.000000
_cell_angle_gamma 90.000000
_cell_volume 633.634009
_symmetry_space_group_name_H-M "P 21 21 21"
_symmetry_group_IT_number 19
_symmetry_cell_setting 'orthorhombic'
loop_
_space_group_symop_operation_xyz
x,y,z
1/2-x,-y,1/2+z
1/2+x,1/2-y,-z
-x,1/2+y,1/2-z
loop_
_atom_site_type_symbol
_atom_site_label
_atom_site_fract_x
_atom_site_fract_y
_atom_site_fract_z
Si Si1 0.598951 0.786172 0.689961
Si Si2 0.237225 0.723764 0.921040
Si Si3 0.638826 0.020367 0.062773
Si Si4 0.877456 0.613140 0.554291
O O1 0.393392 0.786306 0.807714
O O2 0.788034 0.890161 0.672266
O O3 0.767214 0.675926 0.679130
O O4 0.423359 0.794123 0.556499
O O5 0.200102 0.598457 0.889192
O O6 0.448571 0.730756 0.040856
O O7 0.343685 0.034587 0.007140
O O8 0.843868 0.051257 0.945219
#
# Coordination Sequence:
#
# PCOD9314122 Si02
#       4
#     4   4   4   4
#     4  10  23  44  70  98 128 174 228 273 316 399
#     4  12  29  44  63 100 146 174 210 273 344 403
#     4  10  22  42  68 100 126 176 217 272 338 370
#     4  10  20  42  71  98 120 166 239 272 308 380
#
# _framework density 25.251170999999999
#
# number of rings (size 3 to 8) (size 9 to 14) (size 15 to 20)
#    1.500    0.000    2.500    1.500    3.500    4.000 
#    0.000    0.000    0.000    0.000    0.000    0.000 
#    0.000    0.000    0.000    0.000    0.000    0.000 
#
# Total GULP energy -89531.579320 kJ/mol
# GULP energy per Si atom -5595.723707 kJ/mol
# Density = 2.519370 g / cm^3
# Si number density = 25.251171 Si / 1000 Ang^3
#
#
#
# Elastic Constant Matrix: (Units=GPa)
#
#
# Indices 1 2 3 4 5 6 
#
# 1 112.9933 5.4507 5.7257 0.0000 0.0000 0.0000
# 2 5.4507 69.6803 7.9588 0.0000 0.0000 0.0000
# 3 5.7257 7.9588 60.9280 0.0000 0.0000 0.0000
# 4 0.0000 0.0000 0.0000 22.8036 0.0000 0.0000
# 5 0.0000 0.0000 0.0000 0.0000 30.7092 0.0000
# 6 0.0000 0.0000 0.0000 0.0000 0.0000 27.8791
#
#
#
# Elastic Compliance Matrix: (Units=1/GPa)
#
#
# Indices 1 2 3 4 5 6 
#
# 1 0.008918 -0.000611 -0.000758 0.000000 0.000000 0.000000
# 2 -0.000611 0.014610 -0.001851 0.000000 0.000000 0.000000
# 3 -0.000758 -0.001851 0.016726 0.000000 0.000000 0.000000
# 4 0.000000 0.000000 0.000000 0.043853 0.000000 0.000000
# 5 0.000000 0.000000 0.000000 0.000000 0.032564 0.000000
# 6 0.000000 0.000000 0.000000 0.000000 0.000000 0.035869
#
#
# Mechanical properties :
#
#
# Convention : Reuss Voigt Hill
#
# Bulk Modulus (GPa) = 29.57388 31.31913 30.44650
# Shear Modulus (GPa) = 29.36828 31.24280 30.30554
#
# Velocity S-wave (km/s) = 3.41405 3.52132 3.46810
# Velocity P-wave (km/s) = 5.22286 5.38172 5.30288
#
# Compressibility (1/GPa) = 0.03381362
#
# Stress axis : x y z
#
# Youngs Moduli (GPa) = 112.13307 68.44405 59.78765
#
# Poissons Ratio (x) = 0.04182 0.04533
# Poissons Ratio (y) = 0.06851 0.11067
# Poissons Ratio (z) = 0.08503 0.12670
#
# Static dielectric constant tensor:
#      x y z
#    x 1.974530 0.000000 0.000000 
#    y 0.000000 1.966310 0.000000 
#    z 0.000000 0.000000 2.070460 
# 
# From -- ./inp_files/761.got.cif
#   From: 2010.05.17/outbox.cif.g08.bks.cpg/sg19_1_cif.got.tgz:761.got - 2010.06.03 22:46:19.
