data_PCOD9314364
_publ_section_title
;
Structure prediction by ZEFSAII (Michael W. Deem and Ramdas Pophale) SiO2 
 PCOD9314364
Probable space group: P 21 21 21
;
_chemical_formula_sum "Si O2"
_cell_formula_units_Z 32
_cell_length_a 18.788143
_cell_length_b 12.737218
_cell_length_c 5.184832
_cell_angle_alpha 90.000000
_cell_angle_beta 90.000000
_cell_angle_gamma 90.000000
_cell_volume 1240.775267
_symmetry_space_group_name_H-M "P 21 21 21"
_symmetry_group_IT_number 19
_symmetry_cell_setting 'orthorhombic'
loop_
_space_group_symop_operation_xyz
x,y,z
1/2-x,-y,1/2+z
1/2+x,1/2-y,-z
-x,1/2+y,1/2-z
loop_
_atom_site_type_symbol
_atom_site_label
_atom_site_fract_x
_atom_site_fract_y
_atom_site_fract_z
Si Si1 0.129503 0.694198 0.428924
Si Si2 0.964327 0.156750 0.572344
Si Si3 0.198153 0.888547 0.644346
Si Si4 0.924058 0.943523 0.454592
Si Si5 0.719075 0.240767 0.518795
Si Si6 0.575946 0.272687 0.800714
Si Si7 0.156932 0.092347 0.875435
Si Si8 0.670044 0.022446 0.449609
O O1 0.094833 0.677233 0.150836
O O2 0.163977 0.808267 0.443608
O O3 0.185113 0.600600 0.503612
O O4 0.069592 0.682383 0.652741
O O5 0.032938 0.215098 0.462266
O O6 0.978710 0.032998 0.535950
O O7 0.274942 0.932842 0.556567
O O8 0.215660 0.809288 0.879679
O O9 0.150157 0.988204 0.706357
O O10 0.953328 0.826319 0.455324
O O11 0.862810 0.958323 0.668520
O O12 0.891263 0.959769 0.168254
O O13 0.657964 0.247175 0.736933
O O14 0.727297 0.115843 0.480229
O O15 0.683001 0.306282 0.287193
O O16 0.585949 0.376803 0.970307
#
# Coordination Sequence:
#
# PCOD9314364 Si02
#       8
#     4   4   4   4   4   4   4   4
#     4  10  24  43  63  93 133 167 207 278 329 387
#     4  10  23  41  64  93 129 166 216 269 330 380
#     4  11  24  41  63  97 131 173 216 274 332 381
#     4   9  18  36  59  84 123 157 197 264 306 373
#     4  10  21  40  64  88 125 166 212 270 315 389
#     4  10  22  38  64  92 121 171 225 257 329 392
#     4  11  22  40  64  89 131 171 217 268 321 394
#     4   9  18  39  61  86 117 159 204 250 322 372
#
# _framework density 25.790329
#
# number of rings (size 3 to 8) (size 9 to 14) (size 15 to 20)
#    0.000    2.000    2.500    0.000    3.500    1.000 
#    4.500    0.000    0.000    0.000    0.000    0.000 
#    0.000    0.000    0.000    0.000    0.000    0.000 
#
# Total GULP energy -178953.717351 kJ/mol
# GULP energy per Si atom -5592.303667 kJ/mol
# Density = 2.573163 g / cm^3
# Si number density = 25.790329 Si / 1000 Ang^3
#
#
#
# Elastic Constant Matrix: (Units=GPa)
#
#
# Indices 1 2 3 4 5 6 
#
# 1 53.8663 36.5308 23.7664 0.0000 0.0000 0.0000
# 2 36.5308 128.0176 14.6255 0.0000 0.0000 0.0000
# 3 23.7664 14.6255 99.1458 0.0000 0.0000 0.0000
# 4 0.0000 0.0000 0.0000 32.8489 0.0000 0.0000
# 5 0.0000 0.0000 0.0000 0.0000 47.6202 0.0000
# 6 0.0000 0.0000 0.0000 0.0000 0.0000 25.7220
#
#
#
# Elastic Compliance Matrix: (Units=1/GPa)
#
#
# Indices 1 2 3 4 5 6 
#
# 1 0.025314 -0.006642 -0.005088 0.000000 0.000000 0.000000
# 2 -0.006642 0.009688 0.000163 0.000000 0.000000 0.000000
# 3 -0.005088 0.000163 0.011282 0.000000 0.000000 0.000000
# 4 0.000000 0.000000 0.000000 0.030442 0.000000 0.000000
# 5 0.000000 0.000000 0.000000 0.000000 0.020999 0.000000
# 6 0.000000 0.000000 0.000000 0.000000 0.000000 0.038877
#
#
# Mechanical properties :
#
#
# Convention : Reuss Voigt Hill
#
# Bulk Modulus (GPa) = 43.19796 47.87502 45.53649
# Shear Modulus (GPa) = 29.85885 34.97870 32.41877
#
# Velocity S-wave (km/s) = 3.40627 3.68675 3.54928
# Velocity P-wave (km/s) = 5.67946 6.06023 5.87293
#
# Compressibility (1/GPa) = 0.02314924
#
# Stress axis : x y z
#
# Youngs Moduli (GPa) = 39.50364 103.21814 88.63822
#
# Poissons Ratio (x) = 0.68560 0.45101
# Poissons Ratio (y) = 0.26239 -0.01445
# Poissons Ratio (z) = 0.20100 -0.01683
#
# Static dielectric constant tensor:
#      x y z
#    x 2.049030 0.000000 0.000000 
#    y 0.000000 2.089700 0.000000 
#    z 0.000000 0.000000 2.069950 
# 
# From -- ./inp_files/1308.got.cif
#   From: 2010.05.17/outbox.cif.g08.bks.cpg/sg19_1_cif.got.tgz:1308.got - 2010.06.03 22:46:19.
