data_PCOD9314020
_publ_section_title
;
Structure prediction by ZEFSAII (Michael W. Deem and Ramdas Pophale) SiO2 
 PCOD9314020
Probable space group: P 21 21 21
;
_chemical_formula_sum "Si O2"
_cell_formula_units_Z 28
_cell_length_a 27.285298
_cell_length_b 7.911843
_cell_length_c 5.671753
_cell_angle_alpha 90.000000
_cell_angle_beta 90.000000
_cell_angle_gamma 90.000000
_cell_volume 1224.400988
_symmetry_space_group_name_H-M "P 21 21 21"
_symmetry_group_IT_number 19
_symmetry_cell_setting 'orthorhombic'
loop_
_space_group_symop_operation_xyz
x,y,z
1/2-x,-y,1/2+z
1/2+x,1/2-y,-z
-x,1/2+y,1/2-z
loop_
_atom_site_type_symbol
_atom_site_label
_atom_site_fract_x
_atom_site_fract_y
_atom_site_fract_z
Si Si1 0.436557 0.284640 0.503243
Si Si2 0.500232 0.570105 0.706015
Si Si3 0.094707 0.494054 0.631867
Si Si4 0.841665 0.800874 0.485571
Si Si5 0.752031 0.599255 0.688809
Si Si6 0.162643 0.646448 0.245793
Si Si7 0.571732 0.315552 0.698182
O O1 0.459037 0.426043 0.679335
O O2 0.470298 0.124810 0.556490
O O3 0.440918 0.369572 0.249459
O O4 0.379399 0.271673 0.575351
O O5 0.547685 0.481150 0.583299
O O6 0.469826 0.735840 0.626049
O O7 0.134110 0.599431 0.483795
O O8 0.073841 0.338783 0.484266
O O9 0.121463 0.397343 0.843146
O O10 0.801800 0.699396 0.630187
O O11 0.875248 0.681189 0.318726
O O12 0.819658 0.961153 0.344076
O O13 0.743350 0.493469 0.444242
O O14 0.707041 0.728080 0.717913
#
# Coordination Sequence:
#
# PCOD9314020 Si02
#       7
#     4   4   4   4   4   4   4
#     4  10  21  42  63  98 139 182 229 291 346 429
#     4  10  20  40  61  94 146 175 228 286 352 420
#     4  10  20  42  69  96 128 187 240 278 358 424
#     4  10  24  45  72  96 139 185 238 290 361 433
#     4  12  32  48  74 112 148 180 246 308 378 430
#     4  10  24  45  72  96 139 185 238 290 361 433
#     4  10  21  42  63  98 139 182 229 291 346 429
#
# _framework density 22.868323
#
# number of rings (size 3 to 8) (size 9 to 14) (size 15 to 20)
#    0.000    1.714    4.286    0.000   12.000    0.000 
#   10.286    0.000    0.000    0.000    0.000    0.000 
#    0.000    0.000    0.000    0.000    0.000    0.000 
#
# Total GULP energy -155895.802364 kJ/mol
# GULP energy per Si atom -5567.707227 kJ/mol
# Density = 2.281627 g / cm^3
# Si number density = 22.868323 Si / 1000 Ang^3
#
#
#
# Elastic Constant Matrix: (Units=GPa)
#
#
# Indices 1 2 3 4 5 6 
#
# 1 69.6140 10.6687 -2.7004 0.0000 0.0000 0.0000
# 2 10.6687 53.0869 13.1878 0.0000 0.0000 0.0000
# 3 -2.7004 13.1878 65.4558 0.0000 0.0000 0.0000
# 4 0.0000 0.0000 0.0000 21.3039 0.0000 0.0000
# 5 0.0000 0.0000 0.0000 0.0000 17.8984 0.0000
# 6 0.0000 0.0000 0.0000 0.0000 0.0000 52.3817
#
#
#
# Elastic Compliance Matrix: (Units=1/GPa)
#
#
# Indices 1 2 3 4 5 6 
#
# 1 0.014923 -0.003318 0.001284 0.000000 0.000000 0.000000
# 2 -0.003318 0.020567 -0.004281 0.000000 0.000000 0.000000
# 3 0.001284 -0.004281 0.016193 0.000000 0.000000 0.000000
# 4 0.000000 0.000000 0.000000 0.046940 0.000000 0.000000
# 5 0.000000 0.000000 0.000000 0.000000 0.055871 0.000000
# 6 0.000000 0.000000 0.000000 0.000000 0.000000 0.019091
#
#
# Mechanical properties :
#
#
# Convention : Reuss Voigt Hill
#
# Bulk Modulus (GPa) = 25.60542 25.60765 25.60653
# Shear Modulus (GPa) = 25.09636 29.45017 27.27326
#
# Velocity S-wave (km/s) = 3.31634 3.59251 3.45718
# Velocity P-wave (km/s) = 5.08777 5.33201 5.21132
#
# Compressibility (1/GPa) = 0.03905423
#
# Stress axis : x y z
#
# Youngs Moduli (GPa) = 67.00950 48.62097 61.75533
#
# Poissons Ratio (x) = 0.16133 -0.07930
# Poissons Ratio (y) = 0.22234 0.26436
# Poissons Ratio (z) = -0.08605 0.20813
#
# Static dielectric constant tensor:
#      x y z
#    x 1.873750 0.000000 0.000000 
#    y 0.000000 1.904940 0.000000 
#    z 0.000000 0.000000 1.981620 
# 
# From -- ./inp_files/2255.got.cif
#   From: 2010.05.17/outbox.cif.g08.bks.cpg/sg19_2_cif.got.tgz:2255.got - 2010.06.03 22:46:19.
