data_PCOD9314168
_publ_section_title
;
Structure prediction by ZEFSAII (Michael W. Deem and Ramdas Pophale) SiO2 
 PCOD9314168
Probable space group: P 21 21 21
;
_chemical_formula_sum "Si O2"
_cell_formula_units_Z 32
_cell_length_a 5.463914
_cell_length_b 16.651682
_cell_length_c 17.003218
_cell_angle_alpha 90.000000
_cell_angle_beta 90.000000
_cell_angle_gamma 90.000000
_cell_volume 1547.009877
_symmetry_space_group_name_H-M "P 21 21 21"
_symmetry_group_IT_number 19
_symmetry_cell_setting 'orthorhombic'
loop_
_space_group_symop_operation_xyz
x,y,z
1/2-x,-y,1/2+z
1/2+x,1/2-y,-z
-x,1/2+y,1/2-z
loop_
_atom_site_type_symbol
_atom_site_label
_atom_site_fract_x
_atom_site_fract_y
_atom_site_fract_z
Si Si1 0.608868 0.154953 0.844658
Si Si2 0.501692 0.874672 0.456302
Si Si3 0.963182 0.868455 0.715597
Si Si4 0.038765 0.534311 0.884257
Si Si5 0.221979 0.723435 0.416958
Si Si6 0.618025 0.504836 0.557904
Si Si7 0.957794 0.590616 0.211309
Si Si8 0.037884 0.923333 0.189304
O O1 0.886993 0.137104 0.869270
O O2 0.518536 0.240685 0.875541
O O3 0.484614 0.083495 0.896544
O O4 0.523487 0.141660 0.756345
O O5 0.318687 0.799229 0.465954
O O6 0.684605 0.852414 0.526598
O O7 0.388844 0.962257 0.462798
O O8 0.906867 0.801608 0.650996
O O9 0.725537 0.872593 0.772576
O O10 0.222925 0.860185 0.758250
O O11 0.968274 0.952130 0.666808
O O12 0.799969 0.583367 0.853225
O O13 0.302014 0.573155 0.866930
O O14 0.005700 0.515950 0.975994
O O15 0.591326 0.434958 0.621552
O O16 0.957066 0.508094 0.262791
#
# Coordination Sequence:
#
# PCOD9314168 Si02
#       8
#     4   4   4   4   4   4   4   4
#     4  10  22  37  55  77 122 157 192 229 278 347
#     4  11  23  35  52  83 121 157 193 221 278 351
#     4  10  22  36  56  80 115 151 193 232 274 342
#     4  10  21  35  57  84 111 148 190 238 287 335
#     4  11  23  35  53  83 117 160 192 225 276 343
#     4  10  23  35  58  83 115 154 187 241 293 337
#     4   9  21  37  55  80 111 150 191 235 285 334
#     4   9  21  36  54  80 112 151 192 231 281 335
#
# _framework density 20.685064000000001
#
# number of rings (size 3 to 8) (size 9 to 14) (size 15 to 20)
#    0.000    2.000    1.250    0.750   21.000    0.000 
#    0.000    0.000    0.000    0.000    0.000    3.500 
#    0.000    0.000    0.000    0.000    0.000    0.000 
#
# Total GULP energy -178485.552886 kJ/mol
# GULP energy per Si atom -5577.673528 kJ/mol
# Density = 2.063798 g / cm^3
# Si number density = 20.685064 Si / 1000 Ang^3
#
#
#
# Elastic Constant Matrix: (Units=GPa)
#
#
# Indices 1 2 3 4 5 6 
#
# 1 116.9635 21.9809 63.3657 0.0000 0.0000 0.0000
# 2 21.9809 24.1952 30.3592 0.0000 0.0000 0.0000
# 3 63.3657 30.3592 133.5401 0.0000 0.0000 0.0000
# 4 0.0000 0.0000 0.0000 28.8265 0.0000 0.0000
# 5 0.0000 0.0000 0.0000 0.0000 27.6451 0.0000
# 6 0.0000 0.0000 0.0000 0.0000 0.0000 17.7634
#
#
#
# Elastic Compliance Matrix: (Units=1/GPa)
#
#
# Indices 1 2 3 4 5 6 
#
# 1 0.011965 -0.005241 -0.004486 0.000000 0.000000 0.000000
# 2 -0.005241 0.060122 -0.011181 0.000000 0.000000 0.000000
# 3 -0.004486 -0.011181 0.012159 0.000000 0.000000 0.000000
# 4 0.000000 0.000000 0.000000 0.034690 0.000000 0.000000
# 5 0.000000 0.000000 0.000000 0.000000 0.036173 0.000000
# 6 0.000000 0.000000 0.000000 0.000000 0.000000 0.056295
#
#
# Mechanical properties :
#
#
# Convention : Reuss Voigt Hill
#
# Bulk Modulus (GPa) = 23.56878 56.23447 39.90162
# Shear Modulus (GPa) = 18.70115 25.44655 22.07385
#
# Velocity S-wave (km/s) = 3.01007 3.51121 3.27025
# Velocity P-wave (km/s) = 4.84763 6.60933 5.79581
#
# Compressibility (1/GPa) = 0.04242901
#
# Stress axis : x y z
#
# Youngs Moduli (GPa) = 83.57772 16.63296 82.24412
#
# Poissons Ratio (x) = 0.08718 0.36894
# Poissons Ratio (y) = 0.43804 0.91958
# Poissons Ratio (z) = 0.37492 0.18598
#
# Static dielectric constant tensor:
#      x y z
#    x 1.937190 0.000000 0.000000 
#    y 0.000000 1.737520 0.000000 
#    z 0.000000 0.000000 1.750250 
# 
# From -- ./inp_files/1827.got.cif
#   From: 2010.05.17/outbox.cif.g08.bks.cpg/sg19_1_cif.got.tgz:1827.got - 2010.06.03 22:46:19.
