data_PCOD9314765
_publ_section_title
;
Structure prediction by ZEFSAII (Michael W. Deem and Ramdas Pophale) SiO2 
 PCOD9314765
Probable space group: P 21 21 21
;
_chemical_formula_sum "Si O2"
_cell_formula_units_Z 28
_cell_length_a 5.333677
_cell_length_b 25.165666
_cell_length_c 9.105913
_cell_angle_alpha 90.000000
_cell_angle_beta 90.000000
_cell_angle_gamma 90.000000
_cell_volume 1222.246034
_symmetry_space_group_name_H-M "P 21 21 21"
_symmetry_group_IT_number 19
_symmetry_cell_setting 'orthorhombic'
loop_
_space_group_symop_operation_xyz
x,y,z
1/2-x,-y,1/2+z
1/2+x,1/2-y,-z
-x,1/2+y,1/2-z
loop_
_atom_site_type_symbol
_atom_site_label
_atom_site_fract_x
_atom_site_fract_y
_atom_site_fract_z
Si Si1 0.116431 0.793098 0.790184
Si Si2 0.014888 0.025250 0.122602
Si Si3 0.493228 0.696929 0.878586
Si Si4 0.892733 0.703730 0.654589
Si Si5 0.021778 0.505211 0.705441
Si Si6 0.775148 0.884728 0.328055
Si Si7 0.823778 0.374562 0.939924
O O1 0.343853 0.749355 0.813825
O O2 0.942428 0.765066 0.667983
O O3 0.155761 0.851311 0.723702
O O4 0.990076 0.798292 0.948031
O O5 0.989203 0.993380 0.969008
O O6 0.095969 0.084353 0.072599
O O7 0.254533 0.005666 0.218005
O O8 0.756913 0.023126 0.214026
O O9 0.394467 0.640487 0.818789
O O10 0.775710 0.694502 0.815729
O O11 0.131183 0.667976 0.620836
O O12 0.711590 0.678516 0.537293
O O13 0.095615 0.567398 0.715935
O O14 0.963581 0.902436 0.458362
#
# Coordination Sequence:
#
# PCOD9314765 Si02
#       7
#     4   4   4   4   4   4   4
#     4  11  23  41  65  99 146 183 241 291 356 440
#     4  12  27  50  79 112 147 198 247 322 377 457
#     4  10  22  42  64 102 142 190 231 292 366 435
#     4  10  22  41  69  95 138 188 229 290 361 424
#     4  12  26  52  79 108 151 189 254 310 390 447
#     4  10  23  45  72  97 137 189 236 304 366 444
#     4  11  25  43  70 103 141 183 252 295 362 441
#
# _framework density 22.908643999999999
#
# number of rings (size 3 to 8) (size 9 to 14) (size 15 to 20)
#    0.000    1.143    2.857    2.571    8.000    1.143 
#    2.571    1.429    0.000    0.000    0.000    0.000 
#    0.000    0.000    0.000    0.000    0.000    0.000 
#
# Total GULP energy -155962.681226 kJ/mol
# GULP energy per Si atom -5570.095758 kJ/mol
# Density = 2.285650 g / cm^3
# Si number density = 22.908644 Si / 1000 Ang^3
#
#
#
# Elastic Constant Matrix: (Units=GPa)
#
#
# Indices 1 2 3 4 5 6 
#
# 1 77.3921 10.9910 34.2200 0.0000 0.0000 0.0000
# 2 10.9910 56.1097 35.8211 0.0000 0.0000 0.0000
# 3 34.2200 35.8211 113.0592 0.0000 0.0000 0.0000
# 4 0.0000 0.0000 0.0000 35.7059 0.0000 0.0000
# 5 0.0000 0.0000 0.0000 0.0000 38.2688 0.0000
# 6 0.0000 0.0000 0.0000 0.0000 0.0000 31.4627
#
#
#
# Elastic Compliance Matrix: (Units=1/GPa)
#
#
# Indices 1 2 3 4 5 6 
#
# 1 0.014918 -0.000050 -0.004499 0.000000 0.000000 0.000000
# 2 -0.000050 0.022341 -0.007064 0.000000 0.000000 0.000000
# 3 -0.004499 -0.007064 0.012445 0.000000 0.000000 0.000000
# 4 0.000000 0.000000 0.000000 0.028007 0.000000 0.000000
# 5 0.000000 0.000000 0.000000 0.000000 0.026131 0.000000
# 6 0.000000 0.000000 0.000000 0.000000 0.000000 0.031784
#
#
# Mechanical properties :
#
#
# Convention : Reuss Voigt Hill
#
# Bulk Modulus (GPa) = 37.76622 45.40278 41.58450
# Shear Modulus (GPa) = 29.81932 32.12274 30.97103
#
# Velocity S-wave (km/s) = 3.61177 3.74867 3.68086
# Velocity P-wave (km/s) = 5.82362 6.21279 6.02135
#
# Compressibility (1/GPa) = 0.02647869
#
# Stress axis : x y z
#
# Youngs Moduli (GPa) = 67.03417 44.75998 80.35512
#
# Poissons Ratio (x) = 0.00222 0.36156
# Poissons Ratio (y) = 0.00333 0.56759
# Poissons Ratio (z) = 0.30162 0.31616
#
# Static dielectric constant tensor:
#      x y z
#    x 2.005020 0.000000 0.000000 
#    y 0.000000 1.889290 0.000000 
#    z 0.000000 0.000000 1.942760 
# 
# From -- ./inp_files/2447.got.cif
#   From: 2010.05.17/outbox.cif.g08.bks.cpg/sg19_2_cif.got.tgz:2447.got - 2010.06.03 22:46:19.
