data_PCOD9314866
_publ_section_title
;
Structure prediction by ZEFSAII (Michael W. Deem and Ramdas Pophale) SiO2 
 PCOD9314866
Probable space group: P 21 21 21
;
_chemical_formula_sum "Si O2"
_cell_formula_units_Z 32
_cell_length_a 8.918251
_cell_length_b 16.321020
_cell_length_c 9.735616
_cell_angle_alpha 90.000000
_cell_angle_beta 90.000000
_cell_angle_gamma 90.000000
_cell_volume 1417.067129
_symmetry_space_group_name_H-M "P 21 21 21"
_symmetry_group_IT_number 19
_symmetry_cell_setting 'orthorhombic'
loop_
_space_group_symop_operation_xyz
x,y,z
1/2-x,-y,1/2+z
1/2+x,1/2-y,-z
-x,1/2+y,1/2-z
loop_
_atom_site_type_symbol
_atom_site_label
_atom_site_fract_x
_atom_site_fract_y
_atom_site_fract_z
Si Si1 0.209126 0.682933 0.609221
Si Si2 0.241424 0.809221 0.276661
Si Si3 0.519137 0.681914 0.491143
Si Si4 0.220135 0.644951 0.920426
Si Si5 0.961723 0.558895 0.605951
Si Si6 0.502139 0.489757 0.426634
Si Si7 0.517528 0.213550 0.390304
Si Si8 0.190901 0.909303 0.002069
O O1 0.346564 0.702447 0.512755
O O2 0.109446 0.764671 0.619174
O O3 0.257036 0.652594 0.759259
O O4 0.104306 0.609805 0.556504
O O5 0.098652 0.788614 0.367712
O O6 0.332180 0.874753 0.368047
O O7 0.359710 0.741992 0.222757
O O8 0.186401 0.855887 0.139710
O O9 0.519024 0.584771 0.464451
O O10 0.154449 0.556007 0.961142
O O11 0.075024 0.705454 0.936047
O O12 0.365504 0.674725 0.000554
O O13 0.909584 0.490480 0.500800
O O14 0.984767 0.522629 0.760659
O O15 0.638229 0.441658 0.502542
O O16 0.383085 0.146678 0.383449
#
# Coordination Sequence:
#
# PCOD9314866 Si02
#       8
#     4   4   4   4   4   4   4   4
#     4  11  26  44  68  96 141 179 225 282 344 412
#     4  11  22  43  65  99 139 171 229 281 330 416
#     4  12  26  45  68 100 138 184 221 283 352 410
#     4  11  23  45  66 103 133 179 229 282 335 397
#     4  10  22  43  65  96 134 178 225 278 340 396
#     4  10  23  43  67  95 136 176 230 283 334 413
#     4  12  22  39  72  95 137 173 229 280 337 396
#     4  11  22  40  69  96 130 184 220 281 336 402
#
# _framework density 22.581852000000001
#
# number of rings (size 3 to 8) (size 9 to 14) (size 15 to 20)
#    0.000    1.000    6.250    1.500    3.500    0.000 
#    0.000    1.250    0.000    0.000    0.000    0.000 
#    0.000    0.000    0.000    0.000    0.000    0.000 
#
# Total GULP energy -178625.208963 kJ/mol
# GULP energy per Si atom -5582.037780 kJ/mol
# Density = 2.253045 g / cm^3
# Si number density = 22.581852 Si / 1000 Ang^3
#
#
#
# Elastic Constant Matrix: (Units=GPa)
#
#
# Indices 1 2 3 4 5 6 
#
# 1 111.1904 27.2767 29.4598 0.0000 0.0000 0.0000
# 2 27.2767 90.3077 18.1579 0.0000 0.0000 0.0000
# 3 29.4598 18.1579 54.2080 0.0000 0.0000 0.0000
# 4 0.0000 0.0000 0.0000 18.4844 0.0000 0.0000
# 5 0.0000 0.0000 0.0000 0.0000 31.0680 0.0000
# 6 0.0000 0.0000 0.0000 0.0000 0.0000 44.2614
#
#
#
# Elastic Compliance Matrix: (Units=1/GPa)
#
#
# Indices 1 2 3 4 5 6 
#
# 1 0.010919 -0.002257 -0.005178 0.000000 0.000000 0.000000
# 2 -0.002257 0.012339 -0.002907 0.000000 0.000000 0.000000
# 3 -0.005178 -0.002907 0.022235 0.000000 0.000000 0.000000
# 4 0.000000 0.000000 0.000000 0.054100 0.000000 0.000000
# 5 0.000000 0.000000 0.000000 0.000000 0.032187 0.000000
# 6 0.000000 0.000000 0.000000 0.000000 0.000000 0.022593
#
#
# Mechanical properties :
#
#
# Convention : Reuss Voigt Hill
#
# Bulk Modulus (GPa) = 40.30597 45.05500 42.68049
# Shear Modulus (GPa) = 27.27357 30.81687 29.04522
#
# Velocity S-wave (km/s) = 3.47906 3.69816 3.59028
# Velocity P-wave (km/s) = 5.83319 6.18307 6.01067
#
# Compressibility (1/GPa) = 0.02481022
#
# Stress axis : x y z
#
# Youngs Moduli (GPa) = 91.58190 81.04137 44.97362
#
# Poissons Ratio (x) = 0.18290 0.23288
# Poissons Ratio (y) = 0.20669 0.13073
# Poissons Ratio (z) = 0.47422 0.23557
#
# Static dielectric constant tensor:
#      x y z
#    x 1.840750 0.000000 0.000000 
#    y 0.000000 1.871390 0.000000 
#    z 0.000000 0.000000 1.886520 
# 
# From -- ./inp_files/4671.got.cif
#   From: 2010.05.17/outbox.cif.g08.bks.cpg/sg19_3_cif.got.tgz:4671.got - 2010.06.03 22:46:19.
