data_PCOD9314392
_publ_section_title
;
Structure prediction by ZEFSAII (Michael W. Deem and Ramdas Pophale) SiO2 
 PCOD9314392
Probable space group: P 21 21 21
;
_chemical_formula_sum "Si O2"
_cell_formula_units_Z 28
_cell_length_a 9.766449
_cell_length_b 5.318484
_cell_length_c 22.044380
_cell_angle_alpha 90.000000
_cell_angle_beta 90.000000
_cell_angle_gamma 90.000000
_cell_volume 1145.044678
_symmetry_space_group_name_H-M "P 21 21 21"
_symmetry_group_IT_number 19
_symmetry_cell_setting 'orthorhombic'
loop_
_space_group_symop_operation_xyz
x,y,z
1/2-x,-y,1/2+z
1/2+x,1/2-y,-z
-x,1/2+y,1/2-z
loop_
_atom_site_type_symbol
_atom_site_label
_atom_site_fract_x
_atom_site_fract_y
_atom_site_fract_z
Si Si1 0.564065 0.036946 0.767492
Si Si2 0.848101 0.942433 0.706980
Si Si3 0.350134 0.824736 0.073967
Si Si4 0.433476 0.292538 0.604279
Si Si5 0.361741 0.515755 0.959414
Si Si6 0.525197 0.557460 0.169191
Si Si7 0.570564 0.145605 0.015622
O O1 0.451864 0.834644 0.743512
O O2 0.696943 0.940378 0.732473
O O3 0.572770 0.972950 0.838339
O O4 0.888692 0.696598 0.669274
O O5 0.941927 0.944414 0.767673
O O6 0.878539 0.198736 0.671595
O O7 0.203612 0.879642 0.103839
O O8 0.419131 0.606980 0.114796
O O9 0.464879 0.034565 0.064990
O O10 0.321172 0.736755 0.005521
O O11 0.428506 0.462628 0.543546
O O12 0.573382 0.131779 0.601131
O O13 0.226491 0.342902 0.959881
O O14 0.494850 0.390599 0.990649
#
# Coordination Sequence:
#
# PCOD9314392 Si02
#       7
#     4   4   4   4   4   4   4
#     4  12  27  46  68  99 136 183 229 274 342 413
#     4  10  22  42  62  98 131 169 226 274 328 392
#     4  10  21  41  67  96 126 177 222 276 344 404
#     4  10  23  45  65  90 133 176 219 281 337 405
#     4  10  22  40  64 100 132 171 222 276 343 417
#     4  10  21  40  68  94 131 169 219 285 324 392
#     4  10  22  40  66  99 131 169 223 274 344 409
#
# _framework density 24.453192999999999
#
# number of rings (size 3 to 8) (size 9 to 14) (size 15 to 20)
#    0.000    1.714    1.429    1.714    4.000    3.429 
#    0.000    0.000    0.000    0.000    0.000    0.000 
#    0.000    0.000    0.000    0.000    0.000    0.000 
#
# Total GULP energy -156484.881638 kJ/mol
# GULP energy per Si atom -5588.745773 kJ/mol
# Density = 2.439754 g / cm^3
# Si number density = 24.453193 Si / 1000 Ang^3
#
#
#
# Elastic Constant Matrix: (Units=GPa)
#
#
# Indices 1 2 3 4 5 6 
#
# 1 87.0005 17.4358 12.2005 0.0000 0.0000 0.0000
# 2 17.4358 68.9330 23.1402 0.0000 0.0000 0.0000
# 3 12.2005 23.1402 75.5938 0.0000 0.0000 0.0000
# 4 0.0000 0.0000 0.0000 29.4880 0.0000 0.0000
# 5 0.0000 0.0000 0.0000 0.0000 26.4237 0.0000
# 6 0.0000 0.0000 0.0000 0.0000 0.0000 29.1516
#
#
#
# Elastic Compliance Matrix: (Units=1/GPa)
#
#
# Indices 1 2 3 4 5 6 
#
# 1 0.012196 -0.002702 -0.001141 0.000000 0.000000 0.000000
# 2 -0.002702 0.016767 -0.004696 0.000000 0.000000 0.000000
# 3 -0.001141 -0.004696 0.014850 0.000000 0.000000 0.000000
# 4 0.000000 0.000000 0.000000 0.033912 0.000000 0.000000
# 5 0.000000 0.000000 0.000000 0.000000 0.037845 0.000000
# 6 0.000000 0.000000 0.000000 0.000000 0.000000 0.034303
#
#
# Mechanical properties :
#
#
# Convention : Reuss Voigt Hill
#
# Bulk Modulus (GPa) = 37.40554 37.45339 37.42946
# Shear Modulus (GPa) = 28.43116 28.92938 28.68027
#
# Velocity S-wave (km/s) = 3.41350 3.44328 3.42843
# Velocity P-wave (km/s) = 5.55572 5.58192 5.56884
#
# Compressibility (1/GPa) = 0.02673401
#
# Stress axis : x y z
#
# Youngs Moduli (GPa) = 81.99626 59.64185 67.33800
#
# Poissons Ratio (x) = 0.16113 0.07685
# Poissons Ratio (y) = 0.22152 0.31625
# Poissons Ratio (z) = 0.09358 0.28011
#
# Static dielectric constant tensor:
#      x y z
#    x 1.970240 0.000000 0.000000 
#    y 0.000000 1.947780 0.000000 
#    z 0.000000 0.000000 1.936830 
# 
# From -- ./inp_files/518.got.cif
#   From: 2010.05.17/outbox.cif.g08.bks.cpg/sg19_1_cif.got.tgz:518.got - 2010.06.03 22:46:19.
