data_PCOD9314208
_publ_section_title
;
Structure prediction by ZEFSAII (Michael W. Deem and Ramdas Pophale) SiO2 
 PCOD9314208
Probable space group: P 21 21 21
;
_chemical_formula_sum "Si O2"
_cell_formula_units_Z 28
_cell_length_a 13.052962
_cell_length_b 9.178826
_cell_length_c 11.331647
_cell_angle_alpha 90.000000
_cell_angle_beta 90.000000
_cell_angle_gamma 90.000000
_cell_volume 1357.654451
_symmetry_space_group_name_H-M "P 21 21 21"
_symmetry_group_IT_number 19
_symmetry_cell_setting 'orthorhombic'
loop_
_space_group_symop_operation_xyz
x,y,z
1/2-x,-y,1/2+z
1/2+x,1/2-y,-z
-x,1/2+y,1/2-z
loop_
_atom_site_type_symbol
_atom_site_label
_atom_site_fract_x
_atom_site_fract_y
_atom_site_fract_z
Si Si1 0.284869 0.372997 0.781129
Si Si2 0.901177 0.339546 0.363582
Si Si3 0.250796 0.065219 0.243351
Si Si4 0.857496 0.973415 0.886524
Si Si5 0.586665 0.448990 0.079329
Si Si6 0.135509 0.320911 0.373452
Si Si7 0.245410 0.251648 0.023322
O O1 0.336588 0.302786 0.666846
O O2 0.169110 0.406127 0.740228
O O3 0.333170 0.524374 0.819220
O O4 0.295837 0.269197 0.894594
O O5 0.846161 0.462805 0.284661
O O6 0.899017 0.411138 0.492927
O O7 0.018006 0.299912 0.336533
O O8 0.208700 0.195645 0.325074
O O9 0.285440 0.134742 0.118247
O O10 0.341662 0.979882 0.308146
O O11 0.769041 0.091423 0.919029
O O12 0.859694 0.848390 0.986211
O O13 0.966660 0.054932 0.891559
O O14 0.631825 0.309105 0.008772
#
# Coordination Sequence:
#
# PCOD9314208 Si02
#       7
#     4   4   4   4   4   4   4
#     4  11  20  40  62  88 125 162 212 261 319 383
#     4  10  21  37  61  88 120 162 210 262 318 384
#     4  11  20  40  62  88 125 162 212 261 319 383
#     4  10  22  40  62  91 126 165 215 271 325 381
#     4  10  22  40  62  91 126 165 215 271 325 381
#     4  10  21  37  61  88 120 162 210 262 318 384
#     4  10  22  40  62  92 128 166 208 264 320 384
#
# _framework density 20.623805000000001
#
# number of rings (size 3 to 8) (size 9 to 14) (size 15 to 20)
#    0.000    1.714    2.857    1.714    0.000    2.286 
#    0.000    0.000    0.000    0.000    0.000    0.000 
#    0.000    0.000    0.000    0.000    0.000    0.000 
#
# Total GULP energy -156025.451266 kJ/mol
# GULP energy per Si atom -5572.337545 kJ/mol
# Density = 2.057686 g / cm^3
# Si number density = 20.623805 Si / 1000 Ang^3
#
#
#
# Elastic Constant Matrix: (Units=GPa)
#
#
# Indices 1 2 3 4 5 6 
#
# 1 89.7658 19.3398 35.5227 0.0000 0.0000 0.0000
# 2 19.3398 56.2087 14.2975 0.0000 0.0000 0.0000
# 3 35.5227 14.2975 66.4069 0.0000 0.0000 0.0000
# 4 0.0000 0.0000 0.0000 20.2163 0.0000 0.0000
# 5 0.0000 0.0000 0.0000 0.0000 14.9558 0.0000
# 6 0.0000 0.0000 0.0000 0.0000 0.0000 28.2689
#
#
#
# Elastic Compliance Matrix: (Units=1/GPa)
#
#
# Indices 1 2 3 4 5 6 
#
# 1 0.014665 -0.003227 -0.007150 0.000000 0.000000 0.000000
# 2 -0.003227 0.019532 -0.002479 0.000000 0.000000 0.000000
# 3 -0.007150 -0.002479 0.019417 0.000000 0.000000 0.000000
# 4 0.000000 0.000000 0.000000 0.049465 0.000000 0.000000
# 5 0.000000 0.000000 0.000000 0.000000 0.066864 0.000000
# 6 0.000000 0.000000 0.000000 0.000000 0.000000 0.035375
#
#
# Mechanical properties :
#
#
# Convention : Reuss Voigt Hill
#
# Bulk Modulus (GPa) = 35.83988 38.96682 37.40335
# Shear Modulus (GPa) = 20.80483 22.23630 21.52057
#
# Velocity S-wave (km/s) = 3.17957 3.28714 3.23380
# Velocity P-wave (km/s) = 5.55835 5.77427 5.66733
#
# Compressibility (1/GPa) = 0.02790188
#
# Stress axis : x y z
#
# Youngs Moduli (GPa) = 68.19100 51.19874 51.50140
#
# Poissons Ratio (x) = 0.16522 0.36822
# Poissons Ratio (y) = 0.22006 0.12767
# Poissons Ratio (z) = 0.48755 0.12692
#
# Static dielectric constant tensor:
#      x y z
#    x 1.737000 0.000000 0.000000 
#    y 0.000000 1.761230 0.000000 
#    z 0.000000 0.000000 1.776740 
# 
# From -- ./inp_files/3419.got.cif
#   From: 2010.05.17/outbox.cif.g08.bks.cpg/sg19_2_cif.got.tgz:3419.got - 2010.06.03 22:46:19.
