data_PCOD9314214
_publ_section_title
;
Structure prediction by ZEFSAII (Michael W. Deem and Ramdas Pophale) SiO2 
 PCOD9314214
Probable space group: P 21 21 21
;
_chemical_formula_sum "Si O2"
_cell_formula_units_Z 32
_cell_length_a 11.087848
_cell_length_b 22.155627
_cell_length_c 6.950120
_cell_angle_alpha 90.000000
_cell_angle_beta 90.000000
_cell_angle_gamma 90.000000
_cell_volume 1707.354139
_symmetry_space_group_name_H-M "P 21 21 21"
_symmetry_group_IT_number 19
_symmetry_cell_setting 'orthorhombic'
loop_
_space_group_symop_operation_xyz
x,y,z
1/2-x,-y,1/2+z
1/2+x,1/2-y,-z
-x,1/2+y,1/2-z
loop_
_atom_site_type_symbol
_atom_site_label
_atom_site_fract_x
_atom_site_fract_y
_atom_site_fract_z
Si Si1 0.481450 0.567134 0.526675
Si Si2 0.164233 0.434919 0.634974
Si Si3 0.580522 0.968466 0.682909
Si Si4 0.403939 0.278569 0.255231
Si Si5 0.656705 0.155913 0.702427
Si Si6 0.063312 0.751960 0.196187
Si Si7 0.044207 0.150493 0.038248
Si Si8 0.323852 0.170123 0.995969
O O1 0.428431 0.561284 0.312753
O O2 0.601476 0.608139 0.524324
O O3 0.490917 0.505866 0.651245
O O4 0.382503 0.604975 0.646940
O O5 0.127678 0.486905 0.484099
O O6 0.160911 0.373744 0.509151
O O7 0.298929 0.443292 0.715288
O O8 0.500747 0.916664 0.583890
O O9 0.280456 0.315171 0.229804
O O10 0.413984 0.264972 0.478593
O O11 0.507227 0.321366 0.168189
O O12 0.392988 0.215055 0.142993
O O13 0.554298 0.206167 0.706486
O O14 0.031561 0.692793 0.317018
O O15 0.167759 0.791446 0.297603
O O16 0.187439 0.158400 0.059892
#
# Coordination Sequence:
#
# PCOD9314214 Si02
#       8
#     4   4   4   4   4   4   4   4
#     4  10  22  42  63  85 125 166 203 258 311 361
#     4  11  21  38  63  89 118 156 207 262 309 360
#     4  11  23  39  63  92 120 156 214 258 308 365
#     4  11  22  37  65  94 125 163 201 254 314 372
#     4  10  21  37  62  92 120 158 205 248 307 371
#     4  10  22  40  62  93 124 164 201 245 313 383
#     4  11  24  40  61  94 127 160 208 259 305 375
#     4  10  23  43  61  89 133 163 203 256 313 379
#
# _framework density 18.742449000000001
#
# number of rings (size 3 to 8) (size 9 to 14) (size 15 to 20)
#    0.000    1.500    2.500    2.250    3.500    2.000 
#    2.250    0.000    0.000    0.000    0.000    0.000 
#    0.000    0.000    0.000    0.000    0.000    0.000 
#
# Total GULP energy -178655.793339 kJ/mol
# GULP energy per Si atom -5582.993542 kJ/mol
# Density = 1.869979 g / cm^3
# Si number density = 18.742449 Si / 1000 Ang^3
#
#
#
# Elastic Constant Matrix: (Units=GPa)
#
#
# Indices 1 2 3 4 5 6 
#
# 1 49.0180 14.7585 -2.2289 0.0000 0.0000 0.0000
# 2 14.7585 62.3308 6.4581 0.0000 0.0000 0.0000
# 3 -2.2289 6.4581 77.8894 0.0000 0.0000 0.0000
# 4 0.0000 0.0000 0.0000 28.5857 0.0000 0.0000
# 5 0.0000 0.0000 0.0000 0.0000 9.6187 0.0000
# 6 0.0000 0.0000 0.0000 0.0000 0.0000 28.6890
#
#
#
# Elastic Compliance Matrix: (Units=1/GPa)
#
#
# Indices 1 2 3 4 5 6 
#
# 1 0.022055 -0.005333 0.001073 0.000000 0.000000 0.000000
# 2 -0.005333 0.017472 -0.001601 0.000000 0.000000 0.000000
# 3 0.001073 -0.001601 0.013002 0.000000 0.000000 0.000000
# 4 0.000000 0.000000 0.000000 0.034983 0.000000 0.000000
# 5 0.000000 0.000000 0.000000 0.000000 0.103964 0.000000
# 6 0.000000 0.000000 0.000000 0.000000 0.000000 0.034857
#
#
# Mechanical properties :
#
#
# Convention : Reuss Voigt Hill
#
# Bulk Modulus (GPa) = 24.50563 25.24596 24.87579
# Shear Modulus (GPa) = 19.86826 24.72871 22.29848
#
# Velocity S-wave (km/s) = 3.25940 3.63629 3.45299
# Velocity P-wave (km/s) = 5.22190 5.57936 5.40359
#
# Compressibility (1/GPa) = 0.04080696
#
# Stress axis : x y z
#
# Youngs Moduli (GPa) = 45.34060 57.23391 76.91008
#
# Poissons Ratio (x) = 0.30525 -0.08255
# Poissons Ratio (y) = 0.24182 0.12316
# Poissons Ratio (z) = -0.04867 0.09165
#
# Static dielectric constant tensor:
#      x y z
#    x 1.622890 0.000000 0.000000 
#    y 0.000000 1.678530 0.000000 
#    z 0.000000 0.000000 1.528900 
# 
# From -- ./inp_files/1250.got.cif
#   From: 2010.05.17/outbox.cif.g08.bks.cpg/sg19_1_cif.got.tgz:1250.got - 2010.06.03 22:46:19.
