data_PCOD9314940
_publ_section_title
;
Structure prediction by ZEFSAII (Michael W. Deem and Ramdas Pophale) SiO2 
 PCOD9314940
Probable space group: P 21 21 21
;
_chemical_formula_sum "Si O2"
_cell_formula_units_Z 24
_cell_length_a 27.122923
_cell_length_b 7.064801
_cell_length_c 5.353032
_cell_angle_alpha 90.000000
_cell_angle_beta 90.000000
_cell_angle_gamma 90.000000
_cell_volume 1025.737572
_symmetry_space_group_name_H-M "P 21 21 21"
_symmetry_group_IT_number 19
_symmetry_cell_setting 'orthorhombic'
loop_
_space_group_symop_operation_xyz
x,y,z
1/2-x,-y,1/2+z
1/2+x,1/2-y,-z
-x,1/2+y,1/2-z
loop_
_atom_site_type_symbol
_atom_site_label
_atom_site_fract_x
_atom_site_fract_y
_atom_site_fract_z
Si Si1 0.875301 0.976675 0.241569
Si Si2 0.707093 0.313446 0.622245
Si Si3 0.400082 0.186691 0.083792
Si Si4 0.948396 0.013736 0.618846
Si Si5 0.188306 0.949540 0.879769
Si Si6 0.955881 0.697627 0.002722
O O1 0.825647 0.870425 0.170165
O O2 0.892020 0.991735 0.526109
O O3 0.922877 0.847344 0.157000
O O4 0.874003 0.185093 0.124136
O O5 0.696499 0.400764 0.348627
O O6 0.766288 0.302220 0.639688
O O7 0.691187 0.452914 0.849881
O O8 0.442900 0.325307 0.172922
O O9 0.363573 0.138430 0.309722
O O10 0.422219 0.988243 0.001602
O O11 0.961281 0.813644 0.742888
O O12 0.989865 0.109466 0.438917
#
# Coordination Sequence:
#
# PCOD9314940 Si02
#       6
#     4   4   4   4   4   4
#     4  11  26  40  66  99 130 173 229 285 337 410
#     4  10  22  45  71 101 135 181 225 276 345 407
#     4  11  24  43  65  98 129 175 225 277 342 402
#     4  11  25  41  64  96 130 178 224 282 341 409
#     4  10  22  44  74  98 136 182 222 279 345 407
#     4  11  23  43  64  92 136 171 225 279 340 407
#
# _framework density 23.397798999999999
#
# number of rings (size 3 to 8) (size 9 to 14) (size 15 to 20)
#    0.000    1.333    3.333    1.000    7.000    1.333 
#    3.000    0.000    0.000    0.000    0.000    0.000 
#    0.000    0.000    0.000    0.000    0.000    0.000 
#
# Total GULP energy -133784.511155 kJ/mol
# GULP energy per Si atom -5574.354631 kJ/mol
# Density = 2.334454 g / cm^3
# Si number density = 23.397799 Si / 1000 Ang^3
#
#
#
# Elastic Constant Matrix: (Units=GPa)
#
#
# Indices 1 2 3 4 5 6 
#
# 1 14.7264 4.0969 -20.8644 0.0000 0.0000 0.0000
# 2 4.0969 103.5690 4.5307 0.0000 0.0000 0.0000
# 3 -20.8644 4.5307 38.5845 0.0000 0.0000 0.0000
# 4 0.0000 0.0000 0.0000 22.8504 0.0000 0.0000
# 5 0.0000 0.0000 0.0000 0.0000 29.1077 0.0000
# 6 0.0000 0.0000 0.0000 0.0000 0.0000 -36.3356
#
#
#
# Elastic Compliance Matrix: (Units=1/GPa)
#
#
# Indices 1 2 3 4 5 6 
#
# 1 0.330240 -0.020983 0.181040 0.000000 0.000000 0.000000
# 2 -0.020983 0.011038 -0.012643 0.000000 0.000000 0.000000
# 3 0.181040 -0.012643 0.125298 0.000000 0.000000 0.000000
# 4 0.000000 0.000000 0.000000 0.043763 0.000000 0.000000
# 5 0.000000 0.000000 0.000000 0.000000 0.034355 0.000000
# 6 0.000000 0.000000 0.000000 0.000000 0.000000 -0.027521
#
#
# Mechanical properties :
#
#
# Convention : Reuss Voigt Hill
#
# Bulk Modulus (GPa) = 1.31336 14.71180 8.01258
# Shear Modulus (GPa) = 10.50095 14.39895 12.44995
#
# Velocity S-wave (km/s) = 2.12079 2.48341 2.30923
# Velocity P-wave (km/s) = 2.56116 3.81110 3.24684
#
# Compressibility (1/GPa) = 0.76140588
#
# Stress axis : x y z
#
# Youngs Moduli (GPa) = 3.02810 90.59214 7.98095
#
# Poissons Ratio (x) = 1.90090 -1.44487
# Poissons Ratio (y) = 0.06354 0.10090
# Poissons Ratio (z) = -0.54821 1.14532
#
# Static dielectric constant tensor:
#      x y z
#    x 1.914710 0.000000 0.000000 
#    y 0.000000 1.868100 0.000000 
#    z 0.000000 0.000000 2.040130 
# 
# From -- ./inp_files/194.got.cif
#   From: 2010.05.17/outbox.cif.g08.bks.cpg/sg19_1_cif.got.tgz:194.got - 2010.06.03 22:46:19.
