data_PCOD9314868
_publ_section_title
;
Structure prediction by ZEFSAII (Michael W. Deem and Ramdas Pophale) SiO2 
 PCOD9314868
Probable space group: P 21 21 21
;
_chemical_formula_sum "Si O2"
_cell_formula_units_Z 32
_cell_length_a 19.029398
_cell_length_b 7.153209
_cell_length_c 10.471757
_cell_angle_alpha 90.000000
_cell_angle_beta 90.000000
_cell_angle_gamma 90.000000
_cell_volume 1425.428768
_symmetry_space_group_name_H-M "P 21 21 21"
_symmetry_group_IT_number 19
_symmetry_cell_setting 'orthorhombic'
loop_
_space_group_symop_operation_xyz
x,y,z
1/2-x,-y,1/2+z
1/2+x,1/2-y,-z
-x,1/2+y,1/2-z
loop_
_atom_site_type_symbol
_atom_site_label
_atom_site_fract_x
_atom_site_fract_y
_atom_site_fract_z
Si Si1 0.353860 0.203755 0.651911
Si Si2 0.861400 0.395969 0.638459
Si Si3 0.552437 0.051682 0.874585
Si Si4 0.055785 0.258445 0.871533
Si Si5 0.914257 0.628846 0.181250
Si Si6 0.419090 0.427235 0.177344
Si Si7 0.725339 0.191350 0.661259
Si Si8 0.764228 0.965491 0.902794
O O1 0.399056 0.388645 0.682051
O O2 0.272856 0.272471 0.644287
O O3 0.376939 0.142428 0.510027
O O4 0.374401 0.036732 0.744073
O O5 0.890546 0.598321 0.669949
O O6 0.895673 0.235993 0.725354
O O7 0.778473 0.364477 0.653638
O O8 0.549277 0.225197 0.778214
O O9 0.475974 0.962913 0.900066
O O10 0.582996 0.129346 0.006230
O O11 0.047357 0.404431 0.757662
O O12 0.981582 0.160073 0.906495
O O13 0.851621 0.745104 0.118790
O O14 0.347093 0.501095 0.115838
O O15 0.750491 0.039071 0.555421
O O16 0.729398 0.116420 0.806213
#
# Coordination Sequence:
#
# PCOD9314868 Si02
#       8
#     4   4   4   4   4   4   4   4
#     4  11  22  43  67  97 135 183 230 285 343 422
#     4  10  22  43  65  98 133 179 233 275 348 419
#     4  12  25  42  68 101 136 185 229 288 351 416
#     4  12  24  41  67  97 138 183 224 287 354 417
#     4  12  25  42  68 102 139 179 234 285 354 413
#     4  11  24  41  66 101 137 178 227 287 350 414
#     4  10  24  46  71 105 141 186 231 294 348 420
#     4  10  24  44  72  99 145 179 234 291 344 409
#
# _framework density 22.449387999999999
#
# number of rings (size 3 to 8) (size 9 to 14) (size 15 to 20)
#    0.000    1.000    6.250    0.000    1.750    4.000 
#    0.000    2.500    0.000    0.000    0.000    0.000 
#    0.000    0.000    0.000    0.000    0.000    0.000 
#
# Total GULP energy -178718.082886 kJ/mol
# GULP energy per Si atom -5584.940090 kJ/mol
# Density = 2.239829 g / cm^3
# Si number density = 22.449388 Si / 1000 Ang^3
#
#
#
# Elastic Constant Matrix: (Units=GPa)
#
#
# Indices 1 2 3 4 5 6 
#
# 1 110.3431 22.7136 4.4266 0.0000 0.0000 0.0000
# 2 22.7136 101.9781 30.4920 0.0000 0.0000 0.0000
# 3 4.4266 30.4920 42.2488 0.0000 0.0000 0.0000
# 4 0.0000 0.0000 0.0000 28.0345 0.0000 0.0000
# 5 0.0000 0.0000 0.0000 0.0000 21.3206 0.0000
# 6 0.0000 0.0000 0.0000 0.0000 0.0000 38.9082
#
#
#
# Elastic Compliance Matrix: (Units=1/GPa)
#
#
# Indices 1 2 3 4 5 6 
#
# 1 0.009513 -0.002322 0.000679 0.000000 0.000000 0.000000
# 2 -0.002322 0.013071 -0.009191 0.000000 0.000000 0.000000
# 3 0.000679 -0.009191 0.030231 0.000000 0.000000 0.000000
# 4 0.000000 0.000000 0.000000 0.035670 0.000000 0.000000
# 5 0.000000 0.000000 0.000000 0.000000 0.046903 0.000000
# 6 0.000000 0.000000 0.000000 0.000000 0.000000 0.025701
#
#
# Mechanical properties :
#
#
# Convention : Reuss Voigt Hill
#
# Bulk Modulus (GPa) = 32.10385 41.09271 36.59828
# Shear Modulus (GPa) = 25.88791 30.78186 28.33488
#
# Velocity S-wave (km/s) = 3.39952 3.70694 3.55655
# Velocity P-wave (km/s) = 5.45349 6.05527 5.76224
#
# Compressibility (1/GPa) = 0.03114891
#
# Stress axis : x y z
#
# Youngs Moduli (GPa) = 105.11532 76.50404 33.07845
#
# Poissons Ratio (x) = 0.17764 -0.02246
# Poissons Ratio (y) = 0.24407 0.30401
# Poissons Ratio (z) = -0.07138 0.70311
#
# Static dielectric constant tensor:
#      x y z
#    x 1.865220 0.000000 0.000000 
#    y 0.000000 1.802990 0.000000 
#    z 0.000000 0.000000 1.810180 
# 
# From -- ./inp_files/5496.got.cif
#   From: 2010.05.17/outbox.cif.g08.bks.cpg/sg19_3_cif.got.tgz:5496.got - 2010.06.03 22:46:19.
