data_PCOD9314613
_publ_section_title
;
Structure prediction by ZEFSAII (Michael W. Deem and Ramdas Pophale) SiO2 
 PCOD9314613
Probable space group: P 21 21 21
;
_chemical_formula_sum "Si O2"
_cell_formula_units_Z 28
_cell_length_a 28.727913
_cell_length_b 8.911470
_cell_length_c 5.314307
_cell_angle_alpha 90.000000
_cell_angle_beta 90.000000
_cell_angle_gamma 90.000000
_cell_volume 1360.504760
_symmetry_space_group_name_H-M "P 21 21 21"
_symmetry_group_IT_number 19
_symmetry_cell_setting 'orthorhombic'
loop_
_space_group_symop_operation_xyz
x,y,z
1/2-x,-y,1/2+z
1/2+x,1/2-y,-z
-x,1/2+y,1/2-z
loop_
_atom_site_type_symbol
_atom_site_label
_atom_site_fract_x
_atom_site_fract_y
_atom_site_fract_z
Si Si1 0.743836 0.407330 0.318582
Si Si2 0.357093 0.969943 0.117395
Si Si3 0.590164 0.901478 0.104358
Si Si4 0.481411 0.534624 0.753668
Si Si5 0.020099 0.739706 0.576666
Si Si6 0.426288 0.698752 0.123837
Si Si7 0.343496 0.170590 0.618655
O O1 0.753533 0.537519 0.528777
O O2 0.690552 0.369329 0.380432
O O3 0.787870 0.299708 0.361878
O O4 0.399631 0.854423 0.126154
O O5 0.353218 0.069200 0.370655
O O6 0.356286 0.074417 0.867898
O O7 0.570881 0.785011 0.310991
O O8 0.600318 0.061065 0.237231
O O9 0.627999 0.823094 0.929896
O O10 0.542779 0.930264 0.950873
O O11 0.521363 0.635295 0.639526
O O12 0.495351 0.421790 0.970608
O O13 0.439715 0.643050 0.845450
O O14 0.977487 0.788486 0.751966
#
# Coordination Sequence:
#
# PCOD9314613 Si02
#       7
#     4   4   4   4   4   4   4
#     4   8  16  36  60  88 122 148 192 252 304 346
#     4  10  22  38  65  94 118 158 205 253 300 366
#     4  10  23  40  57  84 124 158 201 252 306 357
#     4  10  22  40  58  76 118 158 200 246 300 354
#     4  10  22  40  56  82 112 162 194 250 296 354
#     4  10  23  40  57  84 124 158 201 252 306 357
#     4  10  22  38  65  94 118 158 205 253 300 366
#
# _framework density 20.580597999999998
#
# number of rings (size 3 to 8) (size 9 to 14) (size 15 to 20)
#    0.000    2.286    0.000    0.857    8.000    5.714 
#    2.571    0.000    3.143    0.000    0.000    0.000 
#    0.000    0.000    0.000    0.000    0.000    0.000 
#
# Total GULP energy -156085.544209 kJ/mol
# GULP energy per Si atom -5574.483722 kJ/mol
# Density = 2.053376 g / cm^3
# Si number density = 20.580598 Si / 1000 Ang^3
#
#
#
# Elastic Constant Matrix: (Units=GPa)
#
#
# Indices 1 2 3 4 5 6 
#
# 1 22.4117 10.1653 4.0564 0.0000 0.0000 0.0000
# 2 10.1653 28.3854 14.1212 0.0000 0.0000 0.0000
# 3 4.0564 14.1212 86.2768 0.0000 0.0000 0.0000
# 4 0.0000 0.0000 0.0000 30.2697 0.0000 0.0000
# 5 0.0000 0.0000 0.0000 0.0000 21.3069 0.0000
# 6 0.0000 0.0000 0.0000 0.0000 0.0000 21.7884
#
#
#
# Elastic Compliance Matrix: (Units=1/GPa)
#
#
# Indices 1 2 3 4 5 6 
#
# 1 0.053309 -0.019426 0.000673 0.000000 0.000000 0.000000
# 2 -0.019426 0.045431 -0.006523 0.000000 0.000000 0.000000
# 3 0.000673 -0.006523 0.012627 0.000000 0.000000 0.000000
# 4 0.000000 0.000000 0.000000 0.033036 0.000000 0.000000
# 5 0.000000 0.000000 0.000000 0.000000 0.046933 0.000000
# 6 0.000000 0.000000 0.000000 0.000000 0.000000 0.045896
#
#
# Mechanical properties :
#
#
# Convention : Reuss Voigt Hill
#
# Bulk Modulus (GPa) = 16.44306 21.52885 18.98596
# Shear Modulus (GPa) = 16.23094 21.92173 19.07633
#
# Velocity S-wave (km/s) = 2.81134 3.26723 3.04782
# Velocity P-wave (km/s) = 4.30641 4.97157 4.65089
#
# Compressibility (1/GPa) = 0.06081593
#
# Stress axis : x y z
#
# Youngs Moduli (GPa) = 18.75867 22.01147 79.19839
#
# Poissons Ratio (x) = 0.42759 -0.05331
# Poissons Ratio (y) = 0.36440 0.51657
# Poissons Ratio (z) = -0.01263 0.14357
#
# Static dielectric constant tensor:
#      x y z
#    x 1.748200 0.000000 0.000000 
#    y 0.000000 1.726140 0.000000 
#    z 0.000000 0.000000 1.805850 
# 
# From -- ./inp_files/596.got.cif
#   From: 2010.05.17/outbox.cif.g08.bks.cpg/sg19_1_cif.got.tgz:596.got - 2010.06.03 22:46:19.
