data_PCOD9314979
_publ_section_title
;
Structure prediction by ZEFSAII (Michael W. Deem and Ramdas Pophale) SiO2 
 PCOD9314979
Probable space group: P 21 21 21
;
_chemical_formula_sum "Si O2"
_cell_formula_units_Z 32
_cell_length_a 11.603298
_cell_length_b 12.827276
_cell_length_c 9.013668
_cell_angle_alpha 90.000000
_cell_angle_beta 90.000000
_cell_angle_gamma 90.000000
_cell_volume 1341.582681
_symmetry_space_group_name_H-M "P 21 21 21"
_symmetry_group_IT_number 19
_symmetry_cell_setting 'orthorhombic'
loop_
_space_group_symop_operation_xyz
x,y,z
1/2-x,-y,1/2+z
1/2+x,1/2-y,-z
-x,1/2+y,1/2-z
loop_
_atom_site_type_symbol
_atom_site_label
_atom_site_fract_x
_atom_site_fract_y
_atom_site_fract_z
Si Si1 0.545999 0.567658 0.912382
Si Si2 0.740961 0.307815 0.537397
Si Si3 0.475536 0.951071 0.031091
Si Si4 0.960183 0.851025 0.394065
Si Si5 0.845433 0.648656 0.359700
Si Si6 0.301625 0.381116 0.647436
Si Si7 0.274383 0.298163 0.968135
Si Si8 0.605412 0.954644 0.340644
O O1 0.636107 0.648357 0.982951
O O2 0.473257 0.612715 0.775731
O O3 0.619915 0.469937 0.851913
O O4 0.466295 0.520188 0.039470
O O5 0.637636 0.380083 0.475584
O O6 0.721871 0.314754 0.713152
O O7 0.738420 0.190918 0.474571
O O8 0.533069 0.943893 0.191802
O O9 0.572744 0.910532 0.914493
O O10 0.456655 0.071876 0.984863
O O11 0.955493 0.725507 0.379202
O O12 0.841029 0.863120 0.486408
O O13 0.766295 0.681119 0.498470
O O14 0.305374 0.316669 0.799521
O O15 0.222765 0.480673 0.685099
O O16 0.364720 0.344236 0.084865
#
# Coordination Sequence:
#
# PCOD9314979 Si02
#       8
#     4   4   4   4   4   4   4   4
#     4  12  28  45  75 105 157 192 249 309 388 447
#     4  12  30  46  70 111 157 198 244 310 394 450
#     4  12  26  47  77 107 153 198 253 321 373 450
#     4  10  22  48  74 103 139 199 244 313 363 444
#     4  10  24  49  69 103 147 196 248 304 371 449
#     4  12  24  46  77 107 145 194 258 308 379 447
#     4  10  24  45  75 108 138 189 254 311 364 447
#     4  12  24  44  75 110 142 190 256 316 370 448
#
# _framework density 23.852426999999999
#
# number of rings (size 3 to 8) (size 9 to 14) (size 15 to 20)
#    0.750    0.000    3.750    2.250    8.750    0.000 
#    2.250    0.000    0.000    0.000    0.000    0.000 
#    0.000    0.000    0.000    0.000    0.000    0.000 
#
# Total GULP energy -178914.167012 kJ/mol
# GULP energy per Si atom -5591.067719 kJ/mol
# Density = 2.379814 g / cm^3
# Si number density = 23.852427 Si / 1000 Ang^3
#
#
#
# Elastic Constant Matrix: (Units=GPa)
#
#
# Indices 1 2 3 4 5 6 
#
# 1 91.8100 7.3970 16.2337 0.0000 0.0000 0.0000
# 2 7.3970 47.9216 -10.5688 0.0000 0.0000 0.0000
# 3 16.2337 -10.5688 83.7311 0.0000 0.0000 0.0000
# 4 0.0000 0.0000 0.0000 39.8476 0.0000 0.0000
# 5 0.0000 0.0000 0.0000 0.0000 22.6212 0.0000
# 6 0.0000 0.0000 0.0000 0.0000 0.0000 -29.8368
#
#
#
# Elastic Compliance Matrix: (Units=1/GPa)
#
#
# Indices 1 2 3 4 5 6 
#
# 1 0.011528 -0.002337 -0.002530 0.000000 0.000000 0.000000
# 2 -0.002337 0.021939 0.003222 0.000000 0.000000 0.000000
# 3 -0.002530 0.003222 0.012840 0.000000 0.000000 0.000000
# 4 0.000000 0.000000 0.000000 0.025096 0.000000 0.000000
# 5 0.000000 0.000000 0.000000 0.000000 0.044206 0.000000
# 6 0.000000 0.000000 0.000000 0.000000 0.000000 -0.033516
#
#
# Mechanical properties :
#
#
# Convention : Reuss Voigt Hill
#
# Bulk Modulus (GPa) = 23.24675 27.73185 25.48930
# Shear Modulus (GPa) = 50.13934 20.55312 35.34623
#
# Velocity S-wave (km/s) = 4.58980 2.93862 3.85368
# Velocity P-wave (km/s) = 6.15269 4.81307 5.52364
#
# Compressibility (1/GPa) = 0.04301677
#
# Stress axis : x y z
#
# Youngs Moduli (GPa) = 86.74734 45.58123 77.88019
#
# Poissons Ratio (x) = 0.10654 0.19704
# Poissons Ratio (y) = 0.20276 -0.25096
# Poissons Ratio (z) = 0.21947 -0.14688
#
# Static dielectric constant tensor:
#      x y z
#    x 1.945010 0.000000 0.000000 
#    y 0.000000 1.980000 0.000000 
#    z 0.000000 0.000000 1.844250 
# 
# From -- ./inp_files/3633.got.cif
#   From: 2010.05.17/outbox.cif.g08.bks.cpg/sg19_2_cif.got.tgz:3633.got - 2010.06.03 22:46:19.
