data_PCOD9314344
_publ_section_title
;
Structure prediction by ZEFSAII (Michael W. Deem and Ramdas Pophale) SiO2 
 PCOD9314344
Probable space group: P 21 21 21
;
_chemical_formula_sum "Si O2"
_cell_formula_units_Z 28
_cell_length_a 16.051137
_cell_length_b 5.197983
_cell_length_c 16.021445
_cell_angle_alpha 90.000000
_cell_angle_beta 90.000000
_cell_angle_gamma 90.000000
_cell_volume 1336.725828
_symmetry_space_group_name_H-M "P 21 21 21"
_symmetry_group_IT_number 19
_symmetry_cell_setting 'orthorhombic'
loop_
_space_group_symop_operation_xyz
x,y,z
1/2-x,-y,1/2+z
1/2+x,1/2-y,-z
-x,1/2+y,1/2-z
loop_
_atom_site_type_symbol
_atom_site_label
_atom_site_fract_x
_atom_site_fract_y
_atom_site_fract_z
Si Si1 0.672520 0.026782 0.257620
Si Si2 0.029425 0.359043 0.037469
Si Si3 0.921468 0.971263 0.928760
Si Si4 0.490923 0.413692 0.804670
Si Si5 0.387489 0.767439 0.908089
Si Si6 0.589277 0.832551 0.101996
Si Si7 0.733985 0.540196 0.179560
O O1 0.715271 0.294907 0.235499
O O2 0.632456 0.987373 0.347162
O O3 0.601136 0.996774 0.186105
O O4 0.733922 0.791814 0.238095
O O5 0.047725 0.170706 0.115411
O O6 0.974089 0.583803 0.078354
O O7 0.099534 0.492232 0.980497
O O8 0.968458 0.209824 0.972800
O O9 0.997788 0.785151 0.903691
O O10 0.866135 0.843604 0.001349
O O11 0.522720 0.656745 0.750277
O O12 0.407822 0.530227 0.847020
O O13 0.318610 0.954525 0.871686
O O14 0.657905 0.608727 0.115614
#
# Coordination Sequence:
#
# PCOD9314344 Si02
#       7
#     4   4   4   4   4   4   4
#     4  10  24  38  65  91 135 160 215 255 330 380
#     4  10  21  39  69  97 127 170 218 268 323 375
#     4  10  22  38  66  99 120 172 214 266 314 395
#     4  11  22  41  67  98 121 163 225 270 311 369
#     4  10  23  42  70  89 134 171 217 263 325 379
#     4   9  22  36  65  95 132 161 211 256 325 373
#     4  10  24  40  62  91 131 173 202 260 324 381
#
# _framework density 20.946705000000001
#
# number of rings (size 3 to 8) (size 9 to 14) (size 15 to 20)
#    0.857    1.143    1.429    0.857   12.000    0.000 
#    0.000    1.429   12.571    0.000    0.000    0.000 
#    0.000    0.000    0.000    0.000    0.000    0.000 
#
# Total GULP energy -156007.625654 kJ/mol
# GULP energy per Si atom -5571.700916 kJ/mol
# Density = 2.089903 g / cm^3
# Si number density = 20.946705 Si / 1000 Ang^3
#
#
#
# Elastic Constant Matrix: (Units=GPa)
#
#
# Indices 1 2 3 4 5 6 
#
# 1 16.3845 -0.5884 19.3922 0.0000 0.0000 0.0000
# 2 -0.5884 121.3288 44.7896 0.0000 0.0000 0.0000
# 3 19.3922 44.7896 129.8163 0.0000 0.0000 0.0000
# 4 0.0000 0.0000 0.0000 15.9161 0.0000 0.0000
# 5 0.0000 0.0000 0.0000 0.0000 17.9249 0.0000
# 6 0.0000 0.0000 0.0000 0.0000 0.0000 9.2626
#
#
#
# Elastic Compliance Matrix: (Units=1/GPa)
#
#
# Indices 1 2 3 4 5 6 
#
# 1 0.076999 0.005294 -0.013329 0.000000 0.000000 0.000000
# 2 0.005294 0.009809 -0.004175 0.000000 0.000000 0.000000
# 3 -0.013329 -0.004175 0.011135 0.000000 0.000000 0.000000
# 4 0.000000 0.000000 0.000000 0.062829 0.000000 0.000000
# 5 0.000000 0.000000 0.000000 0.000000 0.055788 0.000000
# 6 0.000000 0.000000 0.000000 0.000000 0.000000 0.107961
#
#
# Mechanical properties :
#
#
# Convention : Reuss Voigt Hill
#
# Bulk Modulus (GPa) = 13.60126 43.85736 28.72931
# Shear Modulus (GPa) = 13.38872 22.21649 17.80260
#
# Velocity S-wave (km/s) = 2.53094 3.26025 2.91847
# Velocity P-wave (km/s) = 3.87921 5.92919 5.01017
#
# Compressibility (1/GPa) = 0.07352260
#
# Stress axis : x y z
#
# Youngs Moduli (GPa) = 12.98721 101.94687 89.80870
#
# Poissons Ratio (x) = -0.53969 1.19704
# Poissons Ratio (y) = -0.06875 0.37496
# Poissons Ratio (z) = 0.17310 0.42564
#
# Static dielectric constant tensor:
#      x y z
#    x 1.757250 0.000000 0.000000 
#    y 0.000000 1.820990 0.000000 
#    z 0.000000 0.000000 1.793180 
# 
# From -- ./inp_files/1768.got.cif
#   From: 2010.05.17/outbox.cif.g08.bks.cpg/sg19_1_cif.got.tgz:1768.got - 2010.06.03 22:46:19.
