data_PCOD9314409
_publ_section_title
;
Structure prediction by ZEFSAII (Michael W. Deem and Ramdas Pophale) SiO2 
 PCOD9314409
Probable space group: P 21 21 21
;
_chemical_formula_sum "Si O2"
_cell_formula_units_Z 32
_cell_length_a 5.122511
_cell_length_b 18.417130
_cell_length_c 13.870377
_cell_angle_alpha 90.000000
_cell_angle_beta 90.000000
_cell_angle_gamma 90.000000
_cell_volume 1308.558427
_symmetry_space_group_name_H-M "P 21 21 21"
_symmetry_group_IT_number 19
_symmetry_cell_setting 'orthorhombic'
loop_
_space_group_symop_operation_xyz
x,y,z
1/2-x,-y,1/2+z
1/2+x,1/2-y,-z
-x,1/2+y,1/2-z
loop_
_atom_site_type_symbol
_atom_site_label
_atom_site_fract_x
_atom_site_fract_y
_atom_site_fract_z
Si Si1 0.630676 0.505697 0.004197
Si Si2 0.829783 0.301566 0.242737
Si Si3 0.081706 0.059043 0.313202
Si Si4 0.866859 0.930758 0.184676
Si Si5 0.704614 0.169843 0.228812
Si Si6 0.005348 0.955764 0.651245
Si Si7 0.195588 0.227032 0.108322
Si Si8 0.985120 0.139401 0.926532
O O1 0.490009 0.549050 0.919043
O O2 0.844598 0.457769 0.947592
O O3 0.781919 0.550480 0.084255
O O4 0.450479 0.445174 0.054965
O O5 0.050353 0.349611 0.289771
O O6 0.952128 0.227672 0.184130
O O7 0.658868 0.245007 0.301385
O O8 0.662086 0.347896 0.168250
O O9 0.317515 0.075584 0.237849
O O10 0.856324 0.119035 0.310780
O O11 0.978723 0.982338 0.270067
O O12 0.573588 0.961139 0.175492
O O13 0.742347 0.096746 0.151934
O O14 0.455693 0.198971 0.157575
O O15 0.225906 0.312775 0.088205
O O16 0.120694 0.184198 0.013478
#
# Coordination Sequence:
#
# PCOD9314409 Si02
#       8
#     4   4   4   4   4   4   4   4
#     4  11  25  38  65  93 127 164 222 262 319 389
#     4  10  23  36  61  86 127 162 210 252 321 384
#     4  10  21  41  60  89 124 168 213 261 315 388
#     4  10  22  42  58  92 126 167 216 258 317 382
#     4   9  22  39  60  88 127 166 212 252 327 384
#     4  10  22  40  68  86 134 169 207 270 322 369
#     4  10  22  35  56  90 129 158 196 257 326 377
#     4  12  21  35  58  94 126 158 202 264 319 383
#
# _framework density 24.454391000000001
#
# number of rings (size 3 to 8) (size 9 to 14) (size 15 to 20)
#    0.750    1.000    2.500    2.250    5.250    4.000 
#    0.000    0.000    5.500    0.000    0.000    0.000 
#    0.000    0.000    0.000    0.000    0.000    0.000 
#
# Total GULP energy -178241.553851 kJ/mol
# GULP energy per Si atom -5570.048558 kJ/mol
# Density = 2.439873 g / cm^3
# Si number density = 24.454391 Si / 1000 Ang^3
#
#
#
# Elastic Constant Matrix: (Units=GPa)
#
#
# Indices 1 2 3 4 5 6 
#
# 1 63.5103 1.0926 31.2599 0.0000 0.0000 0.0000
# 2 1.0926 88.8307 38.0520 0.0000 0.0000 0.0000
# 3 31.2599 38.0520 83.3590 0.0000 0.0000 0.0000
# 4 0.0000 0.0000 0.0000 28.7790 0.0000 0.0000
# 5 0.0000 0.0000 0.0000 0.0000 40.5712 0.0000
# 6 0.0000 0.0000 0.0000 0.0000 0.0000 32.1383
#
#
#
# Elastic Compliance Matrix: (Units=1/GPa)
#
#
# Indices 1 2 3 4 5 6 
#
# 1 0.020260 0.003736 -0.009303 0.000000 0.000000 0.000000
# 2 0.003736 0.014683 -0.008103 0.000000 0.000000 0.000000
# 3 -0.009303 -0.008103 0.019184 0.000000 0.000000 0.000000
# 4 0.000000 0.000000 0.000000 0.034748 0.000000 0.000000
# 5 0.000000 0.000000 0.000000 0.000000 0.024648 0.000000
# 6 0.000000 0.000000 0.000000 0.000000 0.000000 0.031115
#
#
# Mechanical properties :
#
#
# Convention : Reuss Voigt Hill
#
# Bulk Modulus (GPa) = 37.33311 41.83432 39.58372
# Shear Modulus (GPa) = 27.63847 31.31740 29.47793
#
# Velocity S-wave (km/s) = 3.36550 3.58249 3.47569
# Velocity P-wave (km/s) = 5.51377 5.85291 5.68587
#
# Compressibility (1/GPa) = 0.02678587
#
# Stress axis : x y z
#
# Youngs Moduli (GPa) = 49.35798 68.10786 52.12687
#
# Poissons Ratio (x) = -0.25444 0.48493
# Poissons Ratio (y) = -0.18439 0.42240
# Poissons Ratio (z) = 0.45918 0.55190
#
# Static dielectric constant tensor:
#      x y z
#    x 2.137830 0.000000 0.000000 
#    y 0.000000 2.169630 0.000000 
#    z 0.000000 0.000000 2.018480 
# 
# From -- ./inp_files/5761.got.cif
#   From: 2010.05.17/outbox.cif.g08.bks.cpg/sg19_3_cif.got.tgz:5761.got - 2010.06.03 22:46:19.
