data_PCOD9314702
_publ_section_title
;
Structure prediction by ZEFSAII (Michael W. Deem and Ramdas Pophale) SiO2 
 PCOD9314702
Probable space group: P 21 21 21
;
_chemical_formula_sum "Si O2"
_cell_formula_units_Z 20
_cell_length_a 5.262043
_cell_length_b 13.647301
_cell_length_c 10.376741
_cell_angle_alpha 90.000000
_cell_angle_beta 90.000000
_cell_angle_gamma 90.000000
_cell_volume 745.181630
_symmetry_space_group_name_H-M "P 21 21 21"
_symmetry_group_IT_number 19
_symmetry_cell_setting 'orthorhombic'
loop_
_space_group_symop_operation_xyz
x,y,z
1/2-x,-y,1/2+z
1/2+x,1/2-y,-z
-x,1/2+y,1/2-z
loop_
_atom_site_type_symbol
_atom_site_label
_atom_site_fract_x
_atom_site_fract_y
_atom_site_fract_z
Si Si1 0.830146 0.025540 0.403325
Si Si2 0.654242 0.273245 0.284022
Si Si3 0.193673 0.183615 0.981043
Si Si4 0.172026 0.845434 0.944643
Si Si5 0.652893 0.922788 0.640817
O O1 0.576935 0.087347 0.435561
O O2 0.824722 0.996318 0.252705
O O3 0.080723 0.090891 0.417915
O O4 0.820890 0.945546 0.515498
O O5 0.379737 0.240488 0.339815
O O6 0.801402 0.302779 0.412400
O O7 0.762796 0.175377 0.215864
O O8 0.679113 0.350650 0.167956
O O9 0.125976 0.099800 0.084017
O O10 0.445062 0.245089 0.009639
#
# Coordination Sequence:
#
# PCOD9314702 Si02
#       5
#     4   4   4   4   4
#     4  11  26  44  68 100 145 183 224 283 351 414
#     4  10  22  45  73 101 136 181 238 283 338 405
#     4  10  22  40  68  97 130 172 228 286 330 396
#     4  11  24  43  71 101 136 183 231 285 342 402
#     4  10  24  46  66 103 139 183 225 281 347 409
#
# _framework density 26.839092000000001
#
# number of rings (size 3 to 8) (size 9 to 14) (size 15 to 20)
#    0.000    1.600    0.000    3.600    2.800   11.200 
#    7.200    0.000    0.000    0.000    0.000    0.000 
#    0.000    0.000    0.000    0.000    0.000    0.000 
#
# Total GULP energy -111961.375137 kJ/mol
# GULP energy per Si atom -5598.068757 kJ/mol
# Density = 2.677801 g / cm^3
# Si number density = 26.839092 Si / 1000 Ang^3
#
#
#
# Elastic Constant Matrix: (Units=GPa)
#
#
# Indices 1 2 3 4 5 6 
#
# 1 146.9373 23.9916 -1.5932 0.0000 0.0000 0.0000
# 2 23.9916 47.5491 31.8004 0.0000 0.0000 0.0000
# 3 -1.5932 31.8004 203.6067 0.0000 0.0000 0.0000
# 4 0.0000 0.0000 0.0000 53.3923 0.0000 0.0000
# 5 0.0000 0.0000 0.0000 0.0000 47.0013 0.0000
# 6 0.0000 0.0000 0.0000 0.0000 0.0000 51.6204
#
#
#
# Elastic Compliance Matrix: (Units=1/GPa)
#
#
# Indices 1 2 3 4 5 6 
#
# 1 0.007512 -0.004276 0.000727 0.000000 0.000000 0.000000
# 2 -0.004276 0.025918 -0.004082 0.000000 0.000000 0.000000
# 3 0.000727 -0.004082 0.005555 0.000000 0.000000 0.000000
# 4 0.000000 0.000000 0.000000 0.018729 0.000000 0.000000
# 5 0.000000 0.000000 0.000000 0.000000 0.021276 0.000000
# 6 0.000000 0.000000 0.000000 0.000000 0.000000 0.019372
#
#
# Mechanical properties :
#
#
# Convention : Reuss Voigt Hill
#
# Bulk Modulus (GPa) = 42.15408 56.27677 49.21542
# Shear Modulus (GPa) = 41.14164 53.32910 47.23537
#
# Velocity S-wave (km/s) = 3.91947 4.46241 4.19972
# Velocity P-wave (km/s) = 6.01858 6.89670 6.47255
#
# Compressibility (1/GPa) = 0.02372250
#
# Stress axis : x y z
#
# Youngs Moduli (GPa) = 133.12569 38.58295 180.03137
#
# Poissons Ratio (x) = 0.16499 -0.13082
# Poissons Ratio (y) = 0.56926 0.73480
# Poissons Ratio (z) = -0.09674 0.15748
#
# Static dielectric constant tensor:
#      x y z
#    x 2.094890 0.000000 0.000000 
#    y 0.000000 2.343010 0.000000 
#    z 0.000000 0.000000 2.257840 
# 
# From -- ./inp_files/1675.got.cif
#   From: 2010.05.17/outbox.cif.g08.bks.cpg/sg19_1_cif.got.tgz:1675.got - 2010.06.03 22:46:19.
