data_PCOD9314096
_publ_section_title
;
Structure prediction by ZEFSAII (Michael W. Deem and Ramdas Pophale) SiO2 
 PCOD9314096
Probable space group: P 21 21 21
;
_chemical_formula_sum "Si O2"
_cell_formula_units_Z 16
_cell_length_a 13.213431
_cell_length_b 4.991043
_cell_length_c 9.758871
_cell_angle_alpha 90.000000
_cell_angle_beta 90.000000
_cell_angle_gamma 90.000000
_cell_volume 643.585854
_symmetry_space_group_name_H-M "P 21 21 21"
_symmetry_group_IT_number 19
_symmetry_cell_setting 'orthorhombic'
loop_
_space_group_symop_operation_xyz
x,y,z
1/2-x,-y,1/2+z
1/2+x,1/2-y,-z
-x,1/2+y,1/2-z
loop_
_atom_site_type_symbol
_atom_site_label
_atom_site_fract_x
_atom_site_fract_y
_atom_site_fract_z
Si Si1 0.777678 0.615273 0.248699
Si Si2 0.434426 0.623774 0.568405
Si Si3 0.380035 0.397799 0.844043
Si Si4 0.937374 0.159767 0.713370
O O1 0.843790 0.679271 0.385040
O O2 0.827966 0.816745 0.135954
O O3 0.794902 0.317694 0.195752
O O4 0.664085 0.706986 0.271427
O O5 0.539137 0.782894 0.551052
O O6 0.413374 0.443238 0.439141
O O7 0.444390 0.437437 0.702986
O O8 0.021196 0.392750 0.714132
#
# Coordination Sequence:
#
# PCOD9314096 Si02
#       4
#     4   4   4   4
#     4  10  22  43  64  98 128 176 225 256 336 391
#     4  10  23  42  74  95 138 163 233 269 332 407
#     4  10  20  41  71 100 118 176 222 273 324 390
#     4  12  29  44  63 103 140 177 218 280 340 386
#
# _framework density 24.860707999999999
#
# number of rings (size 3 to 8) (size 9 to 14) (size 15 to 20)
#    1.500    0.000    2.500    1.500    3.500    4.000 
#    0.000    0.000    0.000    0.000    0.000    0.000 
#    0.000    0.000    0.000    0.000    0.000    0.000 
#
# Total GULP energy -89505.017728 kJ/mol
# GULP energy per Si atom -5594.063608 kJ/mol
# Density = 2.480412 g / cm^3
# Si number density = 24.860708 Si / 1000 Ang^3
#
#
#
# Elastic Constant Matrix: (Units=GPa)
#
#
# Indices 1 2 3 4 5 6 
#
# 1 79.0647 -12.0387 3.3498 0.0000 0.0000 0.0000
# 2 -12.0387 97.3304 3.6606 0.0000 0.0000 0.0000
# 3 3.3498 3.6606 48.4577 0.0000 0.0000 0.0000
# 4 0.0000 0.0000 0.0000 18.3845 0.0000 0.0000
# 5 0.0000 0.0000 0.0000 0.0000 16.6067 0.0000
# 6 0.0000 0.0000 0.0000 0.0000 0.0000 38.7579
#
#
#
# Elastic Compliance Matrix: (Units=1/GPa)
#
#
# Indices 1 2 3 4 5 6 
#
# 1 0.012941 0.001639 -0.001018 0.000000 0.000000 0.000000
# 2 0.001639 0.010511 -0.000907 0.000000 0.000000 0.000000
# 3 -0.001018 -0.000907 0.020775 0.000000 0.000000 0.000000
# 4 0.000000 0.000000 0.000000 0.054394 0.000000 0.000000
# 5 0.000000 0.000000 0.000000 0.000000 0.060217 0.000000
# 6 0.000000 0.000000 0.000000 0.000000 0.000000 0.025801
#
#
# Mechanical properties :
#
#
# Convention : Reuss Voigt Hill
#
# Bulk Modulus (GPa) = 22.90764 23.86626 23.38695
# Shear Modulus (GPa) = 25.02962 30.07523 27.55243
#
# Velocity S-wave (km/s) = 3.17644 3.48192 3.33268
# Velocity P-wave (km/s) = 4.76314 5.07798 4.92307
#
# Compressibility (1/GPa) = 0.04365356
#
# Stress axis : x y z
#
# Youngs Moduli (GPa) = 77.27644 95.13732 48.13367
#
# Poissons Ratio (x) = -0.15592 0.04902
# Poissons Ratio (y) = -0.12665 0.04367
# Poissons Ratio (z) = 0.07870 0.08632
#
# Static dielectric constant tensor:
#      x y z
#    x 1.975040 0.000000 0.000000 
#    y 0.000000 1.925100 0.000000 
#    z 0.000000 0.000000 1.985390 
# 
# From -- ./inp_files/302.got.cif
#   From: 2010.05.17/outbox.cif.g08.bks.cpg/sg19_1_cif.got.tgz:302.got - 2010.06.03 22:46:19.
