data_PCOD9314863
_publ_section_title
;
Structure prediction by ZEFSAII (Michael W. Deem and Ramdas Pophale) SiO2 
 PCOD9314863
Probable space group: P 21 21 21
;
_chemical_formula_sum "Si O2"
_cell_formula_units_Z 28
_cell_length_a 9.490154
_cell_length_b 5.439085
_cell_length_c 21.094794
_cell_angle_alpha 90.000000
_cell_angle_beta 90.000000
_cell_angle_gamma 90.000000
_cell_volume 1088.865893
_symmetry_space_group_name_H-M "P 21 21 21"
_symmetry_group_IT_number 19
_symmetry_cell_setting 'orthorhombic'
loop_
_space_group_symop_operation_xyz
x,y,z
1/2-x,-y,1/2+z
1/2+x,1/2-y,-z
-x,1/2+y,1/2-z
loop_
_atom_site_type_symbol
_atom_site_label
_atom_site_fract_x
_atom_site_fract_y
_atom_site_fract_z
Si Si1 0.185080 0.244851 0.518274
Si Si2 0.041702 0.358880 0.648002
Si Si3 0.065886 0.441454 0.995415
Si Si4 0.852523 0.059146 0.731211
Si Si5 0.956217 0.809887 0.215284
Si Si6 0.974079 0.075146 0.086078
Si Si7 0.699168 0.305242 0.126723
O O1 0.348603 0.310974 0.512259
O O2 0.113292 0.425261 0.466694
O O3 0.138734 0.303286 0.589401
O O4 0.101836 0.991559 0.506458
O O5 0.993145 0.148215 0.695985
O O6 0.890903 0.449614 0.621418
O O7 0.119177 0.548329 0.694507
O O8 0.090716 0.232676 0.048531
O O9 0.119608 0.358643 0.926669
O O10 0.713519 0.215853 0.715489
O O11 0.820365 0.802015 0.696844
O O12 0.008310 0.897670 0.145415
O O13 0.984334 0.050358 0.259879
O O14 0.864135 0.276998 0.114580
#
# Coordination Sequence:
#
# PCOD9314863 Si02
#       7
#     4   4   4   4   4   4   4
#     4  11  26  41  70 105 142 188 243 306 376 446
#     4  12  23  43  67 103 141 188 251 308 368 449
#     4  11  24  44  69 107 141 190 243 306 379 453
#     4  11  25  42  72 103 141 195 245 309 372 444
#     4  11  29  51  75 110 152 202 252 309 382 460
#     4  10  25  44  71  98 147 192 241 304 377 449
#     4  10  22  43  64  98 138 187 235 298 374 441
#
# _framework density 25.714827
#
# number of rings (size 3 to 8) (size 9 to 14) (size 15 to 20)
#    0.000    1.143    4.286    0.000   10.000    0.000 
#    0.000    0.000    0.000    0.000    0.000    0.000 
#    0.000    0.000    0.000    0.000    0.000    0.000 
#
# Total GULP energy -156538.047259 kJ/mol
# GULP energy per Si atom -5590.644545 kJ/mol
# Density = 2.565630 g / cm^3
# Si number density = 25.714827 Si / 1000 Ang^3
#
#
#
# Elastic Constant Matrix: (Units=GPa)
#
#
# Indices 1 2 3 4 5 6 
#
# 1 80.2513 21.4884 18.8565 0.0000 0.0000 0.0000
# 2 21.4884 56.8496 25.9310 0.0000 0.0000 0.0000
# 3 18.8565 25.9310 145.4978 0.0000 0.0000 0.0000
# 4 0.0000 0.0000 0.0000 39.7783 0.0000 0.0000
# 5 0.0000 0.0000 0.0000 0.0000 32.6326 0.0000
# 6 0.0000 0.0000 0.0000 0.0000 0.0000 32.7946
#
#
#
# Elastic Compliance Matrix: (Units=1/GPa)
#
#
# Indices 1 2 3 4 5 6 
#
# 1 0.013983 -0.004853 -0.000947 0.000000 0.000000 0.000000
# 2 -0.004853 0.020831 -0.003084 0.000000 0.000000 0.000000
# 3 -0.000947 -0.003084 0.007545 0.000000 0.000000 0.000000
# 4 0.000000 0.000000 0.000000 0.025139 0.000000 0.000000
# 5 0.000000 0.000000 0.000000 0.000000 0.030644 0.000000
# 6 0.000000 0.000000 0.000000 0.000000 0.000000 0.030493
#
#
# Mechanical properties :
#
#
# Convention : Reuss Voigt Hill
#
# Bulk Modulus (GPa) = 40.66488 46.12783 43.39636
# Shear Modulus (GPa) = 32.34126 35.46262 33.90194
#
# Velocity S-wave (km/s) = 3.55024 3.71762 3.63489
# Velocity P-wave (km/s) = 5.71434 6.03363 5.87616
#
# Compressibility (1/GPa) = 0.02459124
#
# Stress axis : x y z
#
# Youngs Moduli (GPa) = 71.51555 48.00470 132.53301
#
# Poissons Ratio (x) = 0.23298 0.12554
# Poissons Ratio (y) = 0.34709 0.40868
# Poissons Ratio (z) = 0.06774 0.14803
#
# Static dielectric constant tensor:
#      x y z
#    x 2.048460 0.000000 0.000000 
#    y 0.000000 2.101640 0.000000 
#    z 0.000000 0.000000 2.000860 
# 
# From -- ./inp_files/7121.got.cif
#   From: 2010.05.17/outbox.cif.g08.bks.cpg/sg19_4_cif.got.tgz:7121.got - 2010.06.03 22:46:19.
