data_PCOD9314478
_publ_section_title
;
Structure prediction by ZEFSAII (Michael W. Deem and Ramdas Pophale) SiO2 
 PCOD9314478
Probable space group: P 21 21 21
;
_chemical_formula_sum "Si O2"
_cell_formula_units_Z 32
_cell_length_a 5.299267
_cell_length_b 12.406601
_cell_length_c 18.951980
_cell_angle_alpha 90.000000
_cell_angle_beta 90.000000
_cell_angle_gamma 90.000000
_cell_volume 1246.014816
_symmetry_space_group_name_H-M "P 21 21 21"
_symmetry_group_IT_number 19
_symmetry_cell_setting 'orthorhombic'
loop_
_space_group_symop_operation_xyz
x,y,z
1/2-x,-y,1/2+z
1/2+x,1/2-y,-z
-x,1/2+y,1/2-z
loop_
_atom_site_type_symbol
_atom_site_label
_atom_site_fract_x
_atom_site_fract_y
_atom_site_fract_z
Si Si1 0.428798 0.361158 0.340497
Si Si2 0.310874 0.818611 0.299771
Si Si3 0.869056 0.651248 0.184325
Si Si4 0.192172 0.730946 0.081706
Si Si5 0.643479 0.684200 0.484039
Si Si6 0.829097 0.519501 0.576515
Si Si7 0.316314 0.577215 0.963620
Si Si8 0.797430 0.686529 0.326581
O O1 0.628689 0.373070 0.276916
O O2 0.226140 0.275288 0.311259
O O3 0.552313 0.291217 0.402818
O O4 0.313585 0.456914 0.389201
O O5 0.399551 0.900925 0.360210
O O6 0.514374 0.723859 0.306438
O O7 0.030166 0.773799 0.318673
O O8 0.735243 0.587101 0.121189
O O9 0.862111 0.604718 0.262586
O O10 0.147902 0.667064 0.155002
O O11 0.008741 0.829162 0.062655
O O12 0.162034 0.641957 0.022744
O O13 0.373827 0.744926 0.481945
O O14 0.606956 0.579930 0.533755
O O15 0.759235 0.654984 0.407537
O O16 0.028038 0.502930 0.513669
#
# Coordination Sequence:
#
# PCOD9314478 Si02
#       8
#     4   4   4   4   4   4   4   4
#     4  10  21  42  65  96 142 192 225 298 385 448
#     4  11  24  45  75  97 141 193 254 298 372 448
#     4  10  23  39  68 102 136 181 245 305 365 440
#     4  11  18  38  64  92 142 184 222 282 392 439
#     4  12  25  49  75 103 146 203 252 307 386 453
#     4  12  25  45  69 110 141 189 260 319 358 452
#     4  11  22  36  63 104 140 181 236 299 370 446
#     4  11  22  48  71 100 136 201 244 300 378 462
#
# _framework density 25.68188
#
# number of rings (size 3 to 8) (size 9 to 14) (size 15 to 20)
#    0.000    1.000    6.250    0.750    0.000    2.000 
#    2.250    3.750    0.000    0.000    0.000    0.000 
#    0.000    0.000    0.000    0.000    0.000    0.000 
#
# Total GULP energy -178211.849595 kJ/mol
# GULP energy per Si atom -5569.120300 kJ/mol
# Density = 2.562343 g / cm^3
# Si number density = 25.681880 Si / 1000 Ang^3
#
#
#
# Elastic Constant Matrix: (Units=GPa)
#
#
# Indices 1 2 3 4 5 6 
#
# 1 75.9345 17.2975 17.1990 0.0000 0.0000 0.0000
# 2 17.2975 48.9162 34.8977 0.0000 0.0000 0.0000
# 3 17.1990 34.8977 179.0112 0.0000 0.0000 0.0000
# 4 0.0000 0.0000 0.0000 31.6398 0.0000 0.0000
# 5 0.0000 0.0000 0.0000 0.0000 31.7704 0.0000
# 6 0.0000 0.0000 0.0000 0.0000 0.0000 7.1441
#
#
#
# Elastic Compliance Matrix: (Units=1/GPa)
#
#
# Indices 1 2 3 4 5 6 
#
# 1 0.014354 -0.004753 -0.000453 0.000000 0.000000 0.000000
# 2 -0.004753 0.025320 -0.004479 0.000000 0.000000 0.000000
# 3 -0.000453 -0.004479 0.006503 0.000000 0.000000 0.000000
# 4 0.000000 0.000000 0.000000 0.031606 0.000000 0.000000
# 5 0.000000 0.000000 0.000000 0.000000 0.031476 0.000000
# 6 0.000000 0.000000 0.000000 0.000000 0.000000 0.139976
#
#
# Mechanical properties :
#
#
# Convention : Reuss Voigt Hill
#
# Bulk Modulus (GPa) = 37.30362 49.18336 43.24349
# Shear Modulus (GPa) = 18.01543 29.74202 23.87873
#
# Velocity S-wave (km/s) = 2.65143 3.40677 3.05255
# Velocity P-wave (km/s) = 4.89185 5.88790 5.41284
#
# Compressibility (1/GPa) = 0.02680705
#
# Stress axis : x y z
#
# Youngs Moduli (GPa) = 69.66462 39.49521 153.77639
#
# Poissons Ratio (x) = 0.18773 0.06959
# Poissons Ratio (y) = 0.33112 0.68881
# Poissons Ratio (z) = 0.03153 0.17691
#
# Static dielectric constant tensor:
#      x y z
#    x 2.095670 0.000000 0.000000 
#    y 0.000000 2.112690 0.000000 
#    z 0.000000 0.000000 2.173940 
# 
# From -- ./inp_files/6486.got.cif
#   From: 2010.05.17/outbox.cif.g08.bks.cpg/sg19_4_cif.got.tgz:6486.got - 2010.06.03 22:46:19.
