data_PCOD9314173
_publ_section_title
;
Structure prediction by ZEFSAII (Michael W. Deem and Ramdas Pophale) SiO2 
 PCOD9314173
Probable space group: P 21 21 21
;
_chemical_formula_sum "Si O2"
_cell_formula_units_Z 28
_cell_length_a 5.515987
_cell_length_b 15.844927
_cell_length_c 13.491631
_cell_angle_alpha 90.000000
_cell_angle_beta 90.000000
_cell_angle_gamma 90.000000
_cell_volume 1179.174099
_symmetry_space_group_name_H-M "P 21 21 21"
_symmetry_group_IT_number 19
_symmetry_cell_setting 'orthorhombic'
loop_
_space_group_symop_operation_xyz
x,y,z
1/2-x,-y,1/2+z
1/2+x,1/2-y,-z
-x,1/2+y,1/2-z
loop_
_atom_site_type_symbol
_atom_site_label
_atom_site_fract_x
_atom_site_fract_y
_atom_site_fract_z
Si Si1 0.018713 0.244523 0.878828
Si Si2 0.539993 0.245021 0.679750
Si Si3 0.190610 0.617811 0.488288
Si Si4 0.541679 0.077507 0.824301
Si Si5 0.955480 0.699338 0.852687
Si Si6 0.039778 0.021969 0.732009
Si Si7 0.157681 0.122735 0.163392
O O1 0.052973 0.230065 0.763073
O O2 0.990930 0.154452 0.928881
O O3 0.769972 0.296321 0.892518
O O4 0.223188 0.301471 0.925645
O O5 0.545494 0.166754 0.761613
O O6 0.302716 0.232986 0.613382
O O7 0.548013 0.333954 0.738249
O O8 0.785284 0.234513 0.616888
O O9 0.407391 0.585223 0.557721
O O10 0.029825 0.571066 0.405474
O O11 0.283033 0.037260 0.798182
O O12 0.778774 0.027107 0.784331
O O13 0.959593 0.598018 0.847820
O O14 0.104526 0.932509 0.685117
#
# Coordination Sequence:
#
# PCOD9314173 Si02
#       7
#     4   4   4   4   4   4   4
#     4  11  20  30  52  79 110 141 179 215 263 327
#     4   9  16  31  47  70  94 136 168 210 241 311
#     4  12  20  31  53  80 107 148 175 220 263 331
#     4  10  21  36  51  67 109 152 176 202 272 325
#     4   9  17  32  46  67 102 141 168 201 255 310
#     4  10  22  35  47  70 109 154 171 214 256 321
#     4  11  22  31  50  79 111 138 185 220 256 317
#
# _framework density 23.745432000000001
#
# number of rings (size 3 to 8) (size 9 to 14) (size 15 to 20)
#    0.000    1.714    7.143    0.000    6.000    0.000 
#    0.000    0.000    0.000    0.000    0.000    0.000 
#    0.000   22.857    0.000    0.000    0.000    0.000 
#
# Total GULP energy -156152.996808 kJ/mol
# GULP energy per Si atom -5576.892743 kJ/mol
# Density = 2.369139 g / cm^3
# Si number density = 23.745432 Si / 1000 Ang^3
#
#
#
# Elastic Constant Matrix: (Units=GPa)
#
#
# Indices 1 2 3 4 5 6 
#
# 1 169.7795 9.6574 20.2362 0.0000 0.0000 0.0000
# 2 9.6574 56.2295 7.9431 0.0000 0.0000 0.0000
# 3 20.2362 7.9431 70.7564 0.0000 0.0000 0.0000
# 4 0.0000 0.0000 0.0000 13.9603 0.0000 0.0000
# 5 0.0000 0.0000 0.0000 0.0000 9.1151 0.0000
# 6 0.0000 0.0000 0.0000 0.0000 0.0000 36.1678
#
#
#
# Elastic Compliance Matrix: (Units=1/GPa)
#
#
# Indices 1 2 3 4 5 6 
#
# 1 0.006135 -0.000819 -0.001663 0.000000 0.000000 0.000000
# 2 -0.000819 0.018180 -0.001807 0.000000 0.000000 0.000000
# 3 -0.001663 -0.001807 0.014811 0.000000 0.000000 0.000000
# 4 0.000000 0.000000 0.000000 0.071631 0.000000 0.000000
# 5 0.000000 0.000000 0.000000 0.000000 0.109708 0.000000
# 6 0.000000 0.000000 0.000000 0.000000 0.000000 0.027649
#
#
# Mechanical properties :
#
#
# Convention : Reuss Voigt Hill
#
# Bulk Modulus (GPa) = 32.73328 41.38209 37.05769
# Shear Modulus (GPa) = 18.73542 29.11056 23.92299
#
# Velocity S-wave (km/s) = 2.81198 3.50515 3.17752
# Velocity P-wave (km/s) = 4.93538 5.81779 5.39466
#
# Compressibility (1/GPa) = 0.03054995
#
# Stress axis : x y z
#
# Youngs Moduli (GPa) = 163.00626 55.00518 67.51588
#
# Poissons Ratio (x) = 0.04504 0.11225
# Poissons Ratio (y) = 0.13347 0.12198
# Poissons Ratio (z) = 0.27102 0.09938
#
# Static dielectric constant tensor:
#      x y z
#    x 2.045040 0.000000 0.000000 
#    y 0.000000 1.955410 0.000000 
#    z 0.000000 0.000000 1.928130 
# 
# From -- ./inp_files/1545.got.cif
#   From: 2010.05.17/outbox.cif.g08.bks.cpg/sg19_1_cif.got.tgz:1545.got - 2010.06.03 22:46:19.
