data_PCOD9314227
_publ_section_title
;
Structure prediction by ZEFSAII (Michael W. Deem and Ramdas Pophale) SiO2 
 PCOD9314227
Probable space group: P 21 21 21
;
_chemical_formula_sum "Si O2"
_cell_formula_units_Z 32
_cell_length_a 12.572240
_cell_length_b 5.253122
_cell_length_c 20.490074
_cell_angle_alpha 90.000000
_cell_angle_beta 90.000000
_cell_angle_gamma 90.000000
_cell_volume 1353.236418
_symmetry_space_group_name_H-M "P 21 21 21"
_symmetry_group_IT_number 19
_symmetry_cell_setting 'orthorhombic'
loop_
_space_group_symop_operation_xyz
x,y,z
1/2-x,-y,1/2+z
1/2+x,1/2-y,-z
-x,1/2+y,1/2-z
loop_
_atom_site_type_symbol
_atom_site_label
_atom_site_fract_x
_atom_site_fract_y
_atom_site_fract_z
Si Si1 0.057708 0.553624 0.169141
Si Si2 0.162623 0.982607 0.509471
Si Si3 0.630266 0.382546 0.193112
Si Si4 0.584746 0.133984 0.314351
Si Si5 0.748951 0.250464 0.610964
Si Si6 0.080039 0.556000 0.321601
Si Si7 0.261572 0.501650 0.080099
Si Si8 0.960787 0.994803 0.589565
O O1 0.099519 0.539681 0.243885
O O2 0.149752 0.514028 0.116392
O O3 0.002040 0.827435 0.161958
O O4 0.973161 0.325335 0.163959
O O5 0.180533 0.074298 0.436351
O O6 0.208976 0.224545 0.549756
O O7 0.038998 0.941833 0.529528
O O8 0.224811 0.725961 0.528664
O O9 0.659831 0.214732 0.255007
O O10 0.519473 0.507469 0.215603
O O11 0.715887 0.591052 0.174428
O O12 0.593717 0.238172 0.127518
O O13 0.536287 0.360944 0.358238
O O14 0.649055 0.955771 0.363870
O O15 0.683422 0.008164 0.635699
O O16 0.859758 0.175279 0.575663
#
# Coordination Sequence:
#
# PCOD9314227 Si02
#       8
#     4   4   4   4   4   4   4   4
#     4  10  23  43  69  98 137 176 229 289 352 417
#     4  11  26  47  66  99 143 182 239 284 330 425
#     4  11  21  39  66 106 141 177 227 291 371 430
#     4  10  21  37  66 104 143 174 222 294 365 432
#     4  11  28  43  69 102 135 196 236 290 350 422
#     4  10  24  44  65 101 137 175 232 293 348 416
#     4  11  24  43  71  97 134 189 230 285 356 412
#     4  10  23  42  66 101 140 181 233 286 356 418
#
# _framework density 23.647015
#
# number of rings (size 3 to 8) (size 9 to 14) (size 15 to 20)
#    0.000    1.500    2.500    0.750    5.250    6.000 
#    0.000    0.000    0.000    0.000    0.000    0.000 
#    0.000    0.000    0.000    0.000    0.000    0.000 
#
# Total GULP energy -179097.793668 kJ/mol
# GULP energy per Si atom -5596.806052 kJ/mol
# Density = 2.359319 g / cm^3
# Si number density = 23.647015 Si / 1000 Ang^3
#
#
#
# Elastic Constant Matrix: (Units=GPa)
#
#
# Indices 1 2 3 4 5 6 
#
# 1 105.5393 24.1815 46.0222 0.0000 0.0000 0.0000
# 2 24.1815 86.1598 0.7484 0.0000 0.0000 0.0000
# 3 46.0222 0.7484 45.9684 0.0000 0.0000 0.0000
# 4 0.0000 0.0000 0.0000 32.7790 0.0000 0.0000
# 5 0.0000 0.0000 0.0000 0.0000 33.2787 0.0000
# 6 0.0000 0.0000 0.0000 0.0000 0.0000 26.5508
#
#
#
# Elastic Compliance Matrix: (Units=1/GPa)
#
#
# Indices 1 2 3 4 5 6 
#
# 1 0.018836 -0.005123 -0.018775 0.000000 0.000000 0.000000
# 2 -0.005123 0.013002 0.004918 0.000000 0.000000 0.000000
# 3 -0.018775 0.004918 0.040471 0.000000 0.000000 0.000000
# 4 0.000000 0.000000 0.000000 0.030507 0.000000 0.000000
# 5 0.000000 0.000000 0.000000 0.000000 0.030049 0.000000
# 6 0.000000 0.000000 0.000000 0.000000 0.000000 0.037664
#
#
# Mechanical properties :
#
#
# Convention : Reuss Voigt Hill
#
# Bulk Modulus (GPa) = 29.11415 42.17464 35.64439
# Shear Modulus (GPa) = 22.73363 29.63607 26.18485
#
# Velocity S-wave (km/s) = 3.10397 3.54399 3.33125
# Velocity P-wave (km/s) = 5.01845 5.88390 5.46833
#
# Compressibility (1/GPa) = 0.03434756
#
# Stress axis : x y z
#
# Youngs Moduli (GPa) = 53.08965 76.91383 24.70925
#
# Poissons Ratio (x) = 0.39406 0.46391
# Poissons Ratio (y) = 0.27200 -0.12151
# Poissons Ratio (z) = 0.99674 -0.37824
#
# Static dielectric constant tensor:
#      x y z
#    x 1.880830 0.000000 0.000000 
#    y 0.000000 1.918590 0.000000 
#    z 0.000000 0.000000 1.892890 
# 
# From -- ./inp_files/1966.got.cif
#   From: 2010.05.17/outbox.cif.g08.bks.cpg/sg19_1_cif.got.tgz:1966.got - 2010.06.03 22:46:19.
