data_PCOD9314215
_publ_section_title
;
Structure prediction by ZEFSAII (Michael W. Deem and Ramdas Pophale) SiO2 
 PCOD9314215
Probable space group: P 21 21 21
;
_chemical_formula_sum "Si O2"
_cell_formula_units_Z 24
_cell_length_a 5.309915
_cell_length_b 8.683947
_cell_length_c 20.233276
_cell_angle_alpha 90.000000
_cell_angle_beta 90.000000
_cell_angle_gamma 90.000000
_cell_volume 932.977003
_symmetry_space_group_name_H-M "P 21 21 21"
_symmetry_group_IT_number 19
_symmetry_cell_setting 'orthorhombic'
loop_
_space_group_symop_operation_xyz
x,y,z
1/2-x,-y,1/2+z
1/2+x,1/2-y,-z
-x,1/2+y,1/2-z
loop_
_atom_site_type_symbol
_atom_site_label
_atom_site_fract_x
_atom_site_fract_y
_atom_site_fract_z
Si Si1 0.382337 0.681502 0.467680
Si Si2 0.706674 0.344905 0.788950
Si Si3 0.859096 0.326235 0.141454
Si Si4 0.088595 0.154368 0.720285
Si Si5 0.458922 0.351822 0.650385
Si Si6 0.239285 0.317541 0.464343
O O1 0.644119 0.727370 0.500732
O O2 0.381256 0.769443 0.397513
O O3 0.315579 0.499026 0.465130
O O4 0.556114 0.312614 0.854926
O O5 0.903285 0.479951 0.802400
O O6 0.542039 0.388366 0.725070
O O7 0.835312 0.196699 0.756823
O O8 0.776390 0.336637 0.217434
O O9 0.998736 0.481005 0.117502
O O10 0.190405 0.269550 0.663500
O O11 0.638598 0.238255 0.608034
O O12 0.989859 0.275097 0.509566
#
# Coordination Sequence:
#
# PCOD9314215 Si02
#       6
#     4   4   4   4   4   4
#     4  12  27  48  73 102 138 183 233 286 345 411
#     4  10  21  37  62  93 128 169 215 271 337 401
#     4  10  22  41  63  92 129 170 220 275 335 404
#     4  10  21  37  62  93 128 169 215 271 337 401
#     4  10  22  41  63  92 129 170 220 275 335 404
#     4  12  27  48  73 102 138 183 233 286 345 411
#
# _framework density 25.724105999999999
#
# number of rings (size 3 to 8) (size 9 to 14) (size 15 to 20)
#    0.000    1.333    0.000    5.000    4.667    4.000 
#    0.000    0.000    0.000    0.000    0.000    0.000 
#    0.000    0.000    0.000    0.000    0.000    0.000 
#
# Total GULP energy -133886.307744 kJ/mol
# GULP energy per Si atom -5578.596156 kJ/mol
# Density = 2.566556 g / cm^3
# Si number density = 25.724106 Si / 1000 Ang^3
#
#
#
# Elastic Constant Matrix: (Units=GPa)
#
#
# Indices 1 2 3 4 5 6 
#
# 1 87.3341 -7.3577 16.7843 0.0000 0.0000 0.0000
# 2 -7.3577 90.1303 24.0119 0.0000 0.0000 0.0000
# 3 16.7843 24.0119 68.9415 0.0000 0.0000 0.0000
# 4 0.0000 0.0000 0.0000 27.1213 0.0000 0.0000
# 5 0.0000 0.0000 0.0000 0.0000 40.0481 0.0000
# 6 0.0000 0.0000 0.0000 0.0000 0.0000 38.6257
#
#
#
# Elastic Compliance Matrix: (Units=1/GPa)
#
#
# Indices 1 2 3 4 5 6 
#
# 1 0.012328 0.001991 -0.003695 0.000000 0.000000 0.000000
# 2 0.001991 0.012551 -0.004856 0.000000 0.000000 0.000000
# 3 -0.003695 -0.004856 0.017096 0.000000 0.000000 0.000000
# 4 0.000000 0.000000 0.000000 0.036871 0.000000 0.000000
# 5 0.000000 0.000000 0.000000 0.000000 0.024970 0.000000
# 6 0.000000 0.000000 0.000000 0.000000 0.000000 0.025889
#
#
# Mechanical properties :
#
#
# Convention : Reuss Voigt Hill
#
# Bulk Modulus (GPa) = 34.65614 34.80922 34.73268
# Shear Modulus (GPa) = 32.79875 35.35686 34.07780
#
# Velocity S-wave (km/s) = 3.57462 3.71140 3.64365
# Velocity P-wave (km/s) = 5.52618 5.65041 5.58864
#
# Compressibility (1/GPa) = 0.02885491
#
# Stress axis : x y z
#
# Youngs Moduli (GPa) = 81.11580 79.67296 58.49342
#
# Poissons Ratio (x) = -0.15861 0.21612
# Poissons Ratio (y) = -0.16148 0.28406
# Poissons Ratio (z) = 0.29970 0.38691
#
# Static dielectric constant tensor:
#      x y z
#    x 2.034480 0.000000 0.000000 
#    y 0.000000 2.189110 0.000000 
#    z 0.000000 0.000000 2.129240 
# 
# From -- ./inp_files/496.got.cif
#   From: 2010.05.17/outbox.cif.g08.bks.cpg/sg19_1_cif.got.tgz:496.got - 2010.06.03 22:46:19.
