data_PCOD9314114
_publ_section_title
;
Structure prediction by ZEFSAII (Michael W. Deem and Ramdas Pophale) SiO2 
 PCOD9314114
Probable space group: P 21 21 21
;
_chemical_formula_sum "Si O2"
_cell_formula_units_Z 32
_cell_length_a 7.773038
_cell_length_b 9.833824
_cell_length_c 18.873426
_cell_angle_alpha 90.000000
_cell_angle_beta 90.000000
_cell_angle_gamma 90.000000
_cell_volume 1442.659915
_symmetry_space_group_name_H-M "P 21 21 21"
_symmetry_group_IT_number 19
_symmetry_cell_setting 'orthorhombic'
loop_
_space_group_symop_operation_xyz
x,y,z
1/2-x,-y,1/2+z
1/2+x,1/2-y,-z
-x,1/2+y,1/2-z
loop_
_atom_site_type_symbol
_atom_site_label
_atom_site_fract_x
_atom_site_fract_y
_atom_site_fract_z
Si Si1 0.715118 0.450436 0.184742
Si Si2 0.308513 0.226693 0.401110
Si Si3 0.893614 0.613854 0.966042
Si Si4 0.113160 0.715722 0.396686
Si Si5 0.172954 0.635696 0.663946
Si Si6 0.161538 0.954289 0.666781
Si Si7 0.250636 0.486179 0.310439
Si Si8 0.147782 0.381667 0.022064
O O1 0.698930 0.598929 0.150749
O O2 0.846930 0.357434 0.142390
O O3 0.529965 0.380649 0.174991
O O4 0.746166 0.466734 0.267906
O O5 0.499504 0.274547 0.422064
O O6 0.216624 0.184560 0.473644
O O7 0.227552 0.355236 0.360619
O O8 0.794801 0.523742 0.907829
O O9 0.025933 0.507962 0.002730
O O10 0.119877 0.601629 0.336222
O O11 0.259132 0.665515 0.451043
O O12 0.957379 0.752856 0.448063
O O13 0.262857 0.556711 0.728593
O O14 0.226032 0.582417 0.586748
O O15 0.209168 0.796353 0.668576
O O16 0.951881 0.966747 0.678006
#
# Coordination Sequence:
#
# PCOD9314114 Si02
#       8
#     4   4   4   4   4   4   4   4
#     4  11  22  39  73  94 129 174 219 263 332 386
#     4  11  23  42  66  94 134 170 208 274 328 388
#     4  11  24  43  63  99 132 168 221 270 326 398
#     4  12  23  45  67  98 129 179 219 281 324 398
#     4  11  23  41  67  99 128 178 220 271 331 396
#     4  10  20  42  67  94 129 169 225 268 312 402
#     4  10  22  43  65  95 134 168 223 270 324 399
#     4  12  25  43  68  95 137 166 229 275 331 395
#
# _framework density 22.181249999999999
#
# number of rings (size 3 to 8) (size 9 to 14) (size 15 to 20)
#    0.000    1.000    6.250    1.500    1.750    1.000 
#    4.500    0.000    0.000    0.000    0.000    0.000 
#    0.000    0.000    0.000    0.000    0.000    0.000 
#
# Total GULP energy -179035.569761 kJ/mol
# GULP energy per Si atom -5594.861555 kJ/mol
# Density = 2.213076 g / cm^3
# Si number density = 22.181250 Si / 1000 Ang^3
#
#
#
# Elastic Constant Matrix: (Units=GPa)
#
#
# Indices 1 2 3 4 5 6 
#
# 1 10.7939 2.5544 7.9660 0.0000 0.0000 0.0000
# 2 2.5544 92.7803 28.3862 0.0000 0.0000 0.0000
# 3 7.9660 28.3862 126.4327 0.0000 0.0000 0.0000
# 4 0.0000 0.0000 0.0000 42.2365 0.0000 0.0000
# 5 0.0000 0.0000 0.0000 0.0000 28.2612 0.0000
# 6 0.0000 0.0000 0.0000 0.0000 0.0000 23.3351
#
#
#
# Elastic Compliance Matrix: (Units=1/GPa)
#
#
# Indices 1 2 3 4 5 6 
#
# 1 0.097227 -0.000862 -0.005932 0.000000 0.000000 0.000000
# 2 -0.000862 0.011581 -0.002546 0.000000 0.000000 0.000000
# 3 -0.005932 -0.002546 0.008855 0.000000 0.000000 0.000000
# 4 0.000000 0.000000 0.000000 0.023676 0.000000 0.000000
# 5 0.000000 0.000000 0.000000 0.000000 0.035384 0.000000
# 6 0.000000 0.000000 0.000000 0.000000 0.000000 0.042854
#
#
# Mechanical properties :
#
#
# Convention : Reuss Voigt Hill
#
# Bulk Modulus (GPa) = 10.10280 34.20224 22.15252
# Shear Modulus (GPa) = 18.43312 31.50659 24.96986
#
# Velocity S-wave (km/s) = 2.88587 3.77293 3.35881
# Velocity P-wave (km/s) = 3.95840 5.86796 5.00509
#
# Compressibility (1/GPa) = 0.09898251
#
# Stress axis : x y z
#
# Youngs Moduli (GPa) = 10.28521 86.35014 112.93457
#
# Poissons Ratio (x) = 0.07442 0.66997
# Poissons Ratio (y) = 0.00886 0.28751
# Poissons Ratio (z) = 0.06102 0.21983
#
# Static dielectric constant tensor:
#      x y z
#    x 1.880660 0.000000 0.000000 
#    y 0.000000 1.789410 0.000000 
#    z 0.000000 0.000000 1.794390 
# 
# From -- ./inp_files/7045.got.cif
#   From: 2010.05.17/outbox.cif.g08.bks.cpg/sg19_4_cif.got.tgz:7045.got - 2010.06.03 22:46:19.
