data_PCOD9314035
_publ_section_title
;
Structure prediction by ZEFSAII (Michael W. Deem and Ramdas Pophale) SiO2 
 PCOD9314035
Probable space group: P 21 21 21
;
_chemical_formula_sum "Si O2"
_cell_formula_units_Z 32
_cell_length_a 13.206803
_cell_length_b 11.212038
_cell_length_c 9.052053
_cell_angle_alpha 90.000000
_cell_angle_beta 90.000000
_cell_angle_gamma 90.000000
_cell_volume 1340.384351
_symmetry_space_group_name_H-M "P 21 21 21"
_symmetry_group_IT_number 19
_symmetry_cell_setting 'orthorhombic'
loop_
_space_group_symop_operation_xyz
x,y,z
1/2-x,-y,1/2+z
1/2+x,1/2-y,-z
-x,1/2+y,1/2-z
loop_
_atom_site_type_symbol
_atom_site_label
_atom_site_fract_x
_atom_site_fract_y
_atom_site_fract_z
Si Si1 0.417992 0.123251 0.153201
Si Si2 0.592285 0.022520 0.708545
Si Si3 0.195321 0.061706 0.044617
Si Si4 0.552438 0.158603 0.428091
Si Si5 0.697883 0.605446 0.721001
Si Si6 0.956519 0.578460 0.056653
Si Si7 0.073147 0.276945 0.056370
Si Si8 0.229873 0.359453 0.809729
O O1 0.298445 0.117822 0.117591
O O2 0.457243 0.154032 0.315760
O O3 0.471914 0.215479 0.040089
O O4 0.466706 0.997733 0.095509
O O5 0.546539 0.053964 0.549099
O O6 0.548197 0.929038 0.828238
O O7 0.706735 0.980091 0.682502
O O8 0.572627 0.143972 0.798819
O O9 0.195349 0.930349 0.109440
O O10 0.199753 0.072698 0.868293
O O11 0.104699 0.144305 0.095072
O O12 0.563619 0.286984 0.508310
O O13 0.652012 0.142261 0.326466
O O14 0.624695 0.509161 0.640608
O O15 0.693772 0.746203 0.702798
O O16 0.161666 0.332655 0.953303
#
# Coordination Sequence:
#
# PCOD9314035 Si02
#       8
#     4   4   4   4   4   4   4   4
#     4   9  21  43  64  95 132 173 224 270 336 399
#     4  11  23  40  64  93 133 168 220 273 342 401
#     4  10  20  40  64  94 124 170 216 271 330 392
#     4  11  23  44  67  98 132 178 223 278 336 408
#     4  10  21  38  63  90 128 163 216 275 326 386
#     4  10  23  43  62  96 133 169 221 281 326 404
#     4   9  20  40  61  91 128 170 212 276 326 396
#     4  10  21  40  65  89 128 171 220 268 336 408
#
# _framework density 23.873750999999999
#
# number of rings (size 3 to 8) (size 9 to 14) (size 15 to 20)
#    0.000    2.000    0.000    3.000    1.750    1.000 
#   22.500    1.250    0.000    0.000    0.000    0.000 
#    0.000    0.000    0.000    0.000    0.000    0.000 
#
# Total GULP energy -178616.033393 kJ/mol
# GULP energy per Si atom -5581.751044 kJ/mol
# Density = 2.381941 g / cm^3
# Si number density = 23.873751 Si / 1000 Ang^3
#
#
#
# Elastic Constant Matrix: (Units=GPa)
#
#
# Indices 1 2 3 4 5 6 
#
# 1 66.3699 28.5406 17.2133 0.0000 0.0000 0.0000
# 2 28.5406 59.0518 33.6094 0.0000 0.0000 0.0000
# 3 17.2133 33.6094 126.4462 0.0000 0.0000 0.0000
# 4 0.0000 0.0000 0.0000 15.9632 0.0000 0.0000
# 5 0.0000 0.0000 0.0000 0.0000 32.6888 0.0000
# 6 0.0000 0.0000 0.0000 0.0000 0.0000 34.9787
#
#
#
# Elastic Compliance Matrix: (Units=1/GPa)
#
#
# Indices 1 2 3 4 5 6 
#
# 1 0.019023 -0.009096 -0.000172 0.000000 0.000000 0.000000
# 2 -0.009096 0.024302 -0.005221 0.000000 0.000000 0.000000
# 3 -0.000172 -0.005221 0.009320 0.000000 0.000000 0.000000
# 4 0.000000 0.000000 0.000000 0.062644 0.000000 0.000000
# 5 0.000000 0.000000 0.000000 0.000000 0.030592 0.000000
# 6 0.000000 0.000000 0.000000 0.000000 0.000000 0.028589
#
#
# Mechanical properties :
#
#
# Convention : Reuss Voigt Hill
#
# Bulk Modulus (GPa) = 42.25408 45.62161 43.93785
# Shear Modulus (GPa) = 23.65881 28.22644 25.94262
#
# Velocity S-wave (km/s) = 3.15143 3.44222 3.30003
# Velocity P-wave (km/s) = 5.56591 5.91181 5.74147
#
# Compressibility (1/GPa) = 0.02366635
#
# Stress axis : x y z
#
# Youngs Moduli (GPa) = 52.56704 41.14814 107.29945
#
# Poissons Ratio (x) = 0.37430 0.01844
# Poissons Ratio (y) = 0.47817 0.56024
# Poissons Ratio (z) = 0.00903 0.21485
#
# Static dielectric constant tensor:
#      x y z
#    x 1.984210 0.000000 0.000000 
#    y 0.000000 1.902190 0.000000 
#    z 0.000000 0.000000 1.960620 
# 
# From -- ./inp_files/3945.got.cif
#   From: 2010.05.17/outbox.cif.g08.bks.cpg/sg19_2_cif.got.tgz:3945.got - 2010.06.03 22:46:19.
