data_PCOD9314912
_publ_section_title
;
Structure prediction by ZEFSAII (Michael W. Deem and Ramdas Pophale) SiO2 
 PCOD9314912
Probable space group: P 21 21 21
;
_chemical_formula_sum "Si O2"
_cell_formula_units_Z 32
_cell_length_a 7.796265
_cell_length_b 12.460189
_cell_length_c 12.915198
_cell_angle_alpha 90.000000
_cell_angle_beta 90.000000
_cell_angle_gamma 90.000000
_cell_volume 1254.620245
_symmetry_space_group_name_H-M "P 21 21 21"
_symmetry_group_IT_number 19
_symmetry_cell_setting 'orthorhombic'
loop_
_space_group_symop_operation_xyz
x,y,z
1/2-x,-y,1/2+z
1/2+x,1/2-y,-z
-x,1/2+y,1/2-z
loop_
_atom_site_type_symbol
_atom_site_label
_atom_site_fract_x
_atom_site_fract_y
_atom_site_fract_z
Si Si1 0.093827 0.618245 0.868089
Si Si2 0.057763 0.445819 0.391629
Si Si3 0.496862 0.296696 0.565117
Si Si4 0.259902 0.005883 0.447218
Si Si5 0.254105 0.767064 0.436055
Si Si6 0.584599 0.551674 0.271545
Si Si7 0.815380 0.114202 0.244923
Si Si8 0.142407 0.723912 0.648515
O O1 0.240544 0.545698 0.922179
O O2 0.925229 0.546036 0.852234
O O3 0.148568 0.653116 0.752514
O O4 0.062077 0.715982 0.945803
O O5 0.043364 0.317445 0.386950
O O6 0.060837 0.515067 0.286557
O O7 0.915175 0.485108 0.470467
O O8 0.638032 0.389988 0.556187
O O9 0.354962 0.341730 0.642494
O O10 0.343959 0.008806 0.334123
O O11 0.180509 0.886462 0.456190
O O12 0.157657 0.701919 0.345947
O O13 0.251790 0.704320 0.545450
O O14 0.447869 0.779270 0.394722
O O15 0.385127 0.584282 0.257369
O O16 0.680687 0.656129 0.311191
#
# Coordination Sequence:
#
# PCOD9314912 Si02
#       8
#     4   4   4   4   4   4   4   4
#     4  11  24  46  68 101 143 194 238 294 373 442
#     4  11  25  45  70 102 144 195 240 298 366 438
#     4  12  26  44  71 110 143 190 242 306 371 437
#     4  12  25  44  75 109 146 185 245 316 356 437
#     4  11  25  46  73 107 144 191 245 307 365 443
#     4  10  22  44  67 101 138 191 234 297 367 437
#     4  10  26  46  71 102 147 195 242 297 373 447
#     4  11  23  45  73 104 145 187 244 299 369 427
#
# _framework density 25.505725000000002
#
# number of rings (size 3 to 8) (size 9 to 14) (size 15 to 20)
#    0.000    1.000    1.250    4.500    1.750    8.000 
#    9.000    0.000    0.000    0.000    0.000    0.000 
#    0.000    0.000    0.000    0.000    0.000    0.000 
#
# Total GULP energy -179072.547235 kJ/mol
# GULP energy per Si atom -5596.017101 kJ/mol
# Density = 2.544767 g / cm^3
# Si number density = 25.505725 Si / 1000 Ang^3
#
#
#
# Elastic Constant Matrix: (Units=GPa)
#
#
# Indices 1 2 3 4 5 6 
#
# 1 56.8999 12.1766 38.5813 0.0000 0.0000 0.0000
# 2 12.1766 116.2690 45.0051 0.0000 0.0000 0.0000
# 3 38.5813 45.0051 132.5075 0.0000 0.0000 0.0000
# 4 0.0000 0.0000 0.0000 35.7088 0.0000 0.0000
# 5 0.0000 0.0000 0.0000 0.0000 40.9354 0.0000
# 6 0.0000 0.0000 0.0000 0.0000 0.0000 30.7282
#
#
#
# Elastic Compliance Matrix: (Units=1/GPa)
#
#
# Indices 1 2 3 4 5 6 
#
# 1 0.021902 0.000201 -0.006445 0.000000 0.000000 0.000000
# 2 0.000201 0.009904 -0.003423 0.000000 0.000000 0.000000
# 3 -0.006445 -0.003423 0.010586 0.000000 0.000000 0.000000
# 4 0.000000 0.000000 0.000000 0.028004 0.000000 0.000000
# 5 0.000000 0.000000 0.000000 0.000000 0.024429 0.000000
# 6 0.000000 0.000000 0.000000 0.000000 0.000000 0.032543
#
#
# Mechanical properties :
#
#
# Convention : Reuss Voigt Hill
#
# Bulk Modulus (GPa) = 43.36752 55.24471 49.30611
# Shear Modulus (GPa) = 32.38584 35.46872 33.92728
#
# Velocity S-wave (km/s) = 3.56722 3.73314 3.65112
# Velocity P-wave (km/s) = 5.83153 6.34733 6.09489
#
# Compressibility (1/GPa) = 0.02305873
#
# Stress axis : x y z
#
# Youngs Moduli (GPa) = 45.65794 100.96451 94.46592
#
# Poissons Ratio (x) = -0.02030 0.60887
# Poissons Ratio (y) = -0.00918 0.32331
# Poissons Ratio (z) = 0.29428 0.34555
#
# Static dielectric constant tensor:
#      x y z
#    x 2.057410 0.000000 0.000000 
#    y 0.000000 2.061010 0.000000 
#    z 0.000000 0.000000 1.994960 
# 
# From -- ./inp_files/4680.got.cif
#   From: 2010.05.17/outbox.cif.g08.bks.cpg/sg19_3_cif.got.tgz:4680.got - 2010.06.03 22:46:19.
