data_PCOD9314034
_publ_section_title
;
Structure prediction by ZEFSAII (Michael W. Deem and Ramdas Pophale) SiO2 
 PCOD9314034
Probable space group: P 21 21 21
;
_chemical_formula_sum "Si O2"
_cell_formula_units_Z 32
_cell_length_a 19.885743
_cell_length_b 12.075370
_cell_length_c 5.233519
_cell_angle_alpha 90.000000
_cell_angle_beta 90.000000
_cell_angle_gamma 90.000000
_cell_volume 1256.712904
_symmetry_space_group_name_H-M "P 21 21 21"
_symmetry_group_IT_number 19
_symmetry_cell_setting 'orthorhombic'
loop_
_space_group_symop_operation_xyz
x,y,z
1/2-x,-y,1/2+z
1/2+x,1/2-y,-z
-x,1/2+y,1/2-z
loop_
_atom_site_type_symbol
_atom_site_label
_atom_site_fract_x
_atom_site_fract_y
_atom_site_fract_z
Si Si1 0.985886 0.504691 0.880137
Si Si2 0.780345 0.687164 0.418958
Si Si3 0.714128 0.157710 0.414268
Si Si4 0.490300 0.712397 0.560121
Si Si5 0.642453 0.723835 0.339761
Si Si6 0.564256 0.809248 0.956203
Si Si7 0.839924 0.059127 0.129464
Si Si8 0.910746 0.565338 0.407213
O O1 0.033667 0.401955 0.946645
O O2 0.942004 0.530706 0.134917
O O3 0.938255 0.490255 0.636710
O O4 0.032460 0.611475 0.832301
O O5 0.797337 0.766558 0.662038
O O6 0.702473 0.648032 0.432182
O O7 0.831781 0.585821 0.403994
O O8 0.783418 0.758102 0.154716
O O9 0.780206 0.083460 0.334434
O O10 0.662977 0.061741 0.508679
O O11 0.568812 0.708263 0.462091
O O12 0.440279 0.812881 0.519925
O O13 0.506106 0.728682 0.859468
O O14 0.626792 0.735701 0.041124
O O15 0.668640 0.846206 0.417010
O O16 0.590511 0.901178 0.757773
#
# Coordination Sequence:
#
# PCOD9314034 Si02
#       8
#     4   4   4   4   4   4   4   4
#     4  11  25  44  69  95 132 177 225 283 338 398
#     4  11  24  41  63  94 136 180 218 281 343 393
#     4  11  22  35  58  93 135 177 210 268 342 407
#     4  10  24  43  68  96 132 179 225 272 343 400
#     4  10  20  40  64  92 132 177 222 274 332 401
#     4  10  21  41  64  96 131 175 229 281 324 412
#     4  10  21  34  55  93 134 170 224 265 328 411
#     4  11  25  46  65 101 136 171 229 284 332 408
#
# _framework density 25.463252000000001
#
# number of rings (size 3 to 8) (size 9 to 14) (size 15 to 20)
#    0.000    1.500    2.500    2.250    5.250    0.000 
#    0.000    1.250    0.000    0.000    0.000    0.000 
#    0.000    0.000    0.000    0.000    0.000    0.000 
#
# Total GULP energy -178550.967135 kJ/mol
# GULP energy per Si atom -5579.717723 kJ/mol
# Density = 2.540530 g / cm^3
# Si number density = 25.463252 Si / 1000 Ang^3
#
#
#
# Elastic Constant Matrix: (Units=GPa)
#
#
# Indices 1 2 3 4 5 6 
#
# 1 53.3639 -0.6256 9.5379 0.0000 0.0000 0.0000
# 2 -0.6256 62.1355 18.2086 0.0000 0.0000 0.0000
# 3 9.5379 18.2086 113.4418 0.0000 0.0000 0.0000
# 4 0.0000 0.0000 0.0000 19.9124 0.0000 0.0000
# 5 0.0000 0.0000 0.0000 0.0000 25.2070 0.0000
# 6 0.0000 0.0000 0.0000 0.0000 0.0000 30.8083
#
#
#
# Elastic Compliance Matrix: (Units=1/GPa)
#
#
# Indices 1 2 3 4 5 6 
#
# 1 0.019054 0.000694 -0.001713 0.000000 0.000000 0.000000
# 2 0.000694 0.016914 -0.002773 0.000000 0.000000 0.000000
# 3 -0.001713 -0.002773 0.009404 0.000000 0.000000 0.000000
# 4 0.000000 0.000000 0.000000 0.050220 0.000000 0.000000
# 5 0.000000 0.000000 0.000000 0.000000 0.039671 0.000000
# 6 0.000000 0.000000 0.000000 0.000000 0.000000 0.032459
#
#
# Mechanical properties :
#
#
# Convention : Reuss Voigt Hill
#
# Bulk Modulus (GPa) = 26.46465 31.46478 28.96472
# Shear Modulus (GPa) = 26.60958 28.64023 27.62490
#
# Velocity S-wave (km/s) = 3.23618 3.35739 3.29734
# Velocity P-wave (km/s) = 4.93758 5.23576 5.08885
#
# Compressibility (1/GPa) = 0.03778625
#
# Stress axis : x y z
#
# Youngs Moduli (GPa) = 52.48342 59.12436 106.33474
#
# Poissons Ratio (x) = -0.04103 0.18219
# Poissons Ratio (y) = -0.03642 0.29488
# Poissons Ratio (z) = 0.08992 0.16396
#
# Static dielectric constant tensor:
#      x y z
#    x 2.105100 0.000000 0.000000 
#    y 0.000000 2.012380 0.000000 
#    z 0.000000 0.000000 2.120420 
# 
# From -- ./inp_files/2187.got.cif
#   From: 2010.05.17/outbox.cif.g08.bks.cpg/sg19_2_cif.got.tgz:2187.got - 2010.06.03 22:46:19.
