data_PCOD9314039
_publ_section_title
;
Structure prediction by ZEFSAII (Michael W. Deem and Ramdas Pophale) SiO2 
 PCOD9314039
Probable space group: P 21 21 21
;
_chemical_formula_sum "Si O2"
_cell_formula_units_Z 24
_cell_length_a 6.092868
_cell_length_b 7.515921
_cell_length_c 21.691093
_cell_angle_alpha 90.000000
_cell_angle_beta 90.000000
_cell_angle_gamma 90.000000
_cell_volume 993.311383
_symmetry_space_group_name_H-M "P 21 21 21"
_symmetry_group_IT_number 19
_symmetry_cell_setting 'orthorhombic'
loop_
_space_group_symop_operation_xyz
x,y,z
1/2-x,-y,1/2+z
1/2+x,1/2-y,-z
-x,1/2+y,1/2-z
loop_
_atom_site_type_symbol
_atom_site_label
_atom_site_fract_x
_atom_site_fract_y
_atom_site_fract_z
Si Si1 0.708744 0.058947 0.320219
Si Si2 0.134742 0.798358 0.740455
Si Si3 0.346122 0.053372 0.048669
Si Si4 0.070019 0.395690 0.069682
Si Si5 0.275541 0.672462 0.361133
Si Si6 0.600426 0.588016 0.837885
O O1 0.740826 0.892393 0.274106
O O2 0.743027 0.987885 0.389449
O O3 0.471658 0.147322 0.305439
O O4 0.889250 0.213288 0.312904
O O5 0.913132 0.783183 0.699028
O O6 0.274242 0.953863 0.708473
O O7 0.174134 0.216074 0.040438
O O8 0.549490 0.133472 0.086275
O O9 0.231745 0.919012 0.096619
O O10 0.445492 0.995238 0.983306
O O11 0.890496 0.325630 0.118390
O O12 0.132777 0.496161 0.351468
#
# Coordination Sequence:
#
# PCOD9314039 Si02
#       6
#     4   4   4   4   4   4
#     4  12  23  44  67  97 135 180 222 280 344 404
#     4  11  23  43  67  93 137 174 217 285 339 394
#     4  10  20  40  65  94 134 172 216 278 330 401
#     4  11  21  39  70  98 129 178 222 271 347 399
#     4  10  20  41  65  94 129 176 217 274 330 398
#     4  10  23  43  62  96 134 172 228 272 332 402
#
# _framework density 24.161607
#
# number of rings (size 3 to 8) (size 9 to 14) (size 15 to 20)
#    0.000    1.333    8.333    0.000    0.000    1.333 
#    9.000    0.000    0.000    0.000    0.000    0.000 
#    0.000    0.000    0.000    0.000    0.000    0.000 
#
# Total GULP energy -134249.443845 kJ/mol
# GULP energy per Si atom -5593.726827 kJ/mol
# Density = 2.410661 g / cm^3
# Si number density = 24.161607 Si / 1000 Ang^3
#
#
#
# Elastic Constant Matrix: (Units=GPa)
#
#
# Indices 1 2 3 4 5 6 
#
# 1 74.8590 9.5857 27.8750 0.0000 0.0000 0.0000
# 2 9.5857 117.9527 23.7403 0.0000 0.0000 0.0000
# 3 27.8750 23.7403 112.8725 0.0000 0.0000 0.0000
# 4 0.0000 0.0000 0.0000 28.2172 0.0000 0.0000
# 5 0.0000 0.0000 0.0000 0.0000 47.0712 0.0000
# 6 0.0000 0.0000 0.0000 0.0000 0.0000 28.5953
#
#
#
# Elastic Compliance Matrix: (Units=1/GPa)
#
#
# Indices 1 2 3 4 5 6 
#
# 1 0.014738 -0.000486 -0.003538 0.000000 0.000000 0.000000
# 2 -0.000486 0.008869 -0.001745 0.000000 0.000000 0.000000
# 3 -0.003538 -0.001745 0.010100 0.000000 0.000000 0.000000
# 4 0.000000 0.000000 0.000000 0.035439 0.000000 0.000000
# 5 0.000000 0.000000 0.000000 0.000000 0.021244 0.000000
# 6 0.000000 0.000000 0.000000 0.000000 0.000000 0.034971
#
#
# Mechanical properties :
#
#
# Convention : Reuss Voigt Hill
#
# Bulk Modulus (GPa) = 45.10667 47.56516 46.33591
# Shear Modulus (GPa) = 34.65277 37.07563 35.86420
#
# Velocity S-wave (km/s) = 3.79120 3.92150 3.85690
# Velocity P-wave (km/s) = 6.15415 6.34297 6.24927
#
# Compressibility (1/GPa) = 0.02216967
#
# Stress axis : x y z
#
# Youngs Moduli (GPa) = 67.85225 112.75555 99.00712
#
# Poissons Ratio (x) = 0.05477 0.35024
# Poissons Ratio (y) = 0.03296 0.17281
# Poissons Ratio (z) = 0.24003 0.19680
#
# Static dielectric constant tensor:
#      x y z
#    x 1.908290 0.000000 0.000000 
#    y 0.000000 1.943990 0.000000 
#    z 0.000000 0.000000 1.980010 
# 
# From -- ./inp_files/485.got.cif
#   From: 2010.05.17/outbox.cif.g08.bks.cpg/sg19_1_cif.got.tgz:485.got - 2010.06.03 22:46:19.
