data_PCOD9314894
_publ_section_title
;
Structure prediction by ZEFSAII (Michael W. Deem and Ramdas Pophale) SiO2 
 PCOD9314894
Probable space group: P 21 21 21
;
_chemical_formula_sum "Si O2"
_cell_formula_units_Z 28
_cell_length_a 5.586537
_cell_length_b 16.333722
_cell_length_c 13.528228
_cell_angle_alpha 90.000000
_cell_angle_beta 90.000000
_cell_angle_gamma 90.000000
_cell_volume 1234.436496
_symmetry_space_group_name_H-M "P 21 21 21"
_symmetry_group_IT_number 19
_symmetry_cell_setting 'orthorhombic'
loop_
_space_group_symop_operation_xyz
x,y,z
1/2-x,-y,1/2+z
1/2+x,1/2-y,-z
-x,1/2+y,1/2-z
loop_
_atom_site_type_symbol
_atom_site_label
_atom_site_fract_x
_atom_site_fract_y
_atom_site_fract_z
Si Si1 0.277198 0.536100 0.999703
Si Si2 0.611779 0.519556 0.186715
Si Si3 0.287287 0.458603 0.807499
Si Si4 0.794108 0.762653 0.440619
Si Si5 0.591584 0.323957 0.742440
Si Si6 0.494391 0.566915 0.632451
Si Si7 0.157888 0.278553 0.449659
O O1 0.374577 0.474651 0.917008
O O2 0.276123 0.625810 0.954607
O O3 0.430133 0.538436 0.099113
O O4 0.033069 0.497123 0.041696
O O5 0.489610 0.520020 0.293714
O O6 0.781168 0.598072 0.193141
O O7 0.726649 0.432612 0.158139
O O8 0.338927 0.366256 0.772194
O O9 0.398819 0.525505 0.733025
O O10 0.536020 0.758840 0.495360
O O11 0.790152 0.704842 0.344096
O O12 0.858202 0.852707 0.398755
O O13 0.597332 0.253994 0.660191
O O14 0.406147 0.236617 0.490395
#
# Coordination Sequence:
#
# PCOD9314894 Si02
#       7
#     4   4   4   4   4   4   4
#     4  11  23  42  72 102 140 193 249 295 368 447
#     4  10  22  43  71  98 146 182 246 301 369 435
#     4  10  23  42  69 102 136 195 234 307 364 441
#     4  12  30  48  75 109 148 201 251 303 374 444
#     4  11  25  46  70 106 150 190 243 311 368 436
#     4  10  24  44  66 104 141 190 243 304 358 448
#     4  12  25  45  73 109 147 191 242 309 379 431
#
# _framework density 22.682414999999999
#
# number of rings (size 3 to 8) (size 9 to 14) (size 15 to 20)
#    0.000    1.143    1.429    4.286   10.000    1.143 
#    2.571    0.000    0.000    0.000    0.000    0.000 
#    0.000    0.000    0.000    0.000    0.000    0.000 
#
# Total GULP energy -156015.266167 kJ/mol
# GULP energy per Si atom -5571.973792 kJ/mol
# Density = 2.263079 g / cm^3
# Si number density = 22.682415 Si / 1000 Ang^3
#
#
#
# Elastic Constant Matrix: (Units=GPa)
#
#
# Indices 1 2 3 4 5 6 
#
# 1 58.2736 1.8992 17.2167 0.0000 0.0000 0.0000
# 2 1.8992 42.8083 14.4686 0.0000 0.0000 0.0000
# 3 17.2167 14.4686 120.6259 0.0000 0.0000 0.0000
# 4 0.0000 0.0000 0.0000 30.2738 0.0000 0.0000
# 5 0.0000 0.0000 0.0000 0.0000 22.0676 0.0000
# 6 0.0000 0.0000 0.0000 0.0000 0.0000 18.0059
#
#
#
# Elastic Compliance Matrix: (Units=1/GPa)
#
#
# Indices 1 2 3 4 5 6 
#
# 1 0.017916 0.000072 -0.002566 0.000000 0.000000 0.000000
# 2 0.000072 0.024347 -0.002931 0.000000 0.000000 0.000000
# 3 -0.002566 -0.002931 0.009008 0.000000 0.000000 0.000000
# 4 0.000000 0.000000 0.000000 0.033032 0.000000 0.000000
# 5 0.000000 0.000000 0.000000 0.000000 0.045315 0.000000
# 6 0.000000 0.000000 0.000000 0.000000 0.000000 0.055537
#
#
# Mechanical properties :
#
#
# Convention : Reuss Voigt Hill
#
# Bulk Modulus (GPa) = 24.73839 32.09740 28.41790
# Shear Modulus (GPa) = 23.86880 26.61101 25.23990
#
# Velocity S-wave (km/s) = 3.24744 3.42892 3.33941
# Velocity P-wave (km/s) = 4.99913 5.46426 5.23686
#
# Compressibility (1/GPa) = 0.04042300
#
# Stress axis : x y z
#
# Youngs Moduli (GPa) = 55.81563 41.07230 111.01444
#
# Poissons Ratio (x) = -0.00297 0.28484
# Poissons Ratio (y) = -0.00404 0.32535
# Poissons Ratio (z) = 0.14321 0.12037
#
# Static dielectric constant tensor:
#      x y z
#    x 2.150770 0.000000 0.000000 
#    y 0.000000 1.847470 0.000000 
#    z 0.000000 0.000000 1.842620 
# 
# From -- ./inp_files/5683.got.cif
#   From: 2010.05.17/outbox.cif.g08.bks.cpg/sg19_3_cif.got.tgz:5683.got - 2010.06.03 22:46:19.
