data_PCOD9314626
_publ_section_title
;
Structure prediction by ZEFSAII (Michael W. Deem and Ramdas Pophale) SiO2 
 PCOD9314626
Probable space group: P 21 21 21
;
_chemical_formula_sum "Si O2"
_cell_formula_units_Z 28
_cell_length_a 24.976918
_cell_length_b 9.942510
_cell_length_c 5.496735
_cell_angle_alpha 90.000000
_cell_angle_beta 90.000000
_cell_angle_gamma 90.000000
_cell_volume 1365.022105
_symmetry_space_group_name_H-M "P 21 21 21"
_symmetry_group_IT_number 19
_symmetry_cell_setting 'orthorhombic'
loop_
_space_group_symop_operation_xyz
x,y,z
1/2-x,-y,1/2+z
1/2+x,1/2-y,-z
-x,1/2+y,1/2-z
loop_
_atom_site_type_symbol
_atom_site_label
_atom_site_fract_x
_atom_site_fract_y
_atom_site_fract_z
Si Si1 0.343543 0.224718 0.186126
Si Si2 0.801868 0.063202 0.151998
Si Si3 0.958334 0.200041 0.654507
Si Si4 0.051157 0.418792 0.619963
Si Si5 0.742387 0.218441 0.484900
Si Si6 0.216180 0.011152 0.452583
Si Si7 0.403092 0.517255 0.612551
O O1 0.404136 0.220858 0.274027
O O2 0.296768 0.228219 0.388167
O O3 0.328017 0.101071 0.009495
O O4 0.337593 0.368536 0.053261
O O5 0.758006 0.176858 0.212261
O O6 0.774848 0.923385 0.093408
O O7 0.842475 0.033895 0.370972
O O8 0.005243 0.306462 0.625467
O O9 0.969152 0.074255 0.839330
O O10 0.941213 0.113943 0.416757
O O11 0.082090 0.411666 0.364500
O O12 0.086879 0.401230 0.864550
O O13 0.698813 0.333270 0.523135
O O14 0.242199 0.996625 0.184136
#
# Coordination Sequence:
#
# PCOD9314626 Si02
#       7
#     4   4   4   4   4   4   4
#     4  11  21  40  63  90 128 175 210 260 327 383
#     4  12  20  38  64  91 130 174 219 262 321 381
#     4  10  23  42  70  93 125 166 217 266 334 387
#     4  10  23  41  68  91 125 161 213 273 322 386
#     4  11  22  36  61  96 128 174 215 265 305 384
#     4  10  22  39  59  87 130 168 208 256 307 371
#     4  10  23  40  65  92 126 164 210 266 326 382
#
# _framework density 20.512488000000001
#
# number of rings (size 3 to 8) (size 9 to 14) (size 15 to 20)
#    0.857    0.571    5.714    0.000    2.000    0.000 
#    2.571    0.000    9.429    0.000    0.000    0.000 
#    0.000    0.000    0.000    0.000    0.000    0.000 
#
# Total GULP energy -155906.224284 kJ/mol
# GULP energy per Si atom -5568.079439 kJ/mol
# Density = 2.046580 g / cm^3
# Si number density = 20.512488 Si / 1000 Ang^3
#
#
#
# Elastic Constant Matrix: (Units=GPa)
#
#
# Indices 1 2 3 4 5 6 
#
# 1 25.3845 5.2539 16.3470 0.0000 0.0000 0.0000
# 2 5.2539 65.3265 2.1466 0.0000 0.0000 0.0000
# 3 16.3470 2.1466 96.6295 0.0000 0.0000 0.0000
# 4 0.0000 0.0000 0.0000 28.2226 0.0000 0.0000
# 5 0.0000 0.0000 0.0000 0.0000 21.4518 0.0000
# 6 0.0000 0.0000 0.0000 0.0000 0.0000 39.1991
#
#
#
# Elastic Compliance Matrix: (Units=1/GPa)
#
#
# Indices 1 2 3 4 5 6 
#
# 1 0.044938 -0.003367 -0.007528 0.000000 0.000000 0.000000
# 2 -0.003367 0.015571 0.000224 0.000000 0.000000 0.000000
# 3 -0.007528 0.000224 0.011617 0.000000 0.000000 0.000000
# 4 0.000000 0.000000 0.000000 0.035433 0.000000 0.000000
# 5 0.000000 0.000000 0.000000 0.000000 0.046616 0.000000
# 6 0.000000 0.000000 0.000000 0.000000 0.000000 0.025511
#
#
# Mechanical properties :
#
#
# Convention : Reuss Voigt Hill
#
# Bulk Modulus (GPa) = 19.69066 26.09283 22.89174
# Shear Modulus (GPa) = 22.94037 28.68089 25.81063
#
# Velocity S-wave (km/s) = 3.34782 3.74333 3.55108
# Velocity P-wave (km/s) = 4.95621 5.60637 5.29129
#
# Compressibility (1/GPa) = 0.05078550
#
# Stress axis : x y z
#
# Youngs Moduli (GPa) = 22.25266 64.22132 86.07856
#
# Poissons Ratio (x) = 0.21622 0.64796
# Poissons Ratio (y) = 0.07492 -0.01925
# Poissons Ratio (z) = 0.16751 -0.01436
#
# Static dielectric constant tensor:
#      x y z
#    x 1.715280 0.000000 0.000000 
#    y 0.000000 1.781130 0.000000 
#    z 0.000000 0.000000 1.828660 
# 
# From -- ./inp_files/617.got.cif
#   From: 2010.05.17/outbox.cif.g08.bks.cpg/sg19_1_cif.got.tgz:617.got - 2010.06.03 22:46:19.
