data_PCOD9314189
_publ_section_title
;
Structure prediction by ZEFSAII (Michael W. Deem and Ramdas Pophale) SiO2 
 PCOD9314189
Probable space group: P 21 21 21
;
_chemical_formula_sum "Si O2"
_cell_formula_units_Z 32
_cell_length_a 11.112333
_cell_length_b 14.249270
_cell_length_c 8.074736
_cell_angle_alpha 90.000000
_cell_angle_beta 90.000000
_cell_angle_gamma 90.000000
_cell_volume 1278.574961
_symmetry_space_group_name_H-M "P 21 21 21"
_symmetry_group_IT_number 19
_symmetry_cell_setting 'orthorhombic'
loop_
_space_group_symop_operation_xyz
x,y,z
1/2-x,-y,1/2+z
1/2+x,1/2-y,-z
-x,1/2+y,1/2-z
loop_
_atom_site_type_symbol
_atom_site_label
_atom_site_fract_x
_atom_site_fract_y
_atom_site_fract_z
Si Si1 0.824658 0.292341 0.888009
Si Si2 0.069167 0.231664 0.720570
Si Si3 0.801105 0.158260 0.171946
Si Si4 0.580405 0.519958 0.520462
Si Si5 0.920443 0.973199 0.163542
Si Si6 0.483565 0.223993 0.629054
Si Si7 0.031170 0.024456 0.813215
Si Si8 0.776010 0.378971 0.576747
O O1 0.737382 0.316250 0.734381
O O2 0.953507 0.280790 0.800351
O O3 0.790361 0.198679 0.985555
O O4 0.849936 0.380382 0.009738
O O5 0.186568 0.295223 0.739744
O O6 0.039457 0.222901 0.527155
O O7 0.069443 0.132480 0.812965
O O8 0.813227 0.046814 0.198296
O O9 0.925705 0.206258 0.237589
O O10 0.521921 0.504592 0.698695
O O11 0.485085 0.505763 0.369815
O O12 0.675553 0.438348 0.487903
O O13 0.924203 0.859902 0.175778
O O14 0.953839 0.999495 0.974313
O O15 0.364584 0.172271 0.550678
O O16 0.146513 0.959263 0.833873
#
# Coordination Sequence:
#
# PCOD9314189 Si02
#       8
#     4   4   4   4   4   4   4   4
#     4  10  22  39  63  99 137 165 224 287 337 413
#     4  11  23  43  66  95 139 180 222 288 348 412
#     4  12  23  42  71  96 133 189 225 277 359 414
#     4  11  21  38  66  97 130 173 220 284 344 393
#     4  11  24  41  65  99 132 178 231 279 338 412
#     4  10  23  44  65  98 139 172 231 293 327 410
#     4  10  21  36  62  95 134 164 215 285 331 406
#     4   9  21  35  64 101 128 169 214 283 356 390
#
# _framework density 25.027863
#
# number of rings (size 3 to 8) (size 9 to 14) (size 15 to 20)
#    0.000    1.500    2.500    3.000    8.750    0.000 
#    2.250    1.250    0.000    0.000    0.000    0.000 
#    0.000    0.000    0.000    0.000    0.000    0.000 
#
# Total GULP energy -178837.067879 kJ/mol
# GULP energy per Si atom -5588.658371 kJ/mol
# Density = 2.497090 g / cm^3
# Si number density = 25.027863 Si / 1000 Ang^3
#
#
#
# Elastic Constant Matrix: (Units=GPa)
#
#
# Indices 1 2 3 4 5 6 
#
# 1 28.2463 6.4842 9.7897 0.0000 0.0000 0.0000
# 2 6.4842 81.9467 10.1963 0.0000 0.0000 0.0000
# 3 9.7897 10.1963 78.2370 0.0000 0.0000 0.0000
# 4 0.0000 0.0000 0.0000 37.7149 0.0000 0.0000
# 5 0.0000 0.0000 0.0000 0.0000 25.7526 0.0000
# 6 0.0000 0.0000 0.0000 0.0000 0.0000 21.7077
#
#
#
# Elastic Compliance Matrix: (Units=1/GPa)
#
#
# Indices 1 2 3 4 5 6 
#
# 1 0.037474 -0.002421 -0.004374 0.000000 0.000000 0.000000
# 2 -0.002421 0.012561 -0.001334 0.000000 0.000000 0.000000
# 3 -0.004374 -0.001334 0.013503 0.000000 0.000000 0.000000
# 4 0.000000 0.000000 0.000000 0.026515 0.000000 0.000000
# 5 0.000000 0.000000 0.000000 0.000000 0.038831 0.000000
# 6 0.000000 0.000000 0.000000 0.000000 0.000000 0.046067
#
#
# Mechanical properties :
#
#
# Convention : Reuss Voigt Hill
#
# Bulk Modulus (GPa) = 21.15039 26.81895 23.98467
# Shear Modulus (GPa) = 24.15835 27.83235 25.99535
#
# Velocity S-wave (km/s) = 3.11023 3.33837 3.22632
# Velocity P-wave (km/s) = 4.62246 5.05949 4.84591
#
# Compressibility (1/GPa) = 0.04728045
#
# Stress axis : x y z
#
# Youngs Moduli (GPa) = 26.68484 79.61390 74.05867
#
# Poissons Ratio (x) = 0.19275 0.32391
# Poissons Ratio (y) = 0.06461 0.09880
# Poissons Ratio (z) = 0.11671 0.10621
#
# Static dielectric constant tensor:
#      x y z
#    x 1.994490 0.000000 0.000000 
#    y 0.000000 2.024250 0.000000 
#    z 0.000000 0.000000 2.040600 
# 
# From -- ./inp_files/3567.got.cif
#   From: 2010.05.17/outbox.cif.g08.bks.cpg/sg19_2_cif.got.tgz:3567.got - 2010.06.03 22:46:19.
