data_PCOD9314057
_publ_section_title
;
Structure prediction by ZEFSAII (Michael W. Deem and Ramdas Pophale) SiO2 
 PCOD9314057
Probable space group: P 21 21 21
;
_chemical_formula_sum "Si O2"
_cell_formula_units_Z 32
_cell_length_a 8.462825
_cell_length_b 9.336112
_cell_length_c 16.240830
_cell_angle_alpha 90.000000
_cell_angle_beta 90.000000
_cell_angle_gamma 90.000000
_cell_volume 1283.186062
_symmetry_space_group_name_H-M "P 21 21 21"
_symmetry_group_IT_number 19
_symmetry_cell_setting 'orthorhombic'
loop_
_space_group_symop_operation_xyz
x,y,z
1/2-x,-y,1/2+z
1/2+x,1/2-y,-z
-x,1/2+y,1/2-z
loop_
_atom_site_type_symbol
_atom_site_label
_atom_site_fract_x
_atom_site_fract_y
_atom_site_fract_z
Si Si1 0.451080 0.566507 0.036651
Si Si2 0.006221 0.608449 0.243673
Si Si3 0.600386 0.809278 0.931300
Si Si4 0.491710 0.416334 0.195466
Si Si5 0.578039 0.591967 0.527566
Si Si6 0.513918 0.593139 0.352697
Si Si7 0.135275 0.340572 0.170303
Si Si8 0.193847 0.641246 0.411428
O O1 0.558383 0.667585 0.980721
O O2 0.408751 0.424912 0.984686
O O3 0.280360 0.641661 0.052521
O O4 0.536931 0.521523 0.120879
O O5 0.073665 0.697471 0.166668
O O6 0.004510 0.445746 0.212174
O O7 0.115302 0.616400 0.323485
O O8 0.855551 0.691984 0.280090
O O9 0.466305 0.927253 0.957252
O O10 0.544875 0.479233 0.282437
O O11 0.525367 0.248096 0.185761
O O12 0.300166 0.418170 0.185223
O O13 0.624588 0.609994 0.431620
O O14 0.422652 0.663341 0.575517
O O15 0.708510 0.689402 0.572837
O O16 0.355553 0.554771 0.403990
#
# Coordination Sequence:
#
# PCOD9314057 Si02
#       8
#     4   4   4   4   4   4   4   4
#     4  12  24  45  70 100 140 185 225 286 346 408
#     4  10  20  40  69  98 126 177 226 279 327 401
#     4  11  24  42  67 104 142 174 230 285 342 405
#     4  12  26  46  66  97 142 175 221 283 352 412
#     4  10  22  41  68  95 128 178 229 271 326 408
#     4  12  25  44  69  97 137 181 220 279 352 409
#     4  10  20  43  67  97 130 167 226 277 330 394
#     4  11  21  43  74  92 133 183 231 278 337 403
#
# _framework density 24.937929
#
# number of rings (size 3 to 8) (size 9 to 14) (size 15 to 20)
#    0.000    1.000    6.250    0.750    1.750    1.000 
#    6.750    0.000    0.000    0.000    0.000    0.000 
#    0.000    0.000    0.000    0.000    0.000    0.000 
#
# Total GULP energy -178665.219829 kJ/mol
# GULP energy per Si atom -5583.288120 kJ/mol
# Density = 2.488117 g / cm^3
# Si number density = 24.937929 Si / 1000 Ang^3
#
#
#
# Elastic Constant Matrix: (Units=GPa)
#
#
# Indices 1 2 3 4 5 6 
#
# 1 29.8997 4.9172 5.4970 0.0000 0.0000 0.0000
# 2 4.9172 63.5872 19.7910 0.0000 0.0000 0.0000
# 3 5.4970 19.7910 154.4837 0.0000 0.0000 0.0000
# 4 0.0000 0.0000 0.0000 52.0065 0.0000 0.0000
# 5 0.0000 0.0000 0.0000 0.0000 20.0653 0.0000
# 6 0.0000 0.0000 0.0000 0.0000 0.0000 34.5869
#
#
#
# Elastic Compliance Matrix: (Units=1/GPa)
#
#
# Indices 1 2 3 4 5 6 
#
# 1 0.033998 -0.002346 -0.000909 0.000000 0.000000 0.000000
# 2 -0.002346 0.016541 -0.002036 0.000000 0.000000 0.000000
# 3 -0.000909 -0.002036 0.006766 0.000000 0.000000 0.000000
# 4 0.000000 0.000000 0.000000 0.019228 0.000000 0.000000
# 5 0.000000 0.000000 0.000000 0.000000 0.049837 0.000000
# 6 0.000000 0.000000 0.000000 0.000000 0.000000 0.028913
#
#
# Mechanical properties :
#
#
# Convention : Reuss Voigt Hill
#
# Bulk Modulus (GPa) = 21.40229 34.26454 27.83341
# Shear Modulus (GPa) = 27.55722 35.84945 31.70333
#
# Velocity S-wave (km/s) = 3.32781 3.79561 3.56938
# Velocity P-wave (km/s) = 4.83390 5.74271 5.30779
#
# Compressibility (1/GPa) = 0.04672397
#
# Stress axis : x y z
#
# Youngs Moduli (GPa) = 29.41342 60.45421 147.79091
#
# Poissons Ratio (x) = 0.14183 0.13437
# Poissons Ratio (y) = 0.06901 0.30085
# Poissons Ratio (z) = 0.02674 0.12306
#
# Static dielectric constant tensor:
#      x y z
#    x 2.085710 0.000000 0.000000 
#    y 0.000000 1.977480 0.000000 
#    z 0.000000 0.000000 1.954710 
# 
# From -- ./inp_files/6104.got.cif
#   From: 2010.05.17/outbox.cif.g08.bks.cpg/sg19_4_cif.got.tgz:6104.got - 2010.06.03 22:46:19.
