data_PCOD9314439
_publ_section_title
;
Structure prediction by ZEFSAII (Michael W. Deem and Ramdas Pophale) SiO2 
 PCOD9314439
Probable space group: P 21 21 21
;
_chemical_formula_sum "Si O2"
_cell_formula_units_Z 28
_cell_length_a 23.124537
_cell_length_b 5.133018
_cell_length_c 9.815276
_cell_angle_alpha 90.000000
_cell_angle_beta 90.000000
_cell_angle_gamma 90.000000
_cell_volume 1165.060154
_symmetry_space_group_name_H-M "P 21 21 21"
_symmetry_group_IT_number 19
_symmetry_cell_setting 'orthorhombic'
loop_
_space_group_symop_operation_xyz
x,y,z
1/2-x,-y,1/2+z
1/2+x,1/2-y,-z
-x,1/2+y,1/2-z
loop_
_atom_site_type_symbol
_atom_site_label
_atom_site_fract_x
_atom_site_fract_y
_atom_site_fract_z
Si Si1 0.662880 0.801131 0.667963
Si Si2 0.912439 0.670131 0.137471
Si Si3 0.682803 0.480669 0.943692
Si Si4 0.591048 0.936076 0.161321
Si Si5 0.019413 0.359999 0.607980
Si Si6 0.282394 0.466469 0.431974
Si Si7 0.439755 0.812955 0.551226
O O1 0.628927 0.568352 0.592189
O O2 0.674807 0.637721 0.805578
O O3 0.725053 0.909731 0.626496
O O4 0.622314 0.057691 0.660502
O O5 0.941167 0.634215 0.287786
O O6 0.958701 0.692226 0.018824
O O7 0.617137 0.474693 0.001597
O O8 0.701329 0.179197 0.949409
O O9 0.726087 0.667721 0.024292
O O10 0.570645 0.126273 0.283223
O O11 0.660696 0.936601 0.163778
O O12 0.539577 0.727389 0.182490
O O13 0.577554 0.032152 0.006504
O O14 0.997697 0.613438 0.526040
#
# Coordination Sequence:
#
# PCOD9314439 Si02
#       7
#     4   4   4   4   4   4   4
#     4  11  24  47  65 102 140 181 242 299 341 424
#     4  11  28  43  72 105 141 185 236 300 359 411
#     4  10  21  41  66  99 128 182 229 287 342 422
#     4  11  24  43  65 105 138 188 226 291 355 427
#     4  12  25  43  70 104 146 178 235 301 357 426
#     4  11  23  41  72  93 135 186 235 276 357 415
#     4  10  23  42  68  94 140 182 229 280 359 429
#
# _framework density 24.033094999999999
#
# number of rings (size 3 to 8) (size 9 to 14) (size 15 to 20)
#    0.000    1.143    2.857    3.429    6.000    2.286 
#    0.000    1.429    0.000    0.000    0.000    0.000 
#    0.000    0.000    0.000    0.000    0.000    0.000 
#
# Total GULP energy -155899.871331 kJ/mol
# GULP energy per Si atom -5567.852548 kJ/mol
# Density = 2.397839 g / cm^3
# Si number density = 24.033095 Si / 1000 Ang^3
#
#
#
# Elastic Constant Matrix: (Units=GPa)
#
#
# Indices 1 2 3 4 5 6 
#
# 1 76.1634 16.9434 26.5879 0.0000 0.0000 0.0000
# 2 16.9434 99.2096 -0.1789 0.0000 0.0000 0.0000
# 3 26.5879 -0.1789 57.5395 0.0000 0.0000 0.0000
# 4 0.0000 0.0000 0.0000 15.5516 0.0000 0.0000
# 5 0.0000 0.0000 0.0000 0.0000 25.6277 0.0000
# 6 0.0000 0.0000 0.0000 0.0000 0.0000 39.4351
#
#
#
# Elastic Compliance Matrix: (Units=1/GPa)
#
#
# Indices 1 2 3 4 5 6 
#
# 1 0.016405 -0.002815 -0.007589 0.000000 0.000000 0.000000
# 2 -0.002815 0.010563 0.001334 0.000000 0.000000 0.000000
# 3 -0.007589 0.001334 0.020890 0.000000 0.000000 0.000000
# 4 0.000000 0.000000 0.000000 0.064302 0.000000 0.000000
# 5 0.000000 0.000000 0.000000 0.000000 0.039020 0.000000
# 6 0.000000 0.000000 0.000000 0.000000 0.000000 0.025358
#
#
# Mechanical properties :
#
#
# Convention : Reuss Voigt Hill
#
# Bulk Modulus (GPa) = 33.65111 35.51301 34.58206
# Shear Modulus (GPa) = 24.43951 28.76023 26.59987
#
# Velocity S-wave (km/s) = 3.19236 3.46308 3.33047
# Velocity P-wave (km/s) = 5.25553 5.54971 5.40463
#
# Compressibility (1/GPa) = 0.02971670
#
# Stress axis : x y z
#
# Youngs Moduli (GPa) = 60.95573 94.67092 47.86886
#
# Poissons Ratio (x) = 0.26654 0.36329
# Poissons Ratio (y) = 0.17162 -0.06385
# Poissons Ratio (z) = 0.46261 -0.12627
#
# Static dielectric constant tensor:
#      x y z
#    x 1.954100 0.000000 0.000000 
#    y 0.000000 2.052990 0.000000 
#    z 0.000000 0.000000 1.986070 
# 
# From -- ./inp_files/4360.got.cif
#   From: 2010.05.17/outbox.cif.g08.bks.cpg/sg19_3_cif.got.tgz:4360.got - 2010.06.03 22:46:19.
