data_PCOD9314318
_publ_section_title
;
Structure prediction by ZEFSAII (Michael W. Deem and Ramdas Pophale) SiO2 
 PCOD9314318
Probable space group: P 21 21 21
;
_chemical_formula_sum "Si O2"
_cell_formula_units_Z 28
_cell_length_a 10.884773
_cell_length_b 18.401922
_cell_length_c 5.287604
_cell_angle_alpha 90.000000
_cell_angle_beta 90.000000
_cell_angle_gamma 90.000000
_cell_volume 1059.111014
_symmetry_space_group_name_H-M "P 21 21 21"
_symmetry_group_IT_number 19
_symmetry_cell_setting 'orthorhombic'
loop_
_space_group_symop_operation_xyz
x,y,z
1/2-x,-y,1/2+z
1/2+x,1/2-y,-z
-x,1/2+y,1/2-z
loop_
_atom_site_type_symbol
_atom_site_label
_atom_site_fract_x
_atom_site_fract_y
_atom_site_fract_z
Si Si1 0.816744 0.207958 0.959432
Si Si2 0.502581 0.116473 0.497389
Si Si3 0.230941 0.954933 0.712352
Si Si4 0.645209 0.077085 0.004255
Si Si5 0.929064 0.077131 0.484104
Si Si6 0.849263 0.245026 0.460503
Si Si7 0.954768 0.617357 0.509791
O O1 0.760041 0.127910 0.943299
O O2 0.777439 0.252577 0.717572
O O3 0.777170 0.252577 0.203331
O O4 0.965203 0.192483 0.978312
O O5 0.386158 0.076704 0.364210
O O6 0.549737 0.091357 0.773256
O O7 0.461403 0.199904 0.531745
O O8 0.602217 0.106032 0.277794
O O9 0.319496 0.891628 0.602437
O O10 0.208811 0.997989 0.444749
O O11 0.659919 0.990628 0.031077
O O12 0.880688 0.159480 0.471423
O O13 0.977791 0.067794 0.200710
O O14 0.026318 0.081971 0.714537
#
# Coordination Sequence:
#
# PCOD9314318 Si02
#       7
#     4   4   4   4   4   4   4
#     4  10  23  44  69 101 141 176 244 286 367 427
#     4  12  26  45  69 103 150 184 242 295 359 422
#     4  12  24  42  68 101 144 192 243 290 345 417
#     4  12  24  43  73 105 139 183 235 309 357 429
#     4  10  21  40  68 100 136 176 232 286 358 416
#     4  10  23  45  65  99 143 186 229 290 356 438
#     4  10  21  39  64  99 133 185 227 284 340 417
#
# _framework density 26.437266000000001
#
# number of rings (size 3 to 8) (size 9 to 14) (size 15 to 20)
#    0.000    1.143    0.000    6.857    0.000    4.571 
#   15.429    0.000    3.143    0.000    0.000    0.000 
#    0.000    0.000    0.000    0.000    0.000    0.000 
#
# Total GULP energy -156369.869625 kJ/mol
# GULP energy per Si atom -5584.638201 kJ/mol
# Density = 2.637709 g / cm^3
# Si number density = 26.437266 Si / 1000 Ang^3
#
#
#
# Elastic Constant Matrix: (Units=GPa)
#
#
# Indices 1 2 3 4 5 6 
#
# 1 64.3414 23.3717 15.2299 0.0000 0.0000 0.0000
# 2 23.3717 137.2830 37.7705 0.0000 0.0000 0.0000
# 3 15.2299 37.7705 215.1389 0.0000 0.0000 0.0000
# 4 0.0000 0.0000 0.0000 27.8770 0.0000 0.0000
# 5 0.0000 0.0000 0.0000 0.0000 50.5245 0.0000
# 6 0.0000 0.0000 0.0000 0.0000 0.0000 25.2646
#
#
#
# Elastic Compliance Matrix: (Units=1/GPa)
#
#
# Indices 1 2 3 4 5 6 
#
# 1 0.016671 -0.002641 -0.000716 0.000000 0.000000 0.000000
# 2 -0.002641 0.008072 -0.001230 0.000000 0.000000 0.000000
# 3 -0.000716 -0.001230 0.004915 0.000000 0.000000 0.000000
# 4 0.000000 0.000000 0.000000 0.035872 0.000000 0.000000
# 5 0.000000 0.000000 0.000000 0.000000 0.019792 0.000000
# 6 0.000000 0.000000 0.000000 0.000000 0.000000 0.039581
#
#
# Mechanical properties :
#
#
# Convention : Reuss Voigt Hill
#
# Bulk Modulus (GPa) = 48.82169 63.27861 56.05015
# Shear Modulus (GPa) = 35.48451 43.42597 39.45524
#
# Velocity S-wave (km/s) = 3.66760 4.05730 3.86736
# Velocity P-wave (km/s) = 6.03673 6.77763 6.41788
#
# Compressibility (1/GPa) = 0.02048270
#
# Stress axis : x y z
#
# Youngs Moduli (GPa) = 59.98427 123.88009 203.46429
#
# Poissons Ratio (x) = 0.32717 0.14578
# Poissons Ratio (y) = 0.15842 0.25031
# Poissons Ratio (z) = 0.04298 0.15240
#
# Static dielectric constant tensor:
#      x y z
#    x 2.188600 0.000000 0.000000 
#    y 0.000000 2.042780 0.000000 
#    z 0.000000 0.000000 2.255320 
# 
# From -- ./inp_files/1542.got.cif
#   From: 2010.05.17/outbox.cif.g08.bks.cpg/sg19_1_cif.got.tgz:1542.got - 2010.06.03 22:46:19.
