data_PCOD9314031
_publ_section_title
;
Structure prediction by ZEFSAII (Michael W. Deem and Ramdas Pophale) SiO2 
 PCOD9314031
Probable space group: P 21 21 21
;
_chemical_formula_sum "Si O2"
_cell_formula_units_Z 28
_cell_length_a 12.946826
_cell_length_b 9.760107
_cell_length_c 12.096645
_cell_angle_alpha 90.000000
_cell_angle_beta 90.000000
_cell_angle_gamma 90.000000
_cell_volume 1528.561180
_symmetry_space_group_name_H-M "P 21 21 21"
_symmetry_group_IT_number 19
_symmetry_cell_setting 'orthorhombic'
loop_
_space_group_symop_operation_xyz
x,y,z
1/2-x,-y,1/2+z
1/2+x,1/2-y,-z
-x,1/2+y,1/2-z
loop_
_atom_site_type_symbol
_atom_site_label
_atom_site_fract_x
_atom_site_fract_y
_atom_site_fract_z
Si Si1 0.372368 0.161782 0.041601
Si Si2 0.753277 0.344129 0.734830
Si Si3 0.374874 0.103845 0.695834
Si Si4 0.107166 0.317835 0.978692
Si Si5 0.822497 0.501931 0.530470
Si Si6 0.610752 0.109677 0.763170
Si Si7 0.697615 0.838674 0.658196
O O1 0.322740 0.194875 0.159730
O O2 0.492710 0.133753 0.050654
O O3 0.361535 0.281895 0.950527
O O4 0.297673 0.040901 0.996333
O O5 0.666269 0.454331 0.770318
O O6 0.821805 0.420489 0.644288
O O7 0.687316 0.213086 0.699776
O O8 0.366796 0.096142 0.564259
O O9 0.490381 0.132891 0.736696
O O10 0.300800 0.212784 0.755620
O O11 0.190830 0.374331 0.891922
O O12 0.121766 0.151184 0.971415
O O13 0.126773 0.363807 0.105587
O O14 0.640755 0.960109 0.720668
#
# Coordination Sequence:
#
# PCOD9314031 Si02
#       7
#     4   4   4   4   4   4   4
#     4  10  20  40  64  87 125 165 202 252 317 365
#     4  11  21  42  62  92 124 166 204 256 311 376
#     4  11  20  39  65  93 115 166 213 253 301 379
#     4  11  20  40  62  89 126 166 200 259 315 364
#     4  10  21  40  67  88 121 165 219 249 301 382
#     4  12  22  36  66  91 125 159 206 260 310 362
#     4  11  22  37  60  96 122 155 208 257 309 362
#
# _framework density 18.317881
#
# number of rings (size 3 to 8) (size 9 to 14) (size 15 to 20)
#    0.000    1.143    8.571    1.714    0.000    1.143 
#    2.571    1.429    0.000    0.000    0.000    0.000 
#    0.000    0.000    0.000    0.000    0.000    0.000 
#
# Total GULP energy -156107.132183 kJ/mol
# GULP energy per Si atom -5575.254721 kJ/mol
# Density = 1.827619 g / cm^3
# Si number density = 18.317881 Si / 1000 Ang^3
#
#
#
# Elastic Constant Matrix: (Units=GPa)
#
#
# Indices 1 2 3 4 5 6 
#
# 1 82.1080 8.7001 24.6648 0.0000 0.0000 0.0000
# 2 8.7001 60.2094 33.5783 0.0000 0.0000 0.0000
# 3 24.6648 33.5783 99.2578 0.0000 0.0000 0.0000
# 4 0.0000 0.0000 0.0000 30.9060 0.0000 0.0000
# 5 0.0000 0.0000 0.0000 0.0000 22.6665 0.0000
# 6 0.0000 0.0000 0.0000 0.0000 0.0000 11.0577
#
#
#
# Elastic Compliance Matrix: (Units=1/GPa)
#
#
# Indices 1 2 3 4 5 6 
#
# 1 0.013162 -0.000096 -0.003238 0.000000 0.000000 0.000000
# 2 -0.000096 0.020471 -0.006902 0.000000 0.000000 0.000000
# 3 -0.003238 -0.006902 0.013214 0.000000 0.000000 0.000000
# 4 0.000000 0.000000 0.000000 0.032356 0.000000 0.000000
# 5 0.000000 0.000000 0.000000 0.000000 0.044118 0.000000
# 6 0.000000 0.000000 0.000000 0.000000 0.000000 0.090435
#
#
# Mechanical properties :
#
#
# Convention : Reuss Voigt Hill
#
# Bulk Modulus (GPa) = 37.91283 41.71795 39.81539
# Shear Modulus (GPa) = 20.57442 24.56817 22.57130
#
# Velocity S-wave (km/s) = 3.35504 3.66623 3.51408
# Velocity P-wave (km/s) = 5.97917 6.38322 6.18450
#
# Compressibility (1/GPa) = 0.02637630
#
# Stress axis : x y z
#
# Youngs Moduli (GPa) = 75.97644 48.84840 75.67635
#
# Poissons Ratio (x) = 0.00469 0.24505
# Poissons Ratio (y) = 0.00729 0.52228
# Poissons Ratio (z) = 0.24602 0.33713
#
# Static dielectric constant tensor:
#      x y z
#    x 1.639950 0.000000 0.000000 
#    y 0.000000 1.634560 0.000000 
#    z 0.000000 0.000000 1.662420 
# 
# From -- ./inp_files/4945.got.cif
#   From: 2010.05.17/outbox.cif.g08.bks.cpg/sg19_3_cif.got.tgz:4945.got - 2010.06.03 22:46:19.
