data_PCOD9314773
_publ_section_title
;
Structure prediction by ZEFSAII (Michael W. Deem and Ramdas Pophale) SiO2 
 PCOD9314773
Probable space group: P 21 21 21
;
_chemical_formula_sum "Si O2"
_cell_formula_units_Z 28
_cell_length_a 18.967410
_cell_length_b 6.364774
_cell_length_c 9.863322
_cell_angle_alpha 90.000000
_cell_angle_beta 90.000000
_cell_angle_gamma 90.000000
_cell_volume 1190.732564
_symmetry_space_group_name_H-M "P 21 21 21"
_symmetry_group_IT_number 19
_symmetry_cell_setting 'orthorhombic'
loop_
_space_group_symop_operation_xyz
x,y,z
1/2-x,-y,1/2+z
1/2+x,1/2-y,-z
-x,1/2+y,1/2-z
loop_
_atom_site_type_symbol
_atom_site_label
_atom_site_fract_x
_atom_site_fract_y
_atom_site_fract_z
Si Si1 0.340449 0.994134 0.231571
Si Si2 0.780453 0.825086 0.594483
Si Si3 0.879494 0.260766 0.033882
Si Si4 0.641941 0.791579 0.030833
Si Si5 0.980278 0.004642 0.409250
Si Si6 0.585155 0.152964 0.637571
Si Si7 0.180473 0.066702 0.171681
O O1 0.375411 0.125514 0.352374
O O2 0.328123 0.754318 0.279083
O O3 0.259388 0.062189 0.223742
O O4 0.371478 0.078288 0.091673
O O5 0.698929 0.743627 0.604663
O O6 0.812326 0.716426 0.460009
O O7 0.788788 0.073445 0.570873
O O8 0.957500 0.333177 0.084695
O O9 0.886691 0.007299 0.025331
O O10 0.653870 0.653704 0.894143
O O11 0.581478 0.967684 0.017760
O O12 0.940340 0.978089 0.267561
O O13 0.018775 0.226251 0.418819
O O14 0.633800 0.330479 0.709497
#
# Coordination Sequence:
#
# PCOD9314773 Si02
#       7
#     4   4   4   4   4   4   4
#     4  10  24  44  66 104 141 182 244 293 362 437
#     4  10  22  43  72 100 145 184 235 299 364 430
#     4  11  26  44  69 109 141 196 243 299 371 436
#     4  11  24  43  69 103 141 197 238 302 372 432
#     4  12  25  41  65 101 139 188 244 298 367 436
#     4  12  23  42  69 100 143 181 241 303 362 433
#     4  10  22  41  72 103 138 180 237 304 362 434
#
# _framework density 23.514935999999999
#
# number of rings (size 3 to 8) (size 9 to 14) (size 15 to 20)
#    0.000    1.143    2.857    2.571    2.000    5.714 
#    5.143    0.000    0.000    0.000    0.000    0.000 
#    0.000    0.000    0.000    0.000    0.000    0.000 
#
# Total GULP energy -155963.245572 kJ/mol
# GULP energy per Si atom -5570.115913 kJ/mol
# Density = 2.346141 g / cm^3
# Si number density = 23.514936 Si / 1000 Ang^3
#
#
#
# Elastic Constant Matrix: (Units=GPa)
#
#
# Indices 1 2 3 4 5 6 
#
# 1 60.7368 9.7513 3.2502 0.0000 0.0000 0.0000
# 2 9.7513 88.1553 5.2424 0.0000 0.0000 0.0000
# 3 3.2502 5.2424 41.0604 0.0000 0.0000 0.0000
# 4 0.0000 0.0000 0.0000 31.8619 0.0000 0.0000
# 5 0.0000 0.0000 0.0000 0.0000 11.1181 0.0000
# 6 0.0000 0.0000 0.0000 0.0000 0.0000 49.8755
#
#
#
# Elastic Compliance Matrix: (Units=1/GPa)
#
#
# Indices 1 2 3 4 5 6 
#
# 1 0.016811 -0.001794 -0.001102 0.000000 0.000000 0.000000
# 2 -0.001794 0.011622 -0.001342 0.000000 0.000000 0.000000
# 3 -0.001102 -0.001342 0.024613 0.000000 0.000000 0.000000
# 4 0.000000 0.000000 0.000000 0.031385 0.000000 0.000000
# 5 0.000000 0.000000 0.000000 0.000000 0.089943 0.000000
# 6 0.000000 0.000000 0.000000 0.000000 0.000000 0.020050
#
#
# Mechanical properties :
#
#
# Convention : Reuss Voigt Hill
#
# Bulk Modulus (GPa) = 22.43608 25.16003 23.79806
# Shear Modulus (GPa) = 22.96140 30.01836 26.48988
#
# Velocity S-wave (km/s) = 3.12823 3.57678 3.36000
# Velocity P-wave (km/s) = 4.75496 5.27074 5.01948
#
# Compressibility (1/GPa) = 0.04457107
#
# Stress axis : x y z
#
# Youngs Moduli (GPa) = 59.48319 86.04469 40.62914
#
# Poissons Ratio (x) = 0.15437 0.04476
# Poissons Ratio (y) = 0.10672 0.05452
# Poissons Ratio (z) = 0.06553 0.11545
#
# Static dielectric constant tensor:
#      x y z
#    x 1.868280 0.000000 0.000000 
#    y 0.000000 1.976410 0.000000 
#    z 0.000000 0.000000 1.938000 
# 
# From -- ./inp_files/5365.got.cif
#   From: 2010.05.17/outbox.cif.g08.bks.cpg/sg19_3_cif.got.tgz:5365.got - 2010.06.03 22:46:19.
