data_PCOD9314139
_publ_section_title
;
Structure prediction by ZEFSAII (Michael W. Deem and Ramdas Pophale) SiO2 
 PCOD9314139
Probable space group: P 21 21 21
;
_chemical_formula_sum "Si O2"
_cell_formula_units_Z 20
_cell_length_a 6.973388
_cell_length_b 5.687011
_cell_length_c 20.706837
_cell_angle_alpha 90.000000
_cell_angle_beta 90.000000
_cell_angle_gamma 90.000000
_cell_volume 821.186239
_symmetry_space_group_name_H-M "P 21 21 21"
_symmetry_group_IT_number 19
_symmetry_cell_setting 'orthorhombic'
loop_
_space_group_symop_operation_xyz
x,y,z
1/2-x,-y,1/2+z
1/2+x,1/2-y,-z
-x,1/2+y,1/2-z
loop_
_atom_site_type_symbol
_atom_site_label
_atom_site_fract_x
_atom_site_fract_y
_atom_site_fract_z
Si Si1 0.951865 0.452331 0.469452
Si Si2 0.814179 0.304571 0.860494
Si Si3 0.025461 0.569075 0.113699
Si Si4 0.093794 0.255410 0.263292
Si Si5 0.712645 0.237045 0.081565
O O1 0.972695 0.175668 0.457928
O O2 0.163663 0.558391 0.460523
O O3 0.808230 0.535947 0.410964
O O4 0.869668 0.561375 0.534291
O O5 0.764224 0.328244 0.784398
O O6 0.034668 0.346495 0.876519
O O7 0.735317 0.039775 0.874761
O O8 0.920504 0.759634 0.159238
O O9 0.880031 0.353922 0.123584
O O10 0.046536 0.526080 0.245477
#
# Coordination Sequence:
#
# PCOD9314139 Si02
#       5
#     4   4   4   4   4
#     4  11  22  41  62  89 129 166 215 272 329 397
#     4  10  22  43  64  90 126 174 215 269 332 390
#     4  10  24  40  63  93 126 169 219 271 334 396
#     4  10  20  43  71  96 133 178 223 275 338 401
#     4  11  24  39  62  96 126 169 222 273 331 400
#
# _framework density 24.355011999999999
#
# number of rings (size 3 to 8) (size 9 to 14) (size 15 to 20)
#    0.000    1.600    4.000    0.000    2.800    1.600 
#    3.600    0.000    0.000    0.000    0.000    0.000 
#    0.000    0.000    0.000    0.000    0.000    0.000 
#
# Total GULP energy -111367.554345 kJ/mol
# GULP energy per Si atom -5568.377717 kJ/mol
# Density = 2.429958 g / cm^3
# Si number density = 24.355012 Si / 1000 Ang^3
#
#
#
# Elastic Constant Matrix: (Units=GPa)
#
#
# Indices 1 2 3 4 5 6 
#
# 1 82.2470 15.9902 -18.8868 0.0000 0.0000 0.0000
# 2 15.9902 39.4170 -10.7786 0.0000 0.0000 0.0000
# 3 -18.8868 -10.7786 34.8814 0.0000 0.0000 0.0000
# 4 0.0000 0.0000 0.0000 43.6624 0.0000 0.0000
# 5 0.0000 0.0000 0.0000 0.0000 25.4535 0.0000
# 6 0.0000 0.0000 0.0000 0.0000 0.0000 19.9572
#
#
#
# Elastic Compliance Matrix: (Units=1/GPa)
#
#
# Indices 1 2 3 4 5 6 
#
# 1 0.014459 -0.004068 0.006571 0.000000 0.000000 0.000000
# 2 -0.004068 0.028856 0.006714 0.000000 0.000000 0.000000
# 3 0.006571 0.006714 0.034301 0.000000 0.000000 0.000000
# 4 0.000000 0.000000 0.000000 0.022903 0.000000 0.000000
# 5 0.000000 0.000000 0.000000 0.000000 0.039287 0.000000
# 6 0.000000 0.000000 0.000000 0.000000 0.000000 0.050107
#
#
# Mechanical properties :
#
#
# Convention : Reuss Voigt Hill
#
# Bulk Modulus (GPa) = 10.41123 14.35500 12.38312
# Shear Modulus (GPa) = 24.57048 29.16266 26.86657
#
# Velocity S-wave (km/s) = 3.17968 3.46410 3.32493
# Velocity P-wave (km/s) = 4.21480 4.68047 4.45373
#
# Compressibility (1/GPa) = 0.09605009
#
# Stress axis : x y z
#
# Youngs Moduli (GPa) = 69.16341 34.65468 29.15335
#
# Poissons Ratio (x) = 0.14099 -0.19158
# Poissons Ratio (y) = 0.28138 -0.19573
# Poissons Ratio (z) = -0.45451 -0.23267
#
# Static dielectric constant tensor:
#      x y z
#    x 1.898580 0.000000 0.000000 
#    y 0.000000 2.030200 0.000000 
#    z 0.000000 0.000000 2.130150 
# 
# From -- ./inp_files/141.got.cif
#   From: 2010.05.17/outbox.cif.g08.bks.cpg/sg19_1_cif.got.tgz:141.got - 2010.06.03 22:46:19.
