data_PCOD9314406
_publ_section_title
;
Structure prediction by ZEFSAII (Michael W. Deem and Ramdas Pophale) SiO2 
 PCOD9314406
Probable space group: P 21 21 21
;
_chemical_formula_sum "Si O2"
_cell_formula_units_Z 28
_cell_length_a 6.559096
_cell_length_b 16.812972
_cell_length_c 12.652727
_cell_angle_alpha 90.000000
_cell_angle_beta 90.000000
_cell_angle_gamma 90.000000
_cell_volume 1395.316130
_symmetry_space_group_name_H-M "P 21 21 21"
_symmetry_group_IT_number 19
_symmetry_cell_setting 'orthorhombic'
loop_
_space_group_symop_operation_xyz
x,y,z
1/2-x,-y,1/2+z
1/2+x,1/2-y,-z
-x,1/2+y,1/2-z
loop_
_atom_site_type_symbol
_atom_site_label
_atom_site_fract_x
_atom_site_fract_y
_atom_site_fract_z
Si Si1 0.234618 0.129175 0.171049
Si Si2 0.732364 0.601386 0.715150
Si Si3 0.388069 0.509783 0.583182
Si Si4 0.343399 0.367932 0.937336
Si Si5 0.758133 0.535780 0.947269
Si Si6 0.010924 0.954420 0.853074
Si Si7 0.022975 0.239216 0.880657
O O1 0.360472 0.100086 0.273148
O O2 0.310655 0.219896 0.154909
O O3 0.989507 0.123665 0.164229
O O4 0.274856 0.058707 0.083642
O O5 0.528797 0.571046 0.652537
O O6 0.722818 0.582001 0.838944
O O7 0.906748 0.542193 0.673000
O O8 0.824832 0.688000 0.692575
O O9 0.245105 0.556712 0.499666
O O10 0.537218 0.453614 0.515702
O O11 0.231463 0.459650 0.654610
O O12 0.147530 0.316886 0.910741
O O13 0.476077 0.316541 0.019993
O O14 0.580685 0.559945 0.027413
#
# Coordination Sequence:
#
# PCOD9314406 Si02
#       7
#     4   4   4   4   4   4   4
#     4  11  23  37  62  94 125 164 204 262 316 374
#     4  10  23  37  60  94 127 160 210 263 312 382
#     4  11  20  39  67  91 121 165 208 262 316 370
#     4  12  21  36  62  94 123 158 203 254 323 370
#     4  10  21  41  59  89 127 162 211 260 310 376
#     4  10  22  40  61  90 128 158 216 261 310 374
#     4  12  22  36  59  92 129 157 200 262 317 372
#
# _framework density 20.067136999999999
#
# number of rings (size 3 to 8) (size 9 to 14) (size 15 to 20)
#    0.000    1.143    5.714    1.714    0.000    5.714 
#    0.000    0.000    6.286    0.000    0.000    0.000 
#    0.000    0.000    0.000    0.000    0.000    0.000 
#
# Total GULP energy -155935.245161 kJ/mol
# GULP energy per Si atom -5569.115899 kJ/mol
# Density = 2.002146 g / cm^3
# Si number density = 20.067137 Si / 1000 Ang^3
#
#
#
# Elastic Constant Matrix: (Units=GPa)
#
#
# Indices 1 2 3 4 5 6 
#
# 1 108.1018 7.9414 35.1791 0.0000 0.0000 0.0000
# 2 7.9414 37.4221 23.4367 0.0000 0.0000 0.0000
# 3 35.1791 23.4367 85.5272 0.0000 0.0000 0.0000
# 4 0.0000 0.0000 0.0000 23.4317 0.0000 0.0000
# 5 0.0000 0.0000 0.0000 0.0000 26.2479 0.0000
# 6 0.0000 0.0000 0.0000 0.0000 0.0000 28.4703
#
#
#
# Elastic Compliance Matrix: (Units=1/GPa)
#
#
# Indices 1 2 3 4 5 6 
#
# 1 0.010691 0.000586 -0.004558 0.000000 0.000000 0.000000
# 2 0.000586 0.032290 -0.009089 0.000000 0.000000 0.000000
# 3 -0.004558 -0.009089 0.016058 0.000000 0.000000 0.000000
# 4 0.000000 0.000000 0.000000 0.042677 0.000000 0.000000
# 5 0.000000 0.000000 0.000000 0.000000 0.038098 0.000000
# 6 0.000000 0.000000 0.000000 0.000000 0.000000 0.035124
#
#
# Mechanical properties :
#
#
# Convention : Reuss Voigt Hill
#
# Bulk Modulus (GPa) = 30.38043 40.46282 35.42163
# Shear Modulus (GPa) = 23.58121 26.59625 25.08873
#
# Velocity S-wave (km/s) = 3.43171 3.64450 3.53971
# Velocity P-wave (km/s) = 5.55648 6.15771 5.86480
#
# Compressibility (1/GPa) = 0.03291593
#
# Stress axis : x y z
#
# Youngs Moduli (GPa) = 93.53883 30.96901 62.27564
#
# Poissons Ratio (x) = -0.01814 0.28384
# Poissons Ratio (y) = -0.05479 0.56604
# Poissons Ratio (z) = 0.42634 0.28149
#
# Static dielectric constant tensor:
#      x y z
#    x 1.812080 0.000000 0.000000 
#    y 0.000000 1.725550 0.000000 
#    z 0.000000 0.000000 1.786360 
# 
# From -- ./inp_files/4493.got.cif
#   From: 2010.05.17/outbox.cif.g08.bks.cpg/sg19_3_cif.got.tgz:4493.got - 2010.06.03 22:46:19.
