data_PCOD9314678
_publ_section_title
;
Structure prediction by ZEFSAII (Michael W. Deem and Ramdas Pophale) SiO2 
 PCOD9314678
Probable space group: P 21 21 21
;
_chemical_formula_sum "Si O2"
_cell_formula_units_Z 28
_cell_length_a 6.734721
_cell_length_b 9.803216
_cell_length_c 15.639616
_cell_angle_alpha 90.000000
_cell_angle_beta 90.000000
_cell_angle_gamma 90.000000
_cell_volume 1032.557549
_symmetry_space_group_name_H-M "P 21 21 21"
_symmetry_group_IT_number 19
_symmetry_cell_setting 'orthorhombic'
loop_
_space_group_symop_operation_xyz
x,y,z
1/2-x,-y,1/2+z
1/2+x,1/2-y,-z
-x,1/2+y,1/2-z
loop_
_atom_site_type_symbol
_atom_site_label
_atom_site_fract_x
_atom_site_fract_y
_atom_site_fract_z
Si Si1 0.912275 0.524494 0.450383
Si Si2 0.668174 0.372869 0.138694
Si Si3 0.796981 0.889238 0.303466
Si Si4 0.638948 0.070763 0.181427
Si Si5 0.704737 0.394677 0.763708
Si Si6 0.075050 0.174395 0.578597
Si Si7 0.277126 0.439228 0.546393
O O1 0.829601 0.583497 0.539466
O O2 0.857925 0.602347 0.364094
O O3 0.791467 0.388364 0.431315
O O4 0.142428 0.498559 0.469544
O O5 0.439723 0.382226 0.172065
O O6 0.711337 0.211577 0.139358
O O7 0.798775 0.471732 0.201462
O O8 0.865203 0.760696 0.246230
O O9 0.814476 0.020669 0.242632
O O10 0.864695 0.937553 0.397557
O O11 0.444350 0.120515 0.232076
O O12 0.545977 0.930475 0.139767
O O13 0.957371 0.146905 0.491245
O O14 0.121517 0.334004 0.592194
#
# Coordination Sequence:
#
# PCOD9314678 Si02
#       7
#     4   4   4   4   4   4   4
#     4  10  22  40  64  94 134 168 212 270 318 384
#     4   9  19  36  62  94 131 171 211 265 327 379
#     4   9  20  34  61  93 128 162 217 266 317 384
#     4   9  20  34  61  93 128 162 217 266 317 384
#     4   9  19  36  62  94 131 171 211 265 327 379
#     4  11  23  39  64  94 127 171 214 262 321 384
#     4  11  23  39  64  94 127 171 214 262 321 384
#
# _framework density 27.117132000000002
#
# number of rings (size 3 to 8) (size 9 to 14) (size 15 to 20)
#    0.000    2.286    1.429    0.000   14.000    0.000 
#    0.000    1.429    0.000    0.000    0.000    0.000 
#    0.000    0.000    0.000    0.000    0.000    0.000 
#
# Total GULP energy -156013.561281 kJ/mol
# GULP energy per Si atom -5571.912903 kJ/mol
# Density = 2.705541 g / cm^3
# Si number density = 27.117132 Si / 1000 Ang^3
#
#
#
# Elastic Constant Matrix: (Units=GPa)
#
#
# Indices 1 2 3 4 5 6 
#
# 1 39.6067 -7.5203 -0.8971 0.0000 0.0000 0.0000
# 2 -7.5203 153.0973 43.1507 0.0000 0.0000 0.0000
# 3 -0.8971 43.1507 97.0796 0.0000 0.0000 0.0000
# 4 0.0000 0.0000 0.0000 37.0282 0.0000 0.0000
# 5 0.0000 0.0000 0.0000 0.0000 35.5052 0.0000
# 6 0.0000 0.0000 0.0000 0.0000 0.0000 14.0659
#
#
#
# Elastic Compliance Matrix: (Units=1/GPa)
#
#
# Indices 1 2 3 4 5 6 
#
# 1 0.025497 0.001356 -0.000367 0.000000 0.000000 0.000000
# 2 0.001356 0.007539 -0.003339 0.000000 0.000000 0.000000
# 3 -0.000367 -0.003339 0.011781 0.000000 0.000000 0.000000
# 4 0.000000 0.000000 0.000000 0.027006 0.000000 0.000000
# 5 0.000000 0.000000 0.000000 0.000000 0.028165 0.000000
# 6 0.000000 0.000000 0.000000 0.000000 0.000000 0.071094
#
#
# Mechanical properties :
#
#
# Convention : Reuss Voigt Hill
#
# Bulk Modulus (GPa) = 24.92606 39.91668 32.42137
# Shear Modulus (GPa) = 26.43321 34.32321 30.37821
#
# Velocity S-wave (km/s) = 3.12553 3.56158 3.35066
# Velocity P-wave (km/s) = 4.71564 5.62718 5.19146
#
# Compressibility (1/GPa) = 0.04011865
#
# Stress axis : x y z
#
# Youngs Moduli (GPa) = 39.21965 132.63657 84.87946
#
# Poissons Ratio (x) = -0.17985 0.03116
# Poissons Ratio (y) = -0.05318 0.28338
# Poissons Ratio (z) = 0.01440 0.44283
#
# Static dielectric constant tensor:
#      x y z
#    x 2.187450 0.000000 0.000000 
#    y 0.000000 2.272250 0.000000 
#    z 0.000000 0.000000 2.243760 
# 
# From -- ./inp_files/6611.got.cif
#   From: 2010.05.17/outbox.cif.g08.bks.cpg/sg19_4_cif.got.tgz:6611.got - 2010.06.03 22:46:19.
