data_PCOD9314560
_publ_section_title
;
Structure prediction by ZEFSAII (Michael W. Deem and Ramdas Pophale) SiO2 
 PCOD9314560
Probable space group: P 21 21 21
;
_chemical_formula_sum "Si O2"
_cell_formula_units_Z 32
_cell_length_a 13.747842
_cell_length_b 11.932485
_cell_length_c 9.245625
_cell_angle_alpha 90.000000
_cell_angle_beta 90.000000
_cell_angle_gamma 90.000000
_cell_volume 1516.707045
_symmetry_space_group_name_H-M "P 21 21 21"
_symmetry_group_IT_number 19
_symmetry_cell_setting 'orthorhombic'
loop_
_space_group_symop_operation_xyz
x,y,z
1/2-x,-y,1/2+z
1/2+x,1/2-y,-z
-x,1/2+y,1/2-z
loop_
_atom_site_type_symbol
_atom_site_label
_atom_site_fract_x
_atom_site_fract_y
_atom_site_fract_z
Si Si1 0.005475 0.180300 0.592071
Si Si2 0.163579 0.068170 0.226989
Si Si3 0.414853 0.254286 0.115233
Si Si4 0.657970 0.132580 0.487058
Si Si5 0.142115 0.991888 0.559260
Si Si6 0.528310 0.937490 0.575107
Si Si7 0.297625 0.670951 0.686086
Si Si8 0.143191 0.571466 0.134811
O O1 0.089796 0.260171 0.530685
O O2 0.951827 0.244384 0.720746
O O3 0.927306 0.134912 0.476884
O O4 0.065217 0.070793 0.640393
O O5 0.259801 0.020107 0.151812
O O6 0.159960 0.202621 0.196184
O O7 0.069466 0.017747 0.148049
O O8 0.160590 0.039742 0.397540
O O9 0.402186 0.131901 0.050708
O O10 0.308668 0.312865 0.117633
O O11 0.487049 0.329045 0.021680
O O12 0.706898 0.134310 0.645810
O O13 0.747245 0.117514 0.378369
O O14 0.583601 0.029746 0.481782
O O15 0.598584 0.907121 0.708181
O O16 0.351714 0.564580 0.612758
#
# Coordination Sequence:
#
# PCOD9314560 Si02
#       8
#     4   4   4   4   4   4   4   4
#     4  12  26  46  72 105 143 196 241 301 376 441
#     4  11  25  47  71 104 150 194 241 306 371 443
#     4  11  26  43  69 108 144 185 244 308 360 442
#     4  11  23  42  72 102 141 189 238 299 364 433
#     4  11  27  47  71 108 146 195 246 306 375 437
#     4  11  25  44  70 107 142 189 242 301 368 436
#     4  10  21  45  69 101 142 183 241 299 357 430
#     4  11  23  44  74 101 140 195 247 298 365 446
#
# _framework density 21.098337999999998
#
# number of rings (size 3 to 8) (size 9 to 14) (size 15 to 20)
#    0.000    1.000    5.000    0.000    5.250    4.000 
#    2.250    0.000    0.000    0.000    0.000    0.000 
#    0.000    0.000    0.000    0.000    0.000    0.000 
#
# Total GULP energy -178738.670620 kJ/mol
# GULP energy per Si atom -5585.583457 kJ/mol
# Density = 2.105032 g / cm^3
# Si number density = 21.098338 Si / 1000 Ang^3
#
#
#
# Elastic Constant Matrix: (Units=GPa)
#
#
# Indices 1 2 3 4 5 6 
#
# 1 38.9610 15.8643 9.6247 0.0000 0.0000 0.0000
# 2 15.8643 99.5478 26.8835 0.0000 0.0000 0.0000
# 3 9.6247 26.8835 51.4966 0.0000 0.0000 0.0000
# 4 0.0000 0.0000 0.0000 26.3700 0.0000 0.0000
# 5 0.0000 0.0000 0.0000 0.0000 23.6432 0.0000
# 6 0.0000 0.0000 0.0000 0.0000 0.0000 22.6768
#
#
#
# Elastic Compliance Matrix: (Units=1/GPa)
#
#
# Indices 1 2 3 4 5 6 
#
# 1 0.027942 -0.003542 -0.003373 0.000000 0.000000 0.000000
# 2 -0.003542 0.012143 -0.005677 0.000000 0.000000 0.000000
# 3 -0.003373 -0.005677 0.023013 0.000000 0.000000 0.000000
# 4 0.000000 0.000000 0.000000 0.037922 0.000000 0.000000
# 5 0.000000 0.000000 0.000000 0.000000 0.042295 0.000000
# 6 0.000000 0.000000 0.000000 0.000000 0.000000 0.044098
#
#
# Mechanical properties :
#
#
# Convention : Reuss Voigt Hill
#
# Bulk Modulus (GPa) = 26.37600 32.75005 29.56303
# Shear Modulus (GPa) = 22.19889 23.71353 22.95621
#
# Velocity S-wave (km/s) = 3.24723 3.35618 3.30215
# Velocity P-wave (km/s) = 5.15635 5.52945 5.34615
#
# Compressibility (1/GPa) = 0.03791325
#
# Stress axis : x y z
#
# Youngs Moduli (GPa) = 35.78802 82.35161 43.45369
#
# Poissons Ratio (x) = 0.29169 0.14658
# Poissons Ratio (y) = 0.12676 0.24670
# Poissons Ratio (z) = 0.12073 0.46753
#
# Static dielectric constant tensor:
#      x y z
#    x 1.747880 0.000000 0.000000 
#    y 0.000000 1.825160 0.000000 
#    z 0.000000 0.000000 1.725530 
# 
# From -- ./inp_files/3964.got.cif
#   From: 2010.05.17/outbox.cif.g08.bks.cpg/sg19_2_cif.got.tgz:3964.got - 2010.06.03 22:46:19.
