data_PCOD9314087
_publ_section_title
;
Structure prediction by ZEFSAII (Michael W. Deem and Ramdas Pophale) SiO2 
 PCOD9314087
Probable space group: P 21 21 21
;
_chemical_formula_sum "Si O2"
_cell_formula_units_Z 32
_cell_length_a 14.307146
_cell_length_b 11.041807
_cell_length_c 9.207289
_cell_angle_alpha 90.000000
_cell_angle_beta 90.000000
_cell_angle_gamma 90.000000
_cell_volume 1454.537545
_symmetry_space_group_name_H-M "P 21 21 21"
_symmetry_group_IT_number 19
_symmetry_cell_setting 'orthorhombic'
loop_
_space_group_symop_operation_xyz
x,y,z
1/2-x,-y,1/2+z
1/2+x,1/2-y,-z
-x,1/2+y,1/2-z
loop_
_atom_site_type_symbol
_atom_site_label
_atom_site_fract_x
_atom_site_fract_y
_atom_site_fract_z
Si Si1 0.711407 0.933880 0.406343
Si Si2 0.156617 0.587224 0.280538
Si Si3 0.469510 0.396771 0.532390
Si Si4 0.853339 0.630594 0.197356
Si Si5 0.636522 0.260860 0.006841
Si Si6 0.347618 0.244785 0.334290
Si Si7 0.034868 0.876316 0.625214
Si Si8 0.683411 0.639786 0.634272
O O1 0.657339 0.964472 0.555087
O O2 0.799554 0.857047 0.470101
O O3 0.658574 0.843659 0.296641
O O4 0.752548 0.040696 0.307631
O O5 0.069794 0.545999 0.181936
O O6 0.156146 0.732930 0.292809
O O7 0.568615 0.342161 0.577079
O O8 0.390315 0.308432 0.473670
O O9 0.488003 0.496104 0.409837
O O10 0.885860 0.682828 0.350999
O O11 0.755490 0.691210 0.152762
O O12 0.837242 0.486295 0.212309
O O13 0.544269 0.222707 0.091104
O O14 0.707752 0.347549 0.092596
O O15 0.420051 0.143441 0.280748
O O16 0.120654 0.866286 0.511445
#
# Coordination Sequence:
#
# PCOD9314087 Si02
#       8
#     4   4   4   4   4   4   4   4
#     4  10  21  38  70  99 138 186 223 295 356 413
#     4  11  20  42  67 105 139 181 240 285 356 417
#     4  11  25  42  73 104 141 185 239 298 348 437
#     4  10  23  44  71  96 143 183 233 290 358 422
#     4  10  20  41  67  92 131 188 219 280 363 410
#     4  11  24  47  69 102 143 180 239 301 357 423
#     4  11  21  44  69  97 140 181 231 284 364 413
#     4  10  22  40  70  97 133 192 228 287 350 425
#
# _framework density 22.000119999999999
#
# number of rings (size 3 to 8) (size 9 to 14) (size 15 to 20)
#    0.000    1.500    5.000    1.500    1.750    2.000 
#    4.500    2.500    2.750    0.000    0.000    0.000 
#    0.000    0.000    0.000    0.000    0.000    0.000 
#
# Total GULP energy -178783.060230 kJ/mol
# GULP energy per Si atom -5586.970632 kJ/mol
# Density = 2.195005 g / cm^3
# Si number density = 22.000120 Si / 1000 Ang^3
#
#
#
# Elastic Constant Matrix: (Units=GPa)
#
#
# Indices 1 2 3 4 5 6 
#
# 1 78.0889 -10.7587 5.4499 0.0000 0.0000 0.0000
# 2 -10.7587 25.4561 0.6362 0.0000 0.0000 0.0000
# 3 5.4499 0.6362 48.5443 0.0000 0.0000 0.0000
# 4 0.0000 0.0000 0.0000 19.6168 0.0000 0.0000
# 5 0.0000 0.0000 0.0000 0.0000 27.5800 0.0000
# 6 0.0000 0.0000 0.0000 0.0000 0.0000 24.7755
#
#
#
# Elastic Compliance Matrix: (Units=1/GPa)
#
#
# Indices 1 2 3 4 5 6 
#
# 1 0.013723 0.005840 -0.001617 0.000000 0.000000 0.000000
# 2 0.005840 0.041782 -0.001203 0.000000 0.000000 0.000000
# 3 -0.001617 -0.001203 0.020797 0.000000 0.000000 0.000000
# 4 0.000000 0.000000 0.000000 0.050977 0.000000 0.000000
# 5 0.000000 0.000000 0.000000 0.000000 0.036258 0.000000
# 6 0.000000 0.000000 0.000000 0.000000 0.000000 0.040363
#
#
# Mechanical properties :
#
#
# Convention : Reuss Voigt Hill
#
# Bulk Modulus (GPa) = 12.14445 15.86047 14.00246
# Shear Modulus (GPa) = 22.19192 24.84524 23.51858
#
# Velocity S-wave (km/s) = 3.17948 3.36419 3.27313
# Velocity P-wave (km/s) = 4.36015 4.72390 4.54567
#
# Compressibility (1/GPa) = 0.08234216
#
# Stress axis : x y z
#
# Youngs Moduli (GPa) = 72.86802 23.93390 48.08367
#
# Poissons Ratio (x) = -0.13978 0.07776
# Poissons Ratio (y) = -0.42558 0.05786
# Poissons Ratio (z) = 0.11784 0.02880
#
# Static dielectric constant tensor:
#      x y z
#    x 1.829890 0.000000 0.000000 
#    y 0.000000 1.852220 0.000000 
#    z 0.000000 0.000000 1.802200 
# 
# From -- ./inp_files/3936.got.cif
#   From: 2010.05.17/outbox.cif.g08.bks.cpg/sg19_2_cif.got.tgz:3936.got - 2010.06.03 22:46:19.
