data_PCOD9314834
_publ_section_title
;
Structure prediction by ZEFSAII (Michael W. Deem and Ramdas Pophale) SiO2 
 PCOD9314834
Probable space group: P 21 21 21
;
_chemical_formula_sum "Si O2"
_cell_formula_units_Z 28
_cell_length_a 13.052527
_cell_length_b 5.929896
_cell_length_c 16.936213
_cell_angle_alpha 90.000000
_cell_angle_beta 90.000000
_cell_angle_gamma 90.000000
_cell_volume 1310.865048
_symmetry_space_group_name_H-M "P 21 21 21"
_symmetry_group_IT_number 19
_symmetry_cell_setting 'orthorhombic'
loop_
_space_group_symop_operation_xyz
x,y,z
1/2-x,-y,1/2+z
1/2+x,1/2-y,-z
-x,1/2+y,1/2-z
loop_
_atom_site_type_symbol
_atom_site_label
_atom_site_fract_x
_atom_site_fract_y
_atom_site_fract_z
Si Si1 0.898254 0.327249 0.364539
Si Si2 0.284365 0.005438 0.315653
Si Si3 0.389031 0.726316 0.911386
Si Si4 0.656972 0.882979 0.715347
Si Si5 0.215190 0.230788 0.160945
Si Si6 0.499821 0.635557 0.205914
Si Si7 0.815501 0.895080 0.915821
O O1 0.906742 0.290726 0.269197
O O2 0.879334 0.593365 0.374197
O O3 0.790579 0.231993 0.396824
O O4 0.992596 0.203894 0.405461
O O5 0.192705 0.114929 0.366684
O O6 0.276802 0.077418 0.223326
O O7 0.394293 0.093237 0.341858
O O8 0.260758 0.740089 0.312902
O O9 0.391663 0.496814 0.859807
O O10 0.354277 0.675995 0.999114
O O11 0.678482 0.075455 0.779355
O O12 0.285604 0.341736 0.094700
O O13 0.490802 0.386926 0.252010
O O14 0.402094 0.650557 0.149194
#
# Coordination Sequence:
#
# PCOD9314834 Si02
#       7
#     4   4   4   4   4   4   4
#     4  10  23  42  69  94 136 185 227 292 358 432
#     4  10  22  42  68  99 134 180 238 290 350 438
#     4  11  26  41  66 104 140 182 239 299 367 429
#     4   9  21  39  67  94 126 179 229 283 344 428
#     4   9  18  42  64  90 128 171 231 279 342 423
#     4  12  25  46  79 108 142 196 250 299 359 440
#     4  11  25  44  65 103 142 183 234 302 366 426
#
# _framework density 21.359943000000001
#
# number of rings (size 3 to 8) (size 9 to 14) (size 15 to 20)
#    0.000    1.714    1.429    2.571   10.000    2.286 
#    0.000    0.000    0.000    0.000    0.000    0.000 
#    0.000    0.000    0.000    0.000    0.000    0.000 
#
# Total GULP energy -155971.459984 kJ/mol
# GULP energy per Si atom -5570.409285 kJ/mol
# Density = 2.131133 g / cm^3
# Si number density = 21.359943 Si / 1000 Ang^3
#
#
#
# Elastic Constant Matrix: (Units=GPa)
#
#
# Indices 1 2 3 4 5 6 
#
# 1 165.9321 31.8274 44.4670 0.0000 0.0000 0.0000
# 2 31.8274 70.8808 16.9664 0.0000 0.0000 0.0000
# 3 44.4670 16.9664 84.7529 0.0000 0.0000 0.0000
# 4 0.0000 0.0000 0.0000 11.8852 0.0000 0.0000
# 5 0.0000 0.0000 0.0000 0.0000 23.0326 0.0000
# 6 0.0000 0.0000 0.0000 0.0000 0.0000 33.1529
#
#
#
# Elastic Compliance Matrix: (Units=1/GPa)
#
#
# Indices 1 2 3 4 5 6 
#
# 1 0.007418 -0.002520 -0.003387 0.000000 0.000000 0.000000
# 2 -0.002520 0.015674 -0.001816 0.000000 0.000000 0.000000
# 3 -0.003387 -0.001816 0.013940 0.000000 0.000000 0.000000
# 4 0.000000 0.000000 0.000000 0.084138 0.000000 0.000000
# 5 0.000000 0.000000 0.000000 0.000000 0.043417 0.000000
# 6 0.000000 0.000000 0.000000 0.000000 0.000000 0.030163
#
#
# Mechanical properties :
#
#
# Convention : Reuss Voigt Hill
#
# Bulk Modulus (GPa) = 46.32672 56.45414 51.39043
# Shear Modulus (GPa) = 23.00005 28.83447 25.91726
#
# Velocity S-wave (km/s) = 3.28500 3.67813 3.48711
# Velocity P-wave (km/s) = 6.01032 6.67274 6.35017
#
# Compressibility (1/GPa) = 0.02158582
#
# Stress axis : x y z
#
# Youngs Moduli (GPa) = 134.81346 63.79864 71.73756
#
# Poissons Ratio (x) = 0.16077 0.24300
# Poissons Ratio (y) = 0.33972 0.13025
# Poissons Ratio (z) = 0.45666 0.11584
#
# Static dielectric constant tensor:
#      x y z
#    x 1.874200 0.000000 0.000000 
#    y 0.000000 1.947440 0.000000 
#    z 0.000000 0.000000 1.749370 
# 
# From -- ./inp_files/6766.got.cif
#   From: 2010.05.17/outbox.cif.g08.bks.cpg/sg19_4_cif.got.tgz:6766.got - 2010.06.03 22:46:19.
