data_PCOD9314976
_publ_section_title
;
Structure prediction by ZEFSAII (Michael W. Deem and Ramdas Pophale) SiO2 
 PCOD9314976
Probable space group: P 21 21 21
;
_chemical_formula_sum "Si O2"
_cell_formula_units_Z 32
_cell_length_a 7.078153
_cell_length_b 13.840328
_cell_length_c 12.050248
_cell_angle_alpha 90.000000
_cell_angle_beta 90.000000
_cell_angle_gamma 90.000000
_cell_volume 1180.490003
_symmetry_space_group_name_H-M "P 21 21 21"
_symmetry_group_IT_number 19
_symmetry_cell_setting 'orthorhombic'
loop_
_space_group_symop_operation_xyz
x,y,z
1/2-x,-y,1/2+z
1/2+x,1/2-y,-z
-x,1/2+y,1/2-z
loop_
_atom_site_type_symbol
_atom_site_label
_atom_site_fract_x
_atom_site_fract_y
_atom_site_fract_z
Si Si1 0.639712 0.046741 0.030688
Si Si2 0.532140 0.368807 0.863994
Si Si3 0.696047 0.915505 0.313943
Si Si4 0.267863 0.357785 0.417352
Si Si5 0.277189 0.004303 0.302525
Si Si6 0.130352 0.848997 0.988226
Si Si7 0.672969 0.700781 0.755212
Si Si8 0.481707 0.751245 0.415642
O O1 0.512134 0.140059 0.049651
O O2 0.839474 0.073506 0.096107
O O3 0.576885 0.940504 0.066072
O O4 0.684182 0.028187 0.902407
O O5 0.474718 0.284199 0.777546
O O6 0.682787 0.435946 0.799594
O O7 0.590482 0.315299 0.979267
O O8 0.801964 0.884596 0.204364
O O9 0.656226 0.815092 0.377595
O O10 0.498964 0.971954 0.291879
O O11 0.342140 0.250788 0.423436
O O12 0.092606 0.369079 0.499513
O O13 0.275703 0.067129 0.415302
O O14 0.169917 0.902353 0.306659
O O15 0.190626 0.823488 0.114775
O O16 0.857502 0.746293 0.695853
#
# Coordination Sequence:
#
# PCOD9314976 Si02
#       8
#     4   4   4   4   4   4   4   4
#     4  10  22  47  76 107 151 196 264 317 380 466
#     4  10  22  47  74 115 152 205 253 327 382 465
#     4  10  24  47  73 111 149 204 257 323 387 464
#     4  12  28  49  74 107 158 201 255 324 395 471
#     4  11  24  46  81 106 157 201 256 320 394 471
#     4  12  28  49  73 116 157 199 260 324 400 476
#     4  10  24  45  72 109 158 198 254 324 386 461
#     4   9  22  44  75 107 146 194 265 315 376 454
#
# _framework density 27.107389000000001
#
# number of rings (size 3 to 8) (size 9 to 14) (size 15 to 20)
#    0.000    1.500    1.250    1.500   10.500    3.000 
#    9.000    0.000    0.000    0.000    0.000    0.000 
#    0.000    0.000    0.000    0.000    0.000    0.000 
#
# Total GULP energy -179009.620233 kJ/mol
# GULP energy per Si atom -5594.050632 kJ/mol
# Density = 2.704569 g / cm^3
# Si number density = 27.107389 Si / 1000 Ang^3
#
#
#
# Elastic Constant Matrix: (Units=GPa)
#
#
# Indices 1 2 3 4 5 6 
#
# 1 57.3331 0.0520 20.5164 0.0000 0.0000 0.0000
# 2 0.0520 142.5315 41.8060 0.0000 0.0000 0.0000
# 3 20.5164 41.8060 137.6892 0.0000 0.0000 0.0000
# 4 0.0000 0.0000 0.0000 38.7110 0.0000 0.0000
# 5 0.0000 0.0000 0.0000 0.0000 48.6117 0.0000
# 6 0.0000 0.0000 0.0000 0.0000 0.0000 33.2828
#
#
#
# Elastic Compliance Matrix: (Units=1/GPa)
#
#
# Indices 1 2 3 4 5 6 
#
# 1 0.018525 0.000881 -0.003028 0.000000 0.000000 0.000000
# 2 0.000881 0.007744 -0.002483 0.000000 0.000000 0.000000
# 3 -0.003028 -0.002483 0.008468 0.000000 0.000000 0.000000
# 4 0.000000 0.000000 0.000000 0.025832 0.000000 0.000000
# 5 0.000000 0.000000 0.000000 0.000000 0.020571 0.000000
# 6 0.000000 0.000000 0.000000 0.000000 0.000000 0.030046
#
#
# Mechanical properties :
#
#
# Convention : Reuss Voigt Hill
#
# Bulk Modulus (GPa) = 39.24954 51.36695 45.30825
# Shear Modulus (GPa) = 38.77889 42.46640 40.62265
#
# Velocity S-wave (km/s) = 3.78638 3.96232 3.87535
# Velocity P-wave (km/s) = 5.79882 6.31854 6.06425
#
# Compressibility (1/GPa) = 0.02547800
#
# Stress axis : x y z
#
# Youngs Moduli (GPa) = 53.98213 129.13512 118.09630
#
# Poissons Ratio (x) = -0.11381 0.35758
# Poissons Ratio (y) = -0.04758 0.29318
# Poissons Ratio (z) = 0.16345 0.32058
#
# Static dielectric constant tensor:
#      x y z
#    x 2.261580 0.000000 0.000000 
#    y 0.000000 2.118850 0.000000 
#    z 0.000000 0.000000 2.136270 
# 
# From -- ./inp_files/5087.got.cif
#   From: 2010.05.17/outbox.cif.g08.bks.cpg/sg19_3_cif.got.tgz:5087.got - 2010.06.03 22:46:19.
