data_PCOD9314981
_publ_section_title
;
Structure prediction by ZEFSAII (Michael W. Deem and Ramdas Pophale) SiO2 
 PCOD9314981
Probable space group: P 21 21 21
;
_chemical_formula_sum "Si O2"
_cell_formula_units_Z 32
_cell_length_a 17.406497
_cell_length_b 7.588943
_cell_length_c 9.038555
_cell_angle_alpha 90.000000
_cell_angle_beta 90.000000
_cell_angle_gamma 90.000000
_cell_volume 1193.965219
_symmetry_space_group_name_H-M "P 21 21 21"
_symmetry_group_IT_number 19
_symmetry_cell_setting 'orthorhombic'
loop_
_space_group_symop_operation_xyz
x,y,z
1/2-x,-y,1/2+z
1/2+x,1/2-y,-z
-x,1/2+y,1/2-z
loop_
_atom_site_type_symbol
_atom_site_label
_atom_site_fract_x
_atom_site_fract_y
_atom_site_fract_z
Si Si1 0.843894 0.700325 0.792330
Si Si2 0.345747 0.187768 0.074597
Si Si3 0.390892 0.066986 0.491413
Si Si4 0.545127 0.941336 0.951479
Si Si5 0.307828 0.650739 0.510908
Si Si6 0.246519 0.284202 0.442600
Si Si7 0.621053 0.463426 0.686995
Si Si8 0.460010 0.484497 0.194379
O O1 0.831410 0.711901 0.617114
O O2 0.669333 0.296826 0.625612
O O3 0.912712 0.835092 0.829822
O O4 0.770481 0.772120 0.881366
O O5 0.354567 0.995367 0.145828
O O6 0.411014 0.321712 0.128893
O O7 0.263563 0.277015 0.103781
O O8 0.347742 0.136548 0.900042
O O9 0.428503 0.242195 0.565897
O O10 0.317170 0.154279 0.412502
O O11 0.369327 0.959946 0.637848
O O12 0.459541 0.993798 0.390076
O O13 0.616007 0.070801 0.914010
O O14 0.532220 0.967889 0.128516
O O15 0.467927 0.964462 0.859753
O O16 0.272991 0.482842 0.418543
#
# Coordination Sequence:
#
# PCOD9314981 Si02
#       8
#     4   4   4   4   4   4   4   4
#     4  10  22  49  77 111 160 200 271 324 397 492
#     4  11  24  47  78 114 157 216 260 339 415 476
#     4  11  25  48  79 118 157 215 268 335 402 484
#     4  10  26  50  79 118 158 216 273 328 410 489
#     4  10  22  49  81 113 153 217 268 334 401 489
#     4  10  22  48  78 112 162 209 268 332 408 483
#     4  11  26  49  77 119 166 204 270 346 396 486
#     4  11  25  50  81 111 163 217 266 334 403 495
#
# _framework density 26.801449999999999
#
# number of rings (size 3 to 8) (size 9 to 14) (size 15 to 20)
#    0.000    1.500    1.250    2.250    3.500    1.000 
#   29.250    2.500    2.750    0.000    0.000    0.000 
#    0.000    0.000    0.000    0.000    0.000    0.000 
#
# Total GULP energy -179643.774285 kJ/mol
# GULP energy per Si atom -5613.867946 kJ/mol
# Density = 2.674045 g / cm^3
# Si number density = 26.801450 Si / 1000 Ang^3
#
#
#
# Elastic Constant Matrix: (Units=GPa)
#
#
# Indices 1 2 3 4 5 6 
#
# 1 186.2412 62.0528 35.1746 0.0000 0.0000 0.0000
# 2 62.0528 140.4300 23.2794 0.0000 0.0000 0.0000
# 3 35.1746 23.2794 138.0042 0.0000 0.0000 0.0000
# 4 0.0000 0.0000 0.0000 44.8569 0.0000 0.0000
# 5 0.0000 0.0000 0.0000 0.0000 51.9284 0.0000
# 6 0.0000 0.0000 0.0000 0.0000 0.0000 52.2758
#
#
#
# Elastic Compliance Matrix: (Units=1/GPa)
#
#
# Indices 1 2 3 4 5 6 
#
# 1 0.006485 -0.002666 -0.001203 0.000000 0.000000 0.000000
# 2 -0.002666 0.008422 -0.000741 0.000000 0.000000 0.000000
# 3 -0.001203 -0.000741 0.007678 0.000000 0.000000 0.000000
# 4 0.000000 0.000000 0.000000 0.022293 0.000000 0.000000
# 5 0.000000 0.000000 0.000000 0.000000 0.019257 0.000000
# 6 0.000000 0.000000 0.000000 0.000000 0.000000 0.019129
#
#
# Mechanical properties :
#
#
# Convention : Reuss Voigt Hill
#
# Bulk Modulus (GPa) = 74.82819 78.40990 76.61904
# Shear Modulus (GPa) = 51.57843 52.75680 52.16761
#
# Velocity S-wave (km/s) = 4.39163 4.44151 4.41664
# Velocity P-wave (km/s) = 7.32771 7.45802 7.39315
#
# Compressibility (1/GPa) = 0.01336395
#
# Stress axis : x y z
#
# Youngs Moduli (GPa) = 154.20407 118.73764 130.24507
#
# Poissons Ratio (x) = 0.31656 0.15670
# Poissons Ratio (y) = 0.41112 0.09653
# Poissons Ratio (z) = 0.18553 0.08800
#
# Static dielectric constant tensor:
#      x y z
#    x 2.046990 0.000000 0.000000 
#    y 0.000000 2.150350 0.000000 
#    z 0.000000 0.000000 2.209960 
# 
# From -- ./inp_files/4239.got.cif
#   From: 2010.05.17/outbox.cif.g08.bks.cpg/sg19_3_cif.got.tgz:4239.got - 2010.06.03 22:46:19.
