data_PCOD9314589
_publ_section_title
;
Structure prediction by ZEFSAII (Michael W. Deem and Ramdas Pophale) SiO2 
 PCOD9314589
Probable space group: P 21 21 21
;
_chemical_formula_sum "Si O2"
_cell_formula_units_Z 32
_cell_length_a 18.457101
_cell_length_b 5.218476
_cell_length_c 16.817103
_cell_angle_alpha 90.000000
_cell_angle_beta 90.000000
_cell_angle_gamma 90.000000
_cell_volume 1619.788694
_symmetry_space_group_name_H-M "P 21 21 21"
_symmetry_group_IT_number 19
_symmetry_cell_setting 'orthorhombic'
loop_
_space_group_symop_operation_xyz
x,y,z
1/2-x,-y,1/2+z
1/2+x,1/2-y,-z
-x,1/2+y,1/2-z
loop_
_atom_site_type_symbol
_atom_site_label
_atom_site_fract_x
_atom_site_fract_y
_atom_site_fract_z
Si Si1 0.588618 0.098867 0.717965
Si Si2 0.202127 0.263414 0.771429
Si Si3 0.079830 0.141904 0.959100
Si Si4 0.764531 0.727657 0.150297
Si Si5 0.960415 0.623533 0.368813
Si Si6 0.034999 0.152489 0.784213
Si Si7 0.328343 0.241066 0.663687
Si Si8 0.327580 0.373319 0.486865
O O1 0.652470 0.270680 0.680133
O O2 0.541422 0.186419 0.794147
O O3 0.530540 0.045097 0.649822
O O4 0.633373 0.869988 0.759828
O O5 0.223440 0.551119 0.798313
O O6 0.117011 0.230654 0.762474
O O7 0.247477 0.189019 0.692551
O O8 0.230406 0.048741 0.833116
O O9 0.032718 0.139809 0.879865
O O10 0.138835 0.367614 0.952063
O O11 0.118219 0.865103 0.969063
O O12 0.037657 0.210403 0.040464
O O13 0.746470 0.806113 0.059538
O O14 0.882088 0.488571 0.358411
O O15 0.984065 0.376077 0.751070
O O16 0.323432 0.402161 0.582213
#
# Coordination Sequence:
#
# PCOD9314589 Si02
#       8
#     4   4   4   4   4   4   4   4
#     4  11  21  36  62  93 130 171 209 257 331 380
#     4  11  22  40  63  92 118 158 212 265 308 388
#     4  11  23  40  65  92 122 167 218 261 318 389
#     4  11  21  38  64  90 125 162 212 260 314 376
#     4  11  21  38  61  93 131 166 211 263 319 400
#     4  12  24  43  68  90 124 171 215 268 332 385
#     4  10  22  36  63  89 122 167 212 254 321 382
#     4  11  20  39  64  91 120 166 213 266 307 382
#
# _framework density 19.755665
#
# number of rings (size 3 to 8) (size 9 to 14) (size 15 to 20)
#    0.000    1.000    6.250    1.500    0.000    0.000 
#    2.250    0.000    5.500    0.000    0.000    0.000 
#    0.000    0.000    0.000    0.000    0.000    0.000 
#
# Total GULP energy -178434.987541 kJ/mol
# GULP energy per Si atom -5576.093361 kJ/mol
# Density = 1.971070 g / cm^3
# Si number density = 19.755665 Si / 1000 Ang^3
#
#
#
# Elastic Constant Matrix: (Units=GPa)
#
#
# Indices 1 2 3 4 5 6 
#
# 1 58.6801 -3.6988 25.1065 0.0000 0.0000 0.0000
# 2 -3.6988 70.3936 9.6433 0.0000 0.0000 0.0000
# 3 25.1065 9.6433 120.1788 0.0000 0.0000 0.0000
# 4 0.0000 0.0000 0.0000 27.9424 0.0000 0.0000
# 5 0.0000 0.0000 0.0000 0.0000 33.2816 0.0000
# 6 0.0000 0.0000 0.0000 0.0000 0.0000 22.0478
#
#
#
# Elastic Compliance Matrix: (Units=1/GPa)
#
#
# Indices 1 2 3 4 5 6 
#
# 1 0.018880 0.001549 -0.004069 0.000000 0.000000 0.000000
# 2 0.001549 0.014491 -0.001486 0.000000 0.000000 0.000000
# 3 -0.004069 -0.001486 0.009290 0.000000 0.000000 0.000000
# 4 0.000000 0.000000 0.000000 0.035788 0.000000 0.000000
# 5 0.000000 0.000000 0.000000 0.000000 0.030047 0.000000
# 6 0.000000 0.000000 0.000000 0.000000 0.000000 0.045356
#
#
# Mechanical properties :
#
#
# Convention : Reuss Voigt Hill
#
# Bulk Modulus (GPa) = 28.86019 34.59495 31.72757
# Shear Modulus (GPa) = 28.83295 31.20111 30.01703
#
# Velocity S-wave (km/s) = 3.82446 3.97842 3.90219
# Velocity P-wave (km/s) = 5.84313 6.21716 6.03305
#
# Compressibility (1/GPa) = 0.03464981
#
# Stress axis : x y z
#
# Youngs Moduli (GPa) = 52.96623 69.00894 107.64072
#
# Poissons Ratio (x) = -0.10692 0.43794
# Poissons Ratio (y) = -0.08207 0.16000
# Poissons Ratio (z) = 0.21549 0.10258
#
# Static dielectric constant tensor:
#      x y z
#    x 1.706890 0.000000 0.000000 
#    y 0.000000 1.749620 0.000000 
#    z 0.000000 0.000000 1.739980 
# 
# From -- ./inp_files/1610.got.cif
#   From: 2010.05.17/outbox.cif.g08.bks.cpg/sg19_1_cif.got.tgz:1610.got - 2010.06.03 22:46:19.
