data_PCOD9314184
_publ_section_title
;
Structure prediction by ZEFSAII (Michael W. Deem and Ramdas Pophale) SiO2 
 PCOD9314184
Probable space group: P 21 21 21
;
_chemical_formula_sum "Si O2"
_cell_formula_units_Z 28
_cell_length_a 7.991572
_cell_length_b 16.818454
_cell_length_c 9.049295
_cell_angle_alpha 90.000000
_cell_angle_beta 90.000000
_cell_angle_gamma 90.000000
_cell_volume 1216.278513
_symmetry_space_group_name_H-M "P 21 21 21"
_symmetry_group_IT_number 19
_symmetry_cell_setting 'orthorhombic'
loop_
_space_group_symop_operation_xyz
x,y,z
1/2-x,-y,1/2+z
1/2+x,1/2-y,-z
-x,1/2+y,1/2-z
loop_
_atom_site_type_symbol
_atom_site_label
_atom_site_fract_x
_atom_site_fract_y
_atom_site_fract_z
Si Si1 0.652165 0.112198 0.227050
Si Si2 0.959445 0.288716 0.971653
Si Si3 0.928537 0.432995 0.198990
Si Si4 0.056534 0.599820 0.063348
Si Si5 0.379438 0.834658 0.668526
Si Si6 0.445334 0.477260 0.939600
Si Si7 0.540994 0.464432 0.259141
O O1 0.755067 0.118911 0.380351
O O2 0.482507 0.059691 0.216585
O O3 0.607155 0.193590 0.145714
O O4 0.781819 0.059236 0.133667
O O5 0.985892 0.209703 0.065101
O O6 0.962695 0.357799 0.096246
O O7 0.791483 0.292795 0.875103
O O8 0.002601 0.511083 0.117248
O O9 0.014231 0.438643 0.361873
O O10 0.729890 0.441465 0.221821
O O11 0.938177 0.658409 0.161202
O O12 0.025856 0.591786 0.889592
O O13 0.393694 0.924783 0.609700
O O14 0.430396 0.462066 0.111641
#
# Coordination Sequence:
#
# PCOD9314184 Si02
#       7
#     4   4   4   4   4   4   4
#     4  10  21  36  60  94 124 164 217 266 320 379
#     4  12  21  42  68  92 129 177 222 270 325 397
#     4  10  21  37  61  95 123 164 217 263 323 379
#     4  10  22  38  61  98 128 164 217 270 321 385
#     4  10  22  40  64  91 127 173 219 264 327 393
#     4  10  22  37  60  94 124 167 216 265 328 381
#     4  12  19  36  64  90 133 161 210 276 318 378
#
# _framework density 23.021042999999999
#
# number of rings (size 3 to 8) (size 9 to 14) (size 15 to 20)
#    0.000    1.714    2.857    5.143    2.000    0.000 
#    0.000    0.000    9.429    0.000    0.000    0.000 
#    0.000    0.000    0.000    0.000    0.000    0.000 
#
# Total GULP energy -156142.430103 kJ/mol
# GULP energy per Si atom -5576.515361 kJ/mol
# Density = 2.296865 g / cm^3
# Si number density = 23.021043 Si / 1000 Ang^3
#
#
#
# Elastic Constant Matrix: (Units=GPa)
#
#
# Indices 1 2 3 4 5 6 
#
# 1 90.6001 -4.1549 20.0528 0.0000 0.0000 0.0000
# 2 -4.1549 28.4073 -6.3790 0.0000 0.0000 0.0000
# 3 20.0528 -6.3790 120.1573 0.0000 0.0000 0.0000
# 4 0.0000 0.0000 0.0000 24.4628 0.0000 0.0000
# 5 0.0000 0.0000 0.0000 0.0000 25.6462 0.0000
# 6 0.0000 0.0000 0.0000 0.0000 0.0000 26.1373
#
#
#
# Elastic Compliance Matrix: (Units=1/GPa)
#
#
# Indices 1 2 3 4 5 6 
#
# 1 0.011506 0.001267 -0.001853 0.000000 0.000000 0.000000
# 2 0.001267 0.035766 0.001687 0.000000 0.000000 0.000000
# 3 -0.001853 0.001687 0.008721 0.000000 0.000000 0.000000
# 4 0.000000 0.000000 0.000000 0.040878 0.000000 0.000000
# 5 0.000000 0.000000 0.000000 0.000000 0.038992 0.000000
# 6 0.000000 0.000000 0.000000 0.000000 0.000000 0.038259
#
#
# Mechanical properties :
#
#
# Convention : Reuss Voigt Hill
#
# Bulk Modulus (GPa) = 17.18335 28.68915 22.93625
# Shear Modulus (GPa) = 26.13429 30.55898 28.34663
#
# Velocity S-wave (km/s) = 3.37298 3.64735 3.51285
# Velocity P-wave (km/s) = 4.75917 5.49789 5.14181
#
# Compressibility (1/GPa) = 0.05819586
#
# Stress axis : x y z
#
# Youngs Moduli (GPa) = 86.91326 27.95920 114.66270
#
# Poissons Ratio (x) = -0.03542 0.21246
# Poissons Ratio (y) = -0.11010 -0.19348
# Poissons Ratio (z) = 0.16104 -0.04718
#
# Static dielectric constant tensor:
#      x y z
#    x 1.922980 0.000000 0.000000 
#    y 0.000000 1.910620 0.000000 
#    z 0.000000 0.000000 1.994950 
# 
# From -- ./inp_files/2966.got.cif
#   From: 2010.05.17/outbox.cif.g08.bks.cpg/sg19_2_cif.got.tgz:2966.got - 2010.06.03 22:46:19.
