data_PCOD9314583
_publ_section_title
;
Structure prediction by ZEFSAII (Michael W. Deem and Ramdas Pophale) SiO2 
 PCOD9314583
Probable space group: P 21 21 21
;
_chemical_formula_sum "Si O2"
_cell_formula_units_Z 28
_cell_length_a 13.988089
_cell_length_b 6.251622
_cell_length_c 17.799267
_cell_angle_alpha 90.000000
_cell_angle_beta 90.000000
_cell_angle_gamma 90.000000
_cell_volume 1556.514660
_symmetry_space_group_name_H-M "P 21 21 21"
_symmetry_group_IT_number 19
_symmetry_cell_setting 'orthorhombic'
loop_
_space_group_symop_operation_xyz
x,y,z
1/2-x,-y,1/2+z
1/2+x,1/2-y,-z
-x,1/2+y,1/2-z
loop_
_atom_site_type_symbol
_atom_site_label
_atom_site_fract_x
_atom_site_fract_y
_atom_site_fract_z
Si Si1 0.644553 0.290547 0.778449
Si Si2 0.169693 0.977453 0.069734
Si Si3 0.790668 0.996526 0.156444
Si Si4 0.513385 0.841787 0.967725
Si Si5 0.180060 0.330988 0.498555
Si Si6 0.330919 0.643058 0.463532
Si Si7 0.059195 0.869132 0.334786
O O1 0.683961 0.386815 0.855398
O O2 0.710789 0.118629 0.736077
O O3 0.543603 0.179754 0.798452
O O4 0.619031 0.481157 0.721176
O O5 0.080885 0.815904 0.080378
O O6 0.144231 0.132968 0.000336
O O7 0.261226 0.841822 0.045055
O O8 0.802755 0.815221 0.091824
O O9 0.702502 0.133031 0.122953
O O10 0.882556 0.150834 0.153092
O O11 0.431923 0.703740 0.008855
O O12 0.462257 0.010697 0.912784
O O13 0.585470 0.973356 0.020680
O O14 0.235685 0.556459 0.508670
#
# Coordination Sequence:
#
# PCOD9314583 Si02
#       7
#     4   4   4   4   4   4   4
#     4  12  22  31  56  89 120 152 187 235 307 356
#     4  11  22  36  56  87 123 153 200 244 294 357
#     4  10  22  36  53  84 123 155 193 231 302 360
#     4  11  20  36  59  85 121 153 203 238 291 360
#     4   9  21  36  53  84 114 155 200 237 280 358
#     4   9  21  35  55  80 119 160 193 237 289 346
#     4  12  20  34  54  87 126 152 176 242 303 361
#
# _framework density 17.988910000000001
#
# number of rings (size 3 to 8) (size 9 to 14) (size 15 to 20)
#    0.857    0.571    4.286    2.571    0.000    0.000 
#    0.000    0.000    0.000    0.000    7.429    0.000 
#    0.000    0.000    0.000    0.000    0.000    0.000 
#
# Total GULP energy -155920.416371 kJ/mol
# GULP energy per Si atom -5568.586299 kJ/mol
# Density = 1.794797 g / cm^3
# Si number density = 17.988910 Si / 1000 Ang^3
#
#
#
# Elastic Constant Matrix: (Units=GPa)
#
#
# Indices 1 2 3 4 5 6 
#
# 1 43.7385 3.2905 22.6997 0.0000 0.0000 0.0000
# 2 3.2905 42.3264 29.7569 0.0000 0.0000 0.0000
# 3 22.6997 29.7569 42.5766 0.0000 0.0000 0.0000
# 4 0.0000 0.0000 0.0000 28.5402 0.0000 0.0000
# 5 0.0000 0.0000 0.0000 0.0000 29.3850 0.0000
# 6 0.0000 0.0000 0.0000 0.0000 0.0000 12.4291
#
#
#
# Elastic Compliance Matrix: (Units=1/GPa)
#
#
# Indices 1 2 3 4 5 6 
#
# 1 0.041166 0.024043 -0.038752 0.000000 0.000000 0.000000
# 2 0.024043 0.060491 -0.055096 0.000000 0.000000 0.000000
# 3 -0.038752 -0.055096 0.082654 0.000000 0.000000 0.000000
# 4 0.000000 0.000000 0.000000 0.035038 0.000000 0.000000
# 5 0.000000 0.000000 0.000000 0.000000 0.034031 0.000000
# 6 0.000000 0.000000 0.000000 0.000000 0.000000 0.080457
#
#
# Mechanical properties :
#
#
# Convention : Reuss Voigt Hill
#
# Bulk Modulus (GPa) = 22.36998 26.68173 24.52586
# Shear Modulus (GPa) = 10.23862 18.93046 14.58454
#
# Velocity S-wave (km/s) = 2.38830 3.24750 2.85046
# Velocity P-wave (km/s) = 4.47970 5.37831 4.94944
#
# Compressibility (1/GPa) = 0.04470276
#
# Stress axis : x y z
#
# Youngs Moduli (GPa) = 24.29190 16.53132 12.09858
#
# Poissons Ratio (x) = -0.39747 0.46884
# Poissons Ratio (y) = -0.58406 0.66659
# Poissons Ratio (z) = 0.94135 0.91081
#
# Static dielectric constant tensor:
#      x y z
#    x 1.618610 0.000000 0.000000 
#    y 0.000000 1.667800 0.000000 
#    z 0.000000 0.000000 1.624870 
# 
# From -- ./inp_files/6833.got.cif
#   From: 2010.05.17/outbox.cif.g08.bks.cpg/sg19_4_cif.got.tgz:6833.got - 2010.06.03 22:46:19.
