data_PCOD9314438
_publ_section_title
;
Structure prediction by ZEFSAII (Michael W. Deem and Ramdas Pophale) SiO2 
 PCOD9314438
Probable space group: P 21 21 21
;
_chemical_formula_sum "Si O2"
_cell_formula_units_Z 28
_cell_length_a 7.024949
_cell_length_b 16.047204
_cell_length_c 9.881857
_cell_angle_alpha 90.000000
_cell_angle_beta 90.000000
_cell_angle_gamma 90.000000
_cell_volume 1113.989543
_symmetry_space_group_name_H-M "P 21 21 21"
_symmetry_group_IT_number 19
_symmetry_cell_setting 'orthorhombic'
loop_
_space_group_symop_operation_xyz
x,y,z
1/2-x,-y,1/2+z
1/2+x,1/2-y,-z
-x,1/2+y,1/2-z
loop_
_atom_site_type_symbol
_atom_site_label
_atom_site_fract_x
_atom_site_fract_y
_atom_site_fract_z
Si Si1 0.941140 0.378534 0.912821
Si Si2 0.064538 0.680288 0.170219
Si Si3 0.543775 0.935699 0.415857
Si Si4 0.909866 0.833228 0.007288
Si Si5 0.828345 0.221979 0.040522
Si Si6 0.763866 0.429719 0.630270
Si Si7 0.788202 0.018060 0.635824
O O1 0.128642 0.320949 0.923135
O O2 0.029413 0.471390 0.930832
O O3 0.840590 0.390190 0.769999
O O4 0.810790 0.318903 0.004132
O O5 0.960305 0.747264 0.076153
O O6 0.049279 0.711063 0.323520
O O7 0.955651 0.594550 0.138966
O O8 0.285230 0.677280 0.127772
O O9 0.589615 0.838009 0.421574
O O10 0.614982 0.967710 0.563962
O O11 0.336014 0.975161 0.385707
O O12 0.669832 0.979359 0.296465
O O13 0.766539 0.888265 0.097673
O O14 0.107786 0.881415 0.980947
#
# Coordination Sequence:
#
# PCOD9314438 Si02
#       7
#     4   4   4   4   4   4   4
#     4  10  21  41  66  97 135 174 218 281 337 401
#     4  12  24  41  67  95 133 178 224 290 332 407
#     4   9  21  41  65  98 133 180 224 277 339 412
#     4  11  23  41  66  96 131 176 230 272 344 408
#     4  11  23  39  68 101 135 174 229 281 346 397
#     4  10  21  44  65  91 136 171 221 275 339 405
#     4   9  21  39  69  92 137 185 222 272 345 404
#
# _framework density 25.134888
#
# number of rings (size 3 to 8) (size 9 to 14) (size 15 to 20)
#    0.000    1.714    2.857    0.857    8.000    0.000 
#    7.714    0.000    0.000    0.000    0.000    0.000 
#    0.000    0.000    0.000    0.000    0.000    0.000 
#
# Total GULP energy -156241.751667 kJ/mol
# GULP energy per Si atom -5580.062560 kJ/mol
# Density = 2.507768 g / cm^3
# Si number density = 25.134888 Si / 1000 Ang^3
#
#
#
# Elastic Constant Matrix: (Units=GPa)
#
#
# Indices 1 2 3 4 5 6 
#
# 1 48.2845 1.0114 13.1368 0.0000 0.0000 0.0000
# 2 1.0114 117.6888 43.0806 0.0000 0.0000 0.0000
# 3 13.1368 43.0806 86.3758 0.0000 0.0000 0.0000
# 4 0.0000 0.0000 0.0000 31.9842 0.0000 0.0000
# 5 0.0000 0.0000 0.0000 0.0000 23.9675 0.0000
# 6 0.0000 0.0000 0.0000 0.0000 0.0000 39.6394
#
#
#
# Elastic Compliance Matrix: (Units=1/GPa)
#
#
# Indices 1 2 3 4 5 6 
#
# 1 0.021755 0.001253 -0.003934 0.000000 0.000000 0.000000
# 2 0.001253 0.010467 -0.005411 0.000000 0.000000 0.000000
# 3 -0.003934 -0.005411 0.014874 0.000000 0.000000 0.000000
# 4 0.000000 0.000000 0.000000 0.031265 0.000000 0.000000
# 5 0.000000 0.000000 0.000000 0.000000 0.041723 0.000000
# 6 0.000000 0.000000 0.000000 0.000000 0.000000 0.025227
#
#
# Mechanical properties :
#
#
# Convention : Reuss Voigt Hill
#
# Bulk Modulus (GPa) = 32.34930 40.75632 36.55281
# Shear Modulus (GPa) = 29.10372 32.12624 30.61498
#
# Velocity S-wave (km/s) = 3.40649 3.57901 3.49381
# Velocity P-wave (km/s) = 5.32639 5.77315 5.55426
#
# Compressibility (1/GPa) = 0.03091257
#
# Stress axis : x y z
#
# Youngs Moduli (GPa) = 45.96741 95.53881 67.22981
#
# Poissons Ratio (x) = -0.11970 0.26445
# Poissons Ratio (y) = -0.05759 0.36378
# Poissons Ratio (z) = 0.18081 0.51696
#
# Static dielectric constant tensor:
#      x y z
#    x 2.075180 0.000000 0.000000 
#    y 0.000000 1.992460 0.000000 
#    z 0.000000 0.000000 1.970340 
# 
# From -- ./inp_files/3006.got.cif
#   From: 2010.05.17/outbox.cif.g08.bks.cpg/sg19_2_cif.got.tgz:3006.got - 2010.06.03 22:46:19.
