data_PCOD9314763
_publ_section_title
;
Structure prediction by ZEFSAII (Michael W. Deem and Ramdas Pophale) SiO2 
 PCOD9314763
Probable space group: P 21 21 21
;
_chemical_formula_sum "Si O2"
_cell_formula_units_Z 28
_cell_length_a 9.765922
_cell_length_b 10.324528
_cell_length_c 12.895792
_cell_angle_alpha 90.000000
_cell_angle_beta 90.000000
_cell_angle_gamma 90.000000
_cell_volume 1300.263817
_symmetry_space_group_name_H-M "P 21 21 21"
_symmetry_group_IT_number 19
_symmetry_cell_setting 'orthorhombic'
loop_
_space_group_symop_operation_xyz
x,y,z
1/2-x,-y,1/2+z
1/2+x,1/2-y,-z
-x,1/2+y,1/2-z
loop_
_atom_site_type_symbol
_atom_site_label
_atom_site_fract_x
_atom_site_fract_y
_atom_site_fract_z
Si Si1 0.443179 0.476303 0.687676
Si Si2 0.743521 0.547828 0.155317
Si Si3 0.250072 0.719406 0.714230
Si Si4 0.047275 0.152578 0.741085
Si Si5 0.201550 0.872448 0.517951
Si Si6 0.242607 0.657366 0.342747
Si Si7 0.563299 0.968854 0.047282
O O1 0.605318 0.497926 0.690575
O O2 0.361882 0.609111 0.706188
O O3 0.386974 0.377281 0.772727
O O4 0.410031 0.428609 0.570585
O O5 0.744945 0.699383 0.179340
O O6 0.628246 0.474928 0.221323
O O7 0.730906 0.497101 0.037834
O O8 0.270298 0.823221 0.622465
O O9 0.097791 0.661922 0.700411
O O10 0.142113 0.273507 0.771353
O O11 0.010754 0.135242 0.620479
O O12 0.210629 0.757228 0.434621
O O13 0.045215 0.912476 0.538621
O O14 0.306724 0.528059 0.393414
#
# Coordination Sequence:
#
# PCOD9314763 Si02
#       7
#     4   4   4   4   4   4   4
#     4  11  26  42  68 101 139 170 228 279 343 389
#     4  10  25  41  65 103 132 172 224 283 326 399
#     4  12  22  43  73  96 135 179 223 283 332 405
#     4  11  22  42  71  94 132 178 225 275 332 400
#     4  10  22  41  69  94 130 177 223 272 338 398
#     4  11  22  40  69  98 130 176 225 273 335 405
#     4  11  21  43  63  98 130 172 222 273 328 410
#
# _framework density 21.534091
#
# number of rings (size 3 to 8) (size 9 to 14) (size 15 to 20)
#    0.000    1.143    5.714    0.000    6.000    0.000 
#    5.143    0.000    0.000    0.000    0.000    0.000 
#    0.000    0.000    0.000    0.000    0.000    0.000 
#
# Total GULP energy -156471.549409 kJ/mol
# GULP energy per Si atom -5588.269622 kJ/mol
# Density = 2.148508 g / cm^3
# Si number density = 21.534091 Si / 1000 Ang^3
#
#
#
# Elastic Constant Matrix: (Units=GPa)
#
#
# Indices 1 2 3 4 5 6 
#
# 1 86.3725 24.2811 5.2947 0.0000 0.0000 0.0000
# 2 24.2811 35.8565 26.0765 0.0000 0.0000 0.0000
# 3 5.2947 26.0765 94.8760 0.0000 0.0000 0.0000
# 4 0.0000 0.0000 0.0000 39.6544 0.0000 0.0000
# 5 0.0000 0.0000 0.0000 0.0000 33.5795 0.0000
# 6 0.0000 0.0000 0.0000 0.0000 0.0000 36.2009
#
#
#
# Elastic Compliance Matrix: (Units=1/GPa)
#
#
# Indices 1 2 3 4 5 6 
#
# 1 0.014724 -0.011715 0.002398 0.000000 0.000000 0.000000
# 2 -0.011715 0.044177 -0.011488 0.000000 0.000000 0.000000
# 3 0.002398 -0.011488 0.013564 0.000000 0.000000 0.000000
# 4 0.000000 0.000000 0.000000 0.025218 0.000000 0.000000
# 5 0.000000 0.000000 0.000000 0.000000 0.029780 0.000000
# 6 0.000000 0.000000 0.000000 0.000000 0.000000 0.027624
#
#
# Mechanical properties :
#
#
# Convention : Reuss Voigt Hill
#
# Bulk Modulus (GPa) = 32.40983 36.48993 34.44988
# Shear Modulus (GPa) = 24.15689 32.65047 28.40368
#
# Velocity S-wave (km/s) = 3.35296 3.89809 3.63576
# Velocity P-wave (km/s) = 5.48388 6.10264 5.80151
#
# Compressibility (1/GPa) = 0.03085484
#
# Stress axis : x y z
#
# Youngs Moduli (GPa) = 67.91629 22.63643 73.72604
#
# Poissons Ratio (x) = 0.26518 -0.17680
# Poissons Ratio (y) = 0.79562 0.84697
# Poissons Ratio (z) = -0.16287 0.26005
#
# Static dielectric constant tensor:
#      x y z
#    x 1.759600 0.000000 0.000000 
#    y 0.000000 1.802620 0.000000 
#    z 0.000000 0.000000 1.803170 
# 
# From -- ./inp_files/4578.got.cif
#   From: 2010.05.17/outbox.cif.g08.bks.cpg/sg19_3_cif.got.tgz:4578.got - 2010.06.03 22:46:19.
