data_PCOD9314396
_publ_section_title
;
Structure prediction by ZEFSAII (Michael W. Deem and Ramdas Pophale) SiO2 
 PCOD9314396
Probable space group: P 21 21 21
;
_chemical_formula_sum "Si O2"
_cell_formula_units_Z 32
_cell_length_a 5.653049
_cell_length_b 17.339902
_cell_length_c 13.212372
_cell_angle_alpha 90.000000
_cell_angle_beta 90.000000
_cell_angle_gamma 90.000000
_cell_volume 1295.120511
_symmetry_space_group_name_H-M "P 21 21 21"
_symmetry_group_IT_number 19
_symmetry_cell_setting 'orthorhombic'
loop_
_space_group_symop_operation_xyz
x,y,z
1/2-x,-y,1/2+z
1/2+x,1/2-y,-z
-x,1/2+y,1/2-z
loop_
_atom_site_type_symbol
_atom_site_label
_atom_site_fract_x
_atom_site_fract_y
_atom_site_fract_z
Si Si1 0.824652 0.533149 0.552783
Si Si2 0.459247 0.151301 0.220643
Si Si3 0.665388 0.108043 0.017106
Si Si4 0.168241 0.609078 0.831420
Si Si5 0.274919 0.759869 0.163084
Si Si6 0.886433 0.790668 0.329407
Si Si7 0.062353 0.885071 0.042518
Si Si8 0.289214 0.988643 0.220184
O O1 0.579176 0.559176 0.500525
O O2 0.845444 0.440026 0.544140
O O3 0.784731 0.550663 0.670459
O O4 0.076121 0.570637 0.513264
O O5 0.650551 0.133022 0.133566
O O6 0.590438 0.178807 0.324341
O O7 0.306695 0.224061 0.183675
O O8 0.276605 0.080073 0.228405
O O9 0.613775 0.181978 0.944640
O O10 0.314880 0.633021 0.733680
O O11 0.283924 0.615108 0.941109
O O12 0.969664 0.673982 0.829823
O O13 0.057918 0.526786 0.815298
O O14 0.136420 0.796702 0.066526
O O15 0.110465 0.764434 0.262623
O O16 0.132635 0.943064 0.138589
#
# Coordination Sequence:
#
# PCOD9314396 Si02
#       8
#     4   4   4   4   4   4   4   4
#     4  12  26  44  72 105 132 186 229 298 340 411
#     4  11  25  39  66 100 140 180 225 286 349 421
#     4  12  26  43  67 104 142 171 236 284 357 412
#     4   9  17  38  64  88 124 174 219 277 334 401
#     4   9  21  39  63  90 129 182 221 266 345 407
#     4  10  22  39  61  96 136 183 216 278 347 421
#     4  10  21  40  69  94 133 175 236 279 344 413
#     4  11  22  42  64  97 138 175 230 288 344 408
#
# _framework density 24.708124000000002
#
# number of rings (size 3 to 8) (size 9 to 14) (size 15 to 20)
#    0.000    1.500    2.500    3.000    7.000    1.000 
#    0.000    0.000    8.250    0.000    0.000    0.000 
#    0.000    0.000    0.000    0.000    0.000    0.000 
#
# Total GULP energy -178269.416196 kJ/mol
# GULP energy per Si atom -5570.919256 kJ/mol
# Density = 2.465189 g / cm^3
# Si number density = 24.708124 Si / 1000 Ang^3
#
#
#
# Elastic Constant Matrix: (Units=GPa)
#
#
# Indices 1 2 3 4 5 6 
#
# 1 84.7798 25.3632 15.0667 0.0000 0.0000 0.0000
# 2 25.3632 94.6799 1.7253 0.0000 0.0000 0.0000
# 3 15.0667 1.7253 36.3067 0.0000 0.0000 0.0000
# 4 0.0000 0.0000 0.0000 35.2620 0.0000 0.0000
# 5 0.0000 0.0000 0.0000 0.0000 25.9914 0.0000
# 6 0.0000 0.0000 0.0000 0.0000 0.0000 28.4266
#
#
#
# Elastic Compliance Matrix: (Units=1/GPa)
#
#
# Indices 1 2 3 4 5 6 
#
# 1 0.013869 -0.003613 -0.005584 0.000000 0.000000 0.000000
# 2 -0.003613 0.011513 0.000952 0.000000 0.000000 0.000000
# 3 -0.005584 0.000952 0.029815 0.000000 0.000000 0.000000
# 4 0.000000 0.000000 0.000000 0.028359 0.000000 0.000000
# 5 0.000000 0.000000 0.000000 0.000000 0.038474 0.000000
# 6 0.000000 0.000000 0.000000 0.000000 0.000000 0.035178
#
#
# Mechanical properties :
#
#
# Convention : Reuss Voigt Hill
#
# Bulk Modulus (GPa) = 25.83509 33.34184 29.58847
# Shear Modulus (GPa) = 26.79542 29.51008 28.15275
#
# Velocity S-wave (km/s) = 3.29671 3.45968 3.37918
# Velocity P-wave (km/s) = 4.99699 5.42980 5.21789
#
# Compressibility (1/GPa) = 0.03870704
#
# Stress axis : x y z
#
# Youngs Moduli (GPa) = 72.10555 86.86188 33.54023
#
# Poissons Ratio (x) = 0.31387 0.18727
# Poissons Ratio (y) = 0.26055 -0.03195
# Poissons Ratio (z) = 0.40260 -0.08273
#
# Static dielectric constant tensor:
#      x y z
#    x 2.101510 0.000000 0.000000 
#    y 0.000000 1.957930 0.000000 
#    z 0.000000 0.000000 2.124340 
# 
# From -- ./inp_files/5733.got.cif
#   From: 2010.05.17/outbox.cif.g08.bks.cpg/sg19_3_cif.got.tgz:5733.got - 2010.06.03 22:46:19.
