data_PCOD9314683
_publ_section_title
;
Structure prediction by ZEFSAII (Michael W. Deem and Ramdas Pophale) SiO2 
 PCOD9314683
Probable space group: P 21 21 21
;
_chemical_formula_sum "Si O2"
_cell_formula_units_Z 24
_cell_length_a 5.083187
_cell_length_b 9.849089
_cell_length_c 19.509609
_cell_angle_alpha 90.000000
_cell_angle_beta 90.000000
_cell_angle_gamma 90.000000
_cell_volume 976.743915
_symmetry_space_group_name_H-M "P 21 21 21"
_symmetry_group_IT_number 19
_symmetry_cell_setting 'orthorhombic'
loop_
_space_group_symop_operation_xyz
x,y,z
1/2-x,-y,1/2+z
1/2+x,1/2-y,-z
-x,1/2+y,1/2-z
loop_
_atom_site_type_symbol
_atom_site_label
_atom_site_fract_x
_atom_site_fract_y
_atom_site_fract_z
Si Si1 0.542478 0.299028 0.602505
Si Si2 0.733945 0.049879 0.766142
Si Si3 0.266145 0.765454 0.230474
Si Si4 0.771586 0.066026 0.524248
Si Si5 0.052304 0.017835 0.895352
Si Si6 0.560533 0.222728 0.040917
O O1 0.301596 0.259767 0.650436
O O2 0.689576 0.161671 0.585008
O O3 0.460078 0.357769 0.528851
O O4 0.742217 0.409676 0.633596
O O5 0.465407 0.132074 0.754726
O O6 0.965000 0.151609 0.740428
O O7 0.750168 0.891268 0.740214
O O8 0.802003 0.033315 0.846864
O O9 0.533290 0.025583 0.472305
O O10 0.901599 0.933368 0.555457
O O11 0.159727 0.170085 0.903342
O O12 0.257546 0.250763 0.023023
#
# Coordination Sequence:
#
# PCOD9314683 Si02
#       6
#     4   4   4   4   4   4
#     4  12  23  44  72 111 149 194 246 315 374 456
#     4  12  27  51  79 108 151 209 258 319 379 446
#     4  12  28  50  77 111 151 201 263 315 380 453
#     4  11  23  41  72 108 145 189 235 303 375 443
#     4  11  23  44  73 102 152 193 246 300 381 441
#     4  10  22  40  65 104 144 184 232 284 357 443
#
# _framework density 24.571435999999999
#
# number of rings (size 3 to 8) (size 9 to 14) (size 15 to 20)
#    0.000    0.667    5.000    3.000    0.000    1.333 
#    0.000   15.000    0.000    0.000    0.000    0.000 
#    0.000    0.000    0.000    0.000    0.000    0.000 
#
# Total GULP energy -134228.075758 kJ/mol
# GULP energy per Si atom -5592.836490 kJ/mol
# Density = 2.451551 g / cm^3
# Si number density = 24.571436 Si / 1000 Ang^3
#
#
#
# Elastic Constant Matrix: (Units=GPa)
#
#
# Indices 1 2 3 4 5 6 
#
# 1 95.1917 27.4387 13.0999 0.0000 0.0000 0.0000
# 2 27.4387 192.0094 28.3192 0.0000 0.0000 0.0000
# 3 13.0999 28.3192 53.5267 0.0000 0.0000 0.0000
# 4 0.0000 0.0000 0.0000 32.3611 0.0000 0.0000
# 5 0.0000 0.0000 0.0000 0.0000 40.3422 0.0000
# 6 0.0000 0.0000 0.0000 0.0000 0.0000 48.5252
#
#
#
# Elastic Compliance Matrix: (Units=1/GPa)
#
#
# Indices 1 2 3 4 5 6 
#
# 1 0.011159 -0.001293 -0.002047 0.000000 0.000000 0.000000
# 2 -0.001293 0.005799 -0.002751 0.000000 0.000000 0.000000
# 3 -0.002047 -0.002751 0.020639 0.000000 0.000000 0.000000
# 4 0.000000 0.000000 0.000000 0.030901 0.000000 0.000000
# 5 0.000000 0.000000 0.000000 0.000000 0.024788 0.000000
# 6 0.000000 0.000000 0.000000 0.000000 0.000000 0.020608
#
#
# Mechanical properties :
#
#
# Convention : Reuss Voigt Hill
#
# Bulk Modulus (GPa) = 39.34795 53.16037 46.25416
# Shear Modulus (GPa) = 37.16133 42.37036 39.76584
#
# Velocity S-wave (km/s) = 3.89315 4.15706 4.02727
# Velocity P-wave (km/s) = 6.02140 6.68757 6.36321
#
# Compressibility (1/GPa) = 0.02541429
#
# Stress axis : x y z
#
# Youngs Moduli (GPa) = 89.60989 172.45443 48.45197
#
# Poissons Ratio (x) = 0.22295 0.09919
# Poissons Ratio (y) = 0.11585 0.13331
# Poissons Ratio (z) = 0.18344 0.47450
#
# Static dielectric constant tensor:
#      x y z
#    x 1.955330 0.000000 0.000000 
#    y 0.000000 2.014790 0.000000 
#    z 0.000000 0.000000 1.961990 
# 
# From -- ./inp_files/7249.got.cif
#   From: 2010.05.17/outbox.cif.g08.bks.cpg/sg19_4_cif.got.tgz:7249.got - 2010.06.03 22:46:19.
