data_PCOD9314461
_publ_section_title
;
Structure prediction by ZEFSAII (Michael W. Deem and Ramdas Pophale) SiO2 
 PCOD9314461
Probable space group: P 21 21 21
;
_chemical_formula_sum "Si O2"
_cell_formula_units_Z 32
_cell_length_a 4.897674
_cell_length_b 12.005243
_cell_length_c 22.359597
_cell_angle_alpha 90.000000
_cell_angle_beta 90.000000
_cell_angle_gamma 90.000000
_cell_volume 1314.694364
_symmetry_space_group_name_H-M "P 21 21 21"
_symmetry_group_IT_number 19
_symmetry_cell_setting 'orthorhombic'
loop_
_space_group_symop_operation_xyz
x,y,z
1/2-x,-y,1/2+z
1/2+x,1/2-y,-z
-x,1/2+y,1/2-z
loop_
_atom_site_type_symbol
_atom_site_label
_atom_site_fract_x
_atom_site_fract_y
_atom_site_fract_z
Si Si1 0.704616 0.888424 0.778030
Si Si2 0.527722 0.168202 0.152951
Si Si3 0.753763 0.250589 0.397039
Si Si4 0.975948 0.806760 0.363044
Si Si5 0.708045 0.497297 0.183174
Si Si6 0.259787 0.121722 0.440208
Si Si7 0.442168 0.984969 0.060224
Si Si8 0.735031 0.168247 0.991620
O O1 0.738092 0.791772 0.828153
O O2 0.830079 0.870163 0.713553
O O3 0.389589 0.922651 0.775283
O O4 0.890982 0.988852 0.804446
O O5 0.786404 0.220551 0.117721
O O6 0.285420 0.252464 0.167192
O O7 0.380760 0.077106 0.110809
O O8 0.560596 0.170211 0.435570
O O9 0.608165 0.370139 0.402902
O O10 0.049224 0.224325 0.426611
O O11 0.149520 0.879245 0.316477
O O12 0.848906 0.860143 0.422972
O O13 0.766665 0.541474 0.116584
O O14 0.213411 0.053277 0.500176
O O15 0.695776 0.053558 0.029033
O O16 0.023799 0.230680 0.992655
#
# Coordination Sequence:
#
# PCOD9314461 Si02
#       8
#     4   4   4   4   4   4   4   4
#     4  10  23  46  62  96 127 169 224 269 318 391
#     4  12  27  41  66  95 137 170 224 268 328 395
#     4  10  24  41  66  92 131 173 216 276 327 382
#     4  12  23  43  63  98 123 176 208 270 334 391
#     4  10  21  41  71  87 124 170 214 264 327 386
#     4  10  22  41  63  96 128 164 214 272 329 389
#     4  12  24  41  67  97 132 171 219 267 334 388
#     4  12  24  42  62  95 138 169 209 268 327 398
#
# _framework density 24.340257999999999
#
# number of rings (size 3 to 8) (size 9 to 14) (size 15 to 20)
#    0.000    1.000    3.750    2.250    0.000    6.000 
#    0.000    0.000    0.000    0.000    0.000    0.000 
#    0.000    0.000    0.000    0.000    0.000    0.000 
#
# Total GULP energy -178520.935314 kJ/mol
# GULP energy per Si atom -5578.779229 kJ/mol
# Density = 2.428486 g / cm^3
# Si number density = 24.340258 Si / 1000 Ang^3
#
#
#
# Elastic Constant Matrix: (Units=GPa)
#
#
# Indices 1 2 3 4 5 6 
#
# 1 83.8604 9.0656 -3.8668 0.0000 0.0000 0.0000
# 2 9.0656 59.8328 18.4556 0.0000 0.0000 0.0000
# 3 -3.8668 18.4556 78.7583 0.0000 0.0000 0.0000
# 4 0.0000 0.0000 0.0000 10.9229 0.0000 0.0000
# 5 0.0000 0.0000 0.0000 0.0000 18.2400 0.0000
# 6 0.0000 0.0000 0.0000 0.0000 0.0000 5.2893
#
#
#
# Elastic Compliance Matrix: (Units=1/GPa)
#
#
# Indices 1 2 3 4 5 6 
#
# 1 0.012213 -0.002194 0.001114 0.000000 0.000000 0.000000
# 2 -0.002194 0.018410 -0.004422 0.000000 0.000000 0.000000
# 3 0.001114 -0.004422 0.013788 0.000000 0.000000 0.000000
# 4 0.000000 0.000000 0.000000 0.091550 0.000000 0.000000
# 5 0.000000 0.000000 0.000000 0.000000 0.054824 0.000000
# 6 0.000000 0.000000 0.000000 0.000000 0.000000 0.189060
#
#
# Mechanical properties :
#
#
# Convention : Reuss Voigt Hill
#
# Bulk Modulus (GPa) = 29.93411 29.97336 29.95374
# Shear Modulus (GPa) = 12.43829 20.14360 16.29095
#
# Velocity S-wave (km/s) = 2.26302 2.87990 2.58989
# Velocity P-wave (km/s) = 4.37644 4.83730 4.61263
#
# Compressibility (1/GPa) = 0.03340670
#
# Stress axis : x y z
#
# Youngs Moduli (GPa) = 81.87918 54.31971 72.52740
#
# Poissons Ratio (x) = 0.11918 -0.08078
# Poissons Ratio (y) = 0.17964 0.32069
# Poissons Ratio (z) = -0.09119 0.24018
#
# Static dielectric constant tensor:
#      x y z
#    x 1.917630 0.000000 0.000000 
#    y 0.000000 2.055860 0.000000 
#    z 0.000000 0.000000 1.965230 
# 
# From -- ./inp_files/6951.got.cif
#   From: 2010.05.17/outbox.cif.g08.bks.cpg/sg19_4_cif.got.tgz:6951.got - 2010.06.03 22:46:19.
