data_PCOD9314846
_publ_section_title
;
Structure prediction by ZEFSAII (Michael W. Deem and Ramdas Pophale) SiO2 
 PCOD9314846
Probable space group: P 21 21 21
;
_chemical_formula_sum "Si O2"
_cell_formula_units_Z 32
_cell_length_a 14.416320
_cell_length_b 10.091565
_cell_length_c 9.470939
_cell_angle_alpha 90.000000
_cell_angle_beta 90.000000
_cell_angle_gamma 90.000000
_cell_volume 1377.862800
_symmetry_space_group_name_H-M "P 21 21 21"
_symmetry_group_IT_number 19
_symmetry_cell_setting 'orthorhombic'
loop_
_space_group_symop_operation_xyz
x,y,z
1/2-x,-y,1/2+z
1/2+x,1/2-y,-z
-x,1/2+y,1/2-z
loop_
_atom_site_type_symbol
_atom_site_label
_atom_site_fract_x
_atom_site_fract_y
_atom_site_fract_z
Si Si1 0.923759 0.142890 0.143987
Si Si2 0.337445 0.349705 0.547956
Si Si3 0.165935 0.818961 0.598870
Si Si4 0.370088 0.810173 0.597453
Si Si5 0.940151 0.145205 0.719929
Si Si6 0.864548 0.701624 0.721911
Si Si7 0.357134 0.553558 0.068863
Si Si8 0.730169 0.568802 0.901624
O O1 0.872126 0.136448 0.292455
O O2 0.027396 0.203849 0.159468
O O3 0.868056 0.237445 0.036145
O O4 0.918631 0.000989 0.061160
O O5 0.421425 0.371542 0.442895
O O6 0.249653 0.443291 0.521316
O O7 0.298191 0.201531 0.519914
O O8 0.268222 0.772852 0.657544
O O9 0.089538 0.789114 0.718323
O O10 0.186262 0.970435 0.553458
O O11 0.367341 0.750609 0.438980
O O12 0.355957 0.969957 0.594994
O O13 0.043773 0.114301 0.764732
O O14 0.872943 0.049300 0.805426
O O15 0.874110 0.807493 0.849565
O O16 0.770802 0.621075 0.752491
#
# Coordination Sequence:
#
# PCOD9314846 Si02
#       8
#     4   4   4   4   4   4   4   4
#     4  11  22  45  67 102 138 187 227 294 357 409
#     4  11  24  42  64  99 141 177 229 286 358 413
#     4   9  21  40  70  95 132 179 230 279 348 403
#     4  10  22  42  71  97 139 181 231 296 345 413
#     4  11  24  40  69  97 133 179 234 284 341 426
#     4  11  22  42  71 101 128 184 238 280 348 418
#     4  10  23  43  68  93 133 182 233 287 342 412
#     4   9  24  40  66  98 134 175 222 290 337 410
#
# _framework density 23.224374999999998
#
# number of rings (size 3 to 8) (size 9 to 14) (size 15 to 20)
#    0.750    1.000    2.500    2.250    5.250    1.000 
#    6.750    3.750    0.000    0.000    0.000    0.000 
#    0.000    0.000    0.000    0.000    0.000    0.000 
#
# Total GULP energy -178236.837025 kJ/mol
# GULP energy per Si atom -5569.901157 kJ/mol
# Density = 2.317152 g / cm^3
# Si number density = 23.224375 Si / 1000 Ang^3
#
#
#
# Elastic Constant Matrix: (Units=GPa)
#
#
# Indices 1 2 3 4 5 6 
#
# 1 85.8102 -0.5744 3.8928 0.0000 0.0000 0.0000
# 2 -0.5744 60.4566 1.4312 0.0000 0.0000 0.0000
# 3 3.8928 1.4312 90.3985 0.0000 0.0000 0.0000
# 4 0.0000 0.0000 0.0000 9.9413 0.0000 0.0000
# 5 0.0000 0.0000 0.0000 0.0000 28.7861 0.0000
# 6 0.0000 0.0000 0.0000 0.0000 0.0000 24.0625
#
#
#
# Elastic Compliance Matrix: (Units=1/GPa)
#
#
# Indices 1 2 3 4 5 6 
#
# 1 0.011677 0.000123 -0.000505 0.000000 0.000000 0.000000
# 2 0.000123 0.016548 -0.000267 0.000000 0.000000 0.000000
# 3 -0.000505 -0.000267 0.011088 0.000000 0.000000 0.000000
# 4 0.000000 0.000000 0.000000 0.100590 0.000000 0.000000
# 5 0.000000 0.000000 0.000000 0.000000 0.034739 0.000000
# 6 0.000000 0.000000 0.000000 0.000000 0.000000 0.041558
#
#
# Mechanical properties :
#
#
# Convention : Reuss Voigt Hill
#
# Bulk Modulus (GPa) = 26.30517 27.35162 26.82839
# Shear Modulus (GPa) = 21.72290 28.01902 24.87096
#
# Velocity S-wave (km/s) = 3.06167 3.47717 3.27601
# Velocity P-wave (km/s) = 4.88360 5.28428 5.08788
#
# Compressibility (1/GPa) = 0.03801534
#
# Stress axis : x y z
#
# Youngs Moduli (GPa) = 85.63583 60.42918 90.18673
#
# Poissons Ratio (x) = -0.00743 0.04553
# Poissons Ratio (y) = -0.01052 0.02411
# Poissons Ratio (z) = 0.04323 0.01615
#
# Static dielectric constant tensor:
#      x y z
#    x 1.864510 0.000000 0.000000 
#    y 0.000000 1.983600 0.000000 
#    z 0.000000 0.000000 1.885300 
# 
# From -- ./inp_files/3967.got.cif
#   From: 2010.05.17/outbox.cif.g08.bks.cpg/sg19_2_cif.got.tgz:3967.got - 2010.06.03 22:46:19.
