data_PCOD9314725
_publ_section_title
;
Structure prediction by ZEFSAII (Michael W. Deem and Ramdas Pophale) SiO2 
 PCOD9314725
Probable space group: P 21 21 21
;
_chemical_formula_sum "Si O2"
_cell_formula_units_Z 28
_cell_length_a 5.914538
_cell_length_b 11.201974
_cell_length_c 18.789183
_cell_angle_alpha 90.000000
_cell_angle_beta 90.000000
_cell_angle_gamma 90.000000
_cell_volume 1244.867942
_symmetry_space_group_name_H-M "P 21 21 21"
_symmetry_group_IT_number 19
_symmetry_cell_setting 'orthorhombic'
loop_
_space_group_symop_operation_xyz
x,y,z
1/2-x,-y,1/2+z
1/2+x,1/2-y,-z
-x,1/2+y,1/2-z
loop_
_atom_site_type_symbol
_atom_site_label
_atom_site_fract_x
_atom_site_fract_y
_atom_site_fract_z
Si Si1 0.854147 0.540977 0.352693
Si Si2 0.179899 0.643393 0.139507
Si Si3 0.873567 0.688932 0.492640
Si Si4 0.195950 0.348481 0.344223
Si Si5 0.921706 0.353460 0.723075
Si Si6 0.799856 0.527741 0.085125
Si Si7 0.912988 0.658354 0.942250
O O1 0.910272 0.634451 0.414187
O O2 0.703715 0.598610 0.291454
O O3 0.712184 0.437313 0.392030
O O4 0.074762 0.470707 0.325613
O O5 0.312501 0.631561 0.212991
O O6 0.337128 0.708927 0.080620
O O7 0.989732 0.744103 0.151223
O O8 0.059983 0.522996 0.113142
O O9 0.622180 0.753857 0.489457
O O10 0.817940 0.585254 0.550064
O O11 0.370981 0.287393 0.289744
O O12 0.327240 0.359868 0.419264
O O13 0.833733 0.428004 0.654213
O O14 0.836353 0.622580 0.020728
#
# Coordination Sequence:
#
# PCOD9314725 Si02
#       7
#     4   4   4   4   4   4   4
#     4  10  23  43  70  92 139 184 231 295 356 425
#     4   9  20  35  61  97 130 162 220 281 356 413
#     4  11  28  51  71 103 138 199 253 298 347 429
#     4   9  20  40  62  96 127 178 226 282 358 418
#     4  10  22  41  64 105 137 175 232 296 365 434
#     4  10  23  38  66  94 135 176 228 293 348 417
#     4   9  20  36  62  93 128 174 222 281 344 426
#
# _framework density 22.492345
#
# number of rings (size 3 to 8) (size 9 to 14) (size 15 to 20)
#    0.000    2.286    0.000    0.000   12.000    4.571 
#    7.714    0.000    0.000    0.000    0.000    0.000 
#    0.000    0.000    0.000    0.000    0.000    0.000 
#
# Total GULP energy -156015.008415 kJ/mol
# GULP energy per Si atom -5571.964586 kJ/mol
# Density = 2.244115 g / cm^3
# Si number density = 22.492345 Si / 1000 Ang^3
#
#
#
# Elastic Constant Matrix: (Units=GPa)
#
#
# Indices 1 2 3 4 5 6 
#
# 1 87.5854 26.5927 8.7338 0.0000 0.0000 0.0000
# 2 26.5927 61.6294 30.0430 0.0000 0.0000 0.0000
# 3 8.7338 30.0430 74.1149 0.0000 0.0000 0.0000
# 4 0.0000 0.0000 0.0000 27.3490 0.0000 0.0000
# 5 0.0000 0.0000 0.0000 0.0000 32.5424 0.0000
# 6 0.0000 0.0000 0.0000 0.0000 0.0000 20.6022
#
#
#
# Elastic Compliance Matrix: (Units=1/GPa)
#
#
# Indices 1 2 3 4 5 6 
#
# 1 0.013191 -0.006149 0.000938 0.000000 0.000000 0.000000
# 2 -0.006149 0.023088 -0.008634 0.000000 0.000000 0.000000
# 3 0.000938 -0.008634 0.016882 0.000000 0.000000 0.000000
# 4 0.000000 0.000000 0.000000 0.036564 0.000000 0.000000
# 5 0.000000 0.000000 0.000000 0.000000 0.030729 0.000000
# 6 0.000000 0.000000 0.000000 0.000000 0.000000 0.048538
#
#
# Mechanical properties :
#
#
# Convention : Reuss Voigt Hill
#
# Bulk Modulus (GPa) = 39.26102 39.34097 39.30100
# Shear Modulus (GPa) = 24.36953 26.62941 25.49947
#
# Velocity S-wave (km/s) = 3.29516 3.44456 3.37069
# Velocity P-wave (km/s) = 5.65426 5.77484 5.71487
#
# Compressibility (1/GPa) = 0.02547055
#
# Stress axis : x y z
#
# Youngs Moduli (GPa) = 75.81008 43.31175 59.23457
#
# Poissons Ratio (x) = 0.26633 -0.05557
# Poissons Ratio (y) = 0.46616 0.51146
# Poissons Ratio (z) = -0.07112 0.37397
#
# Static dielectric constant tensor:
#      x y z
#    x 2.069900 0.000000 0.000000 
#    y 0.000000 1.846090 0.000000 
#    z 0.000000 0.000000 1.826840 
# 
# From -- ./inp_files/6900.got.cif
#   From: 2010.05.17/outbox.cif.g08.bks.cpg/sg19_4_cif.got.tgz:6900.got - 2010.06.03 22:46:19.
