data_PCOD9314024
_publ_section_title
;
Structure prediction by ZEFSAII (Michael W. Deem and Ramdas Pophale) SiO2 
 PCOD9314024
Probable space group: P 21 21 21
;
_chemical_formula_sum "Si O2"
_cell_formula_units_Z 28
_cell_length_a 23.056097
_cell_length_b 8.173420
_cell_length_c 5.541659
_cell_angle_alpha 90.000000
_cell_angle_beta 90.000000
_cell_angle_gamma 90.000000
_cell_volume 1044.309924
_symmetry_space_group_name_H-M "P 21 21 21"
_symmetry_group_IT_number 19
_symmetry_cell_setting 'orthorhombic'
loop_
_space_group_symop_operation_xyz
x,y,z
1/2-x,-y,1/2+z
1/2+x,1/2-y,-z
-x,1/2+y,1/2-z
loop_
_atom_site_type_symbol
_atom_site_label
_atom_site_fract_x
_atom_site_fract_y
_atom_site_fract_z
Si Si1 0.320904 0.174993 0.101298
Si Si2 0.278318 0.818226 0.991470
Si Si3 0.433583 0.018472 0.079834
Si Si4 0.460089 0.509109 0.084449
Si Si5 0.540514 0.287881 0.801863
Si Si6 0.870669 0.794200 0.685600
Si Si7 0.217153 0.507703 0.328852
O O1 0.283684 0.180180 0.350079
O O2 0.388976 0.159016 0.146703
O O3 0.312142 0.326995 0.920780
O O4 0.299745 0.005295 0.974558
O O5 0.303647 0.756001 0.257330
O O6 0.310058 0.674787 0.839258
O O7 0.497492 0.027433 0.186469
O O8 0.403058 0.862366 0.202720
O O9 0.435803 0.959859 0.804731
O O10 0.394476 0.543866 0.176113
O O11 0.483569 0.347064 0.948847
O O12 0.474298 0.662816 0.910476
O O13 0.593294 0.202278 0.940081
O O14 0.236599 0.520565 0.050696
#
# Coordination Sequence:
#
# PCOD9314024 Si02
#       7
#     4   4   4   4   4   4   4
#     4  10  21  43  68  97 132 183 227 284 350 417
#     4  10  21  43  68  97 132 183 227 284 350 417
#     4   9  20  40  63  92 133 171 228 278 334 415
#     4  10  20  40  62  94 132 172 218 286 338 402
#     4  10  20  40  65  94 134 174 223 282 340 414
#     4   9  20  40  63  92 133 171 228 278 334 415
#     4  10  22  44  63  94 138 172 229 294 336 418
#
# _framework density 26.811962999999999
#
# number of rings (size 3 to 8) (size 9 to 14) (size 15 to 20)
#    0.000    2.286    0.000    1.714    0.000    0.000 
#   66.857    1.429    0.000    0.000    0.000    0.000 
#    0.000    0.000    0.000    0.000    0.000    0.000 
#
# Total GULP energy -155958.023316 kJ/mol
# GULP energy per Si atom -5569.929404 kJ/mol
# Density = 2.675094 g / cm^3
# Si number density = 26.811963 Si / 1000 Ang^3
#
#
#
# Elastic Constant Matrix: (Units=GPa)
#
#
# Indices 1 2 3 4 5 6 
#
# 1 109.2989 8.8947 41.6265 0.0000 0.0000 0.0000
# 2 8.8947 134.5337 37.6935 0.0000 0.0000 0.0000
# 3 41.6265 37.6935 77.9041 0.0000 0.0000 0.0000
# 4 0.0000 0.0000 0.0000 56.8172 0.0000 0.0000
# 5 0.0000 0.0000 0.0000 0.0000 48.9360 0.0000
# 6 0.0000 0.0000 0.0000 0.0000 0.0000 39.1868
#
#
#
# Elastic Compliance Matrix: (Units=1/GPa)
#
#
# Indices 1 2 3 4 5 6 
#
# 1 0.011632 0.001125 -0.006760 0.000000 0.000000 0.000000
# 2 0.001125 0.008708 -0.004814 0.000000 0.000000 0.000000
# 3 -0.006760 -0.004814 0.018777 0.000000 0.000000 0.000000
# 4 0.000000 0.000000 0.000000 0.017600 0.000000 0.000000
# 5 0.000000 0.000000 0.000000 0.000000 0.020435 0.000000
# 6 0.000000 0.000000 0.000000 0.000000 0.000000 0.025519
#
#
# Mechanical properties :
#
#
# Convention : Reuss Voigt Hill
#
# Bulk Modulus (GPa) = 54.88701 55.35181 55.11941
# Shear Modulus (GPa) = 38.56776 44.55613 41.56195
#
# Velocity S-wave (km/s) = 3.79681 4.08094 3.94144
# Velocity P-wave (km/s) = 6.30369 6.54940 6.42772
#
# Compressibility (1/GPa) = 0.01821925
#
# Stress axis : x y z
#
# Youngs Moduli (GPa) = 85.96905 114.84309 53.25532
#
# Poissons Ratio (x) = -0.12918 0.35999
# Poissons Ratio (y) = -0.09670 0.25638
# Poissons Ratio (z) = 0.58112 0.55287
#
# Static dielectric constant tensor:
#      x y z
#    x 2.147840 0.000000 0.000000 
#    y 0.000000 2.193180 0.000000 
#    z 0.000000 0.000000 2.233300 
# 
# From -- ./inp_files/2253.got.cif
#   From: 2010.05.17/outbox.cif.g08.bks.cpg/sg19_2_cif.got.tgz:2253.got - 2010.06.03 22:46:19.
