data_PCOD9314230
_publ_section_title
;
Structure prediction by ZEFSAII (Michael W. Deem and Ramdas Pophale) SiO2 
 PCOD9314230
Probable space group: P 21 21 21
;
_chemical_formula_sum "Si O2"
_cell_formula_units_Z 28
_cell_length_a 5.327643
_cell_length_b 8.596079
_cell_length_c 27.424423
_cell_angle_alpha 90.000000
_cell_angle_beta 90.000000
_cell_angle_gamma 90.000000
_cell_volume 1255.951915
_symmetry_space_group_name_H-M "P 21 21 21"
_symmetry_group_IT_number 19
_symmetry_cell_setting 'orthorhombic'
loop_
_space_group_symop_operation_xyz
x,y,z
1/2-x,-y,1/2+z
1/2+x,1/2-y,-z
-x,1/2+y,1/2-z
loop_
_atom_site_type_symbol
_atom_site_label
_atom_site_fract_x
_atom_site_fract_y
_atom_site_fract_z
Si Si1 0.747828 0.354910 0.785616
Si Si2 0.626100 0.621000 0.451189
Si Si3 0.773963 0.037078 0.606211
Si Si4 0.994800 0.769315 0.380218
Si Si5 0.603820 0.151895 0.502211
Si Si6 0.751145 0.928145 0.209749
Si Si7 0.809970 0.576620 0.553518
O O1 0.695323 0.253659 0.835492
O O2 0.504713 0.470004 0.779412
O O3 0.999771 0.462156 0.786566
O O4 0.764526 0.221010 0.744860
O O5 0.556618 0.487965 0.412390
O O6 0.654974 0.551018 0.504158
O O7 0.406520 0.747592 0.453380
O O8 0.850547 0.720367 0.429348
O O9 0.689108 0.870644 0.627622
O O10 0.740073 0.138378 0.653941
O O11 0.630337 0.074477 0.556041
O O12 0.152540 0.921184 0.396539
O O13 0.363865 0.262232 0.505522
O O14 0.540435 0.038667 0.456602
#
# Coordination Sequence:
#
# PCOD9314230 Si02
#       7
#     4   4   4   4   4   4   4
#     4  11  24  47  73 107 137 184 231 303 354 430
#     4  11  17  34  65  94 116 162 219 285 320 386
#     4  10  22  41  66  92 127 184 229 264 340 422
#     4  10  21  37  69  97 126 164 231 290 336 394
#     4  12  27  42  59  91 145 189 226 267 331 422
#     4  11  24  46  77 102 140 182 240 293 363 416
#     4  11  21  35  61  95 129 167 222 282 328 390
#
# _framework density 22.293847
#
# number of rings (size 3 to 8) (size 9 to 14) (size 15 to 20)
#    0.000    1.143    4.286    2.571    2.000    0.000 
#    2.571    0.000    0.000    0.000    0.000    0.000 
#    0.000    0.000    0.000    0.000    0.000    0.000 
#
# Total GULP energy -155965.570455 kJ/mol
# GULP energy per Si atom -5570.198945 kJ/mol
# Density = 2.224311 g / cm^3
# Si number density = 22.293847 Si / 1000 Ang^3
#
#
#
# Elastic Constant Matrix: (Units=GPa)
#
#
# Indices 1 2 3 4 5 6 
#
# 1 124.7761 39.1442 18.5767 0.0000 0.0000 0.0000
# 2 39.1442 65.1788 22.9954 0.0000 0.0000 0.0000
# 3 18.5767 22.9954 56.9264 0.0000 0.0000 0.0000
# 4 0.0000 0.0000 0.0000 28.7864 0.0000 0.0000
# 5 0.0000 0.0000 0.0000 0.0000 25.7844 0.0000
# 6 0.0000 0.0000 0.0000 0.0000 0.0000 38.5930
#
#
#
# Elastic Compliance Matrix: (Units=1/GPa)
#
#
# Indices 1 2 3 4 5 6 
#
# 1 0.009920 -0.005616 -0.000969 0.000000 0.000000 0.000000
# 2 -0.005616 0.021072 -0.006679 0.000000 0.000000 0.000000
# 3 -0.000969 -0.006679 0.020581 0.000000 0.000000 0.000000
# 4 0.000000 0.000000 0.000000 0.034739 0.000000 0.000000
# 5 0.000000 0.000000 0.000000 0.000000 0.038783 0.000000
# 6 0.000000 0.000000 0.000000 0.000000 0.000000 0.025911
#
#
# Mechanical properties :
#
#
# Convention : Reuss Voigt Hill
#
# Bulk Modulus (GPa) = 39.92840 45.36820 42.64830
# Shear Modulus (GPa) = 26.89872 29.71042 28.30457
#
# Velocity S-wave (km/s) = 3.47732 3.65454 3.56703
# Velocity P-wave (km/s) = 5.83706 6.18076 6.01137
#
# Compressibility (1/GPa) = 0.02504483
#
# Stress axis : x y z
#
# Youngs Moduli (GPa) = 100.80203 47.45696 48.58915
#
# Poissons Ratio (x) = 0.26652 0.04707
# Poissons Ratio (y) = 0.56612 0.32454
# Poissons Ratio (z) = 0.09765 0.31698
#
# Static dielectric constant tensor:
#      x y z
#    x 1.930250 0.000000 0.000000 
#    y 0.000000 1.887970 0.000000 
#    z 0.000000 0.000000 1.922520 
# 
# From -- ./inp_files/7449.got.cif
#   From: 2010.05.17/outbox.cif.g08.bks.cpg/sg19_4_cif.got.tgz:7449.got - 2010.06.03 22:46:19.
