data_PCOD9314270
_publ_section_title
;
Structure prediction by ZEFSAII (Michael W. Deem and Ramdas Pophale) SiO2 
 PCOD9314270
Probable space group: P 21 21 21
;
_chemical_formula_sum "Si O2"
_cell_formula_units_Z 32
_cell_length_a 5.070154
_cell_length_b 11.227225
_cell_length_c 21.069813
_cell_angle_alpha 90.000000
_cell_angle_beta 90.000000
_cell_angle_gamma 90.000000
_cell_volume 1199.372973
_symmetry_space_group_name_H-M "P 21 21 21"
_symmetry_group_IT_number 19
_symmetry_cell_setting 'orthorhombic'
loop_
_space_group_symop_operation_xyz
x,y,z
1/2-x,-y,1/2+z
1/2+x,1/2-y,-z
-x,1/2+y,1/2-z
loop_
_atom_site_type_symbol
_atom_site_label
_atom_site_fract_x
_atom_site_fract_y
_atom_site_fract_z
Si Si1 0.414916 0.976904 0.271281
Si Si2 0.473267 0.818403 0.920135
Si Si3 0.857725 0.009427 0.903516
Si Si4 0.306744 0.075052 0.525502
Si Si5 0.225201 0.683027 0.819043
Si Si6 0.112826 0.562437 0.386324
Si Si7 0.582756 0.861046 0.744195
Si Si8 0.898684 0.822467 0.497410
O O1 0.458076 0.951596 0.345722
O O2 0.498243 0.861791 0.229120
O O3 0.130480 0.031895 0.256305
O O4 0.626945 0.083971 0.257034
O O5 0.605840 0.696169 0.940627
O O6 0.218630 0.778053 0.878178
O O7 0.658610 0.905676 0.880663
O O8 0.449605 0.888910 0.986729
O O9 0.685459 0.115857 0.932097
O O10 0.016144 0.961061 0.964666
O O11 0.343882 0.977928 0.579437
O O12 0.287774 0.558582 0.853442
O O13 0.458209 0.746087 0.778783
O O14 0.306986 0.602279 0.441843
O O15 0.077195 0.658513 0.331801
O O16 0.703769 0.709692 0.503900
#
# Coordination Sequence:
#
# PCOD9314270 Si02
#       8
#     4   4   4   4   4   4   4   4
#     4  11  26  45  68 106 140 188 238 293 357 436
#     4  11  20  39  69 102 143 177 232 297 366 421
#     4  11  24  43  68 103 141 181 242 293 353 435
#     4  10  21  38  66 105 138 185 220 298 363 415
#     4  10  23  45  69 103 141 188 235 298 357 420
#     4   9  24  46  69 107 143 186 243 295 351 444
#     4  11  24  47  71 101 144 188 237 293 361 421
#     4  11  28  49  72 103 142 195 237 295 364 432
#
# _framework density 26.680606000000001
#
# number of rings (size 3 to 8) (size 9 to 14) (size 15 to 20)
#    0.000    1.500    2.500    0.750    5.250    5.000 
#    6.750    0.000    0.000    0.000    0.000    0.000 
#    0.000    0.000    0.000    0.000    0.000    0.000 
#
# Total GULP energy -178970.871232 kJ/mol
# GULP energy per Si atom -5592.839726 kJ/mol
# Density = 2.661988 g / cm^3
# Si number density = 26.680606 Si / 1000 Ang^3
#
#
#
# Elastic Constant Matrix: (Units=GPa)
#
#
# Indices 1 2 3 4 5 6 
#
# 1 71.6315 14.4671 0.9060 0.0000 0.0000 0.0000
# 2 14.4671 62.4817 19.1605 0.0000 0.0000 0.0000
# 3 0.9060 19.1605 124.3256 0.0000 0.0000 0.0000
# 4 0.0000 0.0000 0.0000 48.4791 0.0000 0.0000
# 5 0.0000 0.0000 0.0000 0.0000 12.5485 0.0000
# 6 0.0000 0.0000 0.0000 0.0000 0.0000 39.3005
#
#
#
# Elastic Compliance Matrix: (Units=1/GPa)
#
#
# Indices 1 2 3 4 5 6 
#
# 1 0.014668 -0.003530 0.000437 0.000000 0.000000 0.000000
# 2 -0.003530 0.017648 -0.002694 0.000000 0.000000 0.000000
# 3 0.000437 -0.002694 0.008455 0.000000 0.000000 0.000000
# 4 0.000000 0.000000 0.000000 0.020627 0.000000 0.000000
# 5 0.000000 0.000000 0.000000 0.000000 0.079691 0.000000
# 6 0.000000 0.000000 0.000000 0.000000 0.000000 0.025445
#
#
# Mechanical properties :
#
#
# Convention : Reuss Voigt Hill
#
# Bulk Modulus (GPa) = 34.25006 36.38956 35.31981
# Shear Modulus (GPa) = 26.61821 34.99263 30.80542
#
# Velocity S-wave (km/s) = 3.16200 3.62545 3.40163
# Velocity P-wave (km/s) = 5.11820 5.58513 5.35676
#
# Compressibility (1/GPa) = 0.02919702
#
# Stress axis : x y z
#
# Youngs Moduli (GPa) = 68.17660 56.66279 118.26729
#
# Poissons Ratio (x) = 0.20003 -0.05170
# Poissons Ratio (y) = 0.24068 0.31863
# Poissons Ratio (z) = -0.02981 0.15266
#
# Static dielectric constant tensor:
#      x y z
#    x 2.131480 0.000000 0.000000 
#    y 0.000000 2.127980 0.000000 
#    z 0.000000 0.000000 2.168440 
# 
# From -- ./inp_files/6939.got.cif
#   From: 2010.05.17/outbox.cif.g08.bks.cpg/sg19_4_cif.got.tgz:6939.got - 2010.06.03 22:46:19.
