data_PCOD9314405
_publ_section_title
;
Structure prediction by ZEFSAII (Michael W. Deem and Ramdas Pophale) SiO2 
 PCOD9314405
Probable space group: P 21 21 21
;
_chemical_formula_sum "Si O2"
_cell_formula_units_Z 28
_cell_length_a 14.942333
_cell_length_b 5.099790
_cell_length_c 15.343113
_cell_angle_alpha 90.000000
_cell_angle_beta 90.000000
_cell_angle_gamma 90.000000
_cell_volume 1169.187564
_symmetry_space_group_name_H-M "P 21 21 21"
_symmetry_group_IT_number 19
_symmetry_cell_setting 'orthorhombic'
loop_
_space_group_symop_operation_xyz
x,y,z
1/2-x,-y,1/2+z
1/2+x,1/2-y,-z
-x,1/2+y,1/2-z
loop_
_atom_site_type_symbol
_atom_site_label
_atom_site_fract_x
_atom_site_fract_y
_atom_site_fract_z
Si Si1 0.499001 0.457336 0.306749
Si Si2 0.241599 0.591430 0.013074
Si Si3 0.568874 0.175061 0.962110
Si Si4 0.797658 0.282654 0.127940
Si Si5 0.595778 0.415270 0.474517
Si Si6 0.473971 0.408431 0.797077
Si Si7 0.867882 0.439022 0.596883
O O1 0.470606 0.729346 0.261591
O O2 0.576424 0.515753 0.377394
O O3 0.422247 0.289097 0.356296
O O4 0.254797 0.468753 0.917469
O O5 0.182934 0.844749 0.991301
O O6 0.169803 0.411325 0.062573
O O7 0.341981 0.660225 0.041263
O O8 0.522828 0.346060 0.887737
O O9 0.502154 0.927860 0.980055
O O10 0.572455 0.332224 0.053664
O O11 0.872282 0.193335 0.195092
O O12 0.713611 0.455662 0.156321
O O13 0.848016 0.421224 0.045827
O O14 0.479864 0.711676 0.771903
#
# Coordination Sequence:
#
# PCOD9314405 Si02
#       7
#     4   4   4   4   4   4   4
#     4  12  27  43  66 102 144 180 218 282 363 412
#     4  10  21  40  75  99 123 174 252 282 328 395
#     4  10  22  42  73  96 132 182 238 283 332 412
#     4   9  23  42  72  96 130 182 242 284 331 412
#     4  10  22  41  70  98 129 179 235 280 327 411
#     4  11  27  44  68 104 146 182 221 284 364 410
#     4  10  22  44  70  95 130 183 242 281 337 410
#
# _framework density 23.948250999999999
#
# number of rings (size 3 to 8) (size 9 to 14) (size 15 to 20)
#    0.000    1.714    1.429    0.857   16.000    0.000 
#    5.143    0.000    0.000    0.000    0.000    0.000 
#    0.000    0.000    0.000    0.000    0.000    0.000 
#
# Total GULP energy -156075.553915 kJ/mol
# GULP energy per Si atom -5574.126926 kJ/mol
# Density = 2.389374 g / cm^3
# Si number density = 23.948251 Si / 1000 Ang^3
#
#
#
# Elastic Constant Matrix: (Units=GPa)
#
#
# Indices 1 2 3 4 5 6 
#
# 1 86.0726 19.0075 14.3693 0.0000 0.0000 0.0000
# 2 19.0075 62.0870 -5.5795 0.0000 0.0000 0.0000
# 3 14.3693 -5.5795 52.8551 0.0000 0.0000 0.0000
# 4 0.0000 0.0000 0.0000 31.7785 0.0000 0.0000
# 5 0.0000 0.0000 0.0000 0.0000 25.9387 0.0000
# 6 0.0000 0.0000 0.0000 0.0000 0.0000 33.4705
#
#
#
# Elastic Compliance Matrix: (Units=1/GPa)
#
#
# Indices 1 2 3 4 5 6 
#
# 1 0.013277 -0.004431 -0.004077 0.000000 0.000000 0.000000
# 2 -0.004431 0.017740 0.003077 0.000000 0.000000 0.000000
# 3 -0.004077 0.003077 0.020353 0.000000 0.000000 0.000000
# 4 0.000000 0.000000 0.000000 0.031468 0.000000 0.000000
# 5 0.000000 0.000000 0.000000 0.000000 0.038552 0.000000
# 6 0.000000 0.000000 0.000000 0.000000 0.000000 0.029877
#
#
# Mechanical properties :
#
#
# Convention : Reuss Voigt Hill
#
# Bulk Modulus (GPa) = 24.68688 28.51214 26.59951
# Shear Modulus (GPa) = 28.46859 29.78536 29.12698
#
# Velocity S-wave (km/s) = 3.45157 3.53049 3.49126
# Velocity P-wave (km/s) = 5.12009 5.34329 5.23288
#
# Compressibility (1/GPa) = 0.04050735
#
# Stress axis : x y z
#
# Youngs Moduli (GPa) = 75.31631 56.37126 49.13281
#
# Poissons Ratio (x) = 0.24979 0.20033
# Poissons Ratio (y) = 0.33374 -0.15120
# Poissons Ratio (z) = 0.30709 -0.17347
#
# Static dielectric constant tensor:
#      x y z
#    x 1.995450 0.000000 0.000000 
#    y 0.000000 2.047950 0.000000 
#    z 0.000000 0.000000 1.958690 
# 
# From -- ./inp_files/6242.got.cif
#   From: 2010.05.17/outbox.cif.g08.bks.cpg/sg19_4_cif.got.tgz:6242.got - 2010.06.03 22:46:19.
