data_PCOD9314358
_publ_section_title
;
Structure prediction by ZEFSAII (Michael W. Deem and Ramdas Pophale) SiO2 
 PCOD9314358
Probable space group: P 21 21 21
;
_chemical_formula_sum "Si O2"
_cell_formula_units_Z 24
_cell_length_a 7.622206
_cell_length_b 8.702189
_cell_length_c 14.256094
_cell_angle_alpha 90.000000
_cell_angle_beta 90.000000
_cell_angle_gamma 90.000000
_cell_volume 945.604964
_symmetry_space_group_name_H-M "P 21 21 21"
_symmetry_group_IT_number 19
_symmetry_cell_setting 'orthorhombic'
loop_
_space_group_symop_operation_xyz
x,y,z
1/2-x,-y,1/2+z
1/2+x,1/2-y,-z
-x,1/2+y,1/2-z
loop_
_atom_site_type_symbol
_atom_site_label
_atom_site_fract_x
_atom_site_fract_y
_atom_site_fract_z
Si Si1 0.792476 0.268286 0.533863
Si Si2 0.061863 0.646178 0.138281
Si Si3 0.073531 0.110431 0.974877
Si Si4 0.771693 0.747353 0.704473
Si Si5 0.926496 0.087840 0.700566
Si Si6 0.290580 0.683457 0.630215
O O1 0.611138 0.297559 0.586816
O O2 0.781396 0.206485 0.428569
O O3 0.889779 0.430676 0.530053
O O4 0.895232 0.142118 0.595237
O O5 0.092335 0.717179 0.240819
O O6 0.081292 0.463337 0.136426
O O7 0.206353 0.193495 0.901768
O O8 0.879365 0.144136 0.935760
O O9 0.114990 0.176624 0.077702
O O10 0.879211 0.619251 0.762447
O O11 0.870838 0.911810 0.712429
O O12 0.801892 0.191258 0.768258
#
# Coordination Sequence:
#
# PCOD9314358 Si02
#       6
#     4   4   4   4   4   4
#     4  12  24  39  62  88 120 160 204 252 305 359
#     4  11  24  41  61  87 120 160 205 253 301 361
#     4  11  23  39  64  92 122 161 200 249 305 362
#     4  10  22  40  63  89 123 159 199 249 305 363
#     4  10  21  40  62  89 123 159 198 248 304 361
#     4  10  22  41  62  89 122 157 200 247 300 360
#
# _framework density 25.380578
#
# number of rings (size 3 to 8) (size 9 to 14) (size 15 to 20)
#    0.000    1.333    0.000    7.000    0.000    9.333 
#    0.000    0.000    0.000    0.000    0.000    0.000 
#    0.000    0.000    0.000    0.000    0.000    0.000 
#
# Total GULP energy -134462.396605 kJ/mol
# GULP energy per Si atom -5602.599859 kJ/mol
# Density = 2.532281 g / cm^3
# Si number density = 25.380578 Si / 1000 Ang^3
#
#
#
# Elastic Constant Matrix: (Units=GPa)
#
#
# Indices 1 2 3 4 5 6 
#
# 1 56.2615 6.8870 -6.0571 0.0000 0.0000 0.0000
# 2 6.8870 85.3629 18.5739 0.0000 0.0000 0.0000
# 3 -6.0571 18.5739 122.3874 0.0000 0.0000 0.0000
# 4 0.0000 0.0000 0.0000 37.3809 0.0000 0.0000
# 5 0.0000 0.0000 0.0000 0.0000 44.0793 0.0000
# 6 0.0000 0.0000 0.0000 0.0000 0.0000 30.9919
#
#
#
# Elastic Compliance Matrix: (Units=1/GPa)
#
#
# Indices 1 2 3 4 5 6 
#
# 1 0.018108 -0.001712 0.001156 0.000000 0.000000 0.000000
# 2 -0.001712 0.012277 -0.001948 0.000000 0.000000 0.000000
# 3 0.001156 -0.001948 0.008524 0.000000 0.000000 0.000000
# 4 0.000000 0.000000 0.000000 0.026752 0.000000 0.000000
# 5 0.000000 0.000000 0.000000 0.000000 0.022686 0.000000
# 6 0.000000 0.000000 0.000000 0.000000 0.000000 0.032267
#
#
# Mechanical properties :
#
#
# Convention : Reuss Voigt Hill
#
# Bulk Modulus (GPa) = 29.49859 33.64659 31.57259
# Shear Modulus (GPa) = 36.51722 38.79761 37.65741
#
# Velocity S-wave (km/s) = 3.79725 3.91402 3.85607
# Velocity P-wave (km/s) = 5.55637 5.80617 5.68264
#
# Compressibility (1/GPa) = 0.03389992
#
# Stress axis : x y z
#
# Youngs Moduli (GPa) = 55.22346 81.45517 117.32116
#
# Poissons Ratio (x) = 0.13949 -0.13563
# Poissons Ratio (y) = 0.09457 0.22853
# Poissons Ratio (z) = -0.06384 0.15867
#
# Static dielectric constant tensor:
#      x y z
#    x 2.089010 0.000000 0.000000 
#    y 0.000000 1.906340 0.000000 
#    z 0.000000 0.000000 1.956020 
# 
# From -- ./inp_files/2743.got.cif
#   From: 2010.05.17/outbox.cif.g08.bks.cpg/sg19_2_cif.got.tgz:2743.got - 2010.06.03 22:46:19.
