data_PCOD9314495
_publ_section_title
;
Structure prediction by ZEFSAII (Michael W. Deem and Ramdas Pophale) SiO2 
 PCOD9314495
Probable space group: P 21 21 21
;
_chemical_formula_sum "Si O2"
_cell_formula_units_Z 20
_cell_length_a 14.575387
_cell_length_b 9.592496
_cell_length_c 5.111711
_cell_angle_alpha 90.000000
_cell_angle_beta 90.000000
_cell_angle_gamma 90.000000
_cell_volume 714.690507
_symmetry_space_group_name_H-M "P 21 21 21"
_symmetry_group_IT_number 19
_symmetry_cell_setting 'orthorhombic'
loop_
_space_group_symop_operation_xyz
x,y,z
1/2-x,-y,1/2+z
1/2+x,1/2-y,-z
-x,1/2+y,1/2-z
loop_
_atom_site_type_symbol
_atom_site_label
_atom_site_fract_x
_atom_site_fract_y
_atom_site_fract_z
Si Si1 0.046789 0.723923 0.038148
Si Si2 0.453614 0.986106 0.251702
Si Si3 0.690906 0.973744 0.804576
Si Si4 0.871537 0.739070 0.385587
Si Si5 0.283766 0.074924 0.975880
O O1 0.042514 0.606853 0.809240
O O2 0.038072 0.881713 0.941643
O O3 0.135804 0.672380 0.197573
O O4 0.950492 0.696217 0.185115
O O5 0.393660 0.860371 0.372998
O O6 0.391716 0.057598 0.025969
O O7 0.729739 0.023247 0.524363
O O8 0.622261 0.096514 0.897401
O O9 0.762356 0.707643 0.379063
O O10 0.236831 0.958449 0.172634
#
# Coordination Sequence:
#
# PCOD9314495 Si02
#       5
#     4   4   4   4   4
#     4  12  26  48  77 114 156 216 267 338 401 483
#     4  11  25  44  75 109 153 202 270 329 400 479
#     4  12  31  53  79 119 167 212 266 337 415 483
#     4  11  25  47  78 108 156 199 273 322 404 482
#     4  10  21  42  69 104 140 189 242 316 382 461
#
# _framework density 27.984143
#
# number of rings (size 3 to 8) (size 9 to 14) (size 15 to 20)
#    0.000    0.800    2.000    3.600    8.400    6.400 
#    3.600    0.000    0.000    0.000    0.000    0.000 
#    0.000    0.000    0.000    0.000    0.000    0.000 
#
# Total GULP energy -111649.558034 kJ/mol
# GULP energy per Si atom -5582.477902 kJ/mol
# Density = 2.792045 g / cm^3
# Si number density = 27.984143 Si / 1000 Ang^3
#
#
#
# Elastic Constant Matrix: (Units=GPa)
#
#
# Indices 1 2 3 4 5 6 
#
# 1 64.9783 19.9704 20.4609 0.0000 0.0000 0.0000
# 2 19.9704 101.4524 -1.0791 0.0000 0.0000 0.0000
# 3 20.4609 -1.0791 83.0831 0.0000 0.0000 0.0000
# 4 0.0000 0.0000 0.0000 35.5020 0.0000 0.0000
# 5 0.0000 0.0000 0.0000 0.0000 43.0113 0.0000
# 6 0.0000 0.0000 0.0000 0.0000 0.0000 47.0255
#
#
#
# Elastic Compliance Matrix: (Units=1/GPa)
#
#
# Indices 1 2 3 4 5 6 
#
# 1 0.017888 -0.003569 -0.004452 0.000000 0.000000 0.000000
# 2 -0.003569 0.010570 0.001016 0.000000 0.000000 0.000000
# 3 -0.004452 0.001016 0.013146 0.000000 0.000000 0.000000
# 4 0.000000 0.000000 0.000000 0.028167 0.000000 0.000000
# 5 0.000000 0.000000 0.000000 0.000000 0.023250 0.000000
# 6 0.000000 0.000000 0.000000 0.000000 0.000000 0.021265
#
#
# Mechanical properties :
#
#
# Convention : Reuss Voigt Hill
#
# Bulk Modulus (GPa) = 36.23747 36.46869 36.35308
# Shear Modulus (GPa) = 36.36544 39.11854 37.74199
#
# Velocity S-wave (km/s) = 3.60877 3.74288 3.67644
# Velocity P-wave (km/s) = 5.50833 5.63375 5.57139
#
# Compressibility (1/GPa) = 0.02759575
#
# Stress axis : x y z
#
# Youngs Moduli (GPa) = 55.90239 94.60648 76.07072
#
# Poissons Ratio (x) = 0.33761 0.33864
# Poissons Ratio (y) = 0.19949 -0.07730
# Poissons Ratio (z) = 0.24886 -0.09613
#
# Static dielectric constant tensor:
#      x y z
#    x 2.549560 0.000000 0.000000 
#    y 0.000000 2.179680 0.000000 
#    z 0.000000 0.000000 2.306870 
# 
# From -- ./inp_files/379.got.cif
#   From: 2010.05.17/outbox.cif.g08.bks.cpg/sg19_1_cif.got.tgz:379.got - 2010.06.03 22:46:19.
