data_PCOD9314675
_publ_section_title
;
Structure prediction by ZEFSAII (Michael W. Deem and Ramdas Pophale) SiO2 
 PCOD9314675
Probable space group: P 21 21 21
;
_chemical_formula_sum "Si O2"
_cell_formula_units_Z 32
_cell_length_a 9.296556
_cell_length_b 27.432826
_cell_length_c 5.315847
_cell_angle_alpha 90.000000
_cell_angle_beta 90.000000
_cell_angle_gamma 90.000000
_cell_volume 1355.704730
_symmetry_space_group_name_H-M "P 21 21 21"
_symmetry_group_IT_number 19
_symmetry_cell_setting 'orthorhombic'
loop_
_space_group_symop_operation_xyz
x,y,z
1/2-x,-y,1/2+z
1/2+x,1/2-y,-z
-x,1/2+y,1/2-z
loop_
_atom_site_type_symbol
_atom_site_label
_atom_site_fract_x
_atom_site_fract_y
_atom_site_fract_z
Si Si1 0.328929 0.194913 0.387472
Si Si2 0.103897 0.646370 0.236555
Si Si3 0.905183 0.960701 0.978225
Si Si4 0.126467 0.121951 0.624874
Si Si5 0.721558 0.527572 0.807566
Si Si6 0.746351 0.934654 0.473007
Si Si7 0.850099 0.784922 0.880584
Si Si8 0.878110 0.708080 0.496344
O O1 0.262554 0.143864 0.473923
O O2 0.491241 0.201767 0.469276
O O3 0.234318 0.240904 0.484610
O O4 0.284099 0.197103 0.094729
O O5 0.154811 0.613359 0.467409
O O6 0.245592 0.669486 0.118974
O O7 0.999590 0.692463 0.297198
O O8 0.006273 0.612670 0.059507
O O9 0.818250 0.933959 0.200684
O O10 0.070047 0.958948 0.063608
O O11 0.852829 0.017098 0.983791
O O12 0.861423 0.940531 0.703107
O O13 0.180921 0.074181 0.760917
O O14 0.086225 0.168159 0.793080
O O15 0.700392 0.499544 0.543350
O O16 0.879546 0.762143 0.603030
#
# Coordination Sequence:
#
# PCOD9314675 Si02
#       8
#     4   4   4   4   4   4   4   4
#     4  10  22  40  64  92 137 170 225 287 341 425
#     4  11  24  40  69  97 133 186 233 285 361 422
#     4  10  23  44  65 101 140 177 237 285 357 413
#     4  10  25  42  65  97 134 175 233 288 339 430
#     4  12  27  44  74 101 141 189 233 291 361 425
#     4  10  23  42  69  98 140 181 226 297 340 427
#     4  11  22  41  65  96 132 179 224 285 360 411
#     4  10  22  41  63  94 133 175 231 282 347 421
#
# _framework density 23.603957000000001
#
# number of rings (size 3 to 8) (size 9 to 14) (size 15 to 20)
#    0.000    1.500    0.000    4.500    8.750    3.000 
#    0.000    0.000    0.000    0.000    0.000    0.000 
#    0.000    0.000    0.000    0.000    0.000    0.000 
#
# Total GULP energy -178794.693411 kJ/mol
# GULP energy per Si atom -5587.334169 kJ/mol
# Density = 2.355023 g / cm^3
# Si number density = 23.603957 Si / 1000 Ang^3
#
#
#
# Elastic Constant Matrix: (Units=GPa)
#
#
# Indices 1 2 3 4 5 6 
#
# 1 120.9399 14.7593 -2.0710 0.0000 0.0000 0.0000
# 2 14.7593 64.1907 -0.0143 0.0000 0.0000 0.0000
# 3 -2.0710 -0.0143 50.1899 0.0000 0.0000 0.0000
# 4 0.0000 0.0000 0.0000 27.7501 0.0000 0.0000
# 5 0.0000 0.0000 0.0000 0.0000 21.2826 0.0000
# 6 0.0000 0.0000 0.0000 0.0000 0.0000 23.3911
#
#
#
# Elastic Compliance Matrix: (Units=1/GPa)
#
#
# Indices 1 2 3 4 5 6 
#
# 1 0.008513 -0.001957 0.000351 0.000000 0.000000 0.000000
# 2 -0.001957 0.016029 -0.000076 0.000000 0.000000 0.000000
# 3 0.000351 -0.000076 0.019939 0.000000 0.000000 0.000000
# 4 0.000000 0.000000 0.000000 0.036036 0.000000 0.000000
# 5 0.000000 0.000000 0.000000 0.000000 0.046987 0.000000
# 6 0.000000 0.000000 0.000000 0.000000 0.000000 0.042751
#
#
# Mechanical properties :
#
#
# Convention : Reuss Voigt Hill
#
# Bulk Modulus (GPa) = 24.32196 28.96317 26.64257
# Shear Modulus (GPa) = 26.69148 29.32785 28.00967
#
# Velocity S-wave (km/s) = 3.36639 3.52873 3.44852
# Velocity P-wave (km/s) = 5.04348 5.37584 5.21231
#
# Compressibility (1/GPa) = 0.04111511
#
# Stress axis : x y z
#
# Youngs Moduli (GPa) = 117.46113 62.38835 50.15349
#
# Poissons Ratio (x) = 0.12212 -0.01759
# Poissons Ratio (y) = 0.22992 0.00382
# Poissons Ratio (z) = -0.04120 0.00475
#
# Static dielectric constant tensor:
#      x y z
#    x 1.914370 0.000000 0.000000 
#    y 0.000000 1.879740 0.000000 
#    z 0.000000 0.000000 2.039270 
# 
# From -- ./inp_files/678.got.cif
#   From: 2010.05.17/outbox.cif.g08.bks.cpg/sg19_1_cif.got.tgz:678.got - 2010.06.03 22:46:19.
