data_PCOD9314884
_publ_section_title
;
Structure prediction by ZEFSAII (Michael W. Deem and Ramdas Pophale) SiO2 
 PCOD9314884
Probable space group: P 21 21 21
;
_chemical_formula_sum "Si O2"
_cell_formula_units_Z 32
_cell_length_a 17.575726
_cell_length_b 13.920439
_cell_length_c 5.162958
_cell_angle_alpha 90.000000
_cell_angle_beta 90.000000
_cell_angle_gamma 90.000000
_cell_volume 1263.178709
_symmetry_space_group_name_H-M "P 21 21 21"
_symmetry_group_IT_number 19
_symmetry_cell_setting 'orthorhombic'
loop_
_space_group_symop_operation_xyz
x,y,z
1/2-x,-y,1/2+z
1/2+x,1/2-y,-z
-x,1/2+y,1/2-z
loop_
_atom_site_type_symbol
_atom_site_label
_atom_site_fract_x
_atom_site_fract_y
_atom_site_fract_z
Si Si1 0.507962 0.040689 0.184718
Si Si2 0.516814 0.716177 0.668804
Si Si3 0.233372 0.643145 0.253506
Si Si4 0.685474 0.656641 0.725139
Si Si5 0.837123 0.994778 0.527088
Si Si6 0.282108 0.863921 0.744175
Si Si7 0.546745 0.430241 0.826082
Si Si8 0.862593 0.828602 0.131180
O O1 0.596821 0.018134 0.234376
O O2 0.462696 0.998585 0.425701
O O3 0.498418 0.150152 0.085859
O O4 0.487532 0.976961 0.932025
O O5 0.595584 0.668123 0.765896
O O6 0.499971 0.829935 0.618438
O O7 0.450439 0.697303 0.878543
O O8 0.198189 0.734276 0.379118
O O9 0.254526 0.550184 0.414970
O O10 0.175965 0.605118 0.036350
O O11 0.313776 0.670698 0.127796
O O12 0.725939 0.601666 0.486901
O O13 0.733561 0.637847 0.987648
O O14 0.861694 0.926503 0.291479
O O15 0.362417 0.920378 0.731502
O O16 0.318235 0.755907 0.713294
#
# Coordination Sequence:
#
# PCOD9314884 Si02
#       8
#     4   4   4   4   4   4   4   4
#     4  11  27  44  72 108 143 190 251 296 366 449
#     4  10  25  46  72 104 149 191 240 309 366 431
#     4  11  21  34  63  91 142 177 229 279 368 431
#     4  11  23  42  67 101 134 187 242 292 351 428
#     4  11  21  35  59  98 137 182 212 295 354 449
#     4  10  22  43  69  94 132 184 238 287 350 421
#     4  11  25  49  73 106 148 193 241 308 373 436
#     4   9  20  39  57  94 131 182 223 274 352 431
#
# _framework density 25.332913000000001
#
# number of rings (size 3 to 8) (size 9 to 14) (size 15 to 20)
#    0.000    1.500    2.500    1.500    3.500    6.000 
#    2.250    2.500    0.000    0.000    0.000    0.000 
#    0.000    0.000    0.000    0.000    0.000    0.000 
#
# Total GULP energy -178579.131455 kJ/mol
# GULP energy per Si atom -5580.597858 kJ/mol
# Density = 2.527525 g / cm^3
# Si number density = 25.332913 Si / 1000 Ang^3
#
#
#
# Elastic Constant Matrix: (Units=GPa)
#
#
# Indices 1 2 3 4 5 6 
#
# 1 148.4829 28.1063 41.0999 0.0000 0.0000 0.0000
# 2 28.1063 86.8372 32.5542 0.0000 0.0000 0.0000
# 3 41.0999 32.5542 120.1622 0.0000 0.0000 0.0000
# 4 0.0000 0.0000 0.0000 20.5029 0.0000 0.0000
# 5 0.0000 0.0000 0.0000 0.0000 30.4696 0.0000
# 6 0.0000 0.0000 0.0000 0.0000 0.0000 29.7093
#
#
#
# Elastic Compliance Matrix: (Units=1/GPa)
#
#
# Indices 1 2 3 4 5 6 
#
# 1 0.007649 -0.001664 -0.002165 0.000000 0.000000 0.000000
# 2 -0.001664 0.013180 -0.003001 0.000000 0.000000 0.000000
# 3 -0.002165 -0.003001 0.009876 0.000000 0.000000 0.000000
# 4 0.000000 0.000000 0.000000 0.048774 0.000000 0.000000
# 5 0.000000 0.000000 0.000000 0.000000 0.032820 0.000000
# 6 0.000000 0.000000 0.000000 0.000000 0.000000 0.033659
#
#
# Mechanical properties :
#
#
# Convention : Reuss Voigt Hill
#
# Bulk Modulus (GPa) = 58.67572 62.11146 60.39359
# Shear Modulus (GPa) = 30.24803 33.05117 31.64960
#
# Velocity S-wave (km/s) = 3.45921 3.61594 3.53844
# Velocity P-wave (km/s) = 6.25835 6.48110 6.37070
#
# Compressibility (1/GPa) = 0.01704283
#
# Stress axis : x y z
#
# Youngs Moduli (GPa) = 130.73333 75.87495 101.25645
#
# Poissons Ratio (x) = 0.12625 0.21927
# Poissons Ratio (y) = 0.21753 0.30392
# Poissons Ratio (z) = 0.28310 0.22774
#
# Static dielectric constant tensor:
#      x y z
#    x 2.074490 0.000000 0.000000 
#    y 0.000000 2.121370 0.000000 
#    z 0.000000 0.000000 2.043480 
# 
# From -- ./inp_files/1823.got.cif
#   From: 2010.05.17/outbox.cif.g08.bks.cpg/sg19_1_cif.got.tgz:1823.got - 2010.06.03 22:46:19.
