data_PCOD9314534
_publ_section_title
;
Structure prediction by ZEFSAII (Michael W. Deem and Ramdas Pophale) SiO2 
 PCOD9314534
Probable space group: P 21 21 21
;
_chemical_formula_sum "Si O2"
_cell_formula_units_Z 16
_cell_length_a 8.332869
_cell_length_b 12.996489
_cell_length_c 5.401384
_cell_angle_alpha 90.000000
_cell_angle_beta 90.000000
_cell_angle_gamma 90.000000
_cell_volume 584.959302
_symmetry_space_group_name_H-M "P 21 21 21"
_symmetry_group_IT_number 19
_symmetry_cell_setting 'orthorhombic'
loop_
_space_group_symop_operation_xyz
x,y,z
1/2-x,-y,1/2+z
1/2+x,1/2-y,-z
-x,1/2+y,1/2-z
loop_
_atom_site_type_symbol
_atom_site_label
_atom_site_fract_x
_atom_site_fract_y
_atom_site_fract_z
Si Si1 0.072439 0.310824 0.032542
Si Si2 0.264739 0.171547 0.682503
Si Si3 0.310356 0.464860 0.985474
Si Si4 0.373094 0.046592 0.307823
O O1 0.123349 0.231602 0.818726
O O2 0.244523 0.359033 0.108908
O O3 0.982846 0.409036 0.910668
O O4 0.938423 0.282921 0.235153
O O5 0.275730 0.149011 0.390349
O O6 0.233915 0.051229 0.749028
O O7 0.272939 0.459857 0.691775
O O8 0.492544 0.500033 0.008520
#
# Coordination Sequence:
#
# PCOD9314534 Si02
#       4
#     4   4   4   4
#     4  11  25  44  73 103 137 192 243 301 368 451
#     4  12  24  47  70 103 143 188 247 303 376 437
#     4  10  21  43  72 103 143 188 240 300 370 434
#     4  11  24  46  69 103 147 188 240 308 370 436
#
# _framework density 27.352332000000001
#
# number of rings (size 3 to 8) (size 9 to 14) (size 15 to 20)
#    0.000    1.000    5.000    1.500    0.000    2.000 
#   22.500    0.000    0.000    0.000    0.000    0.000 
#    0.000    0.000    0.000    0.000    0.000    0.000 
#
# Total GULP energy -89071.413552 kJ/mol
# GULP energy per Si atom -5566.963347 kJ/mol
# Density = 2.729008 g / cm^3
# Si number density = 27.352332 Si / 1000 Ang^3
#
#
#
# Elastic Constant Matrix: (Units=GPa)
#
#
# Indices 1 2 3 4 5 6 
#
# 1 79.9708 30.5805 23.4869 0.0000 0.0000 0.0000
# 2 30.5805 94.5880 9.7239 0.0000 0.0000 0.0000
# 3 23.4869 9.7239 51.5348 0.0000 0.0000 0.0000
# 4 0.0000 0.0000 0.0000 42.4212 0.0000 0.0000
# 5 0.0000 0.0000 0.0000 0.0000 40.5971 0.0000
# 6 0.0000 0.0000 0.0000 0.0000 0.0000 55.8809
#
#
#
# Elastic Compliance Matrix: (Units=1/GPa)
#
#
# Indices 1 2 3 4 5 6 
#
# 1 0.016156 -0.004555 -0.006504 0.000000 0.000000 0.000000
# 2 -0.004555 0.012065 -0.000201 0.000000 0.000000 0.000000
# 3 -0.006504 -0.000201 0.022406 0.000000 0.000000 0.000000
# 4 0.000000 0.000000 0.000000 0.023573 0.000000 0.000000
# 5 0.000000 0.000000 0.000000 0.000000 0.024632 0.000000
# 6 0.000000 0.000000 0.000000 0.000000 0.000000 0.017895
#
#
# Mechanical properties :
#
#
# Convention : Reuss Voigt Hill
#
# Bulk Modulus (GPa) = 35.57523 39.29735 37.43629
# Shear Modulus (GPa) = 33.64345 38.60000 36.12172
#
# Velocity S-wave (km/s) = 3.51094 3.76069 3.63796
# Velocity P-wave (km/s) = 5.42864 5.76674 5.60025
#
# Compressibility (1/GPa) = 0.02810944
#
# Stress axis : x y z
#
# Youngs Moduli (GPa) = 61.89481 82.88180 44.63015
#
# Poissons Ratio (x) = 0.37751 0.29027
# Poissons Ratio (y) = 0.28192 0.00896
# Poissons Ratio (z) = 0.40255 0.01664
#
# Static dielectric constant tensor:
#      x y z
#    x 2.215290 0.000000 0.000000 
#    y 0.000000 2.236080 0.000000 
#    z 0.000000 0.000000 2.668730 
# 
# From -- ./inp_files/261.got.cif
#   From: 2010.05.17/outbox.cif.g08.bks.cpg/sg19_1_cif.got.tgz:261.got - 2010.06.03 22:46:19.
