data_PCOD9314597
_publ_section_title
;
Structure prediction by ZEFSAII (Michael W. Deem and Ramdas Pophale) SiO2 
 PCOD9314597
Probable space group: P 21 21 21
;
_chemical_formula_sum "Si O2"
_cell_formula_units_Z 32
_cell_length_a 13.889188
_cell_length_b 11.995429
_cell_length_c 7.591518
_cell_angle_alpha 90.000000
_cell_angle_beta 90.000000
_cell_angle_gamma 90.000000
_cell_volume 1264.798282
_symmetry_space_group_name_H-M "P 21 21 21"
_symmetry_group_IT_number 19
_symmetry_cell_setting 'orthorhombic'
loop_
_space_group_symop_operation_xyz
x,y,z
1/2-x,-y,1/2+z
1/2+x,1/2-y,-z
-x,1/2+y,1/2-z
loop_
_atom_site_type_symbol
_atom_site_label
_atom_site_fract_x
_atom_site_fract_y
_atom_site_fract_z
Si Si1 0.003039 0.645607 0.288915
Si Si2 0.289797 0.142225 0.459057
Si Si3 0.190864 0.091819 0.086616
Si Si4 0.596918 0.836525 0.219064
Si Si5 0.585077 0.294105 0.446823
Si Si6 0.123066 0.431555 0.353309
Si Si7 0.184667 0.457218 0.948019
Si Si8 0.187559 0.739675 0.410398
O O1 0.050897 0.534216 0.364149
O O2 0.089795 0.734423 0.298817
O O3 0.904824 0.666450 0.393779
O O4 0.967478 0.625933 0.090190
O O5 0.246611 0.103700 0.270898
O O6 0.353476 0.250632 0.419337
O O7 0.195240 0.172101 0.572010
O O8 0.337678 0.033993 0.542825
O O9 0.264849 0.142252 0.946042
O O10 0.650243 0.807638 0.400205
O O11 0.484784 0.802739 0.218882
O O12 0.612402 0.965200 0.163467
O O13 0.584186 0.177989 0.553290
O O14 0.148561 0.426005 0.143827
O O15 0.221532 0.463072 0.452967
O O16 0.229069 0.347607 0.855881
#
# Coordination Sequence:
#
# PCOD9314597 Si02
#       8
#     4   4   4   4   4   4   4   4
#     4  10  22  37  62  90 119 167 208 249 314 373
#     4  10  22  41  62  87 122 166 200 256 316 367
#     4  10  22  43  61  87 126 162 204 256 311 375
#     4  11  21  40  64  90 125 162 205 258 312 378
#     4  11  22  39  63  92 122 161 213 253 318 376
#     4  11  21  38  62  93 125 162 212 264 308 379
#     4  11  19  39  63  89 122 161 207 257 314 359
#     4  10  23  41  61  90 129 163 207 265 311 365
#
# _framework density 25.300477000000001
#
# number of rings (size 3 to 8) (size 9 to 14) (size 15 to 20)
#    0.000    1.500    3.750    2.250    0.000    4.000 
#    2.250    5.000    0.000    0.000    0.000    0.000 
#    0.000    0.000    0.000    0.000    0.000    0.000 
#
# Total GULP energy -179041.625389 kJ/mol
# GULP energy per Si atom -5595.050793 kJ/mol
# Density = 2.524289 g / cm^3
# Si number density = 25.300477 Si / 1000 Ang^3
#
#
#
# Elastic Constant Matrix: (Units=GPa)
#
#
# Indices 1 2 3 4 5 6 
#
# 1 48.8631 -6.7812 3.4424 0.0000 0.0000 0.0000
# 2 -6.7812 79.9640 16.4052 0.0000 0.0000 0.0000
# 3 3.4424 16.4052 101.7893 0.0000 0.0000 0.0000
# 4 0.0000 0.0000 0.0000 26.4446 0.0000 0.0000
# 5 0.0000 0.0000 0.0000 0.0000 23.5101 0.0000
# 6 0.0000 0.0000 0.0000 0.0000 0.0000 32.8556
#
#
#
# Elastic Compliance Matrix: (Units=1/GPa)
#
#
# Indices 1 2 3 4 5 6 
#
# 1 0.020811 0.001975 -0.001022 0.000000 0.000000 0.000000
# 2 0.001975 0.013121 -0.002181 0.000000 0.000000 0.000000
# 3 -0.001022 -0.002181 0.010210 0.000000 0.000000 0.000000
# 4 0.000000 0.000000 0.000000 0.037815 0.000000 0.000000
# 5 0.000000 0.000000 0.000000 0.000000 0.042535 0.000000
# 6 0.000000 0.000000 0.000000 0.000000 0.000000 0.030436
#
#
# Mechanical properties :
#
#
# Convention : Reuss Voigt Hill
#
# Bulk Modulus (GPa) = 23.98974 28.52769 26.25871
# Shear Modulus (GPa) = 29.19180 31.06539 30.12860
#
# Velocity S-wave (km/s) = 3.40045 3.50788 3.45459
# Velocity P-wave (km/s) = 4.99199 5.26375 5.12967
#
# Compressibility (1/GPa) = 0.04168449
#
# Stress axis : x y z
#
# Youngs Moduli (GPa) = 48.05070 76.21596 97.93977
#
# Poissons Ratio (x) = -0.15049 0.10010
# Poissons Ratio (y) = -0.09488 0.21365
# Poissons Ratio (z) = 0.04911 0.16626
#
# Static dielectric constant tensor:
#      x y z
#    x 1.985370 0.000000 0.000000 
#    y 0.000000 1.959150 0.000000 
#    z 0.000000 0.000000 2.070870 
# 
# From -- ./inp_files/3973.got.cif
#   From: 2010.05.17/outbox.cif.g08.bks.cpg/sg19_2_cif.got.tgz:3973.got - 2010.06.03 22:46:19.
