data_PCOD9314220
_publ_section_title
;
Structure prediction by ZEFSAII (Michael W. Deem and Ramdas Pophale) SiO2 
 PCOD9314220
Probable space group: P 21 21 21
;
_chemical_formula_sum "Si O2"
_cell_formula_units_Z 32
_cell_length_a 7.433003
_cell_length_b 15.223786
_cell_length_c 12.855657
_cell_angle_alpha 90.000000
_cell_angle_beta 90.000000
_cell_angle_gamma 90.000000
_cell_volume 1454.726181
_symmetry_space_group_name_H-M "P 21 21 21"
_symmetry_group_IT_number 19
_symmetry_cell_setting 'orthorhombic'
loop_
_space_group_symop_operation_xyz
x,y,z
1/2-x,-y,1/2+z
1/2+x,1/2-y,-z
-x,1/2+y,1/2-z
loop_
_atom_site_type_symbol
_atom_site_label
_atom_site_fract_x
_atom_site_fract_y
_atom_site_fract_z
Si Si1 0.771400 0.054043 0.744959
Si Si2 0.911528 0.837339 0.901110
Si Si3 0.400835 0.474611 0.041237
Si Si4 0.525080 0.897904 0.675056
Si Si5 0.490379 0.816051 0.949382
Si Si6 0.387777 0.733930 0.737883
Si Si7 0.364256 0.130340 0.195367
Si Si8 0.023084 0.511758 0.955191
O O1 0.913342 0.053195 0.839251
O O2 0.625748 0.130479 0.761094
O O3 0.880267 0.065583 0.638349
O O4 0.667890 0.961961 0.727788
O O5 0.695200 0.828658 0.909335
O O6 0.994096 0.856872 0.787724
O O7 0.960130 0.924201 0.967463
O O8 0.987068 0.750089 0.953945
O O9 0.481272 0.419812 0.947136
O O10 0.185069 0.474966 0.024415
O O11 0.548788 0.792923 0.690091
O O12 0.327618 0.915285 0.724116
O O13 0.383186 0.768188 0.856915
O O14 0.419741 0.912729 0.981498
O O15 0.214329 0.771952 0.675473
O O16 0.433563 0.071370 0.100837
#
# Coordination Sequence:
#
# PCOD9314220 Si02
#       8
#     4   4   4   4   4   4   4   4
#     4  11  20  44  67  90 128 181 213 271 342 387
#     4  11  21  38  64  98 131 165 215 275 332 399
#     4  10  21  39  66  85 127 181 218 253 342 396
#     4   9  22  39  63  93 128 168 212 278 318 393
#     4  11  22  37  66 100 125 169 211 279 333 393
#     4  10  23  41  63  95 131 160 222 279 321 390
#     4  10  22  39  58  92 136 161 210 275 319 394
#     4  10  21  37  63  93 124 175 209 264 335 396
#
# _framework density 21.997267000000001
#
# number of rings (size 3 to 8) (size 9 to 14) (size 15 to 20)
#    0.750    1.000    1.250    5.250    1.750    3.000 
#    2.250    0.000    0.000    0.000    0.000    0.000 
#    0.000    0.000    0.000    0.000    0.000    0.000 
#
# Total GULP energy -178230.653218 kJ/mol
# GULP energy per Si atom -5569.707913 kJ/mol
# Density = 2.194720 g / cm^3
# Si number density = 21.997267 Si / 1000 Ang^3
#
#
#
# Elastic Constant Matrix: (Units=GPa)
#
#
# Indices 1 2 3 4 5 6 
#
# 1 52.2825 4.9070 -1.5136 0.0000 0.0000 0.0000
# 2 4.9070 51.8462 -1.4122 0.0000 0.0000 0.0000
# 3 -1.5136 -1.4122 47.2001 0.0000 0.0000 0.0000
# 4 0.0000 0.0000 0.0000 32.1235 0.0000 0.0000
# 5 0.0000 0.0000 0.0000 0.0000 30.5836 0.0000
# 6 0.0000 0.0000 0.0000 0.0000 0.0000 34.8522
#
#
#
# Elastic Compliance Matrix: (Units=1/GPa)
#
#
# Indices 1 2 3 4 5 6 
#
# 1 0.019313 -0.001813 0.000565 0.000000 0.000000 0.000000
# 2 -0.001813 0.019474 0.000525 0.000000 0.000000 0.000000
# 3 0.000565 0.000525 0.021220 0.000000 0.000000 0.000000
# 4 0.000000 0.000000 0.000000 0.031130 0.000000 0.000000
# 5 0.000000 0.000000 0.000000 0.000000 0.032697 0.000000
# 6 0.000000 0.000000 0.000000 0.000000 0.000000 0.028693
#
#
# Mechanical properties :
#
#
# Convention : Reuss Voigt Hill
#
# Bulk Modulus (GPa) = 17.07610 17.25458 17.16534
# Shear Modulus (GPa) = 28.81957 29.46835 29.14396
#
# Velocity S-wave (km/s) = 3.62352 3.66408 3.64385
# Velocity P-wave (km/s) = 5.02854 5.07559 5.05212
#
# Compressibility (1/GPa) = 0.05856137
#
# Stress axis : x y z
#
# Youngs Moduli (GPa) = 51.77768 51.35143 47.12487
#
# Poissons Ratio (x) = 0.09308 -0.02663
# Poissons Ratio (y) = 0.09385 -0.02472
# Poissons Ratio (z) = -0.02926 -0.02693
#
# Static dielectric constant tensor:
#      x y z
#    x 1.846090 0.000000 0.000000 
#    y 0.000000 1.829940 0.000000 
#    z 0.000000 0.000000 1.854310 
# 
# From -- ./inp_files/4697.got.cif
#   From: 2010.05.17/outbox.cif.g08.bks.cpg/sg19_3_cif.got.tgz:4697.got - 2010.06.03 22:46:19.
