data_PCOD9314205
_publ_section_title
;
Structure prediction by ZEFSAII (Michael W. Deem and Ramdas Pophale) SiO2 
 PCOD9314205
Probable space group: P 21 21 21
;
_chemical_formula_sum "Si O2"
_cell_formula_units_Z 32
_cell_length_a 8.963713
_cell_length_b 7.401703
_cell_length_c 24.121293
_cell_angle_alpha 90.000000
_cell_angle_beta 90.000000
_cell_angle_gamma 90.000000
_cell_volume 1600.369189
_symmetry_space_group_name_H-M "P 21 21 21"
_symmetry_group_IT_number 19
_symmetry_cell_setting 'orthorhombic'
loop_
_space_group_symop_operation_xyz
x,y,z
1/2-x,-y,1/2+z
1/2+x,1/2-y,-z
-x,1/2+y,1/2-z
loop_
_atom_site_type_symbol
_atom_site_label
_atom_site_fract_x
_atom_site_fract_y
_atom_site_fract_z
Si Si1 0.288171 0.664623 0.913920
Si Si2 0.257673 0.250965 0.037444
Si Si3 0.973906 0.649799 0.687931
Si Si4 0.611554 0.537646 0.888175
Si Si5 0.400117 0.695073 0.429343
Si Si6 0.521068 0.707614 0.134263
Si Si7 0.200157 0.321659 0.539816
Si Si8 0.653583 0.493335 0.296618
O O1 0.438499 0.584308 0.888728
O O2 0.172134 0.500998 0.923393
O O3 0.198927 0.795300 0.872673
O O4 0.317621 0.736059 0.976025
O O5 0.428117 0.192655 0.049691
O O6 0.251494 0.468335 0.042560
O O7 0.152011 0.148678 0.080710
O O8 0.198292 0.205619 0.976082
O O9 0.900019 0.716688 0.631020
O O10 0.042940 0.457701 0.670159
O O11 0.861988 0.603481 0.737638
O O12 0.094006 0.800807 0.705878
O O13 0.690908 0.692079 0.925727
O O14 0.690542 0.527026 0.828438
O O15 0.454929 0.689370 0.072771
O O16 0.462837 0.887669 0.163565
#
# Coordination Sequence:
#
# PCOD9314205 Si02
#       8
#     4   4   4   4   4   4   4   4
#     4  11  23  39  59  94 135 168 201 259 326 389
#     4  11  21  39  61  94 131 164 210 262 324 384
#     4  12  22  42  68  96 118 168 224 266 329 367
#     4  11  23  41  61  93 132 168 216 264 320 383
#     4  11  22  39  65  97 131 171 208 265 327 394
#     4  11  21  39  64  89 125 161 214 259 315 378
#     4  10  21  37  60  92 123 170 208 253 312 387
#     4  11  23  42  70  91 119 168 221 280 307 390
#
# _framework density 19.995387999999998
#
# number of rings (size 3 to 8) (size 9 to 14) (size 15 to 20)
#    0.000    1.000    5.000    3.000    1.750    1.000 
#    2.250    1.250    0.000    0.000    0.000    0.000 
#    0.000    0.000    0.000    0.000    0.000    0.000 
#
# Total GULP energy -178682.188690 kJ/mol
# GULP energy per Si atom -5583.818397 kJ/mol
# Density = 1.994988 g / cm^3
# Si number density = 19.995388 Si / 1000 Ang^3
#
#
#
# Elastic Constant Matrix: (Units=GPa)
#
#
# Indices 1 2 3 4 5 6 
#
# 1 76.5245 31.3054 38.4960 0.0000 0.0000 0.0000
# 2 31.3054 71.0631 -6.2858 0.0000 0.0000 0.0000
# 3 38.4960 -6.2858 94.1223 0.0000 0.0000 0.0000
# 4 0.0000 0.0000 0.0000 26.1752 0.0000 0.0000
# 5 0.0000 0.0000 0.0000 0.0000 11.9551 0.0000
# 6 0.0000 0.0000 0.0000 0.0000 0.0000 20.8883
#
#
#
# Elastic Compliance Matrix: (Units=1/GPa)
#
#
# Indices 1 2 3 4 5 6 
#
# 1 0.022454 -0.010768 -0.009903 0.000000 0.000000 0.000000
# 2 -0.010768 0.019319 0.005694 0.000000 0.000000 0.000000
# 3 -0.009903 0.005694 0.015055 0.000000 0.000000 0.000000
# 4 0.000000 0.000000 0.000000 0.038204 0.000000 0.000000
# 5 0.000000 0.000000 0.000000 0.000000 0.083646 0.000000
# 6 0.000000 0.000000 0.000000 0.000000 0.000000 0.047874
#
#
# Mechanical properties :
#
#
# Convention : Reuss Voigt Hill
#
# Bulk Modulus (GPa) = 37.20842 40.97122 39.08982
# Shear Modulus (GPa) = 18.83492 23.68333 21.25913
#
# Velocity S-wave (km/s) = 3.07247 3.44530 3.26421
# Velocity P-wave (km/s) = 5.58889 6.03006 5.81366
#
# Compressibility (1/GPa) = 0.02687564
#
# Stress axis : x y z
#
# Youngs Moduli (GPa) = 44.53462 51.76199 66.42285
#
# Poissons Ratio (x) = 0.55736 0.65778
# Poissons Ratio (y) = 0.47954 -0.37823
# Poissons Ratio (z) = 0.44102 -0.29474
#
# Static dielectric constant tensor:
#      x y z
#    x 1.692580 0.000000 0.000000 
#    y 0.000000 1.793900 0.000000 
#    z 0.000000 0.000000 1.739980 
# 
# From -- ./inp_files/7358.got.cif
#   From: 2010.05.17/outbox.cif.g08.bks.cpg/sg19_4_cif.got.tgz:7358.got - 2010.06.03 22:46:19.
