data_PCOD9314707
_publ_section_title
;
Structure prediction by ZEFSAII (Michael W. Deem and Ramdas Pophale) SiO2 
 PCOD9314707
Probable space group: P 21 21 21
;
_chemical_formula_sum "Si O2"
_cell_formula_units_Z 28
_cell_length_a 17.327752
_cell_length_b 11.204460
_cell_length_c 5.626423
_cell_angle_alpha 90.000000
_cell_angle_beta 90.000000
_cell_angle_gamma 90.000000
_cell_volume 1092.359359
_symmetry_space_group_name_H-M "P 21 21 21"
_symmetry_group_IT_number 19
_symmetry_cell_setting 'orthorhombic'
loop_
_space_group_symop_operation_xyz
x,y,z
1/2-x,-y,1/2+z
1/2+x,1/2-y,-z
-x,1/2+y,1/2-z
loop_
_atom_site_type_symbol
_atom_site_label
_atom_site_fract_x
_atom_site_fract_y
_atom_site_fract_z
Si Si1 0.106269 0.658634 0.760515
Si Si2 0.215093 0.282591 0.718646
Si Si3 0.162220 0.547272 0.259959
Si Si4 0.965941 0.796050 0.722657
Si Si5 0.341342 0.889410 0.836967
Si Si6 0.192597 0.879360 0.571541
Si Si7 0.438831 0.671461 0.764907
O O1 0.132429 0.592566 0.517914
O O2 0.143313 0.791979 0.739987
O O3 0.014655 0.676057 0.742430
O O4 0.126460 0.604924 0.018207
O O5 0.248376 0.416012 0.731086
O O6 0.126490 0.279648 0.801759
O O7 0.207440 0.212031 0.475171
O O8 0.278509 0.208827 0.863857
O O9 0.137471 0.410291 0.251967
O O10 0.987464 0.854041 0.470675
O O11 0.976517 0.856201 0.980195
O O12 0.277177 0.929536 0.648409
O O13 0.415569 0.812127 0.763749
O O14 0.355142 0.004821 0.995440
#
# Coordination Sequence:
#
# PCOD9314707 Si02
#       7
#     4   4   4   4   4   4   4
#     4  11  25  47  70 102 143 189 236 296 360 421
#     4  10  22  40  69  98 136 181 239 292 343 424
#     4  11  24  46  73 100 141 185 241 292 351 427
#     4  11  24  45  68 102 144 179 234 292 359 427
#     4  11  21  40  67 102 139 180 239 292 352 416
#     4  11  21  41  68 101 138 187 237 294 349 419
#     4  11  25  45  69 105 139 185 236 292 356 424
#
# _framework density 25.63259
#
# number of rings (size 3 to 8) (size 9 to 14) (size 15 to 20)
#    0.000    1.143    4.286    1.714    0.000    2.286 
#   12.857    0.000    0.000    0.000    0.000    0.000 
#    0.000    0.000    0.000    0.000    0.000    0.000 
#
# Total GULP energy -156260.560579 kJ/mol
# GULP energy per Si atom -5580.734306 kJ/mol
# Density = 2.557425 g / cm^3
# Si number density = 25.632590 Si / 1000 Ang^3
#
#
#
# Elastic Constant Matrix: (Units=GPa)
#
#
# Indices 1 2 3 4 5 6 
#
# 1 93.6133 32.3893 41.8621 0.0000 0.0000 0.0000
# 2 32.3893 124.9732 42.2223 0.0000 0.0000 0.0000
# 3 41.8621 42.2223 176.6553 0.0000 0.0000 0.0000
# 4 0.0000 0.0000 0.0000 34.9024 0.0000 0.0000
# 5 0.0000 0.0000 0.0000 0.0000 19.7970 0.0000
# 6 0.0000 0.0000 0.0000 0.0000 0.0000 33.6616
#
#
#
# Elastic Compliance Matrix: (Units=1/GPa)
#
#
# Indices 1 2 3 4 5 6 
#
# 1 0.012605 -0.002456 -0.002400 0.000000 0.000000 0.000000
# 2 -0.002456 0.009183 -0.001613 0.000000 0.000000 0.000000
# 3 -0.002400 -0.001613 0.006615 0.000000 0.000000 0.000000
# 4 0.000000 0.000000 0.000000 0.028651 0.000000 0.000000
# 5 0.000000 0.000000 0.000000 0.000000 0.050513 0.000000
# 6 0.000000 0.000000 0.000000 0.000000 0.000000 0.029707
#
#
# Mechanical properties :
#
#
# Convention : Reuss Voigt Hill
#
# Bulk Modulus (GPa) = 64.66009 69.79878 67.22944
# Shear Modulus (GPa) = 32.18170 36.25676 34.21923
#
# Velocity S-wave (km/s) = 3.54715 3.76504 3.65771
# Velocity P-wave (km/s) = 6.48512 6.79634 6.64256
#
# Compressibility (1/GPa) = 0.01546549
#
# Stress axis : x y z
#
# Youngs Moduli (GPa) = 79.33189 108.89506 151.17224
#
# Poissons Ratio (x) = 0.26745 0.36282
# Poissons Ratio (y) = 0.19484 0.24382
# Poissons Ratio (z) = 0.19040 0.17563
#
# Static dielectric constant tensor:
#      x y z
#    x 2.083920 0.000000 0.000000 
#    y 0.000000 2.054160 0.000000 
#    z 0.000000 0.000000 2.175050 
# 
# From -- ./inp_files/1749.got.cif
#   From: 2010.05.17/outbox.cif.g08.bks.cpg/sg19_1_cif.got.tgz:1749.got - 2010.06.03 22:46:19.
