data_PCOD9314394
_publ_section_title
;
Structure prediction by ZEFSAII (Michael W. Deem and Ramdas Pophale) SiO2 
 PCOD9314394
Probable space group: P 21 21 21
;
_chemical_formula_sum "Si O2"
_cell_formula_units_Z 32
_cell_length_a 11.487942
_cell_length_b 6.020382
_cell_length_c 21.579895
_cell_angle_alpha 90.000000
_cell_angle_beta 90.000000
_cell_angle_gamma 90.000000
_cell_volume 1492.504365
_symmetry_space_group_name_H-M "P 21 21 21"
_symmetry_group_IT_number 19
_symmetry_cell_setting 'orthorhombic'
loop_
_space_group_symop_operation_xyz
x,y,z
1/2-x,-y,1/2+z
1/2+x,1/2-y,-z
-x,1/2+y,1/2-z
loop_
_atom_site_type_symbol
_atom_site_label
_atom_site_fract_x
_atom_site_fract_y
_atom_site_fract_z
Si Si1 0.758956 0.575658 0.109523
Si Si2 0.051439 0.375709 0.732020
Si Si3 0.761483 0.020731 0.677984
Si Si4 0.595522 0.017052 0.407312
Si Si5 0.095599 0.290402 0.933357
Si Si6 0.368402 0.527496 0.572208
Si Si7 0.446688 0.673892 0.963903
Si Si8 0.553748 0.799098 0.627234
O O1 0.723731 0.716158 0.169530
O O2 0.656963 0.448063 0.076004
O O3 0.826106 0.724817 0.059927
O O4 0.855568 0.400066 0.129294
O O5 0.177629 0.407721 0.764209
O O6 0.060126 0.387489 0.658484
O O7 0.992484 0.622366 0.750024
O O8 0.836905 0.933633 0.618476
O O9 0.622530 0.970280 0.672014
O O10 0.537208 0.772533 0.417203
O O11 0.734193 0.005002 0.413619
O O12 0.551231 0.173942 0.462823
O O13 0.117392 0.376156 0.002307
O O14 0.446959 0.304499 0.567777
O O15 0.427238 0.687863 0.624378
O O16 0.443061 0.424029 0.938796
#
# Coordination Sequence:
#
# PCOD9314394 Si02
#       8
#     4   4   4   4   4   4   4   4
#     4   9  19  37  67  92 127 175 227 276 347 430
#     4  12  28  50  70 105 144 188 247 296 351 413
#     4  10  21  40  69  91 127 185 232 283 343 419
#     4  12  25  42  65 104 138 183 231 296 352 419
#     4  11  22  37  60  98 135 174 221 281 361 419
#     4  11  24  39  65 101 140 176 230 289 355 439
#     4  10  22  39  61 102 134 176 217 284 365 423
#     4   9  19  40  65  93 133 173 225 279 350 428
#
# _framework density 21.440473000000001
#
# number of rings (size 3 to 8) (size 9 to 14) (size 15 to 20)
#    0.000    1.500    2.500    3.000    8.750    0.000 
#    2.250    0.000    8.250    0.000    0.000    0.000 
#    0.000    0.000    0.000    0.000    0.000    0.000 
#
# Total GULP energy -178274.317134 kJ/mol
# GULP energy per Si atom -5571.072410 kJ/mol
# Density = 2.139167 g / cm^3
# Si number density = 21.440473 Si / 1000 Ang^3
#
#
#
# Elastic Constant Matrix: (Units=GPa)
#
#
# Indices 1 2 3 4 5 6 
#
# 1 107.0748 23.4661 -0.5324 0.0000 0.0000 0.0000
# 2 23.4661 74.9962 3.2794 0.0000 0.0000 0.0000
# 3 -0.5324 3.2794 33.2076 0.0000 0.0000 0.0000
# 4 0.0000 0.0000 0.0000 19.8981 0.0000 0.0000
# 5 0.0000 0.0000 0.0000 0.0000 18.8600 0.0000
# 6 0.0000 0.0000 0.0000 0.0000 0.0000 26.0729
#
#
#
# Elastic Compliance Matrix: (Units=1/GPa)
#
#
# Indices 1 2 3 4 5 6 
#
# 1 0.010034 -0.003160 0.000473 0.000000 0.000000 0.000000
# 2 -0.003160 0.014387 -0.001471 0.000000 0.000000 0.000000
# 3 0.000473 -0.001471 0.030267 0.000000 0.000000 0.000000
# 4 0.000000 0.000000 0.000000 0.050256 0.000000 0.000000
# 5 0.000000 0.000000 0.000000 0.000000 0.053022 0.000000
# 6 0.000000 0.000000 0.000000 0.000000 0.000000 0.038354
#
#
# Mechanical properties :
#
#
# Convention : Reuss Voigt Hill
#
# Bulk Modulus (GPa) = 21.56555 29.74497 25.65526
# Shear Modulus (GPa) = 22.71751 25.57058 24.14405
#
# Velocity S-wave (km/s) = 3.25862 3.45720 3.35938
# Velocity P-wave (km/s) = 4.92324 5.46257 5.19990
#
# Compressibility (1/GPa) = 0.04637025
#
# Stress axis : x y z
#
# Youngs Moduli (GPa) = 99.65885 69.50610 33.03980
#
# Poissons Ratio (x) = 0.21966 -0.01563
# Poissons Ratio (y) = 0.31496 0.04862
# Poissons Ratio (z) = -0.04714 0.10228
#
# Static dielectric constant tensor:
#      x y z
#    x 1.820990 0.000000 0.000000 
#    y 0.000000 1.917000 0.000000 
#    z 0.000000 0.000000 1.762870 
# 
# From -- ./inp_files/7414.got.cif
#   From: 2010.05.17/outbox.cif.g08.bks.cpg/sg19_4_cif.got.tgz:7414.got - 2010.06.03 22:46:19.
