data_PCOD9314099
_publ_section_title
;
Structure prediction by ZEFSAII (Michael W. Deem and Ramdas Pophale) SiO2 
 PCOD9314099
Probable space group: P 21 21 21
;
_chemical_formula_sum "Si O2"
_cell_formula_units_Z 24
_cell_length_a 16.713769
_cell_length_b 4.775083
_cell_length_c 12.989720
_cell_angle_alpha 90.000000
_cell_angle_beta 90.000000
_cell_angle_gamma 90.000000
_cell_volume 1036.704802
_symmetry_space_group_name_H-M "P 21 21 21"
_symmetry_group_IT_number 19
_symmetry_cell_setting 'orthorhombic'
loop_
_space_group_symop_operation_xyz
x,y,z
1/2-x,-y,1/2+z
1/2+x,1/2-y,-z
-x,1/2+y,1/2-z
loop_
_atom_site_type_symbol
_atom_site_label
_atom_site_fract_x
_atom_site_fract_y
_atom_site_fract_z
Si Si1 0.902864 0.520011 0.657643
Si Si2 0.836631 0.054851 0.551484
Si Si3 0.023738 0.186143 0.184378
Si Si4 0.447145 0.562581 0.021894
Si Si5 0.308707 0.931985 0.590121
Si Si6 0.868780 0.461350 0.882604
O O1 0.829445 0.297302 0.639184
O O2 0.914910 0.539802 0.778253
O O3 0.974067 0.388476 0.590916
O O4 0.894072 0.828221 0.607972
O O5 0.843636 0.280058 0.458267
O O6 0.785623 0.808317 0.494846
O O7 0.117604 0.187563 0.155559
O O8 0.993766 0.488749 0.218258
O O9 0.975800 0.065075 0.086002
O O10 0.396760 0.845754 0.022431
O O11 0.393150 0.347290 0.085438
O O12 0.224581 0.002139 0.640411
#
# Coordination Sequence:
#
# PCOD9314099 Si02
#       6
#     4   4   4   4   4   4
#     4  11  22  42  75 101 139 182 229 269 367 418
#     4  10  20  41  72  90 132 195 212 265 354 408
#     4  12  26  47  73 100 134 194 243 278 336 418
#     4  12  24  45  72 101 145 177 235 289 347 417
#     4  11  24  47  67  96 149 177 228 294 346 387
#     4  12  26  44  69 112 139 175 229 301 342 424
#
# _framework density 23.150276000000002
#
# number of rings (size 3 to 8) (size 9 to 14) (size 15 to 20)
#    0.000    0.667    3.333    6.000    0.000    0.000 
#   18.000    0.000    0.000    0.000    0.000    0.000 
#    0.000    0.000    0.000    0.000    0.000    0.000 
#
# Total GULP energy -133604.933496 kJ/mol
# GULP energy per Si atom -5566.872229 kJ/mol
# Density = 2.309759 g / cm^3
# Si number density = 23.150276 Si / 1000 Ang^3
#
#
#
# Elastic Constant Matrix: (Units=GPa)
#
#
# Indices 1 2 3 4 5 6 
#
# 1 64.6608 7.5347 19.9362 0.0000 0.0000 0.0000
# 2 7.5347 138.9685 2.7022 0.0000 0.0000 0.0000
# 3 19.9362 2.7022 60.2241 0.0000 0.0000 0.0000
# 4 0.0000 0.0000 0.0000 39.8970 0.0000 0.0000
# 5 0.0000 0.0000 0.0000 0.0000 2.7789 0.0000
# 6 0.0000 0.0000 0.0000 0.0000 0.0000 68.1327
#
#
#
# Elastic Compliance Matrix: (Units=1/GPa)
#
#
# Indices 1 2 3 4 5 6 
#
# 1 0.017318 -0.000828 -0.005696 0.000000 0.000000 0.000000
# 2 -0.000828 0.007242 -0.000051 0.000000 0.000000 0.000000
# 3 -0.005696 -0.000051 0.018492 0.000000 0.000000 0.000000
# 4 0.000000 0.000000 0.000000 0.025065 0.000000 0.000000
# 5 0.000000 0.000000 0.000000 0.000000 0.359859 0.000000
# 6 0.000000 0.000000 0.000000 0.000000 0.000000 0.014677
#
#
# Mechanical properties :
#
#
# Convention : Reuss Voigt Hill
#
# Bulk Modulus (GPa) = 33.44171 36.02222 34.73196
# Shear Modulus (GPa) = 10.73492 37.74041 24.23767
#
# Velocity S-wave (km/s) = 2.15572 4.04200 3.23920
# Velocity P-wave (km/s) = 4.54676 6.11372 5.38751
#
# Compressibility (1/GPa) = 0.02990277
#
# Stress axis : x y z
#
# Youngs Moduli (GPa) = 57.74371 138.08788 54.07635
#
# Poissons Ratio (x) = 0.11437 0.30800
# Poissons Ratio (y) = 0.04782 0.00275
# Poissons Ratio (z) = 0.32889 0.00701
#
# Static dielectric constant tensor:
#      x y z
#    x 2.023190 0.000000 0.000000 
#    y 0.000000 1.836270 0.000000 
#    z 0.000000 0.000000 1.885300 
# 
# From -- ./inp_files/6215.got.cif
#   From: 2010.05.17/outbox.cif.g08.bks.cpg/sg19_4_cif.got.tgz:6215.got - 2010.06.03 22:46:19.
