data_PCOD9314413
_publ_section_title
;
Structure prediction by ZEFSAII (Michael W. Deem and Ramdas Pophale) SiO2 
 PCOD9314413
Probable space group: P 21 21 21
;
_chemical_formula_sum "Si O2"
_cell_formula_units_Z 32
_cell_length_a 11.732218
_cell_length_b 8.748923
_cell_length_c 12.786771
_cell_angle_alpha 90.000000
_cell_angle_beta 90.000000
_cell_angle_gamma 90.000000
_cell_volume 1312.488799
_symmetry_space_group_name_H-M "P 21 21 21"
_symmetry_group_IT_number 19
_symmetry_cell_setting 'orthorhombic'
loop_
_space_group_symop_operation_xyz
x,y,z
1/2-x,-y,1/2+z
1/2+x,1/2-y,-z
-x,1/2+y,1/2-z
loop_
_atom_site_type_symbol
_atom_site_label
_atom_site_fract_x
_atom_site_fract_y
_atom_site_fract_z
Si Si1 0.564976 0.110813 0.863830
Si Si2 0.256760 0.616281 0.360872
Si Si3 0.483438 0.055238 0.086730
Si Si4 0.781165 0.393442 0.563783
Si Si5 0.769324 0.176520 0.358543
Si Si6 0.395207 0.679151 0.851704
Si Si7 0.768036 0.299073 0.944969
Si Si8 0.974391 0.810135 0.916858
O O1 0.524381 0.149465 0.747525
O O2 0.659217 0.241870 0.882101
O O3 0.634583 0.951829 0.869766
O O4 0.483865 0.099102 0.962905
O O5 0.392857 0.604866 0.373840
O O6 0.226410 0.724350 0.263011
O O7 0.202773 0.450054 0.340695
O O8 0.205946 0.666433 0.471689
O O9 0.373669 0.147689 0.125165
O O10 0.469531 0.873511 0.100627
O O11 0.778821 0.286548 0.458514
O O12 0.675704 0.335690 0.634024
O O13 0.768292 0.560943 0.518670
O O14 0.903338 0.370991 0.617192
O O15 0.638508 0.116299 0.367405
O O16 0.463219 0.660644 0.958959
#
# Coordination Sequence:
#
# PCOD9314413 Si02
#       8
#     4   4   4   4   4   4   4   4
#     4  10  23  41  61  87 122 159 199 246 300 359
#     4  10  23  41  61  87 122 159 199 246 300 359
#     4  11  20  41  61  85 121 156 195 253 294 346
#     4  11  21  38  61  89 121 153 195 251 299 355
#     4  10  21  41  63  84 117 165 198 237 302 361
#     4  10  21  41  63  84 117 165 198 237 302 361
#     4  11  23  38  60  90 122 150 195 255 297 346
#     4  11  20  39  64  88 116 161 203 237 298 361
#
# _framework density 24.381160999999999
#
# number of rings (size 3 to 8) (size 9 to 14) (size 15 to 20)
#    0.000    1.500    5.000    2.250    0.000    7.000 
#    4.500    0.000    0.000    0.000    0.000    0.000 
#    0.000    0.000    0.000    0.000    0.000    0.000 
#
# Total GULP energy -178888.620779 kJ/mol
# GULP energy per Si atom -5590.269399 kJ/mol
# Density = 2.432567 g / cm^3
# Si number density = 24.381161 Si / 1000 Ang^3
#
#
#
# Elastic Constant Matrix: (Units=GPa)
#
#
# Indices 1 2 3 4 5 6 
#
# 1 90.9475 -10.2164 -21.8369 0.0000 0.0000 0.0000
# 2 -10.2164 41.1068 -7.3736 0.0000 0.0000 0.0000
# 3 -21.8369 -7.3736 85.4521 0.0000 0.0000 0.0000
# 4 0.0000 0.0000 0.0000 11.8291 0.0000 0.0000
# 5 0.0000 0.0000 0.0000 0.0000 4.1347 0.0000
# 6 0.0000 0.0000 0.0000 0.0000 0.0000 32.0181
#
#
#
# Elastic Compliance Matrix: (Units=1/GPa)
#
#
# Indices 1 2 3 4 5 6 
#
# 1 0.012233 0.003658 0.003442 0.000000 0.000000 0.000000
# 2 0.003658 0.025803 0.003161 0.000000 0.000000 0.000000
# 3 0.003442 0.003161 0.012855 0.000000 0.000000 0.000000
# 4 0.000000 0.000000 0.000000 0.084538 0.000000 0.000000
# 5 0.000000 0.000000 0.000000 0.000000 0.241854 0.000000
# 6 0.000000 0.000000 0.000000 0.000000 0.000000 0.031232
#
#
# Mechanical properties :
#
#
# Convention : Reuss Voigt Hill
#
# Bulk Modulus (GPa) = 14.00349 15.40585 14.70467
# Shear Modulus (GPa) = 12.14189 26.72527 19.43358
#
# Velocity S-wave (km/s) = 2.23402 3.31440 2.82631
# Velocity P-wave (km/s) = 3.52285 4.58033 4.08595
#
# Compressibility (1/GPa) = 0.07141075
#
# Stress axis : x y z
#
# Youngs Moduli (GPa) = 81.74905 38.75531 77.79246
#
# Poissons Ratio (x) = -0.14175 -0.26773
# Poissons Ratio (y) = -0.29900 -0.24592
# Poissons Ratio (z) = -0.28135 -0.12251
#
# Static dielectric constant tensor:
#      x y z
#    x 1.935610 0.000000 0.000000 
#    y 0.000000 1.927030 0.000000 
#    z 0.000000 0.000000 1.981950 
# 
# From -- ./inp_files/3632.got.cif
#   From: 2010.05.17/outbox.cif.g08.bks.cpg/sg19_2_cif.got.tgz:3632.got - 2010.06.03 22:46:19.
