data_PCOD9314467
_publ_section_title
;
Structure prediction by ZEFSAII (Michael W. Deem and Ramdas Pophale) SiO2 
 PCOD9314467
Probable space group: P 21 21 21
;
_chemical_formula_sum "Si O2"
_cell_formula_units_Z 28
_cell_length_a 11.435651
_cell_length_b 12.369751
_cell_length_c 8.461577
_cell_angle_alpha 90.000000
_cell_angle_beta 90.000000
_cell_angle_gamma 90.000000
_cell_volume 1196.942151
_symmetry_space_group_name_H-M "P 21 21 21"
_symmetry_group_IT_number 19
_symmetry_cell_setting 'orthorhombic'
loop_
_space_group_symop_operation_xyz
x,y,z
1/2-x,-y,1/2+z
1/2+x,1/2-y,-z
-x,1/2+y,1/2-z
loop_
_atom_site_type_symbol
_atom_site_label
_atom_site_fract_x
_atom_site_fract_y
_atom_site_fract_z
Si Si1 0.571834 0.199590 0.311343
Si Si2 0.613916 0.913906 0.591339
Si Si3 0.654250 0.600760 0.338386
Si Si4 0.811236 0.030928 0.765515
Si Si5 0.701612 0.693472 0.683052
Si Si6 0.605986 0.480814 0.783652
Si Si7 0.013955 0.093970 0.539397
O O1 0.446508 0.175893 0.232628
O O2 0.666458 0.266026 0.208283
O O3 0.550252 0.280766 0.456438
O O4 0.632100 0.082768 0.326258
O O5 0.679705 0.898403 0.423445
O O6 0.623743 0.801024 0.682948
O O7 0.478802 0.946858 0.573981
O O8 0.687283 0.002453 0.689658
O O9 0.686637 0.638445 0.513615
O O10 0.778271 0.590007 0.253257
O O11 0.598877 0.481201 0.353840
O O12 0.889649 0.078668 0.624313
O O13 0.651041 0.603129 0.801103
O O14 0.525207 0.460241 0.630947
#
# Coordination Sequence:
#
# PCOD9314467 Si02
#       7
#     4   4   4   4   4   4   4
#     4  10  21  42  64  92 134 174 222 279 338 396
#     4  11  24  45  67  99 138 177 226 283 341 410
#     4  10  22  38  68  97 127 179 227 273 339 406
#     4  10  23  42  68  95 133 186 221 279 337 404
#     4  10  23  43  67  96 135 178 222 278 349 408
#     4  11  24  42  67 102 134 172 235 286 331 410
#     4  10  21  42  63  93 135 172 221 280 331 402
#
# _framework density 23.392942999999999
#
# number of rings (size 3 to 8) (size 9 to 14) (size 15 to 20)
#    0.000    1.714    1.429    1.714    4.000    3.429 
#   12.857    0.000    0.000    0.000    0.000    0.000 
#    0.000    0.000    0.000    0.000    0.000    0.000 
#
# Total GULP energy -156390.661473 kJ/mol
# GULP energy per Si atom -5585.380767 kJ/mol
# Density = 2.333970 g / cm^3
# Si number density = 23.392943 Si / 1000 Ang^3
#
#
#
# Elastic Constant Matrix: (Units=GPa)
#
#
# Indices 1 2 3 4 5 6 
#
# 1 135.5290 19.4457 19.3680 0.0000 0.0000 0.0000
# 2 19.4457 71.4199 -12.8792 0.0000 0.0000 0.0000
# 3 19.3680 -12.8792 26.3685 0.0000 0.0000 0.0000
# 4 0.0000 0.0000 0.0000 25.6626 0.0000 0.0000
# 5 0.0000 0.0000 0.0000 0.0000 31.8551 0.0000
# 6 0.0000 0.0000 0.0000 0.0000 0.0000 21.4405
#
#
#
# Elastic Compliance Matrix: (Units=1/GPa)
#
#
# Indices 1 2 3 4 5 6 
#
# 1 0.009219 -0.004091 -0.008770 0.000000 0.000000 0.000000
# 2 -0.004091 0.017170 0.011392 0.000000 0.000000 0.000000
# 3 -0.008770 0.011392 0.049930 0.000000 0.000000 0.000000
# 4 0.000000 0.000000 0.000000 0.038967 0.000000 0.000000
# 5 0.000000 0.000000 0.000000 0.000000 0.031392 0.000000
# 6 0.000000 0.000000 0.000000 0.000000 0.000000 0.046641
#
#
# Mechanical properties :
#
#
# Convention : Reuss Voigt Hill
#
# Bulk Modulus (GPa) = 13.62784 31.68735 22.65759
# Shear Modulus (GPa) = 22.65341 29.61717 26.13529
#
# Velocity S-wave (km/s) = 3.11527 3.56205 3.34612
# Velocity P-wave (km/s) = 4.33337 5.52202 4.96341
#
# Compressibility (1/GPa) = 0.07337922
#
# Stress axis : x y z
#
# Youngs Moduli (GPa) = 108.47408 58.24121 20.02819
#
# Poissons Ratio (x) = 0.23829 0.17564
# Poissons Ratio (y) = 0.44382 -0.22815
# Poissons Ratio (z) = 0.95129 -0.66346
#
# Static dielectric constant tensor:
#      x y z
#    x 1.912500 0.000000 0.000000 
#    y 0.000000 1.912450 0.000000 
#    z 0.000000 0.000000 1.910800 
# 
# From -- ./inp_files/3466.got.cif
#   From: 2010.05.17/outbox.cif.g08.bks.cpg/sg19_2_cif.got.tgz:3466.got - 2010.06.03 22:46:19.
