data_PCOD9314241
_publ_section_title
;
Structure prediction by ZEFSAII (Michael W. Deem and Ramdas Pophale) SiO2 
 PCOD9314241
Probable space group: P 21 21 21
;
_chemical_formula_sum "Si O2"
_cell_formula_units_Z 32
_cell_length_a 7.755936
_cell_length_b 12.135899
_cell_length_c 14.074230
_cell_angle_alpha 90.000000
_cell_angle_beta 90.000000
_cell_angle_gamma 90.000000
_cell_volume 1324.740501
_symmetry_space_group_name_H-M "P 21 21 21"
_symmetry_group_IT_number 19
_symmetry_cell_setting 'orthorhombic'
loop_
_space_group_symop_operation_xyz
x,y,z
1/2-x,-y,1/2+z
1/2+x,1/2-y,-z
-x,1/2+y,1/2-z
loop_
_atom_site_type_symbol
_atom_site_label
_atom_site_fract_x
_atom_site_fract_y
_atom_site_fract_z
Si Si1 0.732181 0.962777 0.134095
Si Si2 0.368571 0.355618 0.545693
Si Si3 0.431216 0.746711 0.798639
Si Si4 0.013292 0.653171 0.396621
Si Si5 0.001114 0.291936 0.609073
Si Si6 0.718364 0.393384 0.288991
Si Si7 0.864865 0.704615 0.596818
Si Si8 0.933495 0.393368 0.799493
O O1 0.788321 0.841128 0.167791
O O2 0.904243 0.034304 0.122956
O O3 0.607690 0.030907 0.202927
O O4 0.632799 0.951867 0.032736
O O5 0.510326 0.343915 0.628248
O O6 0.174166 0.358631 0.583771
O O7 0.399866 0.242538 0.485243
O O8 0.412342 0.794667 0.693011
O O9 0.603054 0.670440 0.795434
O O10 0.185591 0.728932 0.408054
O O11 0.912960 0.658319 0.494984
O O12 0.083929 0.181128 0.653000
O O13 0.900400 0.351305 0.693077
O O14 0.659422 0.385888 0.179160
O O15 0.707899 0.516596 0.327783
O O16 0.009936 0.791653 0.634493
#
# Coordination Sequence:
#
# PCOD9314241 Si02
#       8
#     4   4   4   4   4   4   4   4
#     4  11  22  40  67  92 122 174 214 251 331 387
#     4  11  20  39  63  91 122 166 210 265 316 367
#     4  10  23  43  59  92 134 161 209 281 310 369
#     4  10  23  45  61  93 132 163 216 257 321 389
#     4  10  21  38  60  90 128 157 210 271 306 374
#     4   9  19  38  60  82 128 158 203 263 315 370
#     4   9  21  39  61  87 125 168 199 266 313 370
#     4  10  21  40  61  95 119 165 217 254 318 390
#
# _framework density 24.155674000000001
#
# number of rings (size 3 to 8) (size 9 to 14) (size 15 to 20)
#    0.000    2.000    2.500    2.250    1.750    2.000 
#    9.000    3.750    0.000    0.000    0.000    0.000 
#    0.000    0.000    0.000    0.000    0.000    0.000 
#
# Total GULP energy -178920.787924 kJ/mol
# GULP energy per Si atom -5591.274623 kJ/mol
# Density = 2.410069 g / cm^3
# Si number density = 24.155674 Si / 1000 Ang^3
#
#
#
# Elastic Constant Matrix: (Units=GPa)
#
#
# Indices 1 2 3 4 5 6 
#
# 1 64.5564 8.7254 15.9548 0.0000 0.0000 0.0000
# 2 8.7254 82.8322 15.6609 0.0000 0.0000 0.0000
# 3 15.9548 15.6609 132.5460 0.0000 0.0000 0.0000
# 4 0.0000 0.0000 0.0000 26.7044 0.0000 0.0000
# 5 0.0000 0.0000 0.0000 0.0000 42.5481 0.0000
# 6 0.0000 0.0000 0.0000 0.0000 0.0000 39.0398
#
#
#
# Elastic Compliance Matrix: (Units=1/GPa)
#
#
# Indices 1 2 3 4 5 6 
#
# 1 0.016114 -0.001361 -0.001779 0.000000 0.000000 0.000000
# 2 -0.001361 0.012463 -0.001309 0.000000 0.000000 0.000000
# 3 -0.001779 -0.001309 0.007913 0.000000 0.000000 0.000000
# 4 0.000000 0.000000 0.000000 0.037447 0.000000 0.000000
# 5 0.000000 0.000000 0.000000 0.000000 0.023503 0.000000
# 6 0.000000 0.000000 0.000000 0.000000 0.000000 0.025615
#
#
# Mechanical properties :
#
#
# Convention : Reuss Voigt Hill
#
# Bulk Modulus (GPa) = 36.24077 40.06854 38.15465
# Shear Modulus (GPa) = 35.42319 37.63137 36.52728
#
# Velocity S-wave (km/s) = 3.83359 3.95127 3.89287
# Velocity P-wave (km/s) = 5.88479 6.11885 6.00296
#
# Compressibility (1/GPa) = 0.02759324
#
# Stress axis : x y z
#
# Youngs Moduli (GPa) = 62.05816 80.23476 126.36939
#
# Poissons Ratio (x) = 0.10921 0.22479
# Poissons Ratio (y) = 0.08447 0.16539
# Poissons Ratio (z) = 0.11039 0.10501
#
# Static dielectric constant tensor:
#      x y z
#    x 2.032250 0.000000 0.000000 
#    y 0.000000 1.895870 0.000000 
#    z 0.000000 0.000000 1.893700 
# 
# From -- ./inp_files/5939.got.cif
#   From: 2010.05.17/outbox.cif.g08.bks.cpg/sg19_3_cif.got.tgz:5939.got - 2010.06.03 22:46:19.
