data_PCOD9314334
_publ_section_title
;
Structure prediction by ZEFSAII (Michael W. Deem and Ramdas Pophale) SiO2 
 PCOD9314334
Probable space group: P 21 21 21
;
_chemical_formula_sum "Si O2"
_cell_formula_units_Z 28
_cell_length_a 5.556386
_cell_length_b 18.379702
_cell_length_c 9.754180
_cell_angle_alpha 90.000000
_cell_angle_beta 90.000000
_cell_angle_gamma 90.000000
_cell_volume 996.142890
_symmetry_space_group_name_H-M "P 21 21 21"
_symmetry_group_IT_number 19
_symmetry_cell_setting 'orthorhombic'
loop_
_space_group_symop_operation_xyz
x,y,z
1/2-x,-y,1/2+z
1/2+x,1/2-y,-z
-x,1/2+y,1/2-z
loop_
_atom_site_type_symbol
_atom_site_label
_atom_site_fract_x
_atom_site_fract_y
_atom_site_fract_z
Si Si1 0.398682 0.949036 0.159840
Si Si2 0.292425 0.316691 0.375295
Si Si3 0.995561 0.425996 0.563098
Si Si4 0.133345 0.075162 0.250518
Si Si5 0.730369 0.942039 0.526923
Si Si6 0.605086 0.784154 0.829322
Si Si7 0.870397 0.782937 0.553570
O O1 0.508029 0.869805 0.192184
O O2 0.202647 0.989033 0.257818
O O3 0.609207 0.006270 0.123879
O O4 0.254960 0.941811 0.016592
O O5 0.376474 0.269644 0.507654
O O6 0.124042 0.375115 0.454222
O O7 0.121342 0.265538 0.286259
O O8 0.888507 0.391900 0.701220
O O9 0.146528 0.499921 0.586576
O O10 0.021740 0.080174 0.099360
O O11 0.946758 0.129151 0.323730
O O12 0.865632 0.867412 0.504805
O O13 0.811218 0.772498 0.717091
O O14 0.627520 0.749232 0.486770
#
# Coordination Sequence:
#
# PCOD9314334 Si02
#       7
#     4   4   4   4   4   4   4
#     4  10  22  42  67  98 140 177 253 299 372 460
#     4  11  24  45  68 114 140 194 248 323 390 471
#     4  10  21  40  65  97 137 175 240 306 371 454
#     4  10  21  39  67 100 128 194 227 304 372 454
#     4   9  23  40  65  93 133 185 239 301 360 451
#     4  11  25  44  76 104 156 195 253 324 401 460
#     4  11  28  50  72 108 150 208 262 311 388 472
#
# _framework density 28.108419999999999
#
# number of rings (size 3 to 8) (size 9 to 14) (size 15 to 20)
#    0.000    1.714    1.429    0.857   10.000    2.286 
#    7.714    0.000    0.000    0.000    0.000    0.000 
#    0.000    0.000    0.000    0.000    0.000    0.000 
#
# Total GULP energy -156285.375177 kJ/mol
# GULP energy per Si atom -5581.620542 kJ/mol
# Density = 2.804444 g / cm^3
# Si number density = 28.108420 Si / 1000 Ang^3
#
#
#
# Elastic Constant Matrix: (Units=GPa)
#
#
# Indices 1 2 3 4 5 6 
#
# 1 101.8011 58.0751 30.0026 0.0000 0.0000 0.0000
# 2 58.0751 156.0729 39.8495 0.0000 0.0000 0.0000
# 3 30.0026 39.8495 43.9342 0.0000 0.0000 0.0000
# 4 0.0000 0.0000 0.0000 34.0846 0.0000 0.0000
# 5 0.0000 0.0000 0.0000 0.0000 49.2750 0.0000
# 6 0.0000 0.0000 0.0000 0.0000 0.0000 61.7052
#
#
#
# Elastic Compliance Matrix: (Units=1/GPa)
#
#
# Indices 1 2 3 4 5 6 
#
# 1 0.013629 -0.003507 -0.006126 0.000000 0.000000 0.000000
# 2 -0.003507 0.009241 -0.005987 0.000000 0.000000 0.000000
# 3 -0.006126 -0.005987 0.032375 0.000000 0.000000 0.000000
# 4 0.000000 0.000000 0.000000 0.029339 0.000000 0.000000
# 5 0.000000 0.000000 0.000000 0.000000 0.020294 0.000000
# 6 0.000000 0.000000 0.000000 0.000000 0.000000 0.016206
#
#
# Mechanical properties :
#
#
# Convention : Reuss Voigt Hill
#
# Bulk Modulus (GPa) = 41.65817 61.96250 51.81033
# Shear Modulus (GPa) = 31.18638 40.60502 35.89570
#
# Velocity S-wave (km/s) = 3.33453 3.80489 3.57745
# Velocity P-wave (km/s) = 5.44777 6.43389 5.96125
#
# Compressibility (1/GPa) = 0.02400490
#
# Stress axis : x y z
#
# Youngs Moduli (GPa) = 73.37051 108.21469 30.88808
#
# Poissons Ratio (x) = 0.37955 0.18923
# Poissons Ratio (y) = 0.25734 0.18491
# Poissons Ratio (z) = 0.44949 0.64784
#
# Static dielectric constant tensor:
#      x y z
#    x 2.293540 0.000000 0.000000 
#    y 0.000000 2.165280 0.000000 
#    z 0.000000 0.000000 2.290130 
# 
# From -- ./inp_files/4488.got.cif
#   From: 2010.05.17/outbox.cif.g08.bks.cpg/sg19_3_cif.got.tgz:4488.got - 2010.06.03 22:46:19.
