data_PCOD9314757
_publ_section_title
;
Structure prediction by ZEFSAII (Michael W. Deem and Ramdas Pophale) SiO2 
 PCOD9314757
Probable space group: P 21 21 21
;
_chemical_formula_sum "Si O2"
_cell_formula_units_Z 24
_cell_length_a 7.384628
_cell_length_b 9.277802
_cell_length_c 14.649445
_cell_angle_alpha 90.000000
_cell_angle_beta 90.000000
_cell_angle_gamma 90.000000
_cell_volume 1003.679131
_symmetry_space_group_name_H-M "P 21 21 21"
_symmetry_group_IT_number 19
_symmetry_cell_setting 'orthorhombic'
loop_
_space_group_symop_operation_xyz
x,y,z
1/2-x,-y,1/2+z
1/2+x,1/2-y,-z
-x,1/2+y,1/2-z
loop_
_atom_site_type_symbol
_atom_site_label
_atom_site_fract_x
_atom_site_fract_y
_atom_site_fract_z
Si Si1 0.253800 0.833504 0.741265
Si Si2 0.190430 0.014517 0.902884
Si Si3 0.838916 0.165634 0.300146
Si Si4 0.808119 0.181467 0.100399
Si Si5 0.840018 0.469294 0.397816
Si Si6 0.287656 0.401977 0.099499
O O1 0.455967 0.874692 0.774106
O O2 0.198047 0.932452 0.656132
O O3 0.263022 0.679915 0.693612
O O4 0.152397 0.888245 0.829972
O O5 0.337695 0.143991 0.892358
O O6 0.004950 0.105501 0.903318
O O7 0.220079 0.940901 0.999864
O O8 0.732072 0.153240 0.203415
O O9 0.854447 0.326634 0.338615
O O10 0.769781 0.064681 0.380759
O O11 0.979110 0.069730 0.096103
O O12 0.721454 0.155939 0.999477
#
# Coordination Sequence:
#
# PCOD9314757 Si02
#       6
#     4   4   4   4   4   4
#     4  11  22  42  67  97 127 187 224 275 347 411
#     4  11  24  40  69 101 141 175 231 290 346 403
#     4  11  24  43  69  97 133 180 231 280 337 424
#     4  10  22  43  68  97 136 181 223 284 348 408
#     4  10  22  41  68  97 131 174 232 277 339 414
#     4  11  26  43  69 101 140 179 229 290 349 406
#
# _framework density 23.912023000000001
#
# number of rings (size 3 to 8) (size 9 to 14) (size 15 to 20)
#    0.000    1.333    3.333    2.000    4.667    4.000 
#    0.000    0.000    0.000    0.000    0.000    0.000 
#    0.000    0.000    0.000    0.000    0.000    0.000 
#
# Total GULP energy -133646.435160 kJ/mol
# GULP energy per Si atom -5568.601465 kJ/mol
# Density = 2.385760 g / cm^3
# Si number density = 23.912023 Si / 1000 Ang^3
#
#
#
# Elastic Constant Matrix: (Units=GPa)
#
#
# Indices 1 2 3 4 5 6 
#
# 1 39.3918 14.4201 6.8337 0.0000 0.0000 0.0000
# 2 14.4201 104.3577 35.9815 0.0000 0.0000 0.0000
# 3 6.8337 35.9815 136.0833 0.0000 0.0000 0.0000
# 4 0.0000 0.0000 0.0000 54.9857 0.0000 0.0000
# 5 0.0000 0.0000 0.0000 0.0000 20.0790 0.0000
# 6 0.0000 0.0000 0.0000 0.0000 0.0000 23.9060
#
#
#
# Elastic Compliance Matrix: (Units=1/GPa)
#
#
# Indices 1 2 3 4 5 6 
#
# 1 0.026759 -0.003559 -0.000403 0.000000 0.000000 0.000000
# 2 -0.003559 0.011017 -0.002734 0.000000 0.000000 0.000000
# 3 -0.000403 -0.002734 0.008092 0.000000 0.000000 0.000000
# 4 0.000000 0.000000 0.000000 0.018187 0.000000 0.000000
# 5 0.000000 0.000000 0.000000 0.000000 0.049803 0.000000
# 6 0.000000 0.000000 0.000000 0.000000 0.000000 0.041830
#
#
# Mechanical properties :
#
#
# Convention : Reuss Voigt Hill
#
# Bulk Modulus (GPa) = 30.79223 43.81151 37.30187
# Shear Modulus (GPa) = 27.79260 34.63397 31.21328
#
# Velocity S-wave (km/s) = 3.41293 3.80990 3.61687
# Velocity P-wave (km/s) = 5.33255 6.14130 5.75116
#
# Compressibility (1/GPa) = 0.03247573
#
# Stress axis : x y z
#
# Youngs Moduli (GPa) = 37.37123 90.76965 123.58453
#
# Poissons Ratio (x) = 0.32301 0.04978
# Poissons Ratio (y) = 0.13299 0.33791
# Poissons Ratio (z) = 0.01505 0.24819
#
# Static dielectric constant tensor:
#      x y z
#    x 2.062610 0.000000 0.000000 
#    y 0.000000 2.026800 0.000000 
#    z 0.000000 0.000000 2.105430 
# 
# From -- ./inp_files/2799.got.cif
#   From: 2010.05.17/outbox.cif.g08.bks.cpg/sg19_2_cif.got.tgz:2799.got - 2010.06.03 22:46:19.
