data_PCOD9314802
_publ_section_title
;
Structure prediction by ZEFSAII (Michael W. Deem and Ramdas Pophale) SiO2 
 PCOD9314802
Probable space group: P 21 21 21
;
_chemical_formula_sum "Si O2"
_cell_formula_units_Z 20
_cell_length_a 12.800627
_cell_length_b 4.959615
_cell_length_c 13.610156
_cell_angle_alpha 90.000000
_cell_angle_beta 90.000000
_cell_angle_gamma 90.000000
_cell_volume 864.056836
_symmetry_space_group_name_H-M "P 21 21 21"
_symmetry_group_IT_number 19
_symmetry_cell_setting 'orthorhombic'
loop_
_space_group_symop_operation_xyz
x,y,z
1/2-x,-y,1/2+z
1/2+x,1/2-y,-z
-x,1/2+y,1/2-z
loop_
_atom_site_type_symbol
_atom_site_label
_atom_site_fract_x
_atom_site_fract_y
_atom_site_fract_z
Si Si1 0.959026 0.244037 0.300837
Si Si2 0.961292 0.755117 0.694499
Si Si3 0.249345 0.029329 0.255375
Si Si4 0.361158 0.678315 0.935660
Si Si5 0.857141 0.307904 0.937270
O O1 0.841000 0.333857 0.286343
O O2 0.019934 0.430775 0.220363
O O3 0.018257 0.322611 0.400231
O O4 0.844786 0.646065 0.701765
O O5 0.024014 0.561032 0.770377
O O6 0.024234 0.733021 0.593214
O O7 0.202703 0.211843 0.342304
O O8 0.290675 0.200501 0.162479
O O9 0.325026 0.392387 0.976267
O O10 0.351118 0.890390 0.023236
#
# Coordination Sequence:
#
# PCOD9314802 Si02
#       5
#     4   4   4   4   4
#     4  10  22  42  65  91 128 170 217 274 329 385
#     4  10  22  42  65  91 128 170 217 274 329 385
#     4  10  24  46  72  96 134 180 222 272 334 396
#     4  11  24  43  67 100 137 176 224 274 330 393
#     4  11  24  43  67 100 137 176 224 274 330 393
#
# _framework density 23.146625
#
# number of rings (size 3 to 8) (size 9 to 14) (size 15 to 20)
#    0.000    1.600    0.000    4.800    0.000   16.000 
#    0.000   16.000    0.000    0.000    0.000    0.000 
#    0.000    0.000    0.000    0.000    0.000    0.000 
#
# Total GULP energy -111881.416760 kJ/mol
# GULP energy per Si atom -5594.070838 kJ/mol
# Density = 2.309394 g / cm^3
# Si number density = 23.146625 Si / 1000 Ang^3
#
#
#
# Elastic Constant Matrix: (Units=GPa)
#
#
# Indices 1 2 3 4 5 6 
#
# 1 137.4923 5.4563 26.5098 0.0000 0.0000 0.0000
# 2 5.4563 48.8693 -2.2048 0.0000 0.0000 0.0000
# 3 26.5098 -2.2048 75.2315 0.0000 0.0000 0.0000
# 4 0.0000 0.0000 0.0000 30.0720 0.0000 0.0000
# 5 0.0000 0.0000 0.0000 0.0000 46.6441 0.0000
# 6 0.0000 0.0000 0.0000 0.0000 0.0000 27.7034
#
#
#
# Elastic Compliance Matrix: (Units=1/GPa)
#
#
# Indices 1 2 3 4 5 6 
#
# 1 0.007852 -0.001003 -0.002796 0.000000 0.000000 0.000000
# 2 -0.001003 0.020618 0.000958 0.000000 0.000000 0.000000
# 3 -0.002796 0.000958 0.014306 0.000000 0.000000 0.000000
# 4 0.000000 0.000000 0.000000 0.033253 0.000000 0.000000
# 5 0.000000 0.000000 0.000000 0.000000 0.021439 0.000000
# 6 0.000000 0.000000 0.000000 0.000000 0.000000 0.036097
#
#
# Mechanical properties :
#
#
# Convention : Reuss Voigt Hill
#
# Bulk Modulus (GPa) = 26.95949 35.67954 31.31951
# Shear Modulus (GPa) = 32.97891 36.33935 34.65913
#
# Velocity S-wave (km/s) = 3.77872 3.96657 3.87379
# Velocity P-wave (km/s) = 5.54174 6.03542 5.79384
#
# Compressibility (1/GPa) = 0.03709269
#
# Stress axis : x y z
#
# Youngs Moduli (GPa) = 127.35471 48.50152 69.90213
#
# Poissons Ratio (x) = 0.04864 0.19547
# Poissons Ratio (y) = 0.12772 -0.06694
# Poissons Ratio (z) = 0.35612 -0.04645
#
# Static dielectric constant tensor:
#      x y z
#    x 1.913410 0.000000 0.000000 
#    y 0.000000 1.841770 0.000000 
#    z 0.000000 0.000000 1.854910 
# 
# From -- ./inp_files/5622.got.cif
#   From: 2010.05.17/outbox.cif.g08.bks.cpg/sg19_3_cif.got.tgz:5622.got - 2010.06.03 22:46:19.
