data_PCOD9314842
_publ_section_title
;
Structure prediction by ZEFSAII (Michael W. Deem and Ramdas Pophale) SiO2 
 PCOD9314842
Probable space group: P 21 21 21
;
_chemical_formula_sum "Si O2"
_cell_formula_units_Z 32
_cell_length_a 14.292495
_cell_length_b 9.966462
_cell_length_c 11.060727
_cell_angle_alpha 90.000000
_cell_angle_beta 90.000000
_cell_angle_gamma 90.000000
_cell_volume 1575.551986
_symmetry_space_group_name_H-M "P 21 21 21"
_symmetry_group_IT_number 19
_symmetry_cell_setting 'orthorhombic'
loop_
_space_group_symop_operation_xyz
x,y,z
1/2-x,-y,1/2+z
1/2+x,1/2-y,-z
-x,1/2+y,1/2-z
loop_
_atom_site_type_symbol
_atom_site_label
_atom_site_fract_x
_atom_site_fract_y
_atom_site_fract_z
Si Si1 0.925070 0.377706 0.807776
Si Si2 0.970959 0.255472 0.333427
Si Si3 0.125483 0.369327 0.683195
Si Si4 0.916570 0.119407 0.965569
Si Si5 0.567660 0.435653 0.858223
Si Si6 0.237099 0.029176 0.302321
Si Si7 0.396061 0.876587 0.017220
Si Si8 0.205539 0.717214 0.308721
O O1 0.839750 0.414163 0.719237
O O2 0.024137 0.382834 0.742366
O O3 0.913461 0.230406 0.862465
O O4 0.921644 0.484781 0.917531
O O5 0.975137 0.417114 0.326339
O O6 0.863880 0.217118 0.306947
O O7 0.029119 0.181927 0.228010
O O8 0.014887 0.195835 0.454960
O O9 0.128381 0.483586 0.582771
O O10 0.138520 0.225990 0.618749
O O11 0.206620 0.376384 0.782257
O O12 0.856297 0.170338 0.078797
O O13 0.023675 0.096391 0.011347
O O14 0.676487 0.447915 0.821933
O O15 0.179982 0.096921 0.412231
O O16 0.236649 0.870657 0.328489
#
# Coordination Sequence:
#
# PCOD9314842 Si02
#       8
#     4   4   4   4   4   4   4   4
#     4  12  26  42  65  97 131 171 219 260 324 392
#     4   9  19  37  65  94 123 166 215 261 311 377
#     4  12  26  42  64  96 136 163 208 273 328 377
#     4  11  24  43  64  96 136 169 208 275 330 365
#     4   9  19  38  65  94 125 162 217 263 308 376
#     4  10  22  42  70  95 120 176 231 253 305 404
#     4  11  22  43  68  92 130 174 211 265 324 376
#     4  10  22  43  67  94 129 169 223 264 312 391
#
# _framework density 20.310341999999999
#
# number of rings (size 3 to 8) (size 9 to 14) (size 15 to 20)
#    0.000    1.500    3.750    0.750    1.750    5.000 
#    2.250    0.000    0.000    0.000    0.000    0.000 
#    0.000    0.000    0.000    0.000    0.000    0.000 
#
# Total GULP energy -178704.123626 kJ/mol
# GULP energy per Si atom -5584.503863 kJ/mol
# Density = 2.026411 g / cm^3
# Si number density = 20.310342 Si / 1000 Ang^3
#
#
#
# Elastic Constant Matrix: (Units=GPa)
#
#
# Indices 1 2 3 4 5 6 
#
# 1 91.0907 5.3456 43.3194 0.0000 0.0000 0.0000
# 2 5.3456 45.3245 7.2278 0.0000 0.0000 0.0000
# 3 43.3194 7.2278 55.3391 0.0000 0.0000 0.0000
# 4 0.0000 0.0000 0.0000 38.9219 0.0000 0.0000
# 5 0.0000 0.0000 0.0000 0.0000 30.4253 0.0000
# 6 0.0000 0.0000 0.0000 0.0000 0.0000 24.8795
#
#
#
# Elastic Compliance Matrix: (Units=1/GPa)
#
#
# Indices 1 2 3 4 5 6 
#
# 1 0.017489 0.000123 -0.013707 0.000000 0.000000 0.000000
# 2 0.000123 0.022533 -0.003039 0.000000 0.000000 0.000000
# 3 -0.013707 -0.003039 0.029197 0.000000 0.000000 0.000000
# 4 0.000000 0.000000 0.000000 0.025692 0.000000 0.000000
# 5 0.000000 0.000000 0.000000 0.000000 0.032867 0.000000
# 6 0.000000 0.000000 0.000000 0.000000 0.000000 0.040194
#
#
# Mechanical properties :
#
#
# Convention : Reuss Voigt Hill
#
# Bulk Modulus (GPa) = 27.79824 33.72667 30.76245
# Shear Modulus (GPa) = 23.45106 27.90277 25.67691
#
# Velocity S-wave (km/s) = 3.40168 3.71053 3.55946
# Velocity P-wave (km/s) = 5.39861 5.91600 5.66322
#
# Compressibility (1/GPa) = 0.03597350
#
# Stress axis : x y z
#
# Youngs Moduli (GPa) = 57.17819 44.37881 34.25021
#
# Poissons Ratio (x) = -0.00546 0.46945
# Poissons Ratio (y) = -0.00704 0.10410
# Poissons Ratio (z) = 0.78372 0.13489
#
# Static dielectric constant tensor:
#      x y z
#    x 1.727750 0.000000 0.000000 
#    y 0.000000 1.693870 0.000000 
#    z 0.000000 0.000000 1.821300 
# 
# From -- ./inp_files/5222.got.cif
#   From: 2010.05.17/outbox.cif.g08.bks.cpg/sg19_3_cif.got.tgz:5222.got - 2010.06.03 22:46:19.
