data_PCOD9314256
_publ_section_title
;
Structure prediction by ZEFSAII (Michael W. Deem and Ramdas Pophale) SiO2 
 PCOD9314256
Probable space group: P 21 21 21
;
_chemical_formula_sum "Si O2"
_cell_formula_units_Z 32
_cell_length_a 13.359266
_cell_length_b 8.871536
_cell_length_c 11.310668
_cell_angle_alpha 90.000000
_cell_angle_beta 90.000000
_cell_angle_gamma 90.000000
_cell_volume 1340.508806
_symmetry_space_group_name_H-M "P 21 21 21"
_symmetry_group_IT_number 19
_symmetry_cell_setting 'orthorhombic'
loop_
_space_group_symop_operation_xyz
x,y,z
1/2-x,-y,1/2+z
1/2+x,1/2-y,-z
-x,1/2+y,1/2-z
loop_
_atom_site_type_symbol
_atom_site_label
_atom_site_fract_x
_atom_site_fract_y
_atom_site_fract_z
Si Si1 0.926321 0.498007 0.745832
Si Si2 0.581627 0.725702 0.642151
Si Si3 0.912823 0.931357 0.206055
Si Si4 0.694641 0.263521 0.120594
Si Si5 0.416521 0.312649 0.332512
Si Si6 0.706350 0.020016 0.299951
Si Si7 0.783147 0.757416 0.019786
Si Si8 0.689763 0.588249 0.445431
O O1 0.893640 0.628964 0.658920
O O2 0.967354 0.350725 0.683259
O O3 0.826511 0.435412 0.808213
O O4 0.992631 0.571868 0.848478
O O5 0.563910 0.905338 0.647495
O O6 0.505029 0.638587 0.724204
O O7 0.697501 0.696491 0.682095
O O8 0.592096 0.659369 0.510282
O O9 0.820220 0.966302 0.293290
O O10 0.866970 0.814713 0.111697
O O11 0.681262 0.098962 0.172656
O O12 0.722540 0.297656 0.985693
O O13 0.368845 0.379573 0.209432
O O14 0.326627 0.293396 0.425086
O O15 0.698624 0.141370 0.403203
O O16 0.788635 0.578759 0.996861
#
# Coordination Sequence:
#
# PCOD9314256 Si02
#       8
#     4   4   4   4   4   4   4   4
#     4  12  23  42  65  94 131 173 212 271 323 392
#     4   9  20  37  61  90 121 161 207 268 317 371
#     4  10  21  38  63  89 130 156 213 268 314 386
#     4   9  20  41  61  92 123 162 212 268 316 376
#     4  11  26  41  65  97 134 170 220 270 323 393
#     4  10  22  41  66  89 130 166 212 266 324 385
#     4  11  22  41  65  94 122 177 215 261 333 384
#     4  10  22  39  68  87 129 165 215 260 328 381
#
# _framework density 23.871534
#
# number of rings (size 3 to 8) (size 9 to 14) (size 15 to 20)
#    0.750    1.000    2.500    1.500    3.500    0.000 
#    0.000    1.250    2.750    0.000    0.000    0.000 
#    0.000    0.000    0.000    0.000    0.000    0.000 
#
# Total GULP energy -178553.747173 kJ/mol
# GULP energy per Si atom -5579.804599 kJ/mol
# Density = 2.381720 g / cm^3
# Si number density = 23.871534 Si / 1000 Ang^3
#
#
#
# Elastic Constant Matrix: (Units=GPa)
#
#
# Indices 1 2 3 4 5 6 
#
# 1 50.8594 16.6156 -4.4494 0.0000 0.0000 0.0000
# 2 16.6156 126.5053 8.3752 0.0000 0.0000 0.0000
# 3 -4.4494 8.3752 35.9360 0.0000 0.0000 0.0000
# 4 0.0000 0.0000 0.0000 37.3826 0.0000 0.0000
# 5 0.0000 0.0000 0.0000 0.0000 21.4977 0.0000
# 6 0.0000 0.0000 0.0000 0.0000 0.0000 39.3501
#
#
#
# Elastic Compliance Matrix: (Units=1/GPa)
#
#
# Indices 1 2 3 4 5 6 
#
# 1 0.020918 -0.002965 0.003281 0.000000 0.000000 0.000000
# 2 -0.002965 0.008449 -0.002336 0.000000 0.000000 0.000000
# 3 0.003281 -0.002336 0.028778 0.000000 0.000000 0.000000
# 4 0.000000 0.000000 0.000000 0.026750 0.000000 0.000000
# 5 0.000000 0.000000 0.000000 0.000000 0.046517 0.000000
# 6 0.000000 0.000000 0.000000 0.000000 0.000000 0.025413
#
#
# Mechanical properties :
#
#
# Convention : Reuss Voigt Hill
#
# Bulk Modulus (GPa) = 18.48270 28.26481 23.37376
# Shear Modulus (GPa) = 27.94874 32.49670 30.22272
#
# Velocity S-wave (km/s) = 3.42540 3.69360 3.56203
# Velocity P-wave (km/s) = 4.83776 5.48237 5.17012
#
# Compressibility (1/GPa) = 0.05410464
#
# Stress axis : x y z
#
# Youngs Moduli (GPa) = 47.80663 118.35934 34.74884
#
# Poissons Ratio (x) = 0.35089 -0.11401
# Poissons Ratio (y) = 0.14173 0.08118
# Poissons Ratio (z) = -0.15685 0.27650
#
# Static dielectric constant tensor:
#      x y z
#    x 1.977920 0.000000 0.000000 
#    y 0.000000 1.937830 0.000000 
#    z 0.000000 0.000000 1.956830 
# 
# From -- ./inp_files/5228.got.cif
#   From: 2010.05.17/outbox.cif.g08.bks.cpg/sg19_3_cif.got.tgz:5228.got - 2010.06.03 22:46:19.
