data_PCOD9314656
_publ_section_title
;
Structure prediction by ZEFSAII (Michael W. Deem and Ramdas Pophale) SiO2 
 PCOD9314656
Probable space group: P 21 21 21
;
_chemical_formula_sum "Si O2"
_cell_formula_units_Z 28
_cell_length_a 5.131521
_cell_length_b 13.187115
_cell_length_c 19.275513
_cell_angle_alpha 90.000000
_cell_angle_beta 90.000000
_cell_angle_gamma 90.000000
_cell_volume 1304.373147
_symmetry_space_group_name_H-M "P 21 21 21"
_symmetry_group_IT_number 19
_symmetry_cell_setting 'orthorhombic'
loop_
_space_group_symop_operation_xyz
x,y,z
1/2-x,-y,1/2+z
1/2+x,1/2-y,-z
-x,1/2+y,1/2-z
loop_
_atom_site_type_symbol
_atom_site_label
_atom_site_fract_x
_atom_site_fract_y
_atom_site_fract_z
Si Si1 0.668423 0.845578 0.855710
Si Si2 0.942753 0.488424 0.576810
Si Si3 0.689897 0.304172 0.529754
Si Si4 0.391799 0.284444 0.038971
Si Si5 0.686581 0.462236 0.729228
Si Si6 0.702670 0.323738 0.259877
Si Si7 0.721884 0.258916 0.808511
O O1 0.408023 0.799917 0.890430
O O2 0.815652 0.749442 0.825854
O O3 0.813339 0.913798 0.911452
O O4 0.597435 0.922949 0.794149
O O5 0.025358 0.598779 0.552199
O O6 0.762887 0.423558 0.524037
O O7 0.812871 0.490109 0.653970
O O8 0.443825 0.262221 0.487098
O O9 0.275484 0.239517 0.110188
O O10 0.653847 0.227161 0.014979
O O11 0.706970 0.562617 0.774135
O O12 0.789854 0.365156 0.770964
O O13 0.425164 0.321548 0.222788
O O14 0.929537 0.275151 0.211156
#
# Coordination Sequence:
#
# PCOD9314656 Si02
#       7
#     4   4   4   4   4   4   4
#     4  10  22  40  69 100 130 177 225 272 350 415
#     4  11  22  43  74  94 131 182 230 275 348 411
#     4  11  23  41  66  96 134 175 223 277 328 411
#     4  12  28  46  69  99 140 193 234 279 328 421
#     4  10  22  39  70 102 131 172 217 289 352 393
#     4  11  22  40  70 102 133 166 217 291 345 400
#     4  11  23  43  68 101 135 171 232 277 337 411
#
# _framework density 21.466252000000001
#
# number of rings (size 3 to 8) (size 9 to 14) (size 15 to 20)
#    0.000    1.143    4.286    1.714    4.000    0.000 
#    2.571    1.429    6.286    0.000    0.000    0.000 
#    0.000    0.000    0.000    0.000    0.000    0.000 
#
# Total GULP energy -156209.417858 kJ/mol
# GULP energy per Si atom -5578.907781 kJ/mol
# Density = 2.141739 g / cm^3
# Si number density = 21.466252 Si / 1000 Ang^3
#
#
#
# Elastic Constant Matrix: (Units=GPa)
#
#
# Indices 1 2 3 4 5 6 
#
# 1 80.7516 0.1396 7.5316 0.0000 0.0000 0.0000
# 2 0.1396 100.3670 20.9322 0.0000 0.0000 0.0000
# 3 7.5316 20.9322 37.3160 0.0000 0.0000 0.0000
# 4 0.0000 0.0000 0.0000 37.1358 0.0000 0.0000
# 5 0.0000 0.0000 0.0000 0.0000 34.6174 0.0000
# 6 0.0000 0.0000 0.0000 0.0000 0.0000 27.9621
#
#
#
# Elastic Compliance Matrix: (Units=1/GPa)
#
#
# Indices 1 2 3 4 5 6 
#
# 1 0.012651 0.000583 -0.002881 0.000000 0.000000 0.000000
# 2 0.000583 0.011310 -0.006462 0.000000 0.000000 0.000000
# 3 -0.002881 -0.006462 0.031004 0.000000 0.000000 0.000000
# 4 0.000000 0.000000 0.000000 0.026928 0.000000 0.000000
# 5 0.000000 0.000000 0.000000 0.000000 0.028887 0.000000
# 6 0.000000 0.000000 0.000000 0.000000 0.000000 0.035763
#
#
# Mechanical properties :
#
#
# Convention : Reuss Voigt Hill
#
# Bulk Modulus (GPa) = 26.70444 30.62682 28.66563
# Shear Modulus (GPa) = 28.32128 32.59845 30.45986
#
# Velocity S-wave (km/s) = 3.63621 3.90114 3.77100
# Velocity P-wave (km/s) = 5.48604 5.88135 5.68713
#
# Compressibility (1/GPa) = 0.03744696
#
# Stress axis : x y z
#
# Youngs Moduli (GPa) = 79.04315 88.41460 32.25347
#
# Poissons Ratio (x) = -0.05156 0.09291
# Poissons Ratio (y) = -0.04609 0.20843
# Poissons Ratio (z) = 0.22769 0.57135
#
# Static dielectric constant tensor:
#      x y z
#    x 1.856700 0.000000 0.000000 
#    y 0.000000 1.778890 0.000000 
#    z 0.000000 0.000000 1.832830 
# 
# From -- ./inp_files/4524.got.cif
#   From: 2010.05.17/outbox.cif.g08.bks.cpg/sg19_3_cif.got.tgz:4524.got - 2010.06.03 22:46:19.
