data_PCOD9314762
_publ_section_title
;
Structure prediction by ZEFSAII (Michael W. Deem and Ramdas Pophale) SiO2 
 PCOD9314762
Probable space group: P 21 21 21
;
_chemical_formula_sum "Si O2"
_cell_formula_units_Z 32
_cell_length_a 14.177593
_cell_length_b 5.500817
_cell_length_c 17.290828
_cell_angle_alpha 90.000000
_cell_angle_beta 90.000000
_cell_angle_gamma 90.000000
_cell_volume 1348.483052
_symmetry_space_group_name_H-M "P 21 21 21"
_symmetry_group_IT_number 19
_symmetry_cell_setting 'orthorhombic'
loop_
_space_group_symop_operation_xyz
x,y,z
1/2-x,-y,1/2+z
1/2+x,1/2-y,-z
-x,1/2+y,1/2-z
loop_
_atom_site_type_symbol
_atom_site_label
_atom_site_fract_x
_atom_site_fract_y
_atom_site_fract_z
Si Si1 0.617243 0.377104 0.682135
Si Si2 0.808439 0.194465 0.966937
Si Si3 0.429676 0.091767 0.661278
Si Si4 0.376544 0.382696 0.517304
Si Si5 0.022573 0.773296 0.442717
Si Si6 0.889752 0.252096 0.799067
Si Si7 0.613450 0.246768 0.205663
Si Si8 0.281443 0.032721 0.416320
O O1 0.535430 0.173646 0.687855
O O2 0.627593 0.502054 0.765271
O O3 0.575913 0.580752 0.624430
O O4 0.714713 0.310784 0.640724
O O5 0.831499 0.229937 0.877892
O O6 0.722061 0.019665 0.982964
O O7 0.778735 0.444055 0.009796
O O8 0.903206 0.111504 0.011276
O O9 0.388158 0.297796 0.606504
O O10 0.443003 0.875753 0.600884
O O11 0.468559 0.542949 0.501582
O O12 0.368199 0.177408 0.452478
O O13 0.871219 0.513642 0.759447
O O14 0.002414 0.246038 0.815276
O O15 0.868692 0.012423 0.746760
O O16 0.680203 0.304735 0.132730
#
# Coordination Sequence:
#
# PCOD9314762 Si02
#       8
#     4   4   4   4   4   4   4   4
#     4  10  22  41  68  99 142 181 237 288 362 440
#     4  11  26  44  71 105 143 188 243 303 370 447
#     4  11  21  42  68 102 139 187 232 293 365 445
#     4  11  26  41  67 107 139 187 240 299 376 440
#     4  10  23  44  68 100 143 188 233 298 361 439
#     4  10  25  47  75 101 143 190 249 303 372 433
#     4  10  25  49  73 106 138 196 245 309 366 444
#     4  11  26  44  68 104 143 185 245 301 370 438
#
# _framework density 23.730370000000001
#
# number of rings (size 3 to 8) (size 9 to 14) (size 15 to 20)
#    0.000    1.500    1.250    1.500    8.750    3.000 
#    0.000    0.000    0.000    0.000    0.000    0.000 
#    0.000    0.000    0.000    0.000    0.000    0.000 
#
# Total GULP energy -179009.858793 kJ/mol
# GULP energy per Si atom -5594.058087 kJ/mol
# Density = 2.367636 g / cm^3
# Si number density = 23.730370 Si / 1000 Ang^3
#
#
#
# Elastic Constant Matrix: (Units=GPa)
#
#
# Indices 1 2 3 4 5 6 
#
# 1 71.2976 14.9260 51.9488 0.0000 0.0000 0.0000
# 2 14.9260 70.0670 31.6063 0.0000 0.0000 0.0000
# 3 51.9488 31.6063 106.9322 0.0000 0.0000 0.0000
# 4 0.0000 0.0000 0.0000 29.9977 0.0000 0.0000
# 5 0.0000 0.0000 0.0000 0.0000 39.6144 0.0000
# 6 0.0000 0.0000 0.0000 0.0000 0.0000 33.6218
#
#
#
# Elastic Compliance Matrix: (Units=1/GPa)
#
#
# Indices 1 2 3 4 5 6 
#
# 1 0.021712 0.000153 -0.010593 0.000000 0.000000 0.000000
# 2 0.000153 0.016469 -0.004942 0.000000 0.000000 0.000000
# 3 -0.010593 -0.004942 0.015959 0.000000 0.000000 0.000000
# 4 0.000000 0.000000 0.000000 0.033336 0.000000 0.000000
# 5 0.000000 0.000000 0.000000 0.000000 0.025243 0.000000
# 6 0.000000 0.000000 0.000000 0.000000 0.000000 0.029743
#
#
# Mechanical properties :
#
#
# Convention : Reuss Voigt Hill
#
# Bulk Modulus (GPa) = 42.78016 49.47321 46.12669
# Shear Modulus (GPa) = 27.62163 30.63450 29.12806
#
# Velocity S-wave (km/s) = 3.41541 3.59686 3.50731
# Velocity P-wave (km/s) = 5.79829 6.17602 5.99013
#
# Compressibility (1/GPa) = 0.02337532
#
# Stress axis : x y z
#
# Youngs Moduli (GPa) = 46.05737 60.72099 62.66136
#
# Poissons Ratio (x) = -0.00931 0.66379
# Poissons Ratio (y) = -0.00706 0.30968
# Poissons Ratio (z) = 0.48790 0.30009
#
# Static dielectric constant tensor:
#      x y z
#    x 1.924920 0.000000 0.000000 
#    y 0.000000 1.946660 0.000000 
#    z 0.000000 0.000000 1.862730 
# 
# From -- ./inp_files/6492.got.cif
#   From: 2010.05.17/outbox.cif.g08.bks.cpg/sg19_4_cif.got.tgz:6492.got - 2010.06.03 22:46:19.
