data_PCOD9314484
_publ_section_title
;
Structure prediction by ZEFSAII (Michael W. Deem and Ramdas Pophale) SiO2 
 PCOD9314484
Probable space group: P 21 21 21
;
_chemical_formula_sum "Si O2"
_cell_formula_units_Z 28
_cell_length_a 9.224050
_cell_length_b 5.542090
_cell_length_c 21.970804
_cell_angle_alpha 90.000000
_cell_angle_beta 90.000000
_cell_angle_gamma 90.000000
_cell_volume 1123.158821
_symmetry_space_group_name_H-M "P 21 21 21"
_symmetry_group_IT_number 19
_symmetry_cell_setting 'orthorhombic'
loop_
_space_group_symop_operation_xyz
x,y,z
1/2-x,-y,1/2+z
1/2+x,1/2-y,-z
-x,1/2+y,1/2-z
loop_
_atom_site_type_symbol
_atom_site_label
_atom_site_fract_x
_atom_site_fract_y
_atom_site_fract_z
Si Si1 0.278098 0.782133 0.719450
Si Si2 0.763174 0.403902 0.446560
Si Si3 0.253886 0.600556 0.588601
Si Si4 0.491123 0.639025 0.407969
Si Si5 0.814529 0.572636 0.678355
Si Si6 0.754522 0.798504 0.075509
Si Si7 0.422566 0.457432 0.824079
O O1 0.232303 0.630779 0.660886
O O2 0.342672 0.608305 0.771265
O O3 0.168385 0.954026 0.755881
O O4 0.410966 0.940472 0.693524
O O5 0.836464 0.663141 0.436852
O O6 0.617599 0.439577 0.405908
O O7 0.717416 0.358967 0.516150
O O8 0.826751 0.150524 0.425806
O O9 0.088591 0.643712 0.563142
O O10 0.424505 0.723435 0.344064
O O11 0.355063 0.517429 0.440973
O O12 0.820744 0.371094 0.625928
O O13 0.654846 0.695731 0.675396
O O14 0.886839 0.915536 0.112100
#
# Coordination Sequence:
#
# PCOD9314484 Si02
#       7
#     4   4   4   4   4   4   4
#     4  11  22  42  66  97 139 171 235 284 353 408
#     4  10  24  45  66 101 140 178 229 287 334 425
#     4  10  25  44  68  98 140 173 231 287 345 409
#     4   9  22  42  67  92 137 169 237 269 344 412
#     4  10  21  42  67  94 134 178 222 285 345 410
#     4  10  22  42  68  98 134 185 223 281 356 401
#     4  10  22  37  68  96 132 178 227 283 337 427
#
# _framework density 24.929690000000001
#
# number of rings (size 3 to 8) (size 9 to 14) (size 15 to 20)
#    0.857    1.143    1.429    0.857    6.000    1.143 
#   12.857    0.000    0.000    0.000    0.000    0.000 
#    0.000    0.000    0.000    0.000    0.000    0.000 
#
# Total GULP energy -156235.646848 kJ/mol
# GULP energy per Si atom -5579.844530 kJ/mol
# Density = 2.487295 g / cm^3
# Si number density = 24.929690 Si / 1000 Ang^3
#
#
#
# Elastic Constant Matrix: (Units=GPa)
#
#
# Indices 1 2 3 4 5 6 
#
# 1 50.5806 11.3180 1.8478 0.0000 0.0000 0.0000
# 2 11.3180 122.0054 39.5001 0.0000 0.0000 0.0000
# 3 1.8478 39.5001 115.5746 0.0000 0.0000 0.0000
# 4 0.0000 0.0000 0.0000 40.0875 0.0000 0.0000
# 5 0.0000 0.0000 0.0000 0.0000 11.4031 0.0000
# 6 0.0000 0.0000 0.0000 0.0000 0.0000 26.5821
#
#
#
# Elastic Compliance Matrix: (Units=1/GPa)
#
#
# Indices 1 2 3 4 5 6 
#
# 1 0.020203 -0.001990 0.000357 0.000000 0.000000 0.000000
# 2 -0.001990 0.009412 -0.003185 0.000000 0.000000 0.000000
# 3 0.000357 -0.003185 0.009735 0.000000 0.000000 0.000000
# 4 0.000000 0.000000 0.000000 0.024945 0.000000 0.000000
# 5 0.000000 0.000000 0.000000 0.000000 0.087695 0.000000
# 6 0.000000 0.000000 0.000000 0.000000 0.000000 0.037619
#
#
# Mechanical properties :
#
#
# Convention : Reuss Voigt Hill
#
# Bulk Modulus (GPa) = 33.65345 43.72138 38.68742
# Shear Modulus (GPa) = 23.90629 31.31420 27.61025
#
# Velocity S-wave (km/s) = 3.10005 3.54800 3.33156
# Velocity P-wave (km/s) = 5.13248 5.86177 5.50921
#
# Compressibility (1/GPa) = 0.02971463
#
# Stress axis : x y z
#
# Youngs Moduli (GPa) = 49.49856 106.24635 102.71953
#
# Poissons Ratio (x) = 0.21140 -0.03667
# Poissons Ratio (y) = 0.09849 0.32716
# Poissons Ratio (z) = -0.01767 0.33839
#
# Static dielectric constant tensor:
#      x y z
#    x 1.990880 0.000000 0.000000 
#    y 0.000000 2.022510 0.000000 
#    z 0.000000 0.000000 1.965370 
# 
# From -- ./inp_files/6879.got.cif
#   From: 2010.05.17/outbox.cif.g08.bks.cpg/sg19_4_cif.got.tgz:6879.got - 2010.06.03 22:46:19.
