data_PCOD9314640
_publ_section_title
;
Structure prediction by ZEFSAII (Michael W. Deem and Ramdas Pophale) SiO2 
 PCOD9314640
Probable space group: P 21 21 21
;
_chemical_formula_sum "Si O2"
_cell_formula_units_Z 28
_cell_length_a 9.670008
_cell_length_b 9.511081
_cell_length_c 16.216768
_cell_angle_alpha 90.000000
_cell_angle_beta 90.000000
_cell_angle_gamma 90.000000
_cell_volume 1491.492306
_symmetry_space_group_name_H-M "P 21 21 21"
_symmetry_group_IT_number 19
_symmetry_cell_setting 'orthorhombic'
loop_
_space_group_symop_operation_xyz
x,y,z
1/2-x,-y,1/2+z
1/2+x,1/2-y,-z
-x,1/2+y,1/2-z
loop_
_atom_site_type_symbol
_atom_site_label
_atom_site_fract_x
_atom_site_fract_y
_atom_site_fract_z
Si Si1 0.663896 0.677594 0.724333
Si Si2 0.676678 0.465778 0.575925
Si Si3 0.304375 0.451823 0.879363
Si Si4 0.979232 0.905698 0.559917
Si Si5 0.278529 0.072858 0.175378
Si Si6 0.921056 0.599501 0.482451
Si Si7 0.872269 0.766216 0.195397
O O1 0.632542 0.563271 0.653246
O O2 0.721135 0.807780 0.671354
O O3 0.753403 0.585092 0.789104
O O4 0.527891 0.736751 0.769730
O O5 0.577085 0.510894 0.502477
O O6 0.833752 0.503103 0.547009
O O7 0.648807 0.309150 0.607337
O O8 0.430919 0.442800 0.944099
O O9 0.337490 0.571619 0.814129
O O10 0.164237 0.483363 0.926934
O O11 0.067202 0.899776 0.644051
O O12 0.944644 0.751809 0.523415
O O13 0.178009 0.102046 0.097683
O O14 0.229156 0.182682 0.244041
#
# Coordination Sequence:
#
# PCOD9314640 Si02
#       7
#     4   4   4   4   4   4   4
#     4  11  19  40  65  90 117 168 212 251 306 376
#     4  10  22  39  65  88 126 161 205 265 306 365
#     4  12  22  36  66  90 120 162 216 250 306 392
#     4  11  22  39  63  92 125 162 213 252 320 368
#     4  10  22  39  65  88 126 161 205 265 306 365
#     4  11  19  40  65  90 117 168 212 251 306 376
#     4  11  22  39  63  92 125 162 213 252 320 368
#
# _framework density 18.773145
#
# number of rings (size 3 to 8) (size 9 to 14) (size 15 to 20)
#    0.000    1.143    5.714    1.714    0.000    2.286 
#    0.000    0.000    0.000    0.000    0.000    0.000 
#    0.000    0.000    0.000    0.000    0.000    0.000 
#
# Total GULP energy -156092.098914 kJ/mol
# GULP energy per Si atom -5574.717818 kJ/mol
# Density = 1.873042 g / cm^3
# Si number density = 18.773145 Si / 1000 Ang^3
#
#
#
# Elastic Constant Matrix: (Units=GPa)
#
#
# Indices 1 2 3 4 5 6 
#
# 1 112.1552 -3.4828 34.0956 0.0000 0.0000 0.0000
# 2 -3.4828 51.4537 14.2504 0.0000 0.0000 0.0000
# 3 34.0956 14.2504 66.1985 0.0000 0.0000 0.0000
# 4 0.0000 0.0000 0.0000 35.7496 0.0000 0.0000
# 5 0.0000 0.0000 0.0000 0.0000 24.3584 0.0000
# 6 0.0000 0.0000 0.0000 0.0000 0.0000 3.2074
#
#
#
# Elastic Compliance Matrix: (Units=1/GPa)
#
#
# Indices 1 2 3 4 5 6 
#
# 1 0.010849 0.002427 -0.006110 0.000000 0.000000 0.000000
# 2 0.002427 0.021210 -0.005816 0.000000 0.000000 0.000000
# 3 -0.006110 -0.005816 0.019505 0.000000 0.000000 0.000000
# 4 0.000000 0.000000 0.000000 0.027972 0.000000 0.000000
# 5 0.000000 0.000000 0.000000 0.000000 0.041054 0.000000
# 6 0.000000 0.000000 0.000000 0.000000 0.000000 0.311777
#
#
# Mechanical properties :
#
#
# Convention : Reuss Voigt Hill
#
# Bulk Modulus (GPa) = 30.70728 35.50376 33.10552
# Shear Modulus (GPa) = 10.81735 24.99270 17.90502
#
# Velocity S-wave (km/s) = 2.40305 3.65266 3.09165
# Velocity P-wave (km/s) = 4.90837 6.06154 5.51518
#
# Compressibility (1/GPa) = 0.03256557
#
# Stress axis : x y z
#
# Youngs Moduli (GPa) = 92.17357 47.14786 51.26867
#
# Poissons Ratio (x) = -0.11441 0.31326
# Poissons Ratio (y) = -0.22367 0.29816
# Poissons Ratio (z) = 0.56320 0.27420
#
# Static dielectric constant tensor:
#      x y z
#    x 1.676080 0.000000 0.000000 
#    y 0.000000 1.650200 0.000000 
#    z 0.000000 0.000000 1.691340 
# 
# From -- ./inp_files/4138.got.cif
#   From: 2010.05.17/outbox.cif.g08.bks.cpg/sg19_3_cif.got.tgz:4138.got - 2010.06.03 22:46:19.
