data_PCOD9314978
_publ_section_title
;
Structure prediction by ZEFSAII (Michael W. Deem and Ramdas Pophale) SiO2 
 PCOD9314978
Probable space group: P 21 21 21
;
_chemical_formula_sum "Si O2"
_cell_formula_units_Z 28
_cell_length_a 9.818709
_cell_length_b 10.091521
_cell_length_c 11.685796
_cell_angle_alpha 90.000000
_cell_angle_beta 90.000000
_cell_angle_gamma 90.000000
_cell_volume 1157.895371
_symmetry_space_group_name_H-M "P 21 21 21"
_symmetry_group_IT_number 19
_symmetry_cell_setting 'orthorhombic'
loop_
_space_group_symop_operation_xyz
x,y,z
1/2-x,-y,1/2+z
1/2+x,1/2-y,-z
-x,1/2+y,1/2-z
loop_
_atom_site_type_symbol
_atom_site_label
_atom_site_fract_x
_atom_site_fract_y
_atom_site_fract_z
Si Si1 0.033372 0.434138 0.006446
Si Si2 0.445939 0.840528 0.383230
Si Si3 0.846596 0.364811 0.206246
Si Si4 0.913265 0.422960 0.446140
Si Si5 0.365818 0.388586 0.321784
Si Si6 0.297463 0.401524 0.690031
Si Si7 0.665513 0.255955 0.507704
O O1 0.079125 0.297631 0.947934
O O2 0.024561 0.549330 0.910638
O O3 0.129798 0.498291 0.103187
O O4 0.905002 0.396303 0.082709
O O5 0.314480 0.877606 0.308255
O O6 0.567091 0.827419 0.291089
O O7 0.467347 0.957364 0.475940
O O8 0.906223 0.451922 0.310311
O O9 0.879027 0.214216 0.245518
O O10 0.758055 0.386505 0.482025
O O11 0.011642 0.292970 0.462266
O O12 0.280403 0.514781 0.282776
O O13 0.257754 0.299144 0.387627
O O14 0.192406 0.324536 0.608785
#
# Coordination Sequence:
#
# PCOD9314978 Si02
#       7
#     4   4   4   4   4   4   4
#     4  11  27  45  77 108 145 197 250 311 389 445
#     4  12  28  44  78 112 149 193 258 326 375 458
#     4  11  27  47  74 107 156 189 262 311 376 459
#     4  11  26  49  75 111 153 196 259 315 386 452
#     4  11  24  44  76 102 153 189 256 301 396 445
#     4  10  22  48  72 101 145 197 245 306 379 456
#     4  10  24  43  76 105 145 209 246 308 381 459
#
# _framework density 24.181806000000002
#
# number of rings (size 3 to 8) (size 9 to 14) (size 15 to 20)
#    0.000    1.143    2.857    0.857   14.000    2.286 
#    2.571    0.000    0.000    0.000    0.000    0.000 
#    0.000    0.000    0.000    0.000    0.000    0.000 
#
# Total GULP energy -156385.804126 kJ/mol
# GULP energy per Si atom -5585.207290 kJ/mol
# Density = 2.412677 g / cm^3
# Si number density = 24.181806 Si / 1000 Ang^3
#
#
#
# Elastic Constant Matrix: (Units=GPa)
#
#
# Indices 1 2 3 4 5 6 
#
# 1 66.6550 5.1748 12.7014 0.0000 0.0000 0.0000
# 2 5.1748 50.3987 32.9821 0.0000 0.0000 0.0000
# 3 12.7014 32.9821 105.8032 0.0000 0.0000 0.0000
# 4 0.0000 0.0000 0.0000 39.9334 0.0000 0.0000
# 5 0.0000 0.0000 0.0000 0.0000 15.3094 0.0000
# 6 0.0000 0.0000 0.0000 0.0000 0.0000 23.3675
#
#
#
# Elastic Compliance Matrix: (Units=1/GPa)
#
#
# Indices 1 2 3 4 5 6 
#
# 1 0.015363 -0.000465 -0.001699 0.000000 0.000000 0.000000
# 2 -0.000465 0.024941 -0.007719 0.000000 0.000000 0.000000
# 3 -0.001699 -0.007719 0.012062 0.000000 0.000000 0.000000
# 4 0.000000 0.000000 0.000000 0.025042 0.000000 0.000000
# 5 0.000000 0.000000 0.000000 0.000000 0.065319 0.000000
# 6 0.000000 0.000000 0.000000 0.000000 0.000000 0.042794
#
#
# Mechanical properties :
#
#
# Convention : Reuss Voigt Hill
#
# Bulk Modulus (GPa) = 30.67655 36.06371 33.37013
# Shear Modulus (GPa) = 23.13166 27.18864 25.16015
#
# Velocity S-wave (km/s) = 3.09621 3.35676 3.22911
# Velocity P-wave (km/s) = 5.04929 5.47446 5.26617
#
# Compressibility (1/GPa) = 0.03259819
#
# Stress axis : x y z
#
# Youngs Moduli (GPa) = 65.09347 40.09449 82.90669
#
# Poissons Ratio (x) = 0.01866 0.14087
# Poissons Ratio (y) = 0.03029 0.63996
# Poissons Ratio (z) = 0.11060 0.30949
#
# Static dielectric constant tensor:
#      x y z
#    x 1.950420 0.000000 0.000000 
#    y 0.000000 2.026570 0.000000 
#    z 0.000000 0.000000 1.891280 
# 
# From -- ./inp_files/4599.got.cif
#   From: 2010.05.17/outbox.cif.g08.bks.cpg/sg19_3_cif.got.tgz:4599.got - 2010.06.03 22:46:19.
