data_PCOD9314496
_publ_section_title
;
Structure prediction by ZEFSAII (Michael W. Deem and Ramdas Pophale) SiO2 
 PCOD9314496
Probable space group: P 21 21 21
;
_chemical_formula_sum "Si O2"
_cell_formula_units_Z 28
_cell_length_a 17.604388
_cell_length_b 7.408812
_cell_length_c 8.656657
_cell_angle_alpha 90.000000
_cell_angle_beta 90.000000
_cell_angle_gamma 90.000000
_cell_volume 1129.067006
_symmetry_space_group_name_H-M "P 21 21 21"
_symmetry_group_IT_number 19
_symmetry_cell_setting 'orthorhombic'
loop_
_space_group_symop_operation_xyz
x,y,z
1/2-x,-y,1/2+z
1/2+x,1/2-y,-z
-x,1/2+y,1/2-z
loop_
_atom_site_type_symbol
_atom_site_label
_atom_site_fract_x
_atom_site_fract_y
_atom_site_fract_z
Si Si1 0.727421 0.421919 0.420769
Si Si2 0.663915 0.869590 0.813836
Si Si3 0.521225 0.725497 0.653473
Si Si4 0.638777 0.452637 0.121677
Si Si5 0.376995 0.721898 0.872608
Si Si6 0.575196 0.045990 0.075307
Si Si7 0.523245 0.036086 0.403480
O O1 0.759563 0.240427 0.338455
O O2 0.675673 0.503763 0.286388
O O3 0.800097 0.529481 0.484401
O O4 0.681902 0.373579 0.577363
O O5 0.597531 0.734082 0.752698
O O6 0.664423 0.044161 0.700245
O O7 0.639220 0.943273 0.980967
O O8 0.445693 0.759646 0.754669
O O9 0.495651 0.561246 0.544576
O O10 0.532103 0.887021 0.534814
O O11 0.605028 0.249219 0.112213
O O12 0.565529 0.579339 0.097829
O O13 0.418960 0.683704 0.035142
O O14 0.547380 0.968889 0.236295
#
# Coordination Sequence:
#
# PCOD9314496 Si02
#       7
#     4   4   4   4   4   4   4
#     4  12  27  43  68 100 148 185 221 287 358 427
#     4  10  24  43  72 100 135 188 231 285 348 424
#     4   9  21  39  67  99 132 172 227 289 340 400
#     4  11  27  43  65 103 144 181 230 285 359 417
#     4  10  22  44  71  99 138 180 235 290 346 411
#     4  10  22  44  72 101 136 179 245 292 333 422
#     4  10  21  42  69  96 129 181 235 286 332 405
#
# _framework density 24.799239
#
# number of rings (size 3 to 8) (size 9 to 14) (size 15 to 20)
#    0.000    1.714    1.429    0.857   10.000    4.571 
#    0.000    2.857    0.000    0.000    0.000    0.000 
#    0.000    0.000    0.000    0.000    0.000    0.000 
#
# Total GULP energy -156645.538663 kJ/mol
# GULP energy per Si atom -5594.483524 kJ/mol
# Density = 2.474280 g / cm^3
# Si number density = 24.799239 Si / 1000 Ang^3
#
#
#
# Elastic Constant Matrix: (Units=GPa)
#
#
# Indices 1 2 3 4 5 6 
#
# 1 70.6753 6.0914 31.6188 0.0000 0.0000 0.0000
# 2 6.0914 42.9918 8.1860 0.0000 0.0000 0.0000
# 3 31.6188 8.1860 147.1339 0.0000 0.0000 0.0000
# 4 0.0000 0.0000 0.0000 19.2340 0.0000 0.0000
# 5 0.0000 0.0000 0.0000 0.0000 40.2225 0.0000
# 6 0.0000 0.0000 0.0000 0.0000 0.0000 23.1216
#
#
#
# Elastic Compliance Matrix: (Units=1/GPa)
#
#
# Indices 1 2 3 4 5 6 
#
# 1 0.015763 -0.001605 -0.003298 0.000000 0.000000 0.000000
# 2 -0.001605 0.023673 -0.000972 0.000000 0.000000 0.000000
# 3 -0.003298 -0.000972 0.007559 0.000000 0.000000 0.000000
# 4 0.000000 0.000000 0.000000 0.051991 0.000000 0.000000
# 5 0.000000 0.000000 0.000000 0.000000 0.024862 0.000000
# 6 0.000000 0.000000 0.000000 0.000000 0.000000 0.043250
#
#
# Mechanical properties :
#
#
# Convention : Reuss Voigt Hill
#
# Bulk Modulus (GPa) = 28.37363 39.17706 33.77534
# Shear Modulus (GPa) = 26.23331 30.84259 28.53795
#
# Velocity S-wave (km/s) = 3.25595 3.53043 3.39596
# Velocity P-wave (km/s) = 5.05976 5.69654 5.38756
#
# Compressibility (1/GPa) = 0.03524399
#
# Stress axis : x y z
#
# Youngs Moduli (GPa) = 63.43919 42.24252 132.28601
#
# Poissons Ratio (x) = 0.06782 0.43630
# Poissons Ratio (y) = 0.10185 0.12859
# Poissons Ratio (z) = 0.20923 0.04106
#
# Static dielectric constant tensor:
#      x y z
#    x 2.030000 0.000000 0.000000 
#    y 0.000000 2.090310 0.000000 
#    z 0.000000 0.000000 1.930580 
# 
# From -- ./inp_files/4168.got.cif
#   From: 2010.05.17/outbox.cif.g08.bks.cpg/sg19_3_cif.got.tgz:4168.got - 2010.06.03 22:46:19.
