data_PCOD9314896
_publ_section_title
;
Structure prediction by ZEFSAII (Michael W. Deem and Ramdas Pophale) SiO2 
 PCOD9314896
Probable space group: P 21 21 21
;
_chemical_formula_sum "Si O2"
_cell_formula_units_Z 32
_cell_length_a 9.117401
_cell_length_b 16.147573
_cell_length_c 8.379275
_cell_angle_alpha 90.000000
_cell_angle_beta 90.000000
_cell_angle_gamma 90.000000
_cell_volume 1233.629530
_symmetry_space_group_name_H-M "P 21 21 21"
_symmetry_group_IT_number 19
_symmetry_cell_setting 'orthorhombic'
loop_
_space_group_symop_operation_xyz
x,y,z
1/2-x,-y,1/2+z
1/2+x,1/2-y,-z
-x,1/2+y,1/2-z
loop_
_atom_site_type_symbol
_atom_site_label
_atom_site_fract_x
_atom_site_fract_y
_atom_site_fract_z
Si Si1 0.988420 0.298600 0.382710
Si Si2 0.444316 0.770561 0.212020
Si Si3 0.769591 0.126202 0.712276
Si Si4 0.979919 0.377146 0.904045
Si Si5 0.687278 0.386049 0.059016
Si Si6 0.687583 0.993678 0.923136
Si Si7 0.003834 0.630283 0.254113
Si Si8 0.797730 0.419135 0.587843
O O1 0.107136 0.338083 0.264483
O O2 0.925143 0.215932 0.303771
O O3 0.080048 0.266841 0.538199
O O4 0.875707 0.364856 0.451994
O O5 0.614685 0.800042 0.209107
O O6 0.423769 0.699856 0.344642
O O7 0.362399 0.852140 0.270912
O O8 0.802553 0.058064 0.848380
O O9 0.764607 0.076647 0.545744
O O10 0.844842 0.348791 0.013897
O O11 0.900368 0.409004 0.743229
O O12 0.070557 0.450273 0.983377
O O13 0.565146 0.362529 0.928352
O O14 0.707274 0.484435 0.047502
O O15 0.613090 0.945698 0.774607
O O16 0.863540 0.611330 0.139247
#
# Coordination Sequence:
#
# PCOD9314896 Si02
#       8
#     4   4   4   4   4   4   4   4
#     4  11  24  47  70  99 140 187 229 292 353 412
#     4  11  26  47  72 100 145 186 233 297 350 425
#     4  12  28  48  70 107 146 193 237 295 360 436
#     4  10  24  45  69 105 135 179 235 294 347 420
#     4  11  23  45  73 104 134 181 231 291 345 415
#     4  12  27  47  70 106 144 191 235 295 360 430
#     4  11  24  44  69 106 135 179 239 285 350 422
#     4  10  22  43  73  97 137 178 233 289 349 418
#
# _framework density 25.939717999999999
#
# number of rings (size 3 to 8) (size 9 to 14) (size 15 to 20)
#    0.000    1.000    2.500    3.750   10.500    0.000 
#    6.750    0.000    0.000    0.000    0.000    0.000 
#    0.000    0.000    0.000    0.000    0.000    0.000 
#
# Total GULP energy -179542.845892 kJ/mol
# GULP energy per Si atom -5610.713934 kJ/mol
# Density = 2.588068 g / cm^3
# Si number density = 25.939718 Si / 1000 Ang^3
#
#
#
# Elastic Constant Matrix: (Units=GPa)
#
#
# Indices 1 2 3 4 5 6 
#
# 1 49.2113 17.6151 25.0519 0.0000 0.0000 0.0000
# 2 17.6151 129.3259 35.3380 0.0000 0.0000 0.0000
# 3 25.0519 35.3380 55.2280 0.0000 0.0000 0.0000
# 4 0.0000 0.0000 0.0000 47.0681 0.0000 0.0000
# 5 0.0000 0.0000 0.0000 0.0000 42.7356 0.0000
# 6 0.0000 0.0000 0.0000 0.0000 0.0000 32.8070
#
#
#
# Elastic Compliance Matrix: (Units=1/GPa)
#
#
# Indices 1 2 3 4 5 6 
#
# 1 0.026438 -0.000393 -0.011741 0.000000 0.000000 0.000000
# 2 -0.000393 0.009377 -0.005822 0.000000 0.000000 0.000000
# 3 -0.011741 -0.005822 0.027158 0.000000 0.000000 0.000000
# 4 0.000000 0.000000 0.000000 0.021246 0.000000 0.000000
# 5 0.000000 0.000000 0.000000 0.000000 0.023400 0.000000
# 6 0.000000 0.000000 0.000000 0.000000 0.000000 0.030481
#
#
# Mechanical properties :
#
#
# Convention : Reuss Voigt Hill
#
# Bulk Modulus (GPa) = 36.95313 43.30838 40.13075
# Shear Modulus (GPa) = 27.31780 34.90615 31.11198
#
# Velocity S-wave (km/s) = 3.24871 3.67231 3.46699
# Velocity P-wave (km/s) = 5.32437 5.89179 5.61525
#
# Compressibility (1/GPa) = 0.02706131
#
# Stress axis : x y z
#
# Youngs Moduli (GPa) = 37.82405 106.64819 36.82210
#
# Poissons Ratio (x) = 0.04189 0.43234
# Poissons Ratio (y) = 0.01486 0.21436
# Poissons Ratio (z) = 0.44410 0.62085
#
# Static dielectric constant tensor:
#      x y z
#    x 1.995560 0.000000 0.000000 
#    y 0.000000 1.984400 0.000000 
#    z 0.000000 0.000000 2.015630 
# 
# From -- ./inp_files/3623.got.cif
#   From: 2010.05.17/outbox.cif.g08.bks.cpg/sg19_2_cif.got.tgz:3623.got - 2010.06.03 22:46:19.
