data_PCOD9314594
_publ_section_title
;
Structure prediction by ZEFSAII (Michael W. Deem and Ramdas Pophale) SiO2 
 PCOD9314594
Probable space group: P 21 21 21
;
_chemical_formula_sum "Si O2"
_cell_formula_units_Z 32
_cell_length_a 7.142090
_cell_length_b 12.586572
_cell_length_c 14.692308
_cell_angle_alpha 90.000000
_cell_angle_beta 90.000000
_cell_angle_gamma 90.000000
_cell_volume 1320.756653
_symmetry_space_group_name_H-M "P 21 21 21"
_symmetry_group_IT_number 19
_symmetry_cell_setting 'orthorhombic'
loop_
_space_group_symop_operation_xyz
x,y,z
1/2-x,-y,1/2+z
1/2+x,1/2-y,-z
-x,1/2+y,1/2-z
loop_
_atom_site_type_symbol
_atom_site_label
_atom_site_fract_x
_atom_site_fract_y
_atom_site_fract_z
Si Si1 0.555928 0.522050 0.073771
Si Si2 0.072489 0.275747 0.234318
Si Si3 0.023670 0.683343 0.093786
Si Si4 0.631700 0.327658 0.205107
Si Si5 0.420135 0.875897 0.580308
Si Si6 0.044243 0.245846 0.606068
Si Si7 0.129145 0.461162 0.103443
Si Si8 0.649008 0.183604 0.050337
O O1 0.622772 0.437510 0.149674
O O2 0.576091 0.645239 0.098074
O O3 0.332321 0.502791 0.075232
O O4 0.621611 0.486063 0.972107
O O5 0.093590 0.262044 0.341900
O O6 0.850937 0.300030 0.218090
O O7 0.124331 0.166340 0.181279
O O8 0.160712 0.375998 0.183105
O O9 0.238428 0.718922 0.105890
O O10 0.008788 0.562837 0.129222
O O11 0.985288 0.684234 0.987367
O O12 0.525908 0.320156 0.300933
O O13 0.557118 0.231929 0.140256
O O14 0.645653 0.860106 0.573797
O O15 0.332547 0.785632 0.515103
O O16 0.049565 0.401526 0.014351
#
# Coordination Sequence:
#
# PCOD9314594 Si02
#       8
#     4   4   4   4   4   4   4   4
#     4   9  18  33  54  78 102 133 171 209 254 307
#     4   9  18  33  52  75 103 134 171 215 258 302
#     4  10  22  37  52  75 107 140 175 214 257 307
#     4   9  18  33  52  75 103 134 171 215 258 302
#     4   8  14  27  48  72  97 125 162 208 252 296
#     4  10  22  37  52  75 107 140 175 214 257 307
#     4   9  18  33  54  78 102 133 171 209 254 307
#     4   8  14  27  48  72  97 125 162 208 252 296
#
# _framework density 24.228536999999999
#
# number of rings (size 3 to 8) (size 9 to 14) (size 15 to 20)
#    0.000    3.000    0.000    0.000    0.000    4.000 
#    0.000    5.000    0.000   12.000    0.000    0.000 
#    0.000    0.000    0.000    0.000    0.000    0.000 
#
# Total GULP energy -178593.109350 kJ/mol
# GULP energy per Si atom -5581.034667 kJ/mol
# Density = 2.417339 g / cm^3
# Si number density = 24.228537 Si / 1000 Ang^3
#
#
#
# Elastic Constant Matrix: (Units=GPa)
#
#
# Indices 1 2 3 4 5 6 
#
# 1 50.5550 15.7284 0.2776 0.0000 0.0000 0.0000
# 2 15.7284 71.5979 30.2375 0.0000 0.0000 0.0000
# 3 0.2776 30.2375 128.6191 0.0000 0.0000 0.0000
# 4 0.0000 0.0000 0.0000 18.6117 0.0000 0.0000
# 5 0.0000 0.0000 0.0000 0.0000 14.3977 0.0000
# 6 0.0000 0.0000 0.0000 0.0000 0.0000 29.4060
#
#
#
# Elastic Compliance Matrix: (Units=1/GPa)
#
#
# Indices 1 2 3 4 5 6 
#
# 1 0.021390 -0.005195 0.001175 0.000000 0.000000 0.000000
# 2 -0.005195 0.016768 -0.003931 0.000000 0.000000 0.000000
# 3 0.001175 -0.003931 0.008696 0.000000 0.000000 0.000000
# 4 0.000000 0.000000 0.000000 0.053730 0.000000 0.000000
# 5 0.000000 0.000000 0.000000 0.000000 0.069456 0.000000
# 6 0.000000 0.000000 0.000000 0.000000 0.000000 0.034007
#
#
# Mechanical properties :
#
#
# Convention : Reuss Voigt Hill
#
# Bulk Modulus (GPa) = 32.30689 38.13989 35.22339
# Shear Modulus (GPa) = 21.71397 26.11832 23.91614
#
# Velocity S-wave (km/s) = 2.99693 3.28685 3.14523
# Velocity P-wave (km/s) = 5.03375 5.49367 5.26873
#
# Compressibility (1/GPa) = 0.03095315
#
# Stress axis : x y z
#
# Youngs Moduli (GPa) = 46.75016 59.63638 114.98894
#
# Poissons Ratio (x) = 0.30983 -0.13514
# Poissons Ratio (y) = 0.24288 0.45201
# Poissons Ratio (z) = -0.05494 0.23442
#
# Static dielectric constant tensor:
#      x y z
#    x 2.029450 0.000000 0.000000 
#    y 0.000000 1.930760 0.000000 
#    z 0.000000 0.000000 1.934090 
# 
# From -- ./inp_files/6012.got.cif
#   From: 2010.05.17/outbox.cif.g08.bks.cpg/sg19_4_cif.got.tgz:6012.got - 2010.06.03 22:46:19.
