data_PCOD9314715
_publ_section_title
;
Structure prediction by ZEFSAII (Michael W. Deem and Ramdas Pophale) SiO2 
 PCOD9314715
Probable space group: P 21 21 21
;
_chemical_formula_sum "Si O2"
_cell_formula_units_Z 28
_cell_length_a 20.076909
_cell_length_b 9.217317
_cell_length_c 5.817309
_cell_angle_alpha 90.000000
_cell_angle_beta 90.000000
_cell_angle_gamma 90.000000
_cell_volume 1076.523482
_symmetry_space_group_name_H-M "P 21 21 21"
_symmetry_group_IT_number 19
_symmetry_cell_setting 'orthorhombic'
loop_
_space_group_symop_operation_xyz
x,y,z
1/2-x,-y,1/2+z
1/2+x,1/2-y,-z
-x,1/2+y,1/2-z
loop_
_atom_site_type_symbol
_atom_site_label
_atom_site_fract_x
_atom_site_fract_y
_atom_site_fract_z
Si Si1 0.814889 0.980916 0.747050
Si Si2 0.102420 0.335463 0.106268
Si Si3 0.277514 0.736392 0.910154
Si Si4 0.539933 0.570624 0.702904
Si Si5 0.939561 0.616541 0.791883
Si Si6 0.576410 0.847798 0.400036
Si Si7 0.643293 0.608226 0.098755
O O1 0.855882 0.963318 0.513434
O O2 0.759103 0.100479 0.713263
O O3 0.864465 0.040889 0.943987
O O4 0.790105 0.825812 0.834981
O O5 0.154445 0.246472 0.265890
O O6 0.038082 0.393766 0.242305
O O7 0.076956 0.253893 0.870141
O O8 0.221226 0.860211 0.920896
O O9 0.539349 0.421905 0.552794
O O10 0.562164 0.720405 0.577559
O O11 0.597815 0.555576 0.888943
O O12 0.873566 0.517826 0.778782
O O13 0.008814 0.570079 0.666498
O O14 0.605406 0.752497 0.186963
#
# Coordination Sequence:
#
# PCOD9314715 Si02
#       7
#     4   4   4   4   4   4   4
#     4  11  22  40  67  95 136 176 231 283 338 410
#     4  11  24  42  66 104 137 179 232 285 348 416
#     4  11  25  41  67 100 135 187 229 283 347 407
#     4  10  22  40  71  99 137 175 225 284 355 404
#     4  10  22  43  65  97 139 174 223 286 346 411
#     4   9  21  38  65  98 133 167 223 288 342 406
#     4  10  24  42  63  99 135 182 231 283 344 412
#
# _framework density 26.009649
#
# number of rings (size 3 to 8) (size 9 to 14) (size 15 to 20)
#    0.000    1.714    2.857    0.000    4.000    4.571 
#    2.571    0.000    0.000    0.000    0.000    0.000 
#    0.000    0.000    0.000    0.000    0.000    0.000 
#
# Total GULP energy -156205.543875 kJ/mol
# GULP energy per Si atom -5578.769424 kJ/mol
# Density = 2.595045 g / cm^3
# Si number density = 26.009649 Si / 1000 Ang^3
#
#
#
# Elastic Constant Matrix: (Units=GPa)
#
#
# Indices 1 2 3 4 5 6 
#
# 1 172.6374 30.1835 36.6942 0.0000 0.0000 0.0000
# 2 30.1835 60.4008 5.5528 0.0000 0.0000 0.0000
# 3 36.6942 5.5528 59.3562 0.0000 0.0000 0.0000
# 4 0.0000 0.0000 0.0000 42.2812 0.0000 0.0000
# 5 0.0000 0.0000 0.0000 0.0000 46.3126 0.0000
# 6 0.0000 0.0000 0.0000 0.0000 0.0000 54.1161
#
#
#
# Elastic Compliance Matrix: (Units=1/GPa)
#
#
# Indices 1 2 3 4 5 6 
#
# 1 0.007246 -0.003237 -0.004177 0.000000 0.000000 0.000000
# 2 -0.003237 0.018146 0.000304 0.000000 0.000000 0.000000
# 3 -0.004177 0.000304 0.019401 0.000000 0.000000 0.000000
# 4 0.000000 0.000000 0.000000 0.023651 0.000000 0.000000
# 5 0.000000 0.000000 0.000000 0.000000 0.021592 0.000000
# 6 0.000000 0.000000 0.000000 0.000000 0.000000 0.018479
#
#
# Mechanical properties :
#
#
# Convention : Reuss Voigt Hill
#
# Bulk Modulus (GPa) = 32.70899 48.58394 40.64646
# Shear Modulus (GPa) = 37.61462 43.20624 40.41043
#
# Velocity S-wave (km/s) = 3.80699 4.08016 3.94594
# Velocity P-wave (km/s) = 5.65042 6.39661 6.03506
#
# Compressibility (1/GPa) = 0.03057264
#
# Stress axis : x y z
#
# Youngs Moduli (GPa) = 138.00254 55.10911 51.54332
#
# Poissons Ratio (x) = 0.17839 0.21529
# Poissons Ratio (y) = 0.44673 -0.01565
# Poissons Ratio (z) = 0.57641 -0.01673
#
# Static dielectric constant tensor:
#      x y z
#    x 2.034730 0.000000 0.000000 
#    y 0.000000 2.092640 0.000000 
#    z 0.000000 0.000000 2.218030 
# 
# From -- ./inp_files/1955.got.cif
#   From: 2010.05.17/outbox.cif.g08.bks.cpg/sg19_1_cif.got.tgz:1955.got - 2010.06.03 22:46:19.
