data_PCOD9314754
_publ_section_title
;
Structure prediction by ZEFSAII (Michael W. Deem and Ramdas Pophale) SiO2 
 PCOD9314754
Probable space group: P 21 21 21
;
_chemical_formula_sum "Si O2"
_cell_formula_units_Z 32
_cell_length_a 5.343950
_cell_length_b 11.851539
_cell_length_c 19.991063
_cell_angle_alpha 90.000000
_cell_angle_beta 90.000000
_cell_angle_gamma 90.000000
_cell_volume 1266.114621
_symmetry_space_group_name_H-M "P 21 21 21"
_symmetry_group_IT_number 19
_symmetry_cell_setting 'orthorhombic'
loop_
_space_group_symop_operation_xyz
x,y,z
1/2-x,-y,1/2+z
1/2+x,1/2-y,-z
-x,1/2+y,1/2-z
loop_
_atom_site_type_symbol
_atom_site_label
_atom_site_fract_x
_atom_site_fract_y
_atom_site_fract_z
Si Si1 0.490338 0.157702 0.433881
Si Si2 0.994744 0.526790 0.679581
Si Si3 0.033128 0.451438 0.895679
Si Si4 0.655348 0.625042 0.917639
Si Si5 0.751941 0.185599 0.656955
Si Si6 0.512978 0.159651 0.835752
Si Si7 0.699955 0.186308 0.986543
Si Si8 0.842277 0.331150 0.776633
O O1 0.665379 0.266994 0.426470
O O2 0.485929 0.126643 0.511100
O O3 0.244768 0.215831 0.400337
O O4 0.537813 0.051091 0.386310
O O5 0.769280 0.615506 0.668129
O O6 0.879259 0.447566 0.737395
O O7 0.269949 0.577376 0.695549
O O8 0.761578 0.498323 0.915467
O O9 0.177349 0.415353 0.961392
O O10 0.005122 0.351480 0.842683
O O11 0.137224 0.566447 0.864624
O O12 0.536666 0.650102 0.844518
O O13 0.896596 0.241361 0.717889
O O14 0.576134 0.281929 0.802860
O O15 0.599520 0.162657 0.912705
O O16 0.984430 0.228883 0.985457
#
# Coordination Sequence:
#
# PCOD9314754 Si02
#       8
#     4   4   4   4   4   4   4   4
#     4  10  22  41  68 106 152 186 245 319 375 461
#     4  11  28  46  78 111 149 206 255 316 390 461
#     4  11  26  46  73 107 148 199 261 320 389 467
#     4  11  22  40  71 109 142 196 249 312 396 454
#     4  10  24  43  74 107 142 201 249 314 393 460
#     4  12  27  50  77 113 152 205 261 316 390 475
#     4  12  27  50  77 113 151 204 253 319 396 457
#     4  11  26  52  72 108 158 201 257 328 379 477
#
# _framework density 25.274172
#
# number of rings (size 3 to 8) (size 9 to 14) (size 15 to 20)
#    0.000    1.000    2.500    2.250    8.750    1.000 
#    0.000    0.000    0.000    0.000    0.000    0.000 
#    0.000    0.000    0.000    0.000    0.000    0.000 
#
# Total GULP energy -178487.176549 kJ/mol
# GULP energy per Si atom -5577.724267 kJ/mol
# Density = 2.521665 g / cm^3
# Si number density = 25.274172 Si / 1000 Ang^3
#
#
#
# Elastic Constant Matrix: (Units=GPa)
#
#
# Indices 1 2 3 4 5 6 
#
# 1 68.2939 34.9656 4.3077 0.0000 0.0000 0.0000
# 2 34.9656 107.9443 43.4838 0.0000 0.0000 0.0000
# 3 4.3077 43.4838 111.2814 0.0000 0.0000 0.0000
# 4 0.0000 0.0000 0.0000 51.2196 0.0000 0.0000
# 5 0.0000 0.0000 0.0000 0.0000 33.6573 0.0000
# 6 0.0000 0.0000 0.0000 0.0000 0.0000 27.8191
#
#
#
# Elastic Compliance Matrix: (Units=1/GPa)
#
#
# Indices 1 2 3 4 5 6 
#
# 1 0.017874 -0.006541 0.001864 0.000000 0.000000 0.000000
# 2 -0.006541 0.013388 -0.004978 0.000000 0.000000 0.000000
# 3 0.001864 -0.004978 0.010859 0.000000 0.000000 0.000000
# 4 0.000000 0.000000 0.000000 0.019524 0.000000 0.000000
# 5 0.000000 0.000000 0.000000 0.000000 0.029711 0.000000
# 6 0.000000 0.000000 0.000000 0.000000 0.000000 0.035947
#
#
# Mechanical properties :
#
#
# Convention : Reuss Voigt Hill
#
# Bulk Modulus (GPa) = 43.83802 50.33708 47.08755
# Shear Modulus (GPa) = 32.42198 36.19002 34.30600
#
# Velocity S-wave (km/s) = 3.58552 3.78815 3.68823
# Velocity P-wave (km/s) = 5.87571 6.25244 6.06700
#
# Compressibility (1/GPa) = 0.02281125
#
# Stress axis : x y z
#
# Youngs Moduli (GPa) = 55.94817 74.69329 92.08644
#
# Poissons Ratio (x) = 0.48853 -0.17164
# Poissons Ratio (y) = 0.36593 0.45843
# Poissons Ratio (z) = -0.10428 0.37184
#
# Static dielectric constant tensor:
#      x y z
#    x 2.231580 0.000000 0.000000 
#    y 0.000000 2.012960 0.000000 
#    z 0.000000 0.000000 2.140500 
# 
# From -- ./inp_files/6908.got.cif
#   From: 2010.05.17/outbox.cif.g08.bks.cpg/sg19_4_cif.got.tgz:6908.got - 2010.06.03 22:46:19.
