data_PCOD9314855
_publ_section_title
;
Structure prediction by ZEFSAII (Michael W. Deem and Ramdas Pophale) SiO2 
 PCOD9314855
Probable space group: P 21 21 21
;
_chemical_formula_sum "Si O2"
_cell_formula_units_Z 28
_cell_length_a 12.221105
_cell_length_b 5.227601
_cell_length_c 16.910187
_cell_angle_alpha 90.000000
_cell_angle_beta 90.000000
_cell_angle_gamma 90.000000
_cell_volume 1080.342144
_symmetry_space_group_name_H-M "P 21 21 21"
_symmetry_group_IT_number 19
_symmetry_cell_setting 'orthorhombic'
loop_
_space_group_symop_operation_xyz
x,y,z
1/2-x,-y,1/2+z
1/2+x,1/2-y,-z
-x,1/2+y,1/2-z
loop_
_atom_site_type_symbol
_atom_site_label
_atom_site_fract_x
_atom_site_fract_y
_atom_site_fract_z
Si Si1 0.221635 0.908851 0.749327
Si Si2 0.045746 0.208736 0.293555
Si Si3 0.255171 0.324163 0.862097
Si Si4 0.465655 0.170091 0.936772
Si Si5 0.943764 0.220505 0.634997
Si Si6 0.850623 0.492405 0.499581
Si Si7 0.343378 0.980723 0.091885
O O1 0.322826 0.747782 0.785343
O O2 0.257708 0.193428 0.775922
O O3 0.105881 0.879007 0.793264
O O4 0.209646 0.839791 0.658285
O O5 0.025265 0.077714 0.379412
O O6 0.014158 0.968170 0.234791
O O7 0.378181 0.363174 0.895030
O O8 0.148923 0.501764 0.867761
O O9 0.218848 0.107394 0.927270
O O10 0.582808 0.299633 0.950221
O O11 0.414830 0.110603 0.023300
O O12 0.938818 0.332430 0.546715
O O13 0.070790 0.171856 0.644684
O O14 0.760146 0.345623 0.448390
#
# Coordination Sequence:
#
# PCOD9314855 Si02
#       7
#     4   4   4   4   4   4   4
#     4  10  25  44  66 103 142 188 251 296 375 452
#     4  11  26  49  78 110 151 201 249 310 377 449
#     4   9  21  43  62  93 134 187 229 300 369 442
#     4  10  22  43  73 101 146 181 247 314 376 435
#     4  11  24  41  71  91 143 192 236 299 377 444
#     4  10  22  43  62 104 135 174 244 301 369 443
#     4  11  24  43  68 104 135 185 244 304 373 445
#
# _framework density 25.917717
#
# number of rings (size 3 to 8) (size 9 to 14) (size 15 to 20)
#    0.000    1.714    1.429    1.714    8.000    2.286 
#    0.000    0.000    0.000    0.000    0.000    0.000 
#    0.000    0.000    0.000    0.000    0.000    0.000 
#
# Total GULP energy -156259.721871 kJ/mol
# GULP energy per Si atom -5580.704353 kJ/mol
# Density = 2.585873 g / cm^3
# Si number density = 25.917717 Si / 1000 Ang^3
#
#
#
# Elastic Constant Matrix: (Units=GPa)
#
#
# Indices 1 2 3 4 5 6 
#
# 1 104.5311 -5.7094 44.3653 0.0000 0.0000 0.0000
# 2 -5.7094 35.1755 8.0533 0.0000 0.0000 0.0000
# 3 44.3653 8.0533 143.3386 0.0000 0.0000 0.0000
# 4 0.0000 0.0000 0.0000 30.4474 0.0000 0.0000
# 5 0.0000 0.0000 0.0000 0.0000 51.9184 0.0000
# 6 0.0000 0.0000 0.0000 0.0000 0.0000 37.3561
#
#
#
# Elastic Compliance Matrix: (Units=1/GPa)
#
#
# Indices 1 2 3 4 5 6 
#
# 1 0.011253 0.002658 -0.003632 0.000000 0.000000 0.000000
# 2 0.002658 0.029427 -0.002476 0.000000 0.000000 0.000000
# 3 -0.003632 -0.002476 0.008240 0.000000 0.000000 0.000000
# 4 0.000000 0.000000 0.000000 0.032843 0.000000 0.000000
# 5 0.000000 0.000000 0.000000 0.000000 0.019261 0.000000
# 6 0.000000 0.000000 0.000000 0.000000 0.000000 0.026769
#
#
# Mechanical properties :
#
#
# Convention : Reuss Voigt Hill
#
# Bulk Modulus (GPa) = 23.79825 41.82929 32.81377
# Shear Modulus (GPa) = 33.62437 39.70012 36.66225
#
# Velocity S-wave (km/s) = 3.60578 3.91804 3.76515
# Velocity P-wave (km/s) = 5.15148 6.05329 5.62050
#
# Compressibility (1/GPa) = 0.04201990
#
# Stress axis : x y z
#
# Youngs Moduli (GPa) = 88.86198 33.98213 121.36083
#
# Poissons Ratio (x) = -0.09033 0.44084
# Poissons Ratio (y) = -0.23621 0.30050
# Poissons Ratio (z) = 0.32279 0.08414
#
# Static dielectric constant tensor:
#      x y z
#    x 2.028360 0.000000 0.000000 
#    y 0.000000 2.141870 0.000000 
#    z 0.000000 0.000000 2.070150 
# 
# From -- ./inp_files/4480.got.cif
#   From: 2010.05.17/outbox.cif.g08.bks.cpg/sg19_3_cif.got.tgz:4480.got - 2010.06.03 22:46:19.
