data_PCOD9314121
_publ_section_title
;
Structure prediction by ZEFSAII (Michael W. Deem and Ramdas Pophale) SiO2 
 PCOD9314121
Probable space group: P 21 21 21
;
_chemical_formula_sum "Si O2"
_cell_formula_units_Z 28
_cell_length_a 5.428179
_cell_length_b 12.512358
_cell_length_c 17.901961
_cell_angle_alpha 90.000000
_cell_angle_beta 90.000000
_cell_angle_gamma 90.000000
_cell_volume 1215.888999
_symmetry_space_group_name_H-M "P 21 21 21"
_symmetry_group_IT_number 19
_symmetry_cell_setting 'orthorhombic'
loop_
_space_group_symop_operation_xyz
x,y,z
1/2-x,-y,1/2+z
1/2+x,1/2-y,-z
-x,1/2+y,1/2-z
loop_
_atom_site_type_symbol
_atom_site_label
_atom_site_fract_x
_atom_site_fract_y
_atom_site_fract_z
Si Si1 0.307740 0.777017 0.455900
Si Si2 0.621992 0.166069 0.200754
Si Si3 0.434837 0.218704 0.683427
Si Si4 0.551784 0.995190 0.412685
Si Si5 0.261683 0.907013 0.791916
Si Si6 0.343954 0.550171 0.728255
Si Si7 0.979738 0.813744 0.019332
O O1 0.543726 0.738115 0.504675
O O2 0.311518 0.706939 0.380333
O O3 0.368420 0.900698 0.436716
O O4 0.715602 0.255478 0.259611
O O5 0.334721 0.145573 0.216391
O O6 0.732864 0.049522 0.224368
O O7 0.527590 0.339208 0.669296
O O8 0.656168 0.157113 0.724779
O O9 0.413546 0.167278 0.602805
O O10 0.751494 0.940854 0.356952
O O11 0.443237 0.079458 0.353330
O O12 0.599841 0.073192 0.482062
O O13 0.366790 0.022310 0.774420
O O14 0.222442 0.755748 0.981606
#
# Coordination Sequence:
#
# PCOD9314121 Si02
#       7
#     4   4   4   4   4   4   4
#     4  12  31  49  74 107 151 205 250 311 374 454
#     4  10  24  45  68 101 141 191 257 305 368 452
#     4  11  23  41  71 103 141 191 249 309 373 454
#     4  11  25  46  71 105 147 194 240 310 380 443
#     4  10  20  42  70  97 140 186 238 306 370 439
#     4  10  23  41  74 104 138 195 244 310 376 447
#     4  12  26  46  72 109 152 188 244 309 385 447
#
# _framework density 23.028419
#
# number of rings (size 3 to 8) (size 9 to 14) (size 15 to 20)
#    0.000    1.143    1.429    4.286   10.000    1.143 
#    0.000    0.000    0.000    0.000    0.000    0.000 
#    0.000    0.000    0.000    0.000    0.000    0.000 
#
# Total GULP energy -155959.412162 kJ/mol
# GULP energy per Si atom -5569.979006 kJ/mol
# Density = 2.297600 g / cm^3
# Si number density = 23.028419 Si / 1000 Ang^3
#
#
#
# Elastic Constant Matrix: (Units=GPa)
#
#
# Indices 1 2 3 4 5 6 
#
# 1 61.9724 -3.4498 28.7529 0.0000 0.0000 0.0000
# 2 -3.4498 63.7756 2.8734 0.0000 0.0000 0.0000
# 3 28.7529 2.8734 107.6668 0.0000 0.0000 0.0000
# 4 0.0000 0.0000 0.0000 20.8849 0.0000 0.0000
# 5 0.0000 0.0000 0.0000 0.0000 24.3898 0.0000
# 6 0.0000 0.0000 0.0000 0.0000 0.0000 30.6716
#
#
#
# Elastic Compliance Matrix: (Units=1/GPa)
#
#
# Indices 1 2 3 4 5 6 
#
# 1 0.018514 0.001226 -0.004977 0.000000 0.000000 0.000000
# 2 0.001226 0.015780 -0.000748 0.000000 0.000000 0.000000
# 3 -0.004977 -0.000748 0.010637 0.000000 0.000000 0.000000
# 4 0.000000 0.000000 0.000000 0.047881 0.000000 0.000000
# 5 0.000000 0.000000 0.000000 0.000000 0.041001 0.000000
# 6 0.000000 0.000000 0.000000 0.000000 0.000000 0.032603
#
#
# Mechanical properties :
#
#
# Convention : Reuss Voigt Hill
#
# Bulk Modulus (GPa) = 27.83091 32.19643 30.01367
# Shear Modulus (GPa) = 26.68198 28.87182 27.77690
#
# Velocity S-wave (km/s) = 3.40759 3.54467 3.47681
# Velocity P-wave (km/s) = 5.25300 5.54657 5.40178
#
# Compressibility (1/GPa) = 0.03593128
#
# Stress axis : x y z
#
# Youngs Moduli (GPa) = 54.01457 63.37132 94.01170
#
# Poissons Ratio (x) = -0.07767 0.46788
# Poissons Ratio (y) = -0.06620 0.07036
# Poissons Ratio (z) = 0.26882 0.04743
#
# Static dielectric constant tensor:
#      x y z
#    x 2.046200 0.000000 0.000000 
#    y 0.000000 2.066750 0.000000 
#    z 0.000000 0.000000 1.978950 
# 
# From -- ./inp_files/4489.got.cif
#   From: 2010.05.17/outbox.cif.g08.bks.cpg/sg19_3_cif.got.tgz:4489.got - 2010.06.03 22:46:19.
