data_PCOD9314062
_publ_section_title
;
Structure prediction by ZEFSAII (Michael W. Deem and Ramdas Pophale) SiO2 
 PCOD9314062
Probable space group: P 21 21 21
;
_chemical_formula_sum "Si O2"
_cell_formula_units_Z 24
_cell_length_a 16.058280
_cell_length_b 7.347287
_cell_length_c 8.216187
_cell_angle_alpha 90.000000
_cell_angle_beta 90.000000
_cell_angle_gamma 90.000000
_cell_volume 969.385113
_symmetry_space_group_name_H-M "P 21 21 21"
_symmetry_group_IT_number 19
_symmetry_cell_setting 'orthorhombic'
loop_
_space_group_symop_operation_xyz
x,y,z
1/2-x,-y,1/2+z
1/2+x,1/2-y,-z
-x,1/2+y,1/2-z
loop_
_atom_site_type_symbol
_atom_site_label
_atom_site_fract_x
_atom_site_fract_y
_atom_site_fract_z
Si Si1 0.213670 0.194270 0.903700
Si Si2 0.876731 0.128874 0.941482
Si Si3 0.622808 0.918698 0.070852
Si Si4 0.712829 0.258799 0.455820
Si Si5 0.866355 0.598820 0.274858
Si Si6 0.002376 0.367903 0.121774
O O1 0.159538 0.379754 0.902710
O O2 0.205390 0.137843 0.715940
O O3 0.303639 0.261727 0.966080
O O4 0.174851 0.077931 0.049057
O O5 0.880960 0.169994 0.748692
O O6 0.849357 0.917388 0.957175
O O7 0.962026 0.203719 0.018074
O O8 0.693928 0.822412 0.965073
O O9 0.534963 0.960819 0.985154
O O10 0.692482 0.373299 0.617889
O O11 0.931718 0.441564 0.239488
O O12 0.918624 0.786463 0.286970
#
# Coordination Sequence:
#
# PCOD9314062 Si02
#       6
#     4   4   4   4   4   4
#     4   9  20  38  69  95 124 172 223 263 322 395
#     4  10  20  41  66  96 131 171 223 275 316 399
#     4   9  20  38  67  97 126 174 225 264 326 397
#     4  10  20  40  74  95 123 181 228 267 322 405
#     4  11  23  44  62 101 131 176 218 274 333 393
#     4  11  25  39  68 100 139 172 217 279 341 381
#
# _framework density 24.757961999999999
#
# number of rings (size 3 to 8) (size 9 to 14) (size 15 to 20)
#    0.000    2.000    1.667    1.000    9.333    4.000 
#    3.000    3.333    0.000    0.000    0.000    0.000 
#    0.000    0.000    0.000    0.000    0.000    0.000 
#
# Total GULP energy -134285.789564 kJ/mol
# GULP energy per Si atom -5595.241232 kJ/mol
# Density = 2.470161 g / cm^3
# Si number density = 24.757962 Si / 1000 Ang^3
#
#
#
# Elastic Constant Matrix: (Units=GPa)
#
#
# Indices 1 2 3 4 5 6 
#
# 1 97.8716 15.9516 83.0793 0.0000 0.0000 0.0000
# 2 15.9516 70.3112 46.9932 0.0000 0.0000 0.0000
# 3 83.0793 46.9932 210.4946 0.0000 0.0000 0.0000
# 4 0.0000 0.0000 0.0000 44.2002 0.0000 0.0000
# 5 0.0000 0.0000 0.0000 0.0000 36.9313 0.0000
# 6 0.0000 0.0000 0.0000 0.0000 0.0000 42.7306
#
#
#
# Elastic Compliance Matrix: (Units=1/GPa)
#
#
# Indices 1 2 3 4 5 6 
#
# 1 0.015392 0.000668 -0.006224 0.000000 0.000000 0.000000
# 2 0.000668 0.016746 -0.004002 0.000000 0.000000 0.000000
# 3 -0.006224 -0.004002 0.008101 0.000000 0.000000 0.000000
# 4 0.000000 0.000000 0.000000 0.022624 0.000000 0.000000
# 5 0.000000 0.000000 0.000000 0.000000 0.027077 0.000000
# 6 0.000000 0.000000 0.000000 0.000000 0.000000 0.023402
#
#
# Mechanical properties :
#
#
# Convention : Reuss Voigt Hill
#
# Bulk Modulus (GPa) = 47.34413 74.52507 60.93460
# Shear Modulus (GPa) = 35.84230 40.28266 38.06248
#
# Velocity S-wave (km/s) = 3.80900 4.03806 3.92520
# Velocity P-wave (km/s) = 6.20556 7.20472 6.72373
#
# Compressibility (1/GPa) = 0.02112194
#
# Stress axis : x y z
#
# Youngs Moduli (GPa) = 64.96872 59.71640 123.44486
#
# Poissons Ratio (x) = -0.03989 0.76834
# Poissons Ratio (y) = -0.04340 0.49405
# Poissons Ratio (z) = 0.40437 0.23899
#
# Static dielectric constant tensor:
#      x y z
#    x 1.984070 0.000000 0.000000 
#    y 0.000000 1.998520 0.000000 
#    z 0.000000 0.000000 1.970690 
# 
# From -- ./inp_files/3847.got.cif
#   From: 2010.05.17/outbox.cif.g08.bks.cpg/sg19_2_cif.got.tgz:3847.got - 2010.06.03 22:46:19.
