data_PCOD9314460
_publ_section_title
;
Structure prediction by ZEFSAII (Michael W. Deem and Ramdas Pophale) SiO2 
 PCOD9314460
Probable space group: P 21 21 21
;
_chemical_formula_sum "Si O2"
_cell_formula_units_Z 32
_cell_length_a 14.485106
_cell_length_b 8.213259
_cell_length_c 11.573533
_cell_angle_alpha 90.000000
_cell_angle_beta 90.000000
_cell_angle_gamma 90.000000
_cell_volume 1376.902379
_symmetry_space_group_name_H-M "P 21 21 21"
_symmetry_group_IT_number 19
_symmetry_cell_setting 'orthorhombic'
loop_
_space_group_symop_operation_xyz
x,y,z
1/2-x,-y,1/2+z
1/2+x,1/2-y,-z
-x,1/2+y,1/2-z
loop_
_atom_site_type_symbol
_atom_site_label
_atom_site_fract_x
_atom_site_fract_y
_atom_site_fract_z
Si Si1 0.114131 0.433314 0.742738
Si Si2 0.712187 0.817651 0.618964
Si Si3 0.913733 0.315674 0.778308
Si Si4 0.252971 0.065085 0.078764
Si Si5 0.601695 0.675947 0.004880
Si Si6 0.921774 0.100162 0.308319
Si Si7 0.112031 0.382982 0.491023
Si Si8 0.378996 0.767641 0.762942
O O1 0.198031 0.402922 0.827751
O O2 0.101726 0.622068 0.706252
O O3 0.131170 0.339082 0.622550
O O4 0.019803 0.364884 0.794958
O O5 0.737799 0.665438 0.540529
O O6 0.643267 0.788785 0.726302
O O7 0.659831 0.947695 0.539256
O O8 0.853196 0.429743 0.861590
O O9 0.891332 0.335895 0.642392
O O10 0.194486 0.158667 0.177378
O O11 0.189030 0.912717 0.050014
O O12 0.594487 0.850606 0.941373
O O13 0.499390 0.602648 0.976119
O O14 0.026083 0.133718 0.269558
O O15 0.897535 0.914929 0.282178
O O16 0.149275 0.255610 0.396742
#
# Coordination Sequence:
#
# PCOD9314460 Si02
#       8
#     4   4   4   4   4   4   4   4
#     4  11  25  44  69  96 142 179 229 279 350 403
#     4  11  24  37  69  96 130 176 223 274 341 404
#     4  11  26  47  67 101 138 184 228 286 342 413
#     4  12  25  42  68  97 134 180 225 284 338 409
#     4  10  25  44  69  94 138 173 230 286 334 403
#     4  10  22  42  67 100 131 173 222 280 333 405
#     4   9  20  43  63  96 130 170 215 281 328 411
#     4  10  21  41  70  96 135 173 224 278 344 398
#
# _framework density 23.240573000000001
#
# number of rings (size 3 to 8) (size 9 to 14) (size 15 to 20)
#    0.000    1.500    1.250    3.750    7.000    2.000 
#    0.000    2.500    0.000    0.000    0.000    0.000 
#    0.000    0.000    0.000    0.000    0.000    0.000 
#
# Total GULP energy -179061.366234 kJ/mol
# GULP energy per Si atom -5595.667695 kJ/mol
# Density = 2.318768 g / cm^3
# Si number density = 23.240573 Si / 1000 Ang^3
#
#
#
# Elastic Constant Matrix: (Units=GPa)
#
#
# Indices 1 2 3 4 5 6 
#
# 1 60.5839 12.8422 19.4384 0.0000 0.0000 0.0000
# 2 12.8422 30.5417 8.2874 0.0000 0.0000 0.0000
# 3 19.4384 8.2874 44.2681 0.0000 0.0000 0.0000
# 4 0.0000 0.0000 0.0000 25.1355 0.0000 0.0000
# 5 0.0000 0.0000 0.0000 0.0000 29.3184 0.0000
# 6 0.0000 0.0000 0.0000 0.0000 0.0000 27.0573
#
#
#
# Elastic Compliance Matrix: (Units=1/GPa)
#
#
# Indices 1 2 3 4 5 6 
#
# 1 0.020355 -0.006462 -0.007728 0.000000 0.000000 0.000000
# 2 -0.006462 0.036546 -0.004004 0.000000 0.000000 0.000000
# 3 -0.007728 -0.004004 0.026733 0.000000 0.000000 0.000000
# 4 0.000000 0.000000 0.000000 0.039784 0.000000 0.000000
# 5 0.000000 0.000000 0.000000 0.000000 0.034108 0.000000
# 6 0.000000 0.000000 0.000000 0.000000 0.000000 0.036959
#
#
# Mechanical properties :
#
#
# Convention : Reuss Voigt Hill
#
# Bulk Modulus (GPa) = 21.16636 24.05887 22.61262
# Shear Modulus (GPa) = 20.27387 22.62396 21.44891
#
# Velocity S-wave (km/s) = 2.95676 3.12343 3.04124
# Velocity P-wave (km/s) = 4.55893 4.83553 4.69926
#
# Compressibility (1/GPa) = 0.04724477
#
# Stress axis : x y z
#
# Youngs Moduli (GPa) = 49.12681 27.36295 37.40712
#
# Poissons Ratio (x) = 0.17682 0.28910
# Poissons Ratio (y) = 0.31746 0.14979
# Poissons Ratio (z) = 0.37968 0.10957
#
# Static dielectric constant tensor:
#      x y z
#    x 1.865200 0.000000 0.000000 
#    y 0.000000 1.878200 0.000000 
#    z 0.000000 0.000000 1.880070 
# 
# From -- ./inp_files/5219.got.cif
#   From: 2010.05.17/outbox.cif.g08.bks.cpg/sg19_3_cif.got.tgz:5219.got - 2010.06.03 22:46:19.
