data_PCOD9314902
_publ_section_title
;
Structure prediction by ZEFSAII (Michael W. Deem and Ramdas Pophale) SiO2 
 PCOD9314902
Probable space group: P 21 21 21
;
_chemical_formula_sum "Si O2"
_cell_formula_units_Z 24
_cell_length_a 7.702693
_cell_length_b 12.432301
_cell_length_c 9.883927
_cell_angle_alpha 90.000000
_cell_angle_beta 90.000000
_cell_angle_gamma 90.000000
_cell_volume 946.506573
_symmetry_space_group_name_H-M "P 21 21 21"
_symmetry_group_IT_number 19
_symmetry_cell_setting 'orthorhombic'
loop_
_space_group_symop_operation_xyz
x,y,z
1/2-x,-y,1/2+z
1/2+x,1/2-y,-z
-x,1/2+y,1/2-z
loop_
_atom_site_type_symbol
_atom_site_label
_atom_site_fract_x
_atom_site_fract_y
_atom_site_fract_z
Si Si1 0.907082 0.795389 0.113265
Si Si2 0.985474 0.297829 0.973039
Si Si3 0.105444 0.472279 0.193585
Si Si4 0.639142 0.603149 0.087149
Si Si5 0.198325 0.694738 0.289654
Si Si6 0.747718 0.456801 0.841584
O O1 0.818472 0.889487 0.197654
O O2 0.782018 0.694825 0.114937
O O3 0.089961 0.770568 0.189107
O O4 0.969909 0.837879 0.969618
O O5 0.808800 0.343613 0.906174
O O6 0.118893 0.269850 0.853456
O O7 0.927554 0.203363 0.075780
O O8 0.067768 0.399721 0.059846
O O9 0.209557 0.582346 0.210693
O O10 0.923448 0.515847 0.255028
O O11 0.611273 0.532433 0.221402
O O12 0.723951 0.532126 0.969585
#
# Coordination Sequence:
#
# PCOD9314902 Si02
#       6
#     4   4   4   4   4   4
#     4  10  24  42  67 100 137 177 224 291 341 402
#     4  11  24  41  71 100 132 191 230 282 352 412
#     4  10  22  44  64  95 137 180 225 294 336 404
#     4  11  24  44  71  97 141 179 228 281 348 405
#     4  11  23  44  66  97 140 177 238 284 343 416
#     4  11  21  45  69  97 135 184 223 282 342 413
#
# _framework density 25.356400000000001
#
# number of rings (size 3 to 8) (size 9 to 14) (size 15 to 20)
#    0.000    1.333    3.333    1.000    4.667    2.667 
#    3.000    0.000    0.000    0.000    0.000    0.000 
#    0.000    0.000    0.000    0.000    0.000    0.000 
#
# Total GULP energy -133929.415941 kJ/mol
# GULP energy per Si atom -5580.392331 kJ/mol
# Density = 2.529869 g / cm^3
# Si number density = 25.356400 Si / 1000 Ang^3
#
#
#
# Elastic Constant Matrix: (Units=GPa)
#
#
# Indices 1 2 3 4 5 6 
#
# 1 88.1894 15.3009 11.5072 0.0000 0.0000 0.0000
# 2 15.3009 73.5029 23.9120 0.0000 0.0000 0.0000
# 3 11.5072 23.9120 107.4027 0.0000 0.0000 0.0000
# 4 0.0000 0.0000 0.0000 -30.7706 0.0000 0.0000
# 5 0.0000 0.0000 0.0000 0.0000 25.1856 0.0000
# 6 0.0000 0.0000 0.0000 0.0000 0.0000 21.8715
#
#
#
# Elastic Compliance Matrix: (Units=1/GPa)
#
#
# Indices 1 2 3 4 5 6 
#
# 1 0.011824 -0.002209 -0.000775 0.000000 0.000000 0.000000
# 2 -0.002209 0.015080 -0.003121 0.000000 0.000000 0.000000
# 3 -0.000775 -0.003121 0.010089 0.000000 0.000000 0.000000
# 4 0.000000 0.000000 0.000000 -0.032499 0.000000 0.000000
# 5 0.000000 0.000000 0.000000 0.000000 0.039705 0.000000
# 6 0.000000 0.000000 0.000000 0.000000 0.000000 0.045722
#
#
# Mechanical properties :
#
#
# Convention : Reuss Voigt Hill
#
# Bulk Modulus (GPa) = 40.35094 41.17056 40.76075
# Shear Modulus (GPa) = 45.29352 17.81562 31.55457
#
# Velocity S-wave (km/s) = 4.23102 2.65355 3.53149
# Velocity P-wave (km/s) = 6.31005 5.06561 5.72177
#
# Compressibility (1/GPa) = 0.02478257
#
# Stress axis : x y z
#
# Youngs Moduli (GPa) = 84.57630 66.31296 99.12204
#
# Poissons Ratio (x) = 0.14650 0.07681
# Poissons Ratio (y) = 0.18684 0.30933
# Poissons Ratio (z) = 0.06554 0.20694
#
# Static dielectric constant tensor:
#      x y z
#    x 2.115930 0.000000 0.000000 
#    y 0.000000 2.017790 0.000000 
#    z 0.000000 0.000000 2.068500 
# 
# From -- ./inp_files/4569.got.cif
#   From: 2010.05.17/outbox.cif.g08.bks.cpg/sg19_3_cif.got.tgz:4569.got - 2010.06.03 22:46:19.
