data_PCOD9314025
_publ_section_title
;
Structure prediction by ZEFSAII (Michael W. Deem and Ramdas Pophale) SiO2 
 PCOD9314025
Probable space group: P 21 21 21
;
_chemical_formula_sum "Si O2"
_cell_formula_units_Z 28
_cell_length_a 7.565719
_cell_length_b 17.681108
_cell_length_c 8.544798
_cell_angle_alpha 90.000000
_cell_angle_beta 90.000000
_cell_angle_gamma 90.000000
_cell_volume 1143.040147
_symmetry_space_group_name_H-M "P 21 21 21"
_symmetry_group_IT_number 19
_symmetry_cell_setting 'orthorhombic'
loop_
_space_group_symop_operation_xyz
x,y,z
1/2-x,-y,1/2+z
1/2+x,1/2-y,-z
-x,1/2+y,1/2-z
loop_
_atom_site_type_symbol
_atom_site_label
_atom_site_fract_x
_atom_site_fract_y
_atom_site_fract_z
Si Si1 0.190310 0.993976 0.565187
Si Si2 0.771594 0.757185 0.273653
Si Si3 0.140126 0.095975 0.299034
Si Si4 0.759527 0.612237 0.725137
Si Si5 0.134896 0.267738 0.863013
Si Si6 0.207366 0.574302 0.385200
Si Si7 0.320419 0.415246 0.251412
O O1 0.079156 0.049301 0.449677
O O2 0.320812 0.061504 0.634176
O O3 0.184057 0.944742 0.726668
O O4 0.213990 0.926024 0.440055
O O5 0.836849 0.684800 0.177969
O O6 0.564204 0.744987 0.308891
O O7 0.857429 0.757855 0.447788
O O8 0.780443 0.839451 0.193366
O O9 0.995047 0.083839 0.165002
O O10 0.742007 0.701975 0.712078
O O11 0.968897 0.597278 0.750527
O O12 0.197403 0.351221 0.819982
O O13 0.277112 0.494209 0.329406
O O14 0.229662 0.578314 0.569917
#
# Coordination Sequence:
#
# PCOD9314025 Si02
#       7
#     4   4   4   4   4   4   4
#     4  10  22  36  68  84 126 155 199 262 308 358
#     4  10  20  40  63  89 123 165 206 251 307 372
#     4  11  22  42  61  97 119 160 214 252 307 382
#     4  10  20  42  58  96 118 160 205 252 304 378
#     4  10  21  37  64  88 126 165 203 254 307 369
#     4  11  24  41  62  95 125 163 207 259 308 369
#     4  10  23  40  62  87 129 158 202 254 307 362
#
# _framework density 24.496079999999999
#
# number of rings (size 3 to 8) (size 9 to 14) (size 15 to 20)
#    0.000    1.714    2.857    1.714    6.000    1.143 
#    7.714    0.000    0.000    0.000    0.000    0.000 
#    0.000    0.000    0.000    0.000    0.000    0.000 
#
# Total GULP energy -156151.175375 kJ/mol
# GULP energy per Si atom -5576.827692 kJ/mol
# Density = 2.444033 g / cm^3
# Si number density = 24.496080 Si / 1000 Ang^3
#
#
#
# Elastic Constant Matrix: (Units=GPa)
#
#
# Indices 1 2 3 4 5 6 
#
# 1 42.8141 45.3706 -7.2335 0.0000 0.0000 0.0000
# 2 45.3706 247.2498 29.6517 0.0000 0.0000 0.0000
# 3 -7.2335 29.6517 39.2179 0.0000 0.0000 0.0000
# 4 0.0000 0.0000 0.0000 29.0599 0.0000 0.0000
# 5 0.0000 0.0000 0.0000 0.0000 17.0318 0.0000
# 6 0.0000 0.0000 0.0000 0.0000 0.0000 32.0499
#
#
#
# Elastic Compliance Matrix: (Units=1/GPa)
#
#
# Indices 1 2 3 4 5 6 
#
# 1 0.033351 -0.007542 0.011853 0.000000 0.000000 0.000000
# 2 -0.007542 0.006153 -0.006043 0.000000 0.000000 0.000000
# 3 0.011853 -0.006043 0.032254 0.000000 0.000000 0.000000
# 4 0.000000 0.000000 0.000000 0.034412 0.000000 0.000000
# 5 0.000000 0.000000 0.000000 0.000000 0.058714 0.000000
# 6 0.000000 0.000000 0.000000 0.000000 0.000000 0.031201
#
#
# Mechanical properties :
#
#
# Convention : Reuss Voigt Hill
#
# Bulk Modulus (GPa) = 14.64218 51.65105 33.14661
# Shear Modulus (GPa) = 22.49082 33.06120 27.77601
#
# Velocity S-wave (km/s) = 3.03337 3.67775 3.37099
# Velocity P-wave (km/s) = 4.27303 6.25825 5.35838
#
# Compressibility (1/GPa) = 0.06829586
#
# Stress axis : x y z
#
# Youngs Moduli (GPa) = 29.98383 162.51931 31.00387
#
# Poissons Ratio (x) = 1.22565 -0.36750
# Poissons Ratio (y) = 0.22612 0.18736
# Poissons Ratio (z) = -0.35541 0.98214
#
# Static dielectric constant tensor:
#      x y z
#    x 2.145600 0.000000 0.000000 
#    y 0.000000 2.063010 0.000000 
#    z 0.000000 0.000000 1.950160 
# 
# From -- ./inp_files/2998.got.cif
#   From: 2010.05.17/outbox.cif.g08.bks.cpg/sg19_2_cif.got.tgz:2998.got - 2010.06.03 22:46:19.
