data_PCOD9314474
_publ_section_title
;
Structure prediction by ZEFSAII (Michael W. Deem and Ramdas Pophale) SiO2 
 PCOD9314474
Probable space group: P 21 21 21
;
_chemical_formula_sum "Si O2"
_cell_formula_units_Z 20
_cell_length_a 18.452589
_cell_length_b 7.872388
_cell_length_c 6.585694
_cell_angle_alpha 90.000000
_cell_angle_beta 90.000000
_cell_angle_gamma 90.000000
_cell_volume 956.677031
_symmetry_space_group_name_H-M "P 21 21 21"
_symmetry_group_IT_number 19
_symmetry_cell_setting 'orthorhombic'
loop_
_space_group_symop_operation_xyz
x,y,z
1/2-x,-y,1/2+z
1/2+x,1/2-y,-z
-x,1/2+y,1/2-z
loop_
_atom_site_type_symbol
_atom_site_label
_atom_site_fract_x
_atom_site_fract_y
_atom_site_fract_z
Si Si1 0.585920 0.054739 0.146375
Si Si2 0.368210 0.312139 0.690678
Si Si3 0.300330 0.117595 0.309497
Si Si4 0.935367 0.275628 0.915530
Si Si5 0.233885 0.257675 0.933199
O O1 0.514454 0.167994 0.152447
O O2 0.659810 0.161214 0.143737
O O3 0.581302 0.909904 0.319283
O O4 0.590766 0.957568 0.930863
O O5 0.329904 0.201188 0.515385
O O6 0.301091 0.359131 0.836947
O O7 0.424391 0.224150 0.842936
O O8 0.373068 0.101780 0.173979
O O9 0.264969 0.937455 0.356780
O O10 0.247441 0.236916 0.175080
#
# Coordination Sequence:
#
# PCOD9314474 Si02
#       5
#     4   4   4   4   4
#     4  11  25  41  69  94 135 172 223 271 332 395
#     4  10  24  41  64  96 133 171 219 266 330 392
#     4  10  21  42  64  95 130 170 220 268 329 389
#     4  10  24  45  63  99 131 173 219 273 330 396
#     4  11  22  39  66  96 129 174 219 272 325 394
#
# _framework density 20.905695999999999
#
# number of rings (size 3 to 8) (size 9 to 14) (size 15 to 20)
#    0.000    1.600    2.000    1.200    8.400    4.800 
#    0.000    0.000    0.000    0.000    0.000    0.000 
#    0.000    0.000    0.000    0.000    0.000    0.000 
#
# Total GULP energy -111602.078457 kJ/mol
# GULP energy per Si atom -5580.103923 kJ/mol
# Density = 2.085811 g / cm^3
# Si number density = 20.905696 Si / 1000 Ang^3
#
#
#
# Elastic Constant Matrix: (Units=GPa)
#
#
# Indices 1 2 3 4 5 6 
#
# 1 99.3878 25.6236 10.6253 0.0000 0.0000 0.0000
# 2 25.6236 52.2017 37.7803 0.0000 0.0000 0.0000
# 3 10.6253 37.7803 103.8952 0.0000 0.0000 0.0000
# 4 0.0000 0.0000 0.0000 28.6943 0.0000 0.0000
# 5 0.0000 0.0000 0.0000 0.0000 24.3462 0.0000
# 6 0.0000 0.0000 0.0000 0.0000 0.0000 39.6314
#
#
#
# Elastic Compliance Matrix: (Units=1/GPa)
#
#
# Indices 1 2 3 4 5 6 
#
# 1 0.011629 -0.006579 0.001203 0.000000 0.000000 0.000000
# 2 -0.006579 0.029721 -0.010135 0.000000 0.000000 0.000000
# 3 0.001203 -0.010135 0.013187 0.000000 0.000000 0.000000
# 4 0.000000 0.000000 0.000000 0.034850 0.000000 0.000000
# 5 0.000000 0.000000 0.000000 0.000000 0.041074 0.000000
# 6 0.000000 0.000000 0.000000 0.000000 0.000000 0.025233
#
#
# Mechanical properties :
#
#
# Convention : Reuss Voigt Hill
#
# Bulk Modulus (GPa) = 42.52431 44.83813 43.68122
# Shear Modulus (GPa) = 25.69980 30.63141 28.16560
#
# Velocity S-wave (km/s) = 3.50997 3.83197 3.67450
# Velocity P-wave (km/s) = 6.06726 6.40882 6.24038
#
# Compressibility (1/GPa) = 0.02351596
#
# Stress axis : x y z
#
# Youngs Moduli (GPa) = 85.99102 33.64657 75.82973
#
# Poissons Ratio (x) = 0.22136 -0.09123
# Poissons Ratio (y) = 0.56573 0.76852
# Poissons Ratio (z) = -0.10345 0.34100
#
# Static dielectric constant tensor:
#      x y z
#    x 1.729280 0.000000 0.000000 
#    y 0.000000 1.762010 0.000000 
#    z 0.000000 0.000000 1.796050 
# 
# From -- ./inp_files/314.got.cif
#   From: 2010.05.17/outbox.cif.g08.bks.cpg/sg19_1_cif.got.tgz:314.got - 2010.06.03 22:46:19.
