data_PCOD9314304
_publ_section_title
;
Structure prediction by ZEFSAII (Michael W. Deem and Ramdas Pophale) SiO2 
 PCOD9314304
Probable space group: P 21 21 21
;
_chemical_formula_sum "Si O2"
_cell_formula_units_Z 32
_cell_length_a 5.053457
_cell_length_b 16.967907
_cell_length_c 16.187669
_cell_angle_alpha 90.000000
_cell_angle_beta 90.000000
_cell_angle_gamma 90.000000
_cell_volume 1388.037391
_symmetry_space_group_name_H-M "P 21 21 21"
_symmetry_group_IT_number 19
_symmetry_cell_setting 'orthorhombic'
loop_
_space_group_symop_operation_xyz
x,y,z
1/2-x,-y,1/2+z
1/2+x,1/2-y,-z
-x,1/2+y,1/2-z
loop_
_atom_site_type_symbol
_atom_site_label
_atom_site_fract_x
_atom_site_fract_y
_atom_site_fract_z
Si Si1 0.990490 0.487751 0.312216
Si Si2 0.679935 0.437884 0.981286
Si Si3 0.569036 0.720971 0.458453
Si Si4 0.973301 0.511349 0.126917
Si Si5 0.492760 0.892667 0.209700
Si Si6 0.835901 0.134638 0.880229
Si Si7 0.731890 0.238073 0.607190
Si Si8 0.271652 0.664839 0.073456
O O1 0.939342 0.534822 0.395346
O O2 0.904076 0.526851 0.223962
O O3 0.794310 0.412690 0.324576
O O4 0.296685 0.462587 0.307451
O O5 0.899332 0.372214 0.958150
O O6 0.783566 0.503702 0.046385
O O7 0.460945 0.392972 0.034442
O O8 0.267855 0.748992 0.468716
O O9 0.696371 0.771654 0.384131
O O10 0.185791 0.577670 0.100131
O O11 0.091192 0.422670 0.133343
O O12 0.465958 0.885293 0.307306
O O13 0.642353 0.815788 0.177453
O O14 0.931167 0.311763 0.596666
O O15 0.751018 0.183984 0.524364
O O16 0.439583 0.274107 0.614297
#
# Coordination Sequence:
#
# PCOD9314304 Si02
#       8
#     4   4   4   4   4   4   4   4
#     4  11  26  39  66 100 127 168 223 265 321 404
#     4  11  23  41  67  94 134 172 216 272 332 379
#     4  10  21  39  63  93 123 166 217 256 319 393
#     4  11  23  43  64  95 133 169 214 272 330 384
#     4  11  23  44  64  93 133 171 220 267 329 388
#     4  10  23  41  65  94 129 175 214 270 329 390
#     4  10  22  41  60  94 120 170 216 264 310 393
#     4  10  23  38  65  89 127 163 218 260 326 373
#
# _framework density 23.054134000000001
#
# number of rings (size 3 to 8) (size 9 to 14) (size 15 to 20)
#    0.000    1.500    2.500    1.500    5.250    2.000 
#    0.000    5.000    0.000    0.000    0.000    0.000 
#    0.000    0.000    0.000    0.000    0.000    0.000 
#
# Total GULP energy -178515.361086 kJ/mol
# GULP energy per Si atom -5578.605034 kJ/mol
# Density = 2.300166 g / cm^3
# Si number density = 23.054134 Si / 1000 Ang^3
#
#
#
# Elastic Constant Matrix: (Units=GPa)
#
#
# Indices 1 2 3 4 5 6 
#
# 1 59.6839 -4.8906 -1.6798 0.0000 0.0000 0.0000
# 2 -4.8906 52.7471 29.8655 0.0000 0.0000 0.0000
# 3 -1.6798 29.8655 107.0700 0.0000 0.0000 0.0000
# 4 0.0000 0.0000 0.0000 31.9570 0.0000 0.0000
# 5 0.0000 0.0000 0.0000 0.0000 18.2610 0.0000
# 6 0.0000 0.0000 0.0000 0.0000 0.0000 24.6761
#
#
#
# Elastic Compliance Matrix: (Units=1/GPa)
#
#
# Indices 1 2 3 4 5 6 
#
# 1 0.016887 0.001681 -0.000204 0.000000 0.000000 0.000000
# 2 0.001681 0.022682 -0.006300 0.000000 0.000000 0.000000
# 3 -0.000204 -0.006300 0.011094 0.000000 0.000000 0.000000
# 4 0.000000 0.000000 0.000000 0.031292 0.000000 0.000000
# 5 0.000000 0.000000 0.000000 0.000000 0.054762 0.000000
# 6 0.000000 0.000000 0.000000 0.000000 0.000000 0.040525
#
#
# Mechanical properties :
#
#
# Convention : Reuss Voigt Hill
#
# Bulk Modulus (GPa) = 24.38059 29.56568 26.97314
# Shear Modulus (GPa) = 24.93030 28.05921 26.49476
#
# Velocity S-wave (km/s) = 3.29200 3.49248 3.39372
# Velocity P-wave (km/s) = 5.00480 5.39588 5.20402
#
# Compressibility (1/GPa) = 0.04101623
#
# Stress axis : x y z
#
# Youngs Moduli (GPa) = 59.21729 44.08877 90.14007
#
# Poissons Ratio (x) = -0.07412 0.01839
# Poissons Ratio (y) = -0.09956 0.56791
# Poissons Ratio (z) = 0.01208 0.27777
#
# Static dielectric constant tensor:
#      x y z
#    x 1.886810 0.000000 0.000000 
#    y 0.000000 1.951460 0.000000 
#    z 0.000000 0.000000 1.888680 
# 
# From -- ./inp_files/1776.got.cif
#   From: 2010.05.17/outbox.cif.g08.bks.cpg/sg19_1_cif.got.tgz:1776.got - 2010.06.03 22:46:19.
