data_PCOD9314852
_publ_section_title
;
Structure prediction by ZEFSAII (Michael W. Deem and Ramdas Pophale) SiO2 
 PCOD9314852
Probable space group: P 21 21 21
;
_chemical_formula_sum "Si O2"
_cell_formula_units_Z 28
_cell_length_a 5.360123
_cell_length_b 11.482567
_cell_length_c 19.497233
_cell_angle_alpha 90.000000
_cell_angle_beta 90.000000
_cell_angle_gamma 90.000000
_cell_volume 1200.015141
_symmetry_space_group_name_H-M "P 21 21 21"
_symmetry_group_IT_number 19
_symmetry_cell_setting 'orthorhombic'
loop_
_space_group_symop_operation_xyz
x,y,z
1/2-x,-y,1/2+z
1/2+x,1/2-y,-z
-x,1/2+y,1/2-z
loop_
_atom_site_type_symbol
_atom_site_label
_atom_site_fract_x
_atom_site_fract_y
_atom_site_fract_z
Si Si1 0.469636 0.239625 0.761030
Si Si2 0.315469 0.068374 0.071073
Si Si3 0.050892 0.971165 0.426065
Si Si4 0.317139 0.454431 0.182439
Si Si5 0.159833 0.849068 0.827072
Si Si6 0.303442 0.293943 0.903577
Si Si7 0.405775 0.875487 0.182561
O O1 0.583298 0.119311 0.790809
O O2 0.683498 0.330570 0.741928
O O3 0.310246 0.296744 0.820969
O O4 0.345065 0.197319 0.691548
O O5 0.535276 0.164001 0.072172
O O6 0.042169 0.128903 0.072305
O O7 0.360872 0.987305 0.137076
O O8 0.385030 0.993939 0.003567
O O9 0.163972 0.841109 0.422137
O O10 0.764386 0.954555 0.398855
O O11 0.189053 0.064130 0.376656
O O12 0.400187 0.586943 0.189604
O O13 0.517042 0.399889 0.237384
O O14 0.100324 0.716879 0.849450
#
# Coordination Sequence:
#
# PCOD9314852 Si02
#       7
#     4   4   4   4   4   4   4
#     4  10  24  44  71 110 144 188 252 311 386 439
#     4  12  29  48  74 109 155 198 260 312 389 449
#     4  11  26  46  72 106 145 203 252 313 385 458
#     4  10  22  42  74 100 142 184 250 305 375 439
#     4  11  24  43  71 104 146 195 247 305 381 461
#     4  11  27  46  78 105 148 194 254 325 376 453
#     4  11  26  45  72 110 150 196 251 319 376 455
#
# _framework density 23.333037999999998
#
# number of rings (size 3 to 8) (size 9 to 14) (size 15 to 20)
#    0.000    1.143    0.000    4.286   20.000    0.000 
#    5.143    0.000    0.000    0.000    0.000    0.000 
#    0.000    0.000    0.000    0.000    0.000    0.000 
#
# Total GULP energy -155944.941342 kJ/mol
# GULP energy per Si atom -5569.462191 kJ/mol
# Density = 2.327993 g / cm^3
# Si number density = 23.333038 Si / 1000 Ang^3
#
#
#
# Elastic Constant Matrix: (Units=GPa)
#
#
# Indices 1 2 3 4 5 6 
#
# 1 74.7022 22.6686 26.8961 0.0000 0.0000 0.0000
# 2 22.6686 73.1944 17.1938 0.0000 0.0000 0.0000
# 3 26.8961 17.1938 97.2975 0.0000 0.0000 0.0000
# 4 0.0000 0.0000 0.0000 25.7451 0.0000 0.0000
# 5 0.0000 0.0000 0.0000 0.0000 23.3570 0.0000
# 6 0.0000 0.0000 0.0000 0.0000 0.0000 37.8640
#
#
#
# Elastic Compliance Matrix: (Units=1/GPa)
#
#
# Indices 1 2 3 4 5 6 
#
# 1 0.015951 -0.004073 -0.003690 0.000000 0.000000 0.000000
# 2 -0.004073 0.015294 -0.001577 0.000000 0.000000 0.000000
# 3 -0.003690 -0.001577 0.011576 0.000000 0.000000 0.000000
# 4 0.000000 0.000000 0.000000 0.038842 0.000000 0.000000
# 5 0.000000 0.000000 0.000000 0.000000 0.042814 0.000000
# 6 0.000000 0.000000 0.000000 0.000000 0.000000 0.026410
#
#
# Mechanical properties :
#
#
# Convention : Reuss Voigt Hill
#
# Bulk Modulus (GPa) = 41.42120 42.07901 41.75010
# Shear Modulus (GPa) = 28.15087 29.28892 28.71990
#
# Velocity S-wave (km/s) = 3.47721 3.54680 3.51218
# Velocity P-wave (km/s) = 5.82340 5.90308 5.86338
#
# Compressibility (1/GPa) = 0.02414223
#
# Stress axis : x y z
#
# Youngs Moduli (GPa) = 62.69211 65.38443 86.38354
#
# Poissons Ratio (x) = 0.26634 0.31871
# Poissons Ratio (y) = 0.25537 0.13620
# Poissons Ratio (z) = 0.23130 0.10309
#
# Static dielectric constant tensor:
#      x y z
#    x 1.957320 0.000000 0.000000 
#    y 0.000000 1.874800 0.000000 
#    z 0.000000 0.000000 1.951200 
# 
# From -- ./inp_files/6429.got.cif
#   From: 2010.05.17/outbox.cif.g08.bks.cpg/sg19_4_cif.got.tgz:6429.got - 2010.06.03 22:46:19.
