data_PCOD9314048
_publ_section_title
;
Structure prediction by ZEFSAII (Michael W. Deem and Ramdas Pophale) SiO2 
 PCOD9314048
Probable space group: P 21 21 21
;
_chemical_formula_sum "Si O2"
_cell_formula_units_Z 32
_cell_length_a 8.344489
_cell_length_b 7.614544
_cell_length_c 22.350104
_cell_angle_alpha 90.000000
_cell_angle_beta 90.000000
_cell_angle_gamma 90.000000
_cell_volume 1420.113956
_symmetry_space_group_name_H-M "P 21 21 21"
_symmetry_group_IT_number 19
_symmetry_cell_setting 'orthorhombic'
loop_
_space_group_symop_operation_xyz
x,y,z
1/2-x,-y,1/2+z
1/2+x,1/2-y,-z
-x,1/2+y,1/2-z
loop_
_atom_site_type_symbol
_atom_site_label
_atom_site_fract_x
_atom_site_fract_y
_atom_site_fract_z
Si Si1 0.652342 0.460932 0.590035
Si Si2 0.506174 0.066568 0.466066
Si Si3 0.291569 0.814662 0.726941
Si Si4 0.613607 0.776257 0.384063
Si Si5 0.861411 0.945217 0.084685
Si Si6 0.355157 0.442601 0.782676
Si Si7 0.488752 0.474826 0.471263
Si Si8 0.317788 0.883872 0.299419
O O1 0.828062 0.459234 0.559185
O O2 0.612780 0.257725 0.603016
O O3 0.529769 0.526918 0.539540
O O4 0.682491 0.562901 0.651273
O O5 0.507729 0.007795 0.535134
O O6 0.550289 0.273190 0.464091
O O7 0.622372 0.947028 0.426092
O O8 0.260036 0.779459 0.657317
O O9 0.293144 0.626788 0.758524
O O10 0.462824 0.906667 0.735201
O O11 0.164095 0.946534 0.757305
O O12 0.565152 0.614456 0.426262
O O13 0.473612 0.825115 0.336148
O O14 0.696682 0.963972 0.047383
O O15 0.848246 0.051082 0.145272
O O16 0.247019 0.280359 0.762126
#
# Coordination Sequence:
#
# PCOD9314048 Si02
#       8
#     4   4   4   4   4   4   4   4
#     4   9  20  40  64  94 137 168 218 269 331 404
#     4   9  22  40  61 100 135 170 216 275 335 399
#     4  12  28  47  67  99 132 182 237 273 340 403
#     4  11  26  41  68 100 130 176 228 280 335 409
#     4  10  20  40  67  91 137 174 211 275 335 390
#     4  12  25  46  67  94 135 181 226 280 337 401
#     4  10  21  39  63 101 133 173 216 268 343 400
#     4  11  24  45  67  95 135 180 222 286 334 396
#
# _framework density 22.533401000000001
#
# number of rings (size 3 to 8) (size 9 to 14) (size 15 to 20)
#    0.000    1.500    3.750    0.000    5.250    2.000 
#    0.000    0.000    0.000    0.000    0.000    0.000 
#    0.000    0.000    0.000    0.000    0.000    0.000 
#
# Total GULP energy -178899.730103 kJ/mol
# GULP energy per Si atom -5590.616566 kJ/mol
# Density = 2.248211 g / cm^3
# Si number density = 22.533401 Si / 1000 Ang^3
#
#
#
# Elastic Constant Matrix: (Units=GPa)
#
#
# Indices 1 2 3 4 5 6 
#
# 1 23.4382 13.8943 6.6532 0.0000 0.0000 0.0000
# 2 13.8943 110.0310 31.9413 0.0000 0.0000 0.0000
# 3 6.6532 31.9413 65.1868 0.0000 0.0000 0.0000
# 4 0.0000 0.0000 0.0000 38.2904 0.0000 0.0000
# 5 0.0000 0.0000 0.0000 0.0000 33.6741 0.0000
# 6 0.0000 0.0000 0.0000 0.0000 0.0000 3.1772
#
#
#
# Elastic Compliance Matrix: (Units=1/GPa)
#
#
# Indices 1 2 3 4 5 6 
#
# 1 0.046380 -0.005226 -0.002173 0.000000 0.000000 0.000000
# 2 -0.005226 0.011184 -0.004947 0.000000 0.000000 0.000000
# 3 -0.002173 -0.004947 0.017986 0.000000 0.000000 0.000000
# 4 0.000000 0.000000 0.000000 0.026116 0.000000 0.000000
# 5 0.000000 0.000000 0.000000 0.000000 0.029696 0.000000
# 6 0.000000 0.000000 0.000000 0.000000 0.000000 0.314746
#
#
# Mechanical properties :
#
#
# Convention : Reuss Voigt Hill
#
# Bulk Modulus (GPa) = 19.66220 33.73708 26.69964
# Shear Modulus (GPa) = 10.25108 24.77281 17.51194
#
# Velocity S-wave (km/s) = 2.13522 3.31929 2.79077
# Velocity P-wave (km/s) = 3.85015 5.44929 4.71797
#
# Compressibility (1/GPa) = 0.05085900
#
# Stress axis : x y z
#
# Youngs Moduli (GPa) = 21.56096 89.41105 55.59793
#
# Poissons Ratio (x) = 0.46725 0.12082
# Poissons Ratio (y) = 0.11268 0.27504
# Poissons Ratio (z) = 0.04685 0.44231
#
# Static dielectric constant tensor:
#      x y z
#    x 1.842100 0.000000 0.000000 
#    y 0.000000 1.839010 0.000000 
#    z 0.000000 0.000000 1.812110 
# 
# From -- ./inp_files/7086.got.cif
#   From: 2010.05.17/outbox.cif.g08.bks.cpg/sg19_4_cif.got.tgz:7086.got - 2010.06.03 22:46:19.
