data_PCOD9314190
_publ_section_title
;
Structure prediction by ZEFSAII (Michael W. Deem and Ramdas Pophale) SiO2 
 PCOD9314190
Probable space group: P 21 21 21
;
_chemical_formula_sum "Si O2"
_cell_formula_units_Z 28
_cell_length_a 11.057982
_cell_length_b 20.833328
_cell_length_c 5.128601
_cell_angle_alpha 90.000000
_cell_angle_beta 90.000000
_cell_angle_gamma 90.000000
_cell_volume 1181.499230
_symmetry_space_group_name_H-M "P 21 21 21"
_symmetry_group_IT_number 19
_symmetry_cell_setting 'orthorhombic'
loop_
_space_group_symop_operation_xyz
x,y,z
1/2-x,-y,1/2+z
1/2+x,1/2-y,-z
-x,1/2+y,1/2-z
loop_
_atom_site_type_symbol
_atom_site_label
_atom_site_fract_x
_atom_site_fract_y
_atom_site_fract_z
Si Si1 0.735546 0.958458 0.210129
Si Si2 0.673671 0.514068 0.960403
Si Si3 0.020882 0.092398 0.795164
Si Si4 0.197105 0.329817 0.062357
Si Si5 0.563716 0.292799 0.854388
Si Si6 0.830753 0.218175 0.427864
Si Si7 0.251199 0.855406 0.981389
O O1 0.602572 0.928395 0.159970
O O2 0.819184 0.902135 0.334555
O O3 0.721964 0.010379 0.441678
O O4 0.720531 0.506701 0.665425
O O5 0.652247 0.588685 0.030442
O O6 0.564909 0.465869 0.019993
O O7 0.134637 0.109754 0.615367
O O8 0.000692 0.156852 0.957754
O O9 0.086997 0.278942 0.044314
O O10 0.278494 0.298789 0.291860
O O11 0.263173 0.325858 0.784825
O O12 0.474218 0.287125 0.608153
O O13 0.689544 0.328320 0.782993
O O14 0.793734 0.292079 0.372670
#
# Coordination Sequence:
#
# PCOD9314190 Si02
#       7
#     4   4   4   4   4   4   4
#     4  12  28  46  68  96 136 181 227 273 329 409
#     4  10  21  36  62  96 129 164 217 268 316 396
#     4  11  22  41  70  90 132 179 219 265 346 380
#     4  11  24  44  66 100 131 171 225 273 326 404
#     4  11  22  40  69  97 130 177 212 277 341 393
#     4  11  23  39  69  99 130 166 223 272 332 398
#     4  10  22  40  64 100 130 172 219 274 328 402
#
# _framework density 23.698703999999999
#
# number of rings (size 3 to 8) (size 9 to 14) (size 15 to 20)
#    0.000    1.143    4.286    1.714    2.000    1.143 
#    0.000    5.714    0.000    0.000    0.000    0.000 
#    0.000    0.000    0.000    0.000    0.000    0.000 
#
# Total GULP energy -156440.188321 kJ/mol
# GULP energy per Si atom -5587.149583 kJ/mol
# Density = 2.364477 g / cm^3
# Si number density = 23.698704 Si / 1000 Ang^3
#
#
#
# Elastic Constant Matrix: (Units=GPa)
#
#
# Indices 1 2 3 4 5 6 
#
# 1 44.7422 16.1319 8.5475 0.0000 0.0000 0.0000
# 2 16.1319 123.0152 13.9437 0.0000 0.0000 0.0000
# 3 8.5475 13.9437 70.7559 0.0000 0.0000 0.0000
# 4 0.0000 0.0000 0.0000 21.3387 0.0000 0.0000
# 5 0.0000 0.0000 0.0000 0.0000 30.5908 0.0000
# 6 0.0000 0.0000 0.0000 0.0000 0.0000 30.0111
#
#
#
# Elastic Compliance Matrix: (Units=1/GPa)
#
#
# Indices 1 2 3 4 5 6 
#
# 1 0.023824 -0.002862 -0.002314 0.000000 0.000000 0.000000
# 2 -0.002862 0.008659 -0.001361 0.000000 0.000000 0.000000
# 3 -0.002314 -0.001361 0.014681 0.000000 0.000000 0.000000
# 4 0.000000 0.000000 0.000000 0.046863 0.000000 0.000000
# 5 0.000000 0.000000 0.000000 0.000000 0.032690 0.000000
# 6 0.000000 0.000000 0.000000 0.000000 0.000000 0.033321
#
#
# Mechanical properties :
#
#
# Convention : Reuss Voigt Hill
#
# Bulk Modulus (GPa) = 29.33374 35.08438 32.20906
# Shear Modulus (GPa) = 27.10408 29.71414 28.40911
#
# Velocity S-wave (km/s) = 3.38552 3.54479 3.46607
# Velocity P-wave (km/s) = 5.26185 5.62054 5.44415
#
# Compressibility (1/GPa) = 0.03409044
#
# Stress axis : x y z
#
# Youngs Moduli (GPa) = 41.97404 115.49193 68.11633
#
# Poissons Ratio (x) = 0.33053 0.15762
# Poissons Ratio (y) = 0.12013 0.09268
# Poissons Ratio (z) = 0.09713 0.15714
#
# Static dielectric constant tensor:
#      x y z
#    x 1.900910 0.000000 0.000000 
#    y 0.000000 1.990390 0.000000 
#    z 0.000000 0.000000 1.900630 
# 
# From -- ./inp_files/1050.got.cif
#   From: 2010.05.17/outbox.cif.g08.bks.cpg/sg19_1_cif.got.tgz:1050.got - 2010.06.03 22:46:19.
