data_PCOD9314984
_publ_section_title
;
Structure prediction by ZEFSAII (Michael W. Deem and Ramdas Pophale) SiO2 
 PCOD9314984
Probable space group: P 21 21 21
;
_chemical_formula_sum "Si O2"
_cell_formula_units_Z 32
_cell_length_a 11.231423
_cell_length_b 5.156898
_cell_length_c 20.622741
_cell_angle_alpha 90.000000
_cell_angle_beta 90.000000
_cell_angle_gamma 90.000000
_cell_volume 1194.454781
_symmetry_space_group_name_H-M "P 21 21 21"
_symmetry_group_IT_number 19
_symmetry_cell_setting 'orthorhombic'
loop_
_space_group_symop_operation_xyz
x,y,z
1/2-x,-y,1/2+z
1/2+x,1/2-y,-z
-x,1/2+y,1/2-z
loop_
_atom_site_type_symbol
_atom_site_label
_atom_site_fract_x
_atom_site_fract_y
_atom_site_fract_z
Si Si1 0.364037 0.195514 0.706739
Si Si2 0.412369 0.832168 0.384153
Si Si3 0.899005 0.181321 0.528588
Si Si4 0.831612 0.078882 0.826224
Si Si5 0.281105 0.696670 0.545925
Si Si6 0.734597 0.651911 0.204540
Si Si7 0.941966 0.368443 0.041932
Si Si8 0.089082 0.522829 0.339345
O O1 0.241119 0.312022 0.679891
O O2 0.403732 0.387102 0.764533
O O3 0.335428 0.935885 0.745485
O O4 0.468472 0.144545 0.656363
O O5 0.378046 0.053768 0.435434
O O6 0.541885 0.917175 0.360195
O O7 0.325852 0.897036 0.324505
O O8 0.411104 0.549080 0.416485
O O9 0.017970 0.151680 0.484385
O O10 0.793375 0.101585 0.479813
O O11 0.750242 0.230283 0.878956
O O12 0.849490 0.190871 0.753772
O O13 0.423201 0.761066 0.537960
O O14 0.168795 0.795012 0.504099
O O15 0.798347 0.833664 0.152191
O O16 0.906926 0.268550 0.113099
#
# Coordination Sequence:
#
# PCOD9314984 Si02
#       8
#     4   4   4   4   4   4   4   4
#     4  11  25  42  70 108 143 194 251 313 377 448
#     4  12  27  51  75 110 155 192 252 308 379 458
#     4  10  27  48  75 109 148 198 250 308 372 451
#     4  11  26  46  73 107 150 192 252 308 382 452
#     4  10  22  49  70 110 148 200 251 311 378 452
#     4  11  27  43  75 102 146 198 248 312 383 442
#     4  10  23  43  76 100 155 189 257 306 384 442
#     4  11  23  46  68 106 145 193 251 310 373 449
#
# _framework density 26.790464
#
# number of rings (size 3 to 8) (size 9 to 14) (size 15 to 20)
#    0.750    0.500    2.500    1.500   10.500    2.000 
#    4.500    0.000    0.000    0.000    0.000    0.000 
#    0.000    0.000    0.000    0.000    0.000    0.000 
#
# Total GULP energy -178702.898354 kJ/mol
# GULP energy per Si atom -5584.465574 kJ/mol
# Density = 2.672949 g / cm^3
# Si number density = 26.790464 Si / 1000 Ang^3
#
#
#
# Elastic Constant Matrix: (Units=GPa)
#
#
# Indices 1 2 3 4 5 6 
#
# 1 135.8984 14.6161 41.2059 0.0000 0.0000 0.0000
# 2 14.6161 81.6291 37.5119 0.0000 0.0000 0.0000
# 3 41.2059 37.5119 102.1596 0.0000 0.0000 0.0000
# 4 0.0000 0.0000 0.0000 40.6075 0.0000 0.0000
# 5 0.0000 0.0000 0.0000 0.0000 22.4604 0.0000
# 6 0.0000 0.0000 0.0000 0.0000 0.0000 31.9297
#
#
#
# Elastic Compliance Matrix: (Units=1/GPa)
#
#
# Indices 1 2 3 4 5 6 
#
# 1 0.008384 0.000064 -0.003405 0.000000 0.000000 0.000000
# 2 0.000064 0.014738 -0.005437 0.000000 0.000000 0.000000
# 3 -0.003405 -0.005437 0.013158 0.000000 0.000000 0.000000
# 4 0.000000 0.000000 0.000000 0.024626 0.000000 0.000000
# 5 0.000000 0.000000 0.000000 0.000000 0.044523 0.000000
# 6 0.000000 0.000000 0.000000 0.000000 0.000000 0.031319
#
#
# Mechanical properties :
#
#
# Convention : Reuss Voigt Hill
#
# Bulk Modulus (GPa) = 53.41032 56.26166 54.83599
# Shear Modulus (GPa) = 31.14366 34.08972 32.61669
#
# Velocity S-wave (km/s) = 3.41323 3.57102 3.49302
# Velocity P-wave (km/s) = 5.95929 6.16840 6.06475
#
# Compressibility (1/GPa) = 0.01872297
#
# Stress axis : x y z
#
# Youngs Moduli (GPa) = 119.27417 67.85290 75.99657
#
# Poissons Ratio (x) = -0.00431 0.25877
# Poissons Ratio (y) = -0.00758 0.41321
# Poissons Ratio (z) = 0.40613 0.36893
#
# Static dielectric constant tensor:
#      x y z
#    x 2.124600 0.000000 0.000000 
#    y 0.000000 2.185060 0.000000 
#    z 0.000000 0.000000 2.139030 
# 
# From -- ./inp_files/7184.got.cif
#   From: 2010.05.17/outbox.cif.g08.bks.cpg/sg19_4_cif.got.tgz:7184.got - 2010.06.03 22:46:19.
