data_PCOD9314508
_publ_section_title
;
Structure prediction by ZEFSAII (Michael W. Deem and Ramdas Pophale) SiO2 
 PCOD9314508
Probable space group: P 21 21 21
;
_chemical_formula_sum "Si O2"
_cell_formula_units_Z 28
_cell_length_a 11.902661
_cell_length_b 5.099416
_cell_length_c 17.006857
_cell_angle_alpha 90.000000
_cell_angle_beta 90.000000
_cell_angle_gamma 90.000000
_cell_volume 1032.258736
_symmetry_space_group_name_H-M "P 21 21 21"
_symmetry_group_IT_number 19
_symmetry_cell_setting 'orthorhombic'
loop_
_space_group_symop_operation_xyz
x,y,z
1/2-x,-y,1/2+z
1/2+x,1/2-y,-z
-x,1/2+y,1/2-z
loop_
_atom_site_type_symbol
_atom_site_label
_atom_site_fract_x
_atom_site_fract_y
_atom_site_fract_z
Si Si1 0.631755 0.311072 0.533677
Si Si2 0.677665 0.090740 0.385669
Si Si3 0.930226 0.255695 0.749640
Si Si4 0.678796 0.783761 0.762392
Si Si5 0.979479 0.850744 0.352393
Si Si6 0.194297 0.497697 0.876410
Si Si7 0.165375 0.196031 0.019759
O O1 0.591438 0.207228 0.449032
O O2 0.538574 0.455191 0.584926
O O3 0.686742 0.084649 0.586775
O O4 0.742365 0.486383 0.509968
O O5 0.626713 0.888618 0.323533
O O6 0.750017 0.309419 0.337855
O O7 0.763453 0.926701 0.439079
O O8 0.027273 0.042444 0.730821
O O9 0.858144 0.242340 0.669777
O O10 0.573628 0.670781 0.715627
O O11 0.624756 0.046752 0.800084
O O12 0.770550 0.814471 0.695270
O O13 0.929290 0.633362 0.413912
O O14 0.122203 0.341198 0.940379
#
# Coordination Sequence:
#
# PCOD9314508 Si02
#       7
#     4   4   4   4   4   4   4
#     4  11  23  44  71  97 141 186 230 311 361 440
#     4   9  24  44  65  94 144 183 243 294 377 416
#     4  11  27  45  72 107 141 195 246 300 357 446
#     4  10  21  43  62  98 131 176 235 291 351 439
#     4  11  23  38  71 101 134 183 240 291 368 432
#     4  10  23  46  64  97 142 183 234 299 366 419
#     4  10  23  42  63 102 137 182 236 302 362 436
#
# _framework density 27.124980999999998
#
# number of rings (size 3 to 8) (size 9 to 14) (size 15 to 20)
#    0.000    1.714    1.429    0.857    8.000    0.000 
#    2.571    0.000    0.000    0.000    0.000    0.000 
#    0.000    0.000    0.000    0.000    0.000    0.000 
#
# Total GULP energy -156338.154268 kJ/mol
# GULP energy per Si atom -5583.505510 kJ/mol
# Density = 2.706324 g / cm^3
# Si number density = 27.124981 Si / 1000 Ang^3
#
#
#
# Elastic Constant Matrix: (Units=GPa)
#
#
# Indices 1 2 3 4 5 6 
#
# 1 64.8947 23.8389 29.3810 0.0000 0.0000 0.0000
# 2 23.8389 63.3476 19.0580 0.0000 0.0000 0.0000
# 3 29.3810 19.0580 157.3518 0.0000 0.0000 0.0000
# 4 0.0000 0.0000 0.0000 26.0399 0.0000 0.0000
# 5 0.0000 0.0000 0.0000 0.0000 34.8151 0.0000
# 6 0.0000 0.0000 0.0000 0.0000 0.0000 46.7770
#
#
#
# Elastic Compliance Matrix: (Units=1/GPa)
#
#
# Indices 1 2 3 4 5 6 
#
# 1 0.018986 -0.006308 -0.002781 0.000000 0.000000 0.000000
# 2 -0.006308 0.018479 -0.001060 0.000000 0.000000 0.000000
# 3 -0.002781 -0.001060 0.007003 0.000000 0.000000 0.000000
# 4 0.000000 0.000000 0.000000 0.038403 0.000000 0.000000
# 5 0.000000 0.000000 0.000000 0.000000 0.028723 0.000000
# 6 0.000000 0.000000 0.000000 0.000000 0.000000 0.021378
#
#
# Mechanical properties :
#
#
# Convention : Reuss Voigt Hill
#
# Bulk Modulus (GPa) = 41.37571 47.79446 44.58509
# Shear Modulus (GPa) = 30.99304 35.74746 33.37025
#
# Velocity S-wave (km/s) = 3.38391 3.63420 3.51128
# Velocity P-wave (km/s) = 5.52762 5.93871 5.73685
#
# Compressibility (1/GPa) = 0.02416877
#
# Stress axis : x y z
#
# Youngs Moduli (GPa) = 52.67045 54.11625 142.79822
#
# Poissons Ratio (x) = 0.34137 0.39713
# Poissons Ratio (y) = 0.33225 0.15140
# Poissons Ratio (z) = 0.14648 0.05738
#
# Static dielectric constant tensor:
#      x y z
#    x 2.188600 0.000000 0.000000 
#    y 0.000000 2.182310 0.000000 
#    z 0.000000 0.000000 2.122380 
# 
# From -- ./inp_files/1079.got.cif
#   From: 2010.05.17/outbox.cif.g08.bks.cpg/sg19_1_cif.got.tgz:1079.got - 2010.06.03 22:46:19.
