data_PCOD9314148
_publ_section_title
;
Structure prediction by ZEFSAII (Michael W. Deem and Ramdas Pophale) SiO2 
 PCOD9314148
Probable space group: P 21 21 21
;
_chemical_formula_sum "Si O2"
_cell_formula_units_Z 32
_cell_length_a 11.930485
_cell_length_b 8.785877
_cell_length_c 13.757073
_cell_angle_alpha 90.000000
_cell_angle_beta 90.000000
_cell_angle_gamma 90.000000
_cell_volume 1442.013279
_symmetry_space_group_name_H-M "P 21 21 21"
_symmetry_group_IT_number 19
_symmetry_cell_setting 'orthorhombic'
loop_
_space_group_symop_operation_xyz
x,y,z
1/2-x,-y,1/2+z
1/2+x,1/2-y,-z
-x,1/2+y,1/2-z
loop_
_atom_site_type_symbol
_atom_site_label
_atom_site_fract_x
_atom_site_fract_y
_atom_site_fract_z
Si Si1 0.385965 0.783501 0.804792
Si Si2 0.418083 0.330765 0.419156
Si Si3 0.663442 0.554598 0.170390
Si Si4 0.590405 0.559337 0.390029
Si Si5 0.167623 0.065428 0.101508
Si Si6 0.641621 0.797175 0.865133
Si Si7 0.629684 0.254541 0.078242
Si Si8 0.261100 0.479416 0.816022
O O1 0.288511 0.885589 0.854055
O O2 0.365102 0.831100 0.693264
O O3 0.512097 0.819281 0.833497
O O4 0.359226 0.605360 0.823996
O O5 0.414950 0.152378 0.399537
O O6 0.543619 0.392693 0.415199
O O7 0.357321 0.357253 0.523125
O O8 0.348771 0.410978 0.330455
O O9 0.626687 0.587334 0.279556
O O10 0.649870 0.376943 0.161387
O O11 0.706845 0.591011 0.441110
O O12 0.482453 0.658505 0.410590
O O13 0.161228 0.886786 0.129955
O O14 0.102322 0.140916 0.014009
O O15 0.716941 0.887287 0.785008
O O16 0.734639 0.139521 0.096693
#
# Coordination Sequence:
#
# PCOD9314148 Si02
#       8
#     4   4   4   4   4   4   4   4
#     4  10  24  42  68 100 141 182 229 293 357 419
#     4  10  23  42  68 102 135 187 242 287 360 426
#     4  10  20  44  66  97 141 178 230 291 350 424
#     4  10  23  40  65  96 138 184 227 294 352 423
#     4  11  25  45  69 105 139 185 241 294 358 426
#     4  12  24  44  72 101 143 192 238 298 360 424
#     4  11  23  43  68  99 138 182 238 289 357 424
#     4  10  24  42  66  98 141 180 233 292 354 422
#
# _framework density 22.191196000000001
#
# number of rings (size 3 to 8) (size 9 to 14) (size 15 to 20)
#    0.000    1.500    1.250    3.000    5.250    4.000 
#    0.000    0.000    0.000    0.000    0.000    0.000 
#    0.000    0.000    0.000    0.000    0.000    0.000 
#
# Total GULP energy -178182.730539 kJ/mol
# GULP energy per Si atom -5568.210329 kJ/mol
# Density = 2.214069 g / cm^3
# Si number density = 22.191196 Si / 1000 Ang^3
#
#
#
# Elastic Constant Matrix: (Units=GPa)
#
#
# Indices 1 2 3 4 5 6 
#
# 1 68.0369 36.3738 12.6488 0.0000 0.0000 0.0000
# 2 36.3738 67.6484 6.7436 0.0000 0.0000 0.0000
# 3 12.6488 6.7436 51.2604 0.0000 0.0000 0.0000
# 4 0.0000 0.0000 0.0000 34.3263 0.0000 0.0000
# 5 0.0000 0.0000 0.0000 0.0000 28.9557 0.0000
# 6 0.0000 0.0000 0.0000 0.0000 0.0000 22.3430
#
#
#
# Elastic Compliance Matrix: (Units=1/GPa)
#
#
# Indices 1 2 3 4 5 6 
#
# 1 0.021336 -0.011093 -0.003805 0.000000 0.000000 0.000000
# 2 -0.011093 0.020746 0.000008 0.000000 0.000000 0.000000
# 3 -0.003805 0.000008 0.020446 0.000000 0.000000 0.000000
# 4 0.000000 0.000000 0.000000 0.029132 0.000000 0.000000
# 5 0.000000 0.000000 0.000000 0.000000 0.034536 0.000000
# 6 0.000000 0.000000 0.000000 0.000000 0.000000 0.044757
#
#
# Mechanical properties :
#
#
# Convention : Reuss Voigt Hill
#
# Bulk Modulus (GPa) = 30.53660 33.16425 31.85043
# Shear Modulus (GPa) = 23.62408 25.87028 24.74718
#
# Velocity S-wave (km/s) = 3.26631 3.41807 3.34305
# Velocity P-wave (km/s) = 5.29298 5.52764 5.41158
#
# Compressibility (1/GPa) = 0.03274758
#
# Stress axis : x y z
#
# Youngs Moduli (GPa) = 46.86979 48.20227 48.90883
#
# Poissons Ratio (x) = 0.53469 0.18612
# Poissons Ratio (y) = 0.51991 -0.00039
# Poissons Ratio (z) = 0.17836 -0.00038
#
# Static dielectric constant tensor:
#      x y z
#    x 1.913600 0.000000 0.000000 
#    y 0.000000 1.721880 0.000000 
#    z 0.000000 0.000000 2.016810 
# 
# From -- ./inp_files/6094.got.cif
#   From: 2010.05.17/outbox.cif.g08.bks.cpg/sg19_4_cif.got.tgz:6094.got - 2010.06.03 22:46:19.
