data_PCOD9314727
_publ_section_title
;
Structure prediction by ZEFSAII (Michael W. Deem and Ramdas Pophale) SiO2 
 PCOD9314727
Probable space group: P 21 21 21
;
_chemical_formula_sum "Si O2"
_cell_formula_units_Z 28
_cell_length_a 12.819498
_cell_length_b 10.939292
_cell_length_c 9.161441
_cell_angle_alpha 90.000000
_cell_angle_beta 90.000000
_cell_angle_gamma 90.000000
_cell_volume 1284.765965
_symmetry_space_group_name_H-M "P 21 21 21"
_symmetry_group_IT_number 19
_symmetry_cell_setting 'orthorhombic'
loop_
_space_group_symop_operation_xyz
x,y,z
1/2-x,-y,1/2+z
1/2+x,1/2-y,-z
-x,1/2+y,1/2-z
loop_
_atom_site_type_symbol
_atom_site_label
_atom_site_fract_x
_atom_site_fract_y
_atom_site_fract_z
Si Si1 0.363725 0.077815 0.926792
Si Si2 0.610115 0.305722 0.267050
Si Si3 0.836381 0.945488 0.701680
Si Si4 0.509567 0.504523 0.059478
Si Si5 0.699938 0.558181 0.889565
Si Si6 0.894263 0.148082 0.183531
Si Si7 0.539133 0.887818 0.004949
O O1 0.338536 0.019098 0.769628
O O2 0.377308 0.220953 0.894462
O O3 0.463102 0.006398 0.988397
O O4 0.268471 0.046576 0.033728
O O5 0.622510 0.190505 0.161601
O O6 0.573795 0.421013 0.173449
O O7 0.718150 0.333214 0.352181
O O8 0.521947 0.294700 0.390259
O O9 0.713064 0.926513 0.708777
O O10 0.863721 0.054637 0.591894
O O11 0.903804 0.963278 0.850656
O O12 0.601520 0.588760 0.991436
O O13 0.469111 0.428434 0.921122
O O14 0.940201 0.162848 0.345150
#
# Coordination Sequence:
#
# PCOD9314727 Si02
#       7
#     4   4   4   4   4   4   4
#     4  11  23  40  67  90 124 159 207 262 306 373
#     4  10  22  41  64  90 123 164 210 257 319 370
#     4  11  23  41  59  85 129 167 204 256 307 373
#     4  11  23  39  63  90 126 163 205 261 316 367
#     4  11  20  42  63  92 118 163 205 263 305 368
#     4  12  23  41  62  91 126 166 210 252 315 371
#     4  10  24  40  62  94 124 160 211 255 312 372
#
# _framework density 21.793852999999999
#
# number of rings (size 3 to 8) (size 9 to 14) (size 15 to 20)
#    0.000    1.143    4.286    1.714    2.000    0.000 
#    0.000    0.000    3.143    0.000    0.000    0.000 
#    0.000    0.000    0.000    0.000    0.000    0.000 
#
# Total GULP energy -156232.323109 kJ/mol
# GULP energy per Si atom -5579.725825 kJ/mol
# Density = 2.174425 g / cm^3
# Si number density = 21.793853 Si / 1000 Ang^3
#
#
#
# Elastic Constant Matrix: (Units=GPa)
#
#
# Indices 1 2 3 4 5 6 
#
# 1 85.9936 14.3285 17.0485 0.0000 0.0000 0.0000
# 2 14.3285 39.3878 2.1948 0.0000 0.0000 0.0000
# 3 17.0485 2.1948 73.7875 0.0000 0.0000 0.0000
# 4 0.0000 0.0000 0.0000 30.4148 0.0000 0.0000
# 5 0.0000 0.0000 0.0000 0.0000 48.2652 0.0000
# 6 0.0000 0.0000 0.0000 0.0000 0.0000 23.3869
#
#
#
# Elastic Compliance Matrix: (Units=1/GPa)
#
#
# Indices 1 2 3 4 5 6 
#
# 1 0.012954 -0.004553 -0.002858 0.000000 0.000000 0.000000
# 2 -0.004553 0.027031 0.000248 0.000000 0.000000 0.000000
# 3 -0.002858 0.000248 0.014205 0.000000 0.000000 0.000000
# 4 0.000000 0.000000 0.000000 0.032879 0.000000 0.000000
# 5 0.000000 0.000000 0.000000 0.000000 0.020719 0.000000
# 6 0.000000 0.000000 0.000000 0.000000 0.000000 0.042759
#
#
# Mechanical properties :
#
#
# Convention : Reuss Voigt Hill
#
# Bulk Modulus (GPa) = 25.08478 29.59030 27.33754
# Shear Modulus (GPa) = 28.06455 31.45319 29.75887
#
# Velocity S-wave (km/s) = 3.59239 3.80309 3.69924
# Velocity P-wave (km/s) = 5.36116 5.73511 5.55128
#
# Compressibility (1/GPa) = 0.03986481
#
# Stress axis : x y z
#
# Youngs Moduli (GPa) = 77.19653 36.99442 70.39630
#
# Poissons Ratio (x) = 0.16844 0.20116
# Poissons Ratio (y) = 0.35149 -0.01745
# Poissons Ratio (z) = 0.22059 -0.00917
#
# Static dielectric constant tensor:
#      x y z
#    x 1.833920 0.000000 0.000000 
#    y 0.000000 1.827800 0.000000 
#    z 0.000000 0.000000 1.776340 
# 
# From -- ./inp_files/3457.got.cif
#   From: 2010.05.17/outbox.cif.g08.bks.cpg/sg19_2_cif.got.tgz:3457.got - 2010.06.03 22:46:19.
