data_PCOD9314431
_publ_section_title
;
Structure prediction by ZEFSAII (Michael W. Deem and Ramdas Pophale) SiO2 
 PCOD9314431
Probable space group: P 21 21 21
;
_chemical_formula_sum "Si O2"
_cell_formula_units_Z 32
_cell_length_a 12.434943
_cell_length_b 10.736441
_cell_length_c 10.704629
_cell_angle_alpha 90.000000
_cell_angle_beta 90.000000
_cell_angle_gamma 90.000000
_cell_volume 1429.143245
_symmetry_space_group_name_H-M "P 21 21 21"
_symmetry_group_IT_number 19
_symmetry_cell_setting 'orthorhombic'
loop_
_space_group_symop_operation_xyz
x,y,z
1/2-x,-y,1/2+z
1/2+x,1/2-y,-z
-x,1/2+y,1/2-z
loop_
_atom_site_type_symbol
_atom_site_label
_atom_site_fract_x
_atom_site_fract_y
_atom_site_fract_z
Si Si1 0.119471 0.147649 0.987935
Si Si2 0.152201 0.801119 0.094341
Si Si3 0.679744 0.706663 0.187535
Si Si4 0.691054 0.081635 0.395051
Si Si5 0.051572 0.198482 0.702867
Si Si6 0.300991 0.999321 0.117803
Si Si7 0.458831 0.549849 0.881556
Si Si8 0.337120 0.636063 0.668759
O O1 0.123350 0.285163 0.050239
O O2 0.236428 0.084395 0.017176
O O3 0.086730 0.158626 0.843061
O O4 0.031712 0.061668 0.061842
O O5 0.204449 0.669383 0.116562
O O6 0.208683 0.908406 0.176141
O O7 0.027251 0.823469 0.101935
O O8 0.188061 0.835942 0.954183
O O9 0.576382 0.796686 0.190562
O O10 0.654704 0.595658 0.281604
O O11 0.791794 0.761844 0.234422
O O12 0.599929 0.163031 0.324832
O O13 0.646620 0.060391 0.533778
O O14 0.732420 0.948108 0.353774
O O15 0.104364 0.102584 0.602784
O O16 0.425154 0.551334 0.737614
#
# Coordination Sequence:
#
# PCOD9314431 Si02
#       8
#     4   4   4   4   4   4   4   4
#     4  10  24  45  64  96 135 175 223 271 337 407
#     4  10  21  41  65  97 129 171 218 264 333 401
#     4  11  21  40  67  96 129 168 227 269 328 394
#     4  11  24  42  68  99 129 173 218 281 326 390
#     4  11  23  41  71  98 130 174 228 275 336 391
#     4   9  21  40  63  92 127 173 209 272 327 389
#     4  11  22  44  69  90 138 172 216 274 332 401
#     4  11  26  41  65  96 135 174 213 278 333 397
#
# _framework density 22.391037000000001
#
# number of rings (size 3 to 8) (size 9 to 14) (size 15 to 20)
#    0.000    1.500    2.500    2.250    5.250    0.000 
#    0.000    3.750    0.000    0.000    0.000    0.000 
#    0.000    0.000    0.000    0.000    0.000    0.000 
#
# Total GULP energy -178363.384577 kJ/mol
# GULP energy per Si atom -5573.855768 kJ/mol
# Density = 2.234007 g / cm^3
# Si number density = 22.391037 Si / 1000 Ang^3
#
#
#
# Elastic Constant Matrix: (Units=GPa)
#
#
# Indices 1 2 3 4 5 6 
#
# 1 30.4578 3.9716 5.4002 0.0000 0.0000 0.0000
# 2 3.9716 45.4794 -10.9177 0.0000 0.0000 0.0000
# 3 5.4002 -10.9177 35.9547 0.0000 0.0000 0.0000
# 4 0.0000 0.0000 0.0000 20.8780 0.0000 0.0000
# 5 0.0000 0.0000 0.0000 0.0000 11.7119 0.0000
# 6 0.0000 0.0000 0.0000 0.0000 0.0000 34.1473
#
#
#
# Elastic Compliance Matrix: (Units=1/GPa)
#
#
# Indices 1 2 3 4 5 6 
#
# 1 0.034602 -0.004605 -0.006595 0.000000 0.000000 0.000000
# 2 -0.004605 0.024330 0.008079 0.000000 0.000000 0.000000
# 3 -0.006595 0.008079 0.031257 0.000000 0.000000 0.000000
# 4 0.000000 0.000000 0.000000 0.047897 0.000000 0.000000
# 5 0.000000 0.000000 0.000000 0.000000 0.085383 0.000000
# 6 0.000000 0.000000 0.000000 0.000000 0.000000 0.029285
#
#
# Mechanical properties :
#
#
# Convention : Reuss Voigt Hill
#
# Bulk Modulus (GPa) = 11.91233 12.08889 12.00061
# Shear Modulus (GPa) = 17.42294 20.90997 19.16646
#
# Velocity S-wave (km/s) = 2.79251 3.05922 2.92890
# Velocity P-wave (km/s) = 3.96600 4.22955 4.09990
#
# Compressibility (1/GPa) = 0.08394662
#
# Stress axis : x y z
#
# Youngs Moduli (GPa) = 28.89999 41.10215 31.99317
#
# Poissons Ratio (x) = 0.18927 0.21100
# Poissons Ratio (y) = 0.13308 -0.25849
# Poissons Ratio (z) = 0.19060 -0.33208
#
# Static dielectric constant tensor:
#      x y z
#    x 1.838400 0.000000 0.000000 
#    y 0.000000 1.860880 0.000000 
#    z 0.000000 0.000000 1.828200 
# 
# From -- ./inp_files/5033.got.cif
#   From: 2010.05.17/outbox.cif.g08.bks.cpg/sg19_3_cif.got.tgz:5033.got - 2010.06.03 22:46:19.
