data_PCOD9314253
_publ_section_title
;
Structure prediction by ZEFSAII (Michael W. Deem and Ramdas Pophale) SiO2 
 PCOD9314253
Probable space group: P 21 21 21
;
_chemical_formula_sum "Si O2"
_cell_formula_units_Z 24
_cell_length_a 7.486279
_cell_length_b 13.195345
_cell_length_c 9.411257
_cell_angle_alpha 90.000000
_cell_angle_beta 90.000000
_cell_angle_gamma 90.000000
_cell_volume 929.681933
_symmetry_space_group_name_H-M "P 21 21 21"
_symmetry_group_IT_number 19
_symmetry_cell_setting 'orthorhombic'
loop_
_space_group_symop_operation_xyz
x,y,z
1/2-x,-y,1/2+z
1/2+x,1/2-y,-z
-x,1/2+y,1/2-z
loop_
_atom_site_type_symbol
_atom_site_label
_atom_site_fract_x
_atom_site_fract_y
_atom_site_fract_z
Si Si1 0.555337 0.659051 0.588062
Si Si2 0.265036 0.997841 0.056894
Si Si3 0.888888 0.114820 0.437967
Si Si4 0.772805 0.851998 0.657627
Si Si5 0.864553 0.367193 0.680621
Si Si6 0.408659 0.686676 0.872891
O O1 0.729471 0.601820 0.531784
O O2 0.621838 0.773763 0.605311
O O3 0.388705 0.632897 0.485850
O O4 0.503177 0.628855 0.745697
O O5 0.290078 0.043018 0.214878
O O6 0.450660 0.942826 0.013070
O O7 0.131309 0.921526 0.975089
O O8 0.838288 0.083996 0.276367
O O9 0.717127 0.114062 0.536734
O O10 0.949313 0.232972 0.436185
O O11 0.944361 0.827713 0.761173
O O12 0.730570 0.272457 0.690159
#
# Coordination Sequence:
#
# PCOD9314253 Si02
#       6
#     4   4   4   4   4   4
#     4  10  21  38  62  90 120 159 207 256 311 371
#     4  10  23  40  60  91 124 161 207 263 320 364
#     4  10  22  39  60  89 125 165 209 255 314 377
#     4  10  21  39  61  89 123 164 209 255 311 382
#     4  10  22  41  61  87 124 164 209 259 314 374
#     4  10  21  39  62  88 122 165 209 252 308 382
#
# _framework density 25.815282
#
# number of rings (size 3 to 8) (size 9 to 14) (size 15 to 20)
#    0.000    2.000    0.000    3.000    0.000   10.667 
#    0.000   15.000    0.000    0.000    0.000    0.000 
#    0.000    0.000    0.000    0.000    0.000    0.000 
#
# Total GULP energy -133672.757562 kJ/mol
# GULP energy per Si atom -5569.698232 kJ/mol
# Density = 2.575652 g / cm^3
# Si number density = 25.815282 Si / 1000 Ang^3
#
#
#
# Elastic Constant Matrix: (Units=GPa)
#
#
# Indices 1 2 3 4 5 6 
#
# 1 104.3045 -3.2472 -14.6016 0.0000 0.0000 0.0000
# 2 -3.2472 52.1915 -0.3385 0.0000 0.0000 0.0000
# 3 -14.6016 -0.3385 96.5592 0.0000 0.0000 0.0000
# 4 0.0000 0.0000 0.0000 32.7824 0.0000 0.0000
# 5 0.0000 0.0000 0.0000 0.0000 49.6743 0.0000
# 6 0.0000 0.0000 0.0000 0.0000 0.0000 29.2283
#
#
#
# Elastic Compliance Matrix: (Units=1/GPa)
#
#
# Indices 1 2 3 4 5 6 
#
# 1 0.009815 0.000620 0.001486 0.000000 0.000000 0.000000
# 2 0.000620 0.019200 0.000161 0.000000 0.000000 0.000000
# 3 0.001486 0.000161 0.010582 0.000000 0.000000 0.000000
# 4 0.000000 0.000000 0.000000 0.030504 0.000000 0.000000
# 5 0.000000 0.000000 0.000000 0.000000 0.020131 0.000000
# 6 0.000000 0.000000 0.000000 0.000000 0.000000 0.034213
#
#
# Mechanical properties :
#
#
# Convention : Reuss Voigt Hill
#
# Bulk Modulus (GPa) = 22.65944 24.07561 23.36752
# Shear Modulus (GPa) = 37.14158 40.41985 38.78071
#
# Velocity S-wave (km/s) = 3.79719 3.96123 3.88008
# Velocity P-wave (km/s) = 5.29353 5.50165 5.39859
#
# Compressibility (1/GPa) = 0.04413171
#
# Stress axis : x y z
#
# Youngs Moduli (GPa) = 101.88797 52.08374 94.50305
#
# Poissons Ratio (x) = -0.03231 -0.14046
# Poissons Ratio (y) = -0.06320 -0.01523
# Poissons Ratio (z) = -0.15144 -0.00839
#
# Static dielectric constant tensor:
#      x y z
#    x 2.141840 0.000000 0.000000 
#    y 0.000000 2.150960 0.000000 
#    z 0.000000 0.000000 2.151150 
# 
# From -- ./inp_files/2810.got.cif
#   From: 2010.05.17/outbox.cif.g08.bks.cpg/sg19_2_cif.got.tgz:2810.got - 2010.06.03 22:46:19.
