data_PCOD9314386
_publ_section_title
;
Structure prediction by ZEFSAII (Michael W. Deem and Ramdas Pophale) SiO2 
 PCOD9314386
Probable space group: P 21 21 21
;
_chemical_formula_sum "Si O2"
_cell_formula_units_Z 28
_cell_length_a 15.820636
_cell_length_b 5.230780
_cell_length_c 15.184574
_cell_angle_alpha 90.000000
_cell_angle_beta 90.000000
_cell_angle_gamma 90.000000
_cell_volume 1256.588282
_symmetry_space_group_name_H-M "P 21 21 21"
_symmetry_group_IT_number 19
_symmetry_cell_setting 'orthorhombic'
loop_
_space_group_symop_operation_xyz
x,y,z
1/2-x,-y,1/2+z
1/2+x,1/2-y,-z
-x,1/2+y,1/2-z
loop_
_atom_site_type_symbol
_atom_site_label
_atom_site_fract_x
_atom_site_fract_y
_atom_site_fract_z
Si Si1 0.960255 0.685531 0.288921
Si Si2 0.667255 0.463621 0.379387
Si Si3 0.867597 0.918692 0.730518
Si Si4 0.454052 0.517063 0.954225
Si Si5 0.012420 0.680299 0.640858
Si Si6 0.775246 0.729447 0.232422
Si Si7 0.154655 0.982310 0.429937
O O1 0.868493 0.796884 0.265567
O O2 0.978295 0.423321 0.234254
O O3 0.973738 0.585876 0.388376
O O4 0.572691 0.581432 0.385350
O O5 0.724607 0.640282 0.318203
O O6 0.700455 0.448384 0.478141
O O7 0.662583 0.211332 0.321214
O O8 0.944290 0.092597 0.767639
O O9 0.787002 0.060400 0.692012
O O10 0.915496 0.736469 0.662857
O O11 0.418398 0.795195 0.928224
O O12 0.381044 0.303626 0.938903
O O13 0.479798 0.503883 0.056463
O O14 0.790303 0.519633 0.157078
#
# Coordination Sequence:
#
# PCOD9314386 Si02
#       7
#     4   4   4   4   4   4   4
#     4  12  24  45  71  98 133 184 234 284 346 424
#     4  10  23  42  66  96 135 177 225 286 341 422
#     4  11  21  41  66  95 138 176 231 289 346 419
#     4  11  22  43  71  98 129 183 232 279 336 429
#     4  10  21  40  67  94 129 179 228 275 352 412
#     4  11  26  42  67 102 136 184 230 295 355 409
#     4  11  23  45  70  97 138 181 226 280 356 403
#
# _framework density 22.282558000000002
#
# number of rings (size 3 to 8) (size 9 to 14) (size 15 to 20)
#    0.000    1.143    5.714    0.000    4.000    0.000 
#    5.143    0.000    0.000    0.000    0.000    0.000 
#    0.000    0.000    0.000    0.000    0.000    0.000 
#
# Total GULP energy -156251.891202 kJ/mol
# GULP energy per Si atom -5580.424686 kJ/mol
# Density = 2.223184 g / cm^3
# Si number density = 22.282558 Si / 1000 Ang^3
#
#
#
# Elastic Constant Matrix: (Units=GPa)
#
#
# Indices 1 2 3 4 5 6 
#
# 1 79.3057 11.0867 13.3249 0.0000 0.0000 0.0000
# 2 11.0867 67.6445 -1.4334 0.0000 0.0000 0.0000
# 3 13.3249 -1.4334 95.4867 0.0000 0.0000 0.0000
# 4 0.0000 0.0000 0.0000 31.0452 0.0000 0.0000
# 5 0.0000 0.0000 0.0000 0.0000 23.3478 0.0000
# 6 0.0000 0.0000 0.0000 0.0000 0.0000 20.0897
#
#
#
# Elastic Compliance Matrix: (Units=1/GPa)
#
#
# Indices 1 2 3 4 5 6 
#
# 1 0.013234 -0.002209 -0.001880 0.000000 0.000000 0.000000
# 2 -0.002209 0.015157 0.000536 0.000000 0.000000 0.000000
# 3 -0.001880 0.000536 0.010743 0.000000 0.000000 0.000000
# 4 0.000000 0.000000 0.000000 0.032211 0.000000 0.000000
# 5 0.000000 0.000000 0.000000 0.000000 0.042831 0.000000
# 6 0.000000 0.000000 0.000000 0.000000 0.000000 0.049777
#
#
# Mechanical properties :
#
#
# Convention : Reuss Voigt Hill
#
# Bulk Modulus (GPa) = 31.22305 32.04369 31.63337
# Shear Modulus (GPa) = 27.51274 29.52713 28.51993
#
# Velocity S-wave (km/s) = 3.51767 3.64417 3.58148
# Velocity P-wave (km/s) = 5.52643 5.66732 5.59732
#
# Compressibility (1/GPa) = 0.03202762
#
# Stress axis : x y z
#
# Youngs Moduli (GPa) = 75.56242 65.97812 93.08342
#
# Poissons Ratio (x) = 0.14574 0.17499
# Poissons Ratio (y) = 0.16691 -0.04987
# Poissons Ratio (z) = 0.14205 -0.03535
#
# Static dielectric constant tensor:
#      x y z
#    x 1.881510 0.000000 0.000000 
#    y 0.000000 1.902490 0.000000 
#    z 0.000000 0.000000 1.854090 
# 
# From -- ./inp_files/1498.got.cif
#   From: 2010.05.17/outbox.cif.g08.bks.cpg/sg19_1_cif.got.tgz:1498.got - 2010.06.03 22:46:19.
