data_PCOD9314649
_publ_section_title
;
Structure prediction by ZEFSAII (Michael W. Deem and Ramdas Pophale) SiO2 
 PCOD9314649
Probable space group: P 21 21 21
;
_chemical_formula_sum "Si O2"
_cell_formula_units_Z 24
_cell_length_a 9.361693
_cell_length_b 9.833056
_cell_length_c 9.787828
_cell_angle_alpha 90.000000
_cell_angle_beta 90.000000
_cell_angle_gamma 90.000000
_cell_volume 901.009223
_symmetry_space_group_name_H-M "P 21 21 21"
_symmetry_group_IT_number 19
_symmetry_cell_setting 'orthorhombic'
loop_
_space_group_symop_operation_xyz
x,y,z
1/2-x,-y,1/2+z
1/2+x,1/2-y,-z
-x,1/2+y,1/2-z
loop_
_atom_site_type_symbol
_atom_site_label
_atom_site_fract_x
_atom_site_fract_y
_atom_site_fract_z
Si Si1 0.832951 0.869982 0.698830
Si Si2 0.261899 0.832545 0.728473
Si Si3 0.516212 0.230710 0.600132
Si Si4 0.344397 0.004217 0.488767
Si Si5 0.491370 0.365707 0.309647
Si Si6 0.827944 0.004344 0.965326
O O1 0.880480 0.721008 0.742459
O O2 0.969042 0.972407 0.690560
O O3 0.754496 0.888590 0.556612
O O4 0.756099 0.943314 0.828570
O O5 0.427456 0.790776 0.759340
O O6 0.148253 0.710713 0.745507
O O7 0.259785 0.899398 0.580304
O O8 0.228604 0.934431 0.855042
O O9 0.382036 0.130325 0.591199
O O10 0.498873 0.329282 0.471096
O O11 0.647120 0.130716 0.556484
O O12 0.504818 0.953722 0.449111
#
# Coordination Sequence:
#
# PCOD9314649 Si02
#       6
#     4   4   4   4   4   4
#     4  11  21  45  67  96 131 179 219 278 324 400
#     4  11  19  42  66  86 136 164 222 282 315 397
#     4   8  19  39  61  85 125 181 209 255 332 408
#     4   9  22  39  62  99 118 173 220 268 323 394
#     4  10  22  39  68  93 129 177 223 259 340 388
#     4   9  21  42  62  89 135 166 227 258 334 393
#
# _framework density 26.636797999999999
#
# number of rings (size 3 to 8) (size 9 to 14) (size 15 to 20)
#    1.000    1.333    3.333    0.000    2.333    1.333 
#    6.000    1.667    0.000    0.000    0.000    0.000 
#    0.000    0.000    0.000    0.000    0.000    0.000 
#
# Total GULP energy -134046.559839 kJ/mol
# GULP energy per Si atom -5585.273327 kJ/mol
# Density = 2.657617 g / cm^3
# Si number density = 26.636798 Si / 1000 Ang^3
#
#
#
# Elastic Constant Matrix: (Units=GPa)
#
#
# Indices 1 2 3 4 5 6 
#
# 1 66.4234 27.3017 31.5684 0.0000 0.0000 0.0000
# 2 27.3017 100.5451 25.4111 0.0000 0.0000 0.0000
# 3 31.5684 25.4111 64.2188 0.0000 0.0000 0.0000
# 4 0.0000 0.0000 0.0000 38.7217 0.0000 0.0000
# 5 0.0000 0.0000 0.0000 0.0000 52.6482 0.0000
# 6 0.0000 0.0000 0.0000 0.0000 0.0000 31.7364
#
#
#
# Elastic Compliance Matrix: (Units=1/GPa)
#
#
# Indices 1 2 3 4 5 6 
#
# 1 0.020627 -0.003376 -0.008804 0.000000 0.000000 0.000000
# 2 -0.003376 0.011603 -0.002932 0.000000 0.000000 0.000000
# 3 -0.008804 -0.002932 0.021060 0.000000 0.000000 0.000000
# 4 0.000000 0.000000 0.000000 0.025825 0.000000 0.000000
# 5 0.000000 0.000000 0.000000 0.000000 0.018994 0.000000
# 6 0.000000 0.000000 0.000000 0.000000 0.000000 0.031510
#
#
# Mechanical properties :
#
#
# Convention : Reuss Voigt Hill
#
# Bulk Modulus (GPa) = 43.35274 44.41663 43.88469
# Shear Modulus (GPa) = 29.84535 34.41501 32.13018
#
# Velocity S-wave (km/s) = 3.35095 3.59835 3.47685
# Velocity P-wave (km/s) = 5.59309 5.82883 5.71218
#
# Compressibility (1/GPa) = 0.02306659
#
# Stress axis : x y z
#
# Youngs Moduli (GPa) = 48.48123 86.18118 47.48433
#
# Poissons Ratio (x) = 0.29094 0.41804
# Poissons Ratio (y) = 0.16367 0.13922
# Poissons Ratio (z) = 0.42681 0.25268
#
# Static dielectric constant tensor:
#      x y z
#    x 2.163130 0.000000 0.000000 
#    y 0.000000 2.085690 0.000000 
#    z 0.000000 0.000000 2.157780 
# 
# From -- ./inp_files/4560.got.cif
#   From: 2010.05.17/outbox.cif.g08.bks.cpg/sg19_3_cif.got.tgz:4560.got - 2010.06.03 22:46:19.
