data_PCOD9314221
_publ_section_title
;
Structure prediction by ZEFSAII (Michael W. Deem and Ramdas Pophale) SiO2 
 PCOD9314221
Probable space group: P 21 21 21
;
_chemical_formula_sum "Si O2"
_cell_formula_units_Z 28
_cell_length_a 8.163307
_cell_length_b 7.475538
_cell_length_c 20.716556
_cell_angle_alpha 90.000000
_cell_angle_beta 90.000000
_cell_angle_gamma 90.000000
_cell_volume 1264.230144
_symmetry_space_group_name_H-M "P 21 21 21"
_symmetry_group_IT_number 19
_symmetry_cell_setting 'orthorhombic'
loop_
_space_group_symop_operation_xyz
x,y,z
1/2-x,-y,1/2+z
1/2+x,1/2-y,-z
-x,1/2+y,1/2-z
loop_
_atom_site_type_symbol
_atom_site_label
_atom_site_fract_x
_atom_site_fract_y
_atom_site_fract_z
Si Si1 0.917807 0.098956 0.823056
Si Si2 0.459869 0.091761 0.760873
Si Si3 0.083234 0.327255 0.447291
Si Si4 0.058593 0.818957 0.912071
Si Si5 0.377811 0.326129 0.661511
Si Si6 0.352460 0.403969 0.844579
Si Si7 0.488740 0.014503 0.179109
O O1 0.755582 0.980249 0.836043
O O2 0.986529 0.054860 0.751867
O O3 0.042655 0.004581 0.873308
O O4 0.874583 0.309922 0.827146
O O5 0.325900 0.161333 0.708634
O O6 0.449367 0.234847 0.818026
O O7 0.464587 0.907658 0.799981
O O8 0.605529 0.054330 0.709601
O O9 0.254869 0.231490 0.430148
O O10 0.095696 0.521702 0.413556
O O11 0.043588 0.331445 0.522063
O O12 0.935939 0.231925 0.408188
O O13 0.984989 0.656127 0.868591
O O14 0.159767 0.385059 0.840125
#
# Coordination Sequence:
#
# PCOD9314221 Si02
#       7
#     4   4   4   4   4   4   4
#     4  12  23  42  66 100 136 173 222 282 342 397
#     4   9  16  33  61  92 130 164 211 267 324 383
#     4  10  23  45  67  93 134 182 222 278 338 407
#     4  11  25  47  69  94 139 181 227 279 338 407
#     4  10  21  37  63  98 133 168 223 271 334 402
#     4   9  19  37  60  94 132 169 215 273 325 399
#     4  11  23  41  64  99 136 169 224 278 337 395
#
# _framework density 22.147863999999998
#
# number of rings (size 3 to 8) (size 9 to 14) (size 15 to 20)
#    0.000    1.714    4.286    0.857    2.000    0.000 
#   15.429    0.000    0.000    0.000    0.000    0.000 
#    0.000    0.000    0.000    0.000    0.000    0.000 
#
# Total GULP energy -156103.441610 kJ/mol
# GULP energy per Si atom -5575.122915 kJ/mol
# Density = 2.209745 g / cm^3
# Si number density = 22.147864 Si / 1000 Ang^3
#
#
#
# Elastic Constant Matrix: (Units=GPa)
#
#
# Indices 1 2 3 4 5 6 
#
# 1 28.1042 -8.4789 11.5373 0.0000 0.0000 0.0000
# 2 -8.4789 109.4659 42.5650 0.0000 0.0000 0.0000
# 3 11.5373 42.5650 172.0372 0.0000 0.0000 0.0000
# 4 0.0000 0.0000 0.0000 32.0056 0.0000 0.0000
# 5 0.0000 0.0000 0.0000 0.0000 31.4501 0.0000
# 6 0.0000 0.0000 0.0000 0.0000 0.0000 35.3810
#
#
#
# Elastic Compliance Matrix: (Units=1/GPa)
#
#
# Indices 1 2 3 4 5 6 
#
# 1 0.038414 0.004401 -0.003665 0.000000 0.000000 0.000000
# 2 0.004401 0.010612 -0.002921 0.000000 0.000000 0.000000
# 3 -0.003665 -0.002921 0.006781 0.000000 0.000000 0.000000
# 4 0.000000 0.000000 0.000000 0.031244 0.000000 0.000000
# 5 0.000000 0.000000 0.000000 0.000000 0.031796 0.000000
# 6 0.000000 0.000000 0.000000 0.000000 0.000000 0.028264
#
#
# Mechanical properties :
#
#
# Convention : Reuss Voigt Hill
#
# Bulk Modulus (GPa) = 19.44134 44.53934 31.99034
# Shear Modulus (GPa) = 29.65121 37.36629 33.50875
#
# Velocity S-wave (km/s) = 3.66291 4.11192 3.89389
# Velocity P-wave (km/s) = 5.16587 6.53433 5.88998
#
# Compressibility (1/GPa) = 0.05143679
#
# Stress axis : x y z
#
# Youngs Moduli (GPa) = 26.03218 94.23483 147.46884
#
# Poissons Ratio (x) = -0.41468 0.54046
# Poissons Ratio (y) = -0.11456 0.43070
# Poissons Ratio (z) = 0.09541 0.27523
#
# Static dielectric constant tensor:
#      x y z
#    x 1.975890 0.000000 0.000000 
#    y 0.000000 1.896780 0.000000 
#    z 0.000000 0.000000 1.776930 
# 
# From -- ./inp_files/7020.got.cif
#   From: 2010.05.17/outbox.cif.g08.bks.cpg/sg19_4_cif.got.tgz:7020.got - 2010.06.03 22:46:19.
