data_PCOD9314795
_publ_section_title
;
Structure prediction by ZEFSAII (Michael W. Deem and Ramdas Pophale) SiO2 
 PCOD9314795
Probable space group: P 21 21 21
;
_chemical_formula_sum "Si O2"
_cell_formula_units_Z 20
_cell_length_a 4.886938
_cell_length_b 21.625266
_cell_length_c 7.830489
_cell_angle_alpha 90.000000
_cell_angle_beta 90.000000
_cell_angle_gamma 90.000000
_cell_volume 827.536525
_symmetry_space_group_name_H-M "P 21 21 21"
_symmetry_group_IT_number 19
_symmetry_cell_setting 'orthorhombic'
loop_
_space_group_symop_operation_xyz
x,y,z
1/2-x,-y,1/2+z
1/2+x,1/2-y,-z
-x,1/2+y,1/2-z
loop_
_atom_site_type_symbol
_atom_site_label
_atom_site_fract_x
_atom_site_fract_y
_atom_site_fract_z
Si Si1 0.987516 0.123633 0.290511
Si Si2 0.203784 0.448387 0.003286
Si Si3 0.774652 0.749371 0.122087
Si Si4 0.093082 0.622517 0.825348
Si Si5 0.296743 0.036766 0.509348
O O1 0.826582 0.126270 0.472741
O O2 0.133056 0.189711 0.270184
O O3 0.217431 0.072679 0.335905
O O4 0.798797 0.100314 0.139365
O O5 0.252157 0.417294 0.185885
O O6 0.409368 0.506668 0.987393
O O7 0.910580 0.478994 0.984723
O O8 0.633136 0.805701 0.222980
O O9 0.552021 0.730753 0.977642
O O10 0.800934 0.587336 0.849282
#
# Coordination Sequence:
#
# PCOD9314795 Si02
#       5
#     4   4   4   4   4
#     4   9  23  40  65  88 125 165 204 257 308 366
#     4  12  22  42  60  98 124 160 210 256 314 374
#     4  10  22  42  64  92 124 168 214 252 310 374
#     4   9  23  40  65  88 125 165 204 257 308 366
#     4  10  24  38  66  90 128 162 204 260 314 368
#
# _framework density 24.168116999999999
#
# number of rings (size 3 to 8) (size 9 to 14) (size 15 to 20)
#    1.200    0.800    0.000    2.400    2.800    6.400 
#    0.000   10.000    0.000    0.000    0.000    0.000 
#    0.000    0.000    0.000    0.000    0.000    0.000 
#
# Total GULP energy -111657.320248 kJ/mol
# GULP energy per Si atom -5582.866012 kJ/mol
# Density = 2.411311 g / cm^3
# Si number density = 24.168117 Si / 1000 Ang^3
#
#
#
# Elastic Constant Matrix: (Units=GPa)
#
#
# Indices 1 2 3 4 5 6 
#
# 1 65.2259 7.8270 28.6551 0.0000 0.0000 0.0000
# 2 7.8270 156.3716 59.6074 0.0000 0.0000 0.0000
# 3 28.6551 59.6074 90.2370 0.0000 0.0000 0.0000
# 4 0.0000 0.0000 0.0000 9.2125 0.0000 0.0000
# 5 0.0000 0.0000 0.0000 0.0000 24.7406 0.0000
# 6 0.0000 0.0000 0.0000 0.0000 0.0000 34.4745
#
#
#
# Elastic Compliance Matrix: (Units=1/GPa)
#
#
# Indices 1 2 3 4 5 6 
#
# 1 0.018158 0.001723 -0.006904 0.000000 0.000000 0.000000
# 2 0.001723 0.008711 -0.006301 0.000000 0.000000 0.000000
# 3 -0.006904 -0.006301 0.017437 0.000000 0.000000 0.000000
# 4 0.000000 0.000000 0.000000 0.108549 0.000000 0.000000
# 5 0.000000 0.000000 0.000000 0.000000 0.040419 0.000000
# 6 0.000000 0.000000 0.000000 0.000000 0.000000 0.029007
#
#
# Mechanical properties :
#
#
# Convention : Reuss Voigt Hill
#
# Bulk Modulus (GPa) = 46.85942 56.00148 51.43045
# Shear Modulus (GPa) = 19.81311 28.06852 23.94081
#
# Velocity S-wave (km/s) = 2.86633 3.41161 3.15079
# Velocity P-wave (km/s) = 5.51230 6.22420 5.87904
#
# Compressibility (1/GPa) = 0.02134043
#
# Stress axis : x y z
#
# Youngs Moduli (GPa) = 55.07292 114.80119 57.35041
#
# Poissons Ratio (x) = -0.19780 0.39596
# Poissons Ratio (y) = -0.09489 0.36137
# Poissons Ratio (z) = 0.38023 0.72338
#
# Static dielectric constant tensor:
#      x y z
#    x 1.944880 0.000000 0.000000 
#    y 0.000000 2.018240 0.000000 
#    z 0.000000 0.000000 1.919360 
# 
# From -- ./inp_files/2394.got.cif
#   From: 2010.05.17/outbox.cif.g08.bks.cpg/sg19_2_cif.got.tgz:2394.got - 2010.06.03 22:46:19.
