data_PCOD9314733
_publ_section_title
;
Structure prediction by ZEFSAII (Michael W. Deem and Ramdas Pophale) SiO2 
 PCOD9314733
Probable space group: P 21 21 21
;
_chemical_formula_sum "Si O2"
_cell_formula_units_Z 32
_cell_length_a 11.011241
_cell_length_b 13.781501
_cell_length_c 8.025847
_cell_angle_alpha 90.000000
_cell_angle_beta 90.000000
_cell_angle_gamma 90.000000
_cell_volume 1217.933750
_symmetry_space_group_name_H-M "P 21 21 21"
_symmetry_group_IT_number 19
_symmetry_cell_setting 'orthorhombic'
loop_
_space_group_symop_operation_xyz
x,y,z
1/2-x,-y,1/2+z
1/2+x,1/2-y,-z
-x,1/2+y,1/2-z
loop_
_atom_site_type_symbol
_atom_site_label
_atom_site_fract_x
_atom_site_fract_y
_atom_site_fract_z
Si Si1 0.041065 0.695879 0.605866
Si Si2 0.819992 0.134027 0.404300
Si Si3 0.701104 0.332960 0.290845
Si Si4 0.197726 0.539351 0.734156
Si Si5 0.062493 0.929087 0.319052
Si Si6 0.785523 0.599594 0.161346
Si Si7 0.040444 0.245101 0.267508
Si Si8 0.531262 0.585589 0.298480
O O1 0.158967 0.627016 0.611272
O O2 0.005260 0.720416 0.417521
O O3 0.046371 0.798263 0.701649
O O4 0.925771 0.649909 0.700656
O O5 0.730019 0.220221 0.340384
O O6 0.798147 0.092382 0.588163
O O7 0.950864 0.187624 0.392156
O O8 0.808315 0.034860 0.296471
O O9 0.811658 0.367000 0.174413
O O10 0.710472 0.392759 0.462413
O O11 0.084147 0.464509 0.717612
O O12 0.018095 0.940275 0.506775
O O13 0.108617 0.032751 0.260875
O O14 0.976326 0.860165 0.211632
O O15 0.658680 0.557445 0.217900
O O16 0.823867 0.706851 0.217085
#
# Coordination Sequence:
#
# PCOD9314733 Si02
#       8
#     4   4   4   4   4   4   4   4
#     4  11  22  43  66  98 134 183 221 285 350 409
#     4  11  24  46  67 102 138 185 237 288 349 420
#     4  11  23  43  68 100 145 172 229 294 338 418
#     4  12  24  45  72 100 139 184 231 290 350 421
#     4  10  22  41  65  93 130 181 219 276 342 410
#     4  12  23  42  67 103 131 179 228 286 350 410
#     4  10  24  43  65  97 137 179 233 284 342 418
#     4  11  24  43  66  97 132 173 226 275 343 410
#
# _framework density 26.274009
#
# number of rings (size 3 to 8) (size 9 to 14) (size 15 to 20)
#    0.000    1.000    1.250    6.000    0.000    2.000 
#   15.750    0.000    0.000    0.000    0.000    0.000 
#    0.000    0.000    0.000    0.000    0.000    0.000 
#
# Total GULP energy -179154.011128 kJ/mol
# GULP energy per Si atom -5598.562848 kJ/mol
# Density = 2.621421 g / cm^3
# Si number density = 26.274009 Si / 1000 Ang^3
#
#
#
# Elastic Constant Matrix: (Units=GPa)
#
#
# Indices 1 2 3 4 5 6 
#
# 1 67.9303 23.9721 1.1814 0.0000 0.0000 0.0000
# 2 23.9721 126.3714 5.3943 0.0000 0.0000 0.0000
# 3 1.1814 5.3943 60.4388 0.0000 0.0000 0.0000
# 4 0.0000 0.0000 0.0000 35.6075 0.0000 0.0000
# 5 0.0000 0.0000 0.0000 0.0000 28.1428 0.0000
# 6 0.0000 0.0000 0.0000 0.0000 0.0000 58.5430
#
#
#
# Elastic Compliance Matrix: (Units=1/GPa)
#
#
# Indices 1 2 3 4 5 6 
#
# 1 0.015777 -0.002991 -0.000041 0.000000 0.000000 0.000000
# 2 -0.002991 0.008511 -0.000701 0.000000 0.000000 0.000000
# 3 -0.000041 -0.000701 0.016609 0.000000 0.000000 0.000000
# 4 0.000000 0.000000 0.000000 0.028084 0.000000 0.000000
# 5 0.000000 0.000000 0.000000 0.000000 0.035533 0.000000
# 6 0.000000 0.000000 0.000000 0.000000 0.000000 0.017081
#
#
# Mechanical properties :
#
#
# Convention : Reuss Voigt Hill
#
# Bulk Modulus (GPa) = 29.91370 35.09290 32.50330
# Shear Modulus (GPa) = 35.66186 39.40484 37.53335
#
# Velocity S-wave (km/s) = 3.68816 3.87688 3.78370
# Velocity P-wave (km/s) = 5.43569 5.78150 5.61126
#
# Compressibility (1/GPa) = 0.03342950
#
# Stress axis : x y z
#
# Youngs Moduli (GPa) = 63.38244 117.50176 60.20814
#
# Poissons Ratio (x) = 0.35146 0.00249
# Poissons Ratio (y) = 0.18958 0.04221
# Poissons Ratio (z) = 0.00263 0.08238
#
# Static dielectric constant tensor:
#      x y z
#    x 2.053610 0.000000 0.000000 
#    y 0.000000 2.149370 0.000000 
#    z 0.000000 0.000000 2.000150 
# 
# From -- ./inp_files/3576.got.cif
#   From: 2010.05.17/outbox.cif.g08.bks.cpg/sg19_2_cif.got.tgz:3576.got - 2010.06.03 22:46:19.
