data_PCOD9314563
_publ_section_title
;
Structure prediction by ZEFSAII (Michael W. Deem and Ramdas Pophale) SiO2 
 PCOD9314563
Probable space group: P 21 21 21
;
_chemical_formula_sum "Si O2"
_cell_formula_units_Z 28
_cell_length_a 5.514834
_cell_length_b 25.164322
_cell_length_c 7.854065
_cell_angle_alpha 90.000000
_cell_angle_beta 90.000000
_cell_angle_gamma 90.000000
_cell_volume 1089.964038
_symmetry_space_group_name_H-M "P 21 21 21"
_symmetry_group_IT_number 19
_symmetry_cell_setting 'orthorhombic'
loop_
_space_group_symop_operation_xyz
x,y,z
1/2-x,-y,1/2+z
1/2+x,1/2-y,-z
-x,1/2+y,1/2-z
loop_
_atom_site_type_symbol
_atom_site_label
_atom_site_fract_x
_atom_site_fract_y
_atom_site_fract_z
Si Si1 0.905646 0.930951 0.986105
Si Si2 0.670613 0.689256 0.777455
Si Si3 0.132508 0.378832 0.051623
Si Si4 0.774408 0.374756 0.749770
Si Si5 0.814771 0.176343 0.536771
Si Si6 0.128756 0.539824 0.354112
Si Si7 0.598015 0.796858 0.651000
O O1 0.804062 0.956445 0.810221
O O2 0.132631 0.893463 0.933981
O O3 0.714670 0.887790 0.057308
O O4 0.954795 0.980181 0.108253
O O5 0.574964 0.635282 0.686898
O O6 0.425879 0.703076 0.884581
O O7 0.667618 0.735678 0.634727
O O8 0.925354 0.689858 0.877947
O O9 0.263653 0.435099 0.030541
O O10 0.322361 0.330482 0.016181
O O11 0.995656 0.378373 0.874117
O O12 0.581451 0.418915 0.805737
O O13 0.666862 0.317224 0.792185
O O14 0.786548 0.187424 0.335859
#
# Coordination Sequence:
#
# PCOD9314563 Si02
#       7
#     4   4   4   4   4   4   4
#     4  11  24  45  72 102 143 201 243 315 380 455
#     4  12  30  42  78 112 149 193 257 308 368 449
#     4  10  25  45  69 106 143 191 245 317 361 456
#     4  10  21  45  72 100 144 190 248 306 372 449
#     4  12  26  49  69 111 153 190 247 310 367 452
#     4  10  24  45  71  99 147 185 255 298 395 436
#     4  11  24  47  75  98 153 198 247 298 389 437
#
# _framework density 25.688922000000002
#
# number of rings (size 3 to 8) (size 9 to 14) (size 15 to 20)
#    0.000    1.143    4.286    1.714   10.000    2.286 
#    0.000    0.000    0.000    0.000    0.000    0.000 
#    0.000    0.000    0.000    0.000    0.000    0.000 
#
# Total GULP energy -156170.917050 kJ/mol
# GULP energy per Si atom -5577.532752 kJ/mol
# Density = 2.563045 g / cm^3
# Si number density = 25.688922 Si / 1000 Ang^3
#
#
#
# Elastic Constant Matrix: (Units=GPa)
#
#
# Indices 1 2 3 4 5 6 
#
# 1 112.8447 31.0325 35.7807 0.0000 0.0000 0.0000
# 2 31.0325 122.9214 23.7301 0.0000 0.0000 0.0000
# 3 35.7807 23.7301 74.3597 0.0000 0.0000 0.0000
# 4 0.0000 0.0000 0.0000 43.6588 0.0000 0.0000
# 5 0.0000 0.0000 0.0000 0.0000 37.0443 0.0000
# 6 0.0000 0.0000 0.0000 0.0000 0.0000 16.5841
#
#
#
# Elastic Compliance Matrix: (Units=1/GPa)
#
#
# Indices 1 2 3 4 5 6 
#
# 1 0.010835 -0.001842 -0.004626 0.000000 0.000000 0.000000
# 2 -0.001842 0.008983 -0.001980 0.000000 0.000000 0.000000
# 3 -0.004626 -0.001980 0.016306 0.000000 0.000000 0.000000
# 4 0.000000 0.000000 0.000000 0.022905 0.000000 0.000000
# 5 0.000000 0.000000 0.000000 0.000000 0.026995 0.000000
# 6 0.000000 0.000000 0.000000 0.000000 0.000000 0.060299
#
#
# Mechanical properties :
#
#
# Convention : Reuss Voigt Hill
#
# Bulk Modulus (GPa) = 52.00953 54.57916 53.29434
# Shear Modulus (GPa) = 29.47634 34.09625 31.78630
#
# Velocity S-wave (km/s) = 3.39105 3.64713 3.52142
# Velocity P-wave (km/s) = 5.96843 6.24722 6.10942
#
# Compressibility (1/GPa) = 0.01922725
#
# Stress axis : x y z
#
# Youngs Moduli (GPa) = 92.29240 111.32548 61.32764
#
# Poissons Ratio (x) = 0.20511 0.28368
# Poissons Ratio (y) = 0.17004 0.12143
# Poissons Ratio (z) = 0.42692 0.22043
#
# Static dielectric constant tensor:
#      x y z
#    x 2.090680 0.000000 0.000000 
#    y 0.000000 2.127480 0.000000 
#    z 0.000000 0.000000 2.121550 
# 
# From -- ./inp_files/544.got.cif
#   From: 2010.05.17/outbox.cif.g08.bks.cpg/sg19_1_cif.got.tgz:544.got - 2010.06.03 22:46:19.
