data_PCOD9314582
_publ_section_title
;
Structure prediction by ZEFSAII (Michael W. Deem and Ramdas Pophale) SiO2 
 PCOD9314582
Probable space group: P 21 21 21
;
_chemical_formula_sum "Si O2"
_cell_formula_units_Z 20
_cell_length_a 9.192260
_cell_length_b 9.764603
_cell_length_c 7.767573
_cell_angle_alpha 90.000000
_cell_angle_beta 90.000000
_cell_angle_gamma 90.000000
_cell_volume 697.207795
_symmetry_space_group_name_H-M "P 21 21 21"
_symmetry_group_IT_number 19
_symmetry_cell_setting 'orthorhombic'
loop_
_space_group_symop_operation_xyz
x,y,z
1/2-x,-y,1/2+z
1/2+x,1/2-y,-z
-x,1/2+y,1/2-z
loop_
_atom_site_type_symbol
_atom_site_label
_atom_site_fract_x
_atom_site_fract_y
_atom_site_fract_z
Si Si1 0.265376 0.293239 0.005703
Si Si2 0.567423 0.981277 0.045014
Si Si3 0.487413 0.021733 0.551965
Si Si4 0.298678 0.658895 0.154841
Si Si5 0.785052 0.475000 0.774387
O O1 0.122893 0.382588 0.056568
O O2 0.403847 0.391531 0.966033
O O3 0.296193 0.180093 0.145874
O O4 0.221135 0.237933 0.813733
O O5 0.648624 0.863483 0.942696
O O6 0.649022 0.025976 0.226496
O O7 0.404706 0.953257 0.100040
O O8 0.386139 0.009240 0.718249
O O9 0.586260 0.150410 0.499061
O O10 0.360414 0.024509 0.409697
#
# Coordination Sequence:
#
# PCOD9314582 Si02
#       5
#     4   4   4   4   4
#     4   9  19  38  63  75 117 169 193 226 309 377
#     4   8  17  32  56  79 108 154 197 233 291 352
#     4  10  22  35  62  91 119 151 207 253 290 357
#     4   8  17  35  56  79 110 162 194 236 292 366
#     4  11  21  36  61  88 120 150 199 256 298 348
#
# _framework density 28.685852000000001
#
# number of rings (size 3 to 8) (size 9 to 14) (size 15 to 20)
#    1.200    1.600    0.000    1.200    2.800    0.000 
#    0.000    0.000   22.000    0.000    0.000    0.000 
#    0.000    0.000    0.000    0.000    0.000    0.000 
#
# Total GULP energy -111618.822370 kJ/mol
# GULP energy per Si atom -5580.941118 kJ/mol
# Density = 2.862056 g / cm^3
# Si number density = 28.685852 Si / 1000 Ang^3
#
#
#
# Elastic Constant Matrix: (Units=GPa)
#
#
# Indices 1 2 3 4 5 6 
#
# 1 193.8816 37.9850 34.6111 0.0000 0.0000 0.0000
# 2 37.9850 57.8448 -4.3330 0.0000 0.0000 0.0000
# 3 34.6111 -4.3330 68.9567 0.0000 0.0000 0.0000
# 4 0.0000 0.0000 0.0000 18.1924 0.0000 0.0000
# 5 0.0000 0.0000 0.0000 0.0000 70.5431 0.0000
# 6 0.0000 0.0000 0.0000 0.0000 0.0000 26.1046
#
#
#
# Elastic Compliance Matrix: (Units=1/GPa)
#
#
# Indices 1 2 3 4 5 6 
#
# 1 0.006734 -0.004697 -0.003675 0.000000 0.000000 0.000000
# 2 -0.004697 0.020646 0.003655 0.000000 0.000000 0.000000
# 3 -0.003675 0.003655 0.016576 0.000000 0.000000 0.000000
# 4 0.000000 0.000000 0.000000 0.054968 0.000000 0.000000
# 5 0.000000 0.000000 0.000000 0.000000 0.014176 0.000000
# 6 0.000000 0.000000 0.000000 0.000000 0.000000 0.038307
#
#
# Mechanical properties :
#
#
# Convention : Reuss Voigt Hill
#
# Bulk Modulus (GPa) = 28.96755 50.80103 39.88429
# Shear Modulus (GPa) = 29.01075 39.79603 34.40339
#
# Velocity S-wave (km/s) = 3.18359 3.72870 3.46687
# Velocity P-wave (km/s) = 4.86146 6.02374 5.47354
#
# Compressibility (1/GPa) = 0.03452138
#
# Stress axis : x y z
#
# Youngs Moduli (GPa) = 148.49580 48.43524 60.32735
#
# Poissons Ratio (x) = 0.22752 0.22172
# Poissons Ratio (y) = 0.69755 -0.22050
# Poissons Ratio (z) = 0.54576 -0.17704
#
# Static dielectric constant tensor:
#      x y z
#    x 2.160030 0.000000 0.000000 
#    y 0.000000 2.519040 0.000000 
#    z 0.000000 0.000000 2.342260 
# 
# From -- ./inp_files/2639.got.cif
#   From: 2010.05.17/outbox.cif.g08.bks.cpg/sg19_2_cif.got.tgz:2639.got - 2010.06.03 22:46:19.
