data_PCOD9314097
_publ_section_title
;
Structure prediction by ZEFSAII (Michael W. Deem and Ramdas Pophale) SiO2 
 PCOD9314097
Probable space group: P 21 21 21
;
_chemical_formula_sum "Si O2"
_cell_formula_units_Z 32
_cell_length_a 5.808278
_cell_length_b 16.392307
_cell_length_c 14.437340
_cell_angle_alpha 90.000000
_cell_angle_beta 90.000000
_cell_angle_gamma 90.000000
_cell_volume 1374.594678
_symmetry_space_group_name_H-M "P 21 21 21"
_symmetry_group_IT_number 19
_symmetry_cell_setting 'orthorhombic'
loop_
_space_group_symop_operation_xyz
x,y,z
1/2-x,-y,1/2+z
1/2+x,1/2-y,-z
-x,1/2+y,1/2-z
loop_
_atom_site_type_symbol
_atom_site_label
_atom_site_fract_x
_atom_site_fract_y
_atom_site_fract_z
Si Si1 0.228307 0.151356 0.312278
Si Si2 0.766457 0.380062 0.161033
Si Si3 0.460231 0.320690 0.315236
Si Si4 0.046390 0.426045 0.824217
Si Si5 0.921532 0.944441 0.173899
Si Si6 0.824857 0.557634 0.463470
Si Si7 0.915790 0.199538 0.147039
Si Si8 0.184703 0.202657 0.506618
O O1 0.408962 0.225755 0.310103
O O2 0.353433 0.081779 0.254353
O O3 0.176700 0.140796 0.419940
O O4 0.017418 0.183038 0.249906
O O5 0.538951 0.352400 0.216260
O O6 0.896646 0.295940 0.130423
O O7 0.916960 0.423786 0.239734
O O8 0.701209 0.432502 0.072148
O O9 0.229932 0.365301 0.347832
O O10 0.656599 0.334979 0.391596
O O11 0.922110 0.456191 0.916404
O O12 0.242181 0.486780 0.791999
O O13 0.165261 0.341246 0.852037
O O14 0.023784 0.986010 0.081699
O O15 0.929081 0.643662 0.421750
O O16 0.437121 0.247509 0.503948
#
# Coordination Sequence:
#
# PCOD9314097 Si02
#       8
#     4   4   4   4   4   4   4   4
#     4  10  20  41  71 105 140 190 239 309 366 438
#     4  12  24  43  77 107 141 191 253 307 384 455
#     4  11  23  42  73 102 143 189 250 304 364 452
#     4  10  22  46  67  99 149 186 237 306 377 447
#     4  11  25  48  69 100 153 192 239 308 383 462
#     4  10  26  45  68 106 148 185 243 310 384 453
#     4  10  21  39  71 109 138 178 248 312 369 446
#     4  10  23  40  70 110 148 185 245 312 373 433
#
# _framework density 23.279591
#
# number of rings (size 3 to 8) (size 9 to 14) (size 15 to 20)
#    0.000    1.500    2.500    1.500    5.250    2.000 
#    0.000   16.250    0.000    0.000    0.000    0.000 
#    0.000    0.000    0.000    0.000    0.000    0.000 
#
# Total GULP energy -178810.914226 kJ/mol
# GULP energy per Si atom -5587.841070 kJ/mol
# Density = 2.322661 g / cm^3
# Si number density = 23.279591 Si / 1000 Ang^3
#
#
#
# Elastic Constant Matrix: (Units=GPa)
#
#
# Indices 1 2 3 4 5 6 
#
# 1 78.5761 17.9182 24.9202 0.0000 0.0000 0.0000
# 2 17.9182 63.7519 22.6678 0.0000 0.0000 0.0000
# 3 24.9202 22.6678 125.5989 0.0000 0.0000 0.0000
# 4 0.0000 0.0000 0.0000 19.9643 0.0000 0.0000
# 5 0.0000 0.0000 0.0000 0.0000 21.1376 0.0000
# 6 0.0000 0.0000 0.0000 0.0000 0.0000 48.5037
#
#
#
# Elastic Compliance Matrix: (Units=1/GPa)
#
#
# Indices 1 2 3 4 5 6 
#
# 1 0.014162 -0.003186 -0.002235 0.000000 0.000000 0.000000
# 2 -0.003186 0.017478 -0.002522 0.000000 0.000000 0.000000
# 3 -0.002235 -0.002522 0.008861 0.000000 0.000000 0.000000
# 4 0.000000 0.000000 0.000000 0.050090 0.000000 0.000000
# 5 0.000000 0.000000 0.000000 0.000000 0.047309 0.000000
# 6 0.000000 0.000000 0.000000 0.000000 0.000000 0.020617
#
#
# Mechanical properties :
#
#
# Convention : Reuss Voigt Hill
#
# Bulk Modulus (GPa) = 40.62650 44.32660 42.47655
# Shear Modulus (GPa) = 27.38128 31.41583 29.39855
#
# Velocity S-wave (km/s) = 3.43329 3.67754 3.55751
# Velocity P-wave (km/s) = 5.76247 6.09218 5.92962
#
# Compressibility (1/GPa) = 0.02461448
#
# Stress axis : x y z
#
# Youngs Moduli (GPa) = 70.61269 57.21468 112.86044
#
# Poissons Ratio (x) = 0.18227 0.25223
# Poissons Ratio (y) = 0.22495 0.28467
# Poissons Ratio (z) = 0.15781 0.14431
#
# Static dielectric constant tensor:
#      x y z
#    x 1.932880 0.000000 0.000000 
#    y 0.000000 1.965820 0.000000 
#    z 0.000000 0.000000 1.868060 
# 
# From -- ./inp_files/5757.got.cif
#   From: 2010.05.17/outbox.cif.g08.bks.cpg/sg19_3_cif.got.tgz:5757.got - 2010.06.03 22:46:19.
