data_PCOD9314455
_publ_section_title
;
Structure prediction by ZEFSAII (Michael W. Deem and Ramdas Pophale) SiO2 
 PCOD9314455
Probable space group: P 21 21 21
;
_chemical_formula_sum "Si O2"
_cell_formula_units_Z 24
_cell_length_a 10.489858
_cell_length_b 5.247609
_cell_length_c 16.909434
_cell_angle_alpha 90.000000
_cell_angle_beta 90.000000
_cell_angle_gamma 90.000000
_cell_volume 930.808088
_symmetry_space_group_name_H-M "P 21 21 21"
_symmetry_group_IT_number 19
_symmetry_cell_setting 'orthorhombic'
loop_
_space_group_symop_operation_xyz
x,y,z
1/2-x,-y,1/2+z
1/2+x,1/2-y,-z
-x,1/2+y,1/2-z
loop_
_atom_site_type_symbol
_atom_site_label
_atom_site_fract_x
_atom_site_fract_y
_atom_site_fract_z
Si Si1 0.639287 0.402557 0.679520
Si Si2 0.317160 0.707894 0.238288
Si Si3 0.060477 0.306386 0.571620
Si Si4 0.710080 0.688257 0.470768
Si Si5 0.318206 0.473162 0.397758
Si Si6 0.101641 0.345938 0.164122
O O1 0.760385 0.544423 0.718254
O O2 0.690257 0.171323 0.628264
O O3 0.533305 0.558164 0.632059
O O4 0.568016 0.318980 0.759379
O O5 0.411628 0.722049 0.165365
O O6 0.373602 0.559388 0.313167
O O7 0.196109 0.562894 0.198648
O O8 0.104555 0.589587 0.547304
O O9 0.915725 0.215834 0.558670
O O10 0.149180 0.089714 0.532139
O O11 0.781182 0.786429 0.548984
O O12 0.814719 0.702254 0.400664
#
# Coordination Sequence:
#
# PCOD9314455 Si02
#       6
#     4   4   4   4   4   4
#     4  11  21  41  68 106 134 191 243 295 356 436
#     4  10  23  42  69 100 139 186 246 294 358 430
#     4  11  27  50  72 103 151 191 243 303 370 440
#     4  11  27  48  70 107 146 195 235 305 375 431
#     4  11  29  42  74 108 141 197 248 303 374 442
#     4  10  21  41  69 100 141 184 239 296 355 427
#
# _framework density 25.784049
#
# number of rings (size 3 to 8) (size 9 to 14) (size 15 to 20)
#    0.000    1.333    3.333    0.000    9.333    0.000 
#    3.000    0.000    0.000    0.000    0.000    0.000 
#    0.000    0.000    0.000    0.000    0.000    0.000 
#
# Total GULP energy -134413.105092 kJ/mol
# GULP energy per Si atom -5600.546045 kJ/mol
# Density = 2.572536 g / cm^3
# Si number density = 25.784049 Si / 1000 Ang^3
#
#
#
# Elastic Constant Matrix: (Units=GPa)
#
#
# Indices 1 2 3 4 5 6 
#
# 1 60.6521 -7.0613 12.1612 0.0000 0.0000 0.0000
# 2 -7.0613 61.8965 13.0533 0.0000 0.0000 0.0000
# 3 12.1612 13.0533 124.0728 0.0000 0.0000 0.0000
# 4 0.0000 0.0000 0.0000 41.0801 0.0000 0.0000
# 5 0.0000 0.0000 0.0000 0.0000 21.2738 0.0000
# 6 0.0000 0.0000 0.0000 0.0000 0.0000 36.1458
#
#
#
# Elastic Compliance Matrix: (Units=1/GPa)
#
#
# Indices 1 2 3 4 5 6 
#
# 1 0.017150 0.002363 -0.001930 0.000000 0.000000 0.000000
# 2 0.002363 0.016848 -0.002004 0.000000 0.000000 0.000000
# 3 -0.001930 -0.002004 0.008460 0.000000 0.000000 0.000000
# 4 0.000000 0.000000 0.000000 0.024343 0.000000 0.000000
# 5 0.000000 0.000000 0.000000 0.000000 0.047006 0.000000
# 6 0.000000 0.000000 0.000000 0.000000 0.000000 0.027666
#
#
# Mechanical properties :
#
#
# Convention : Reuss Voigt Hill
#
# Bulk Modulus (GPa) = 25.43443 31.43641 28.43542
# Shear Modulus (GPa) = 31.70205 34.93117 33.31661
#
# Velocity S-wave (km/s) = 3.51026 3.68470 3.59853
# Velocity P-wave (km/s) = 5.12982 5.50648 5.32148
#
# Compressibility (1/GPa) = 0.03931678
#
# Stress axis : x y z
#
# Youngs Moduli (GPa) = 58.31068 59.35326 118.20658
#
# Poissons Ratio (x) = -0.14027 0.22809
# Poissons Ratio (y) = -0.13781 0.23691
# Poissons Ratio (z) = 0.11251 0.11896
#
# Static dielectric constant tensor:
#      x y z
#    x 1.983480 0.000000 0.000000 
#    y 0.000000 2.066720 0.000000 
#    z 0.000000 0.000000 2.016160 
# 
# From -- ./inp_files/428.got.cif
#   From: 2010.05.17/outbox.cif.g08.bks.cpg/sg19_1_cif.got.tgz:428.got - 2010.06.03 22:46:19.
