data_PCOD9314617
_publ_section_title
;
Structure prediction by ZEFSAII (Michael W. Deem and Ramdas Pophale) SiO2 
 PCOD9314617
Probable space group: P 21 21 21
;
_chemical_formula_sum "Si O2"
_cell_formula_units_Z 20
_cell_length_a 11.455169
_cell_length_b 7.706668
_cell_length_c 8.155266
_cell_angle_alpha 90.000000
_cell_angle_beta 90.000000
_cell_angle_gamma 90.000000
_cell_volume 719.956541
_symmetry_space_group_name_H-M "P 21 21 21"
_symmetry_group_IT_number 19
_symmetry_cell_setting 'orthorhombic'
loop_
_space_group_symop_operation_xyz
x,y,z
1/2-x,-y,1/2+z
1/2+x,1/2-y,-z
-x,1/2+y,1/2-z
loop_
_atom_site_type_symbol
_atom_site_label
_atom_site_fract_x
_atom_site_fract_y
_atom_site_fract_z
Si Si1 0.202573 0.228232 0.546677
Si Si2 0.540825 0.483264 0.269095
Si Si3 0.099442 0.550540 0.436147
Si Si4 0.461795 0.631030 0.593093
Si Si5 0.294563 0.915999 0.703093
O O1 0.159860 0.122034 0.385844
O O2 0.103670 0.199933 0.685090
O O3 0.208547 0.427419 0.490418
O O4 0.303586 0.105423 0.619277
O O5 0.462687 0.523660 0.426432
O O6 0.654935 0.608274 0.272687
O O7 0.481216 0.475174 0.095531
O O8 0.081745 0.754327 0.406125
O O9 0.056015 0.471207 0.263174
O O10 0.356302 0.771591 0.594284
#
# Coordination Sequence:
#
# PCOD9314617 Si02
#       5
#     4   4   4   4   4
#     4   9  20  38  64  90 128 168 216 260 314 391
#     4  10  22  38  67  96 125 173 218 264 318 383
#     4  11  22  37  63  96 126 168 217 263 320 379
#     4  11  22  40  66  93 132 172 213 265 324 389
#     4   9  20  37  64  91 125 173 216 252 318 390
#
# _framework density 27.779453
#
# number of rings (size 3 to 8) (size 9 to 14) (size 15 to 20)
#    1.200    0.800    0.000    4.800    2.800    0.000 
#    0.000    0.000   57.200    0.000    0.000    0.000 
#    0.000    0.000    0.000    0.000    0.000    0.000 
#
# Total GULP energy -111641.867502 kJ/mol
# GULP energy per Si atom -5582.093375 kJ/mol
# Density = 2.771623 g / cm^3
# Si number density = 27.779453 Si / 1000 Ang^3
#
#
#
# Elastic Constant Matrix: (Units=GPa)
#
#
# Indices 1 2 3 4 5 6 
#
# 1 59.9160 4.7913 45.5867 0.0000 0.0000 0.0000
# 2 4.7913 76.1160 19.3901 0.0000 0.0000 0.0000
# 3 45.5867 19.3901 202.7895 0.0000 0.0000 0.0000
# 4 0.0000 0.0000 0.0000 53.8903 0.0000 0.0000
# 5 0.0000 0.0000 0.0000 0.0000 46.0120 0.0000
# 6 0.0000 0.0000 0.0000 0.0000 0.0000 34.2444
#
#
#
# Elastic Compliance Matrix: (Units=1/GPa)
#
#
# Indices 1 2 3 4 5 6 
#
# 1 0.020135 -0.000117 -0.004515 0.000000 0.000000 0.000000
# 2 -0.000117 0.013467 -0.001261 0.000000 0.000000 0.000000
# 3 -0.004515 -0.001261 0.006067 0.000000 0.000000 0.000000
# 4 0.000000 0.000000 0.000000 0.018556 0.000000 0.000000
# 5 0.000000 0.000000 0.000000 0.000000 0.021733 0.000000
# 6 0.000000 0.000000 0.000000 0.000000 0.000000 0.029202
#
#
# Mechanical properties :
#
#
# Convention : Reuss Voigt Hill
#
# Bulk Modulus (GPa) = 35.86689 53.15088 44.50888
# Shear Modulus (GPa) = 38.39062 44.76623 41.57843
#
# Velocity S-wave (km/s) = 3.72153 4.01869 3.87296
# Velocity P-wave (km/s) = 5.60408 6.38027 6.00473
#
# Compressibility (1/GPa) = 0.02788087
#
# Stress axis : x y z
#
# Youngs Moduli (GPa) = 49.66570 74.25819 164.83184
#
# Poissons Ratio (x) = 0.00871 0.74422
# Poissons Ratio (y) = 0.00582 0.20790
# Poissons Ratio (z) = 0.22424 0.09366
#
# Static dielectric constant tensor:
#      x y z
#    x 2.317070 0.000000 0.000000 
#    y 0.000000 2.279220 0.000000 
#    z 0.000000 0.000000 2.049510 
# 
# From -- ./inp_files/3806.got.cif
#   From: 2010.05.17/outbox.cif.g08.bks.cpg/sg19_2_cif.got.tgz:3806.got - 2010.06.03 22:46:19.
