data_PCOD9314992
_publ_section_title
;
Structure prediction by ZEFSAII (Michael W. Deem and Ramdas Pophale) SiO2 
 PCOD9314992
Probable space group: P 21 21 21
;
_chemical_formula_sum "Si O2"
_cell_formula_units_Z 24
_cell_length_a 5.206315
_cell_length_b 9.378798
_cell_length_c 17.990809
_cell_angle_alpha 90.000000
_cell_angle_beta 90.000000
_cell_angle_gamma 90.000000
_cell_volume 878.472794
_symmetry_space_group_name_H-M "P 21 21 21"
_symmetry_group_IT_number 19
_symmetry_cell_setting 'orthorhombic'
loop_
_space_group_symop_operation_xyz
x,y,z
1/2-x,-y,1/2+z
1/2+x,1/2-y,-z
-x,1/2+y,1/2-z
loop_
_atom_site_type_symbol
_atom_site_label
_atom_site_fract_x
_atom_site_fract_y
_atom_site_fract_z
Si Si1 0.980662 0.143066 0.204079
Si Si2 0.645780 0.808060 0.389991
Si Si3 0.128457 0.195617 0.690699
Si Si4 0.501929 0.572553 0.928689
Si Si5 0.007809 0.460546 0.991334
Si Si6 0.346304 0.024759 0.301537
O O1 0.220699 0.242125 0.182497
O O2 0.056968 0.041112 0.272727
O O3 0.763869 0.240261 0.236589
O O4 0.947094 0.056993 0.128909
O O5 0.529734 0.678249 0.437782
O O6 0.865439 0.890928 0.436216
O O7 0.435190 0.921192 0.365616
O O8 0.342487 0.178667 0.626255
O O9 0.927040 0.317379 0.671844
O O10 0.034450 0.042232 0.722944
O O11 0.219056 0.579854 0.964847
O O12 0.724783 0.529325 0.987002
#
# Coordination Sequence:
#
# PCOD9314992 Si02
#       6
#     4   4   4   4   4   4
#     4  10  23  38  67 105 139 187 235 311 372 439
#     4  11  23  44  74 104 148 189 253 299 368 448
#     4  11  25  42  69 108 150 193 240 313 390 449
#     4  10  25  42  71  98 151 186 248 304 365 429
#     4  11  24  46  67 109 139 203 250 300 351 445
#     4  11  24  42  68 108 143 184 242 305 380 442
#
# _framework density 27.320138
#
# number of rings (size 3 to 8) (size 9 to 14) (size 15 to 20)
#    0.000    1.333    1.667    3.000   11.667    1.333 
#    0.000    1.667    0.000    0.000    0.000    0.000 
#    0.000    0.000    0.000    0.000    0.000    0.000 
#
# Total GULP energy -134151.400122 kJ/mol
# GULP energy per Si atom -5589.641672 kJ/mol
# Density = 2.725796 g / cm^3
# Si number density = 27.320138 Si / 1000 Ang^3
#
#
#
# Elastic Constant Matrix: (Units=GPa)
#
#
# Indices 1 2 3 4 5 6 
#
# 1 115.5922 -11.0359 29.1911 0.0000 0.0000 0.0000
# 2 -11.0359 57.1050 -7.1198 0.0000 0.0000 0.0000
# 3 29.1911 -7.1198 53.8504 0.0000 0.0000 0.0000
# 4 0.0000 0.0000 0.0000 21.8429 0.0000 0.0000
# 5 0.0000 0.0000 0.0000 0.0000 53.0552 0.0000
# 6 0.0000 0.0000 0.0000 0.0000 0.0000 37.2747
#
#
#
# Elastic Compliance Matrix: (Units=1/GPa)
#
#
# Indices 1 2 3 4 5 6 
#
# 1 0.010116 0.001293 -0.005313 0.000000 0.000000 0.000000
# 2 0.001293 0.017970 0.001675 0.000000 0.000000 0.000000
# 3 -0.005313 0.001675 0.021671 0.000000 0.000000 0.000000
# 4 0.000000 0.000000 0.000000 0.045781 0.000000 0.000000
# 5 0.000000 0.000000 0.000000 0.000000 0.018848 0.000000
# 6 0.000000 0.000000 0.000000 0.000000 0.000000 0.026828
#
#
# Mechanical properties :
#
#
# Convention : Reuss Voigt Hill
#
# Bulk Modulus (GPa) = 22.18874 27.62425 24.90650
# Shear Modulus (GPa) = 31.06978 36.80206 33.93592
#
# Velocity S-wave (km/s) = 3.37597 3.67422 3.52825
# Velocity P-wave (km/s) = 4.83069 5.30407 5.07291
#
# Compressibility (1/GPa) = 0.04506790
#
# Stress axis : x y z
#
# Youngs Moduli (GPa) = 98.85132 55.64742 46.14366
#
# Poissons Ratio (x) = -0.07193 0.24516
# Poissons Ratio (y) = -0.12778 -0.07730
# Poissons Ratio (z) = 0.52518 -0.09322
#
# Static dielectric constant tensor:
#      x y z
#    x 2.134950 0.000000 0.000000 
#    y 0.000000 2.265730 0.000000 
#    z 0.000000 0.000000 2.151430 
# 
# From -- ./inp_files/5659.got.cif
#   From: 2010.05.17/outbox.cif.g08.bks.cpg/sg19_3_cif.got.tgz:5659.got - 2010.06.03 22:46:19.
