data_PCOD9314607
_publ_section_title
;
Structure prediction by ZEFSAII (Michael W. Deem and Ramdas Pophale) SiO2 
 PCOD9314607
Probable space group: P 21 21 21
;
_chemical_formula_sum "Si O2"
_cell_formula_units_Z 32
_cell_length_a 11.446261
_cell_length_b 4.977431
_cell_length_c 23.643500
_cell_angle_alpha 90.000000
_cell_angle_beta 90.000000
_cell_angle_gamma 90.000000
_cell_volume 1347.040519
_symmetry_space_group_name_H-M "P 21 21 21"
_symmetry_group_IT_number 19
_symmetry_cell_setting 'orthorhombic'
loop_
_space_group_symop_operation_xyz
x,y,z
1/2-x,-y,1/2+z
1/2+x,1/2-y,-z
-x,1/2+y,1/2-z
loop_
_atom_site_type_symbol
_atom_site_label
_atom_site_fract_x
_atom_site_fract_y
_atom_site_fract_z
Si Si1 0.778128 0.555191 0.058292
Si Si2 0.309599 0.343696 0.084451
Si Si3 0.753482 0.055020 0.795114
Si Si4 0.162453 0.857613 0.050565
Si Si5 0.497910 0.169080 0.785882
Si Si6 0.078700 0.207997 0.760145
Si Si7 0.244596 0.077659 0.318247
Si Si8 0.079719 0.540829 0.471727
O O1 0.759182 0.688411 0.119003
O O2 0.831028 0.254598 0.057181
O O3 0.874060 0.738101 0.028173
O O4 0.669074 0.594121 0.017047
O O5 0.332329 0.371797 0.151125
O O6 0.206394 0.558505 0.066257
O O7 0.259070 0.047845 0.077580
O O8 0.411994 0.377135 0.038181
O O9 0.618876 0.077250 0.814195
O O10 0.755037 0.224657 0.736093
O O11 0.806047 0.768067 0.777723
O O12 0.038422 0.996213 0.063928
O O13 0.500846 0.483418 0.771196
O O14 0.376513 0.086300 0.813361
O O15 0.005114 0.478551 0.763354
O O16 0.139990 0.106103 0.816521
#
# Coordination Sequence:
#
# PCOD9314607 Si02
#       8
#     4   4   4   4   4   4   4   4
#     4  10  24  41  68  99 132 174 229 282 338 409
#     4  10  24  41  68  99 132 174 229 282 338 409
#     4  11  25  45  68 104 139 180 232 281 352 418
#     4  10  22  43  65  98 132 176 226 282 341 398
#     4  10  22  38  62  94 134 170 216 276 328 402
#     4  12  26  46  66  94 142 188 230 276 330 420
#     4  11  25  45  68 104 139 180 232 281 352 418
#     4  10  22  43  65  98 132 176 226 282 341 398
#
# _framework density 23.755780999999999
#
# number of rings (size 3 to 8) (size 9 to 14) (size 15 to 20)
#    0.000    1.500    2.500    0.750    7.000    1.000 
#    2.250    0.000    0.000    0.000    0.000    0.000 
#    0.000    0.000    0.000    0.000    0.000    0.000 
#
# Total GULP energy -178344.965470 kJ/mol
# GULP energy per Si atom -5573.280171 kJ/mol
# Density = 2.370171 g / cm^3
# Si number density = 23.755781 Si / 1000 Ang^3
#
#
#
# Elastic Constant Matrix: (Units=GPa)
#
#
# Indices 1 2 3 4 5 6 
#
# 1 57.4803 16.7042 -11.8672 0.0000 0.0000 0.0000
# 2 16.7042 98.1538 1.3983 0.0000 0.0000 0.0000
# 3 -11.8672 1.3983 96.0222 0.0000 0.0000 0.0000
# 4 0.0000 0.0000 0.0000 15.8300 0.0000 0.0000
# 5 0.0000 0.0000 0.0000 0.0000 12.4575 0.0000
# 6 0.0000 0.0000 0.0000 0.0000 0.0000 27.4593
#
#
#
# Elastic Compliance Matrix: (Units=1/GPa)
#
#
# Indices 1 2 3 4 5 6 
#
# 1 0.018828 -0.003238 0.002374 0.000000 0.000000 0.000000
# 2 -0.003238 0.010747 -0.000557 0.000000 0.000000 0.000000
# 3 0.002374 -0.000557 0.010716 0.000000 0.000000 0.000000
# 4 0.000000 0.000000 0.000000 0.063171 0.000000 0.000000
# 5 0.000000 0.000000 0.000000 0.000000 0.080273 0.000000
# 6 0.000000 0.000000 0.000000 0.000000 0.000000 0.036418
#
#
# Mechanical properties :
#
#
# Convention : Reuss Voigt Hill
#
# Bulk Modulus (GPa) = 26.70233 29.34744 28.02488
# Shear Modulus (GPa) = 21.23345 27.51076 24.37211
#
# Velocity S-wave (km/s) = 2.99293 3.40673 3.20651
# Velocity P-wave (km/s) = 4.81749 5.27779 5.05288
#
# Compressibility (1/GPa) = 0.03744992
#
# Stress axis : x y z
#
# Youngs Moduli (GPa) = 53.11117 93.04836 93.32033
#
# Poissons Ratio (x) = 0.30130 -0.22155
# Poissons Ratio (y) = 0.17198 0.05195
# Poissons Ratio (z) = -0.12609 0.05180
#
# Static dielectric constant tensor:
#      x y z
#    x 2.021380 0.000000 0.000000 
#    y 0.000000 1.890990 0.000000 
#    z 0.000000 0.000000 1.989500 
# 
# From -- ./inp_files/6949.got.cif
#   From: 2010.05.17/outbox.cif.g08.bks.cpg/sg19_4_cif.got.tgz:6949.got - 2010.06.03 22:46:19.
