data_PCOD9314424
_publ_section_title
;
Structure prediction by ZEFSAII (Michael W. Deem and Ramdas Pophale) SiO2 
 PCOD9314424
Probable space group: P 21 21 21
;
_chemical_formula_sum "Si O2"
_cell_formula_units_Z 32
_cell_length_a 12.318202
_cell_length_b 7.114567
_cell_length_c 13.903420
_cell_angle_alpha 90.000000
_cell_angle_beta 90.000000
_cell_angle_gamma 90.000000
_cell_volume 1218.477285
_symmetry_space_group_name_H-M "P 21 21 21"
_symmetry_group_IT_number 19
_symmetry_cell_setting 'orthorhombic'
loop_
_space_group_symop_operation_xyz
x,y,z
1/2-x,-y,1/2+z
1/2+x,1/2-y,-z
-x,1/2+y,1/2-z
loop_
_atom_site_type_symbol
_atom_site_label
_atom_site_fract_x
_atom_site_fract_y
_atom_site_fract_z
Si Si1 0.302114 0.952112 0.366759
Si Si2 0.723191 0.964236 0.584941
Si Si3 0.192664 0.981780 0.082106
Si Si4 0.939874 0.556109 0.121739
Si Si5 0.382385 0.164517 0.182886
Si Si6 0.380229 0.701891 0.063559
Si Si7 0.517410 0.864643 0.681110
Si Si8 0.436680 0.401467 0.342625
O O1 0.273066 0.735946 0.386337
O O2 0.344589 0.012365 0.471468
O O3 0.186168 0.050441 0.350488
O O4 0.362984 0.014620 0.270942
O O5 0.657809 0.010139 0.486726
O O6 0.827641 0.097434 0.594283
O O7 0.625859 0.982652 0.660899
O O8 0.284139 0.138738 0.108851
O O9 0.088876 0.028008 0.144763
O O10 0.267289 0.797805 0.097797
O O11 0.007065 0.656345 0.204857
O O12 0.975383 0.335996 0.125369
O O13 0.933214 0.667007 0.021951
O O14 0.392356 0.363491 0.235000
O O15 0.495761 0.091997 0.140413
O O16 0.475393 0.735441 0.139448
#
# Coordination Sequence:
#
# PCOD9314424 Si02
#       8
#     4   4   4   4   4   4   4   4
#     4  10  22  43  66  98 135 170 226 281 332 409
#     4  11  25  41  66 100 134 177 228 276 341 406
#     4  10  23  42  71  95 130 182 221 279 345 400
#     4  10  21  41  64  97 136 169 225 278 332 400
#     4  11  23  45  70  95 138 176 227 283 342 403
#     4  10  24  44  67  96 135 177 223 283 335 404
#     4  11  23  39  69  98 130 183 220 279 345 397
#     4  11  25  43  67  99 134 182 224 281 342 405
#
# _framework density 26.262284999999999
#
# number of rings (size 3 to 8) (size 9 to 14) (size 15 to 20)
#    0.000    1.500    1.250    3.000    7.000    1.000 
#    2.250    0.000    0.000    0.000    0.000    0.000 
#    0.000    0.000    0.000    0.000    0.000    0.000 
#
# Total GULP energy -178842.048902 kJ/mol
# GULP energy per Si atom -5588.814028 kJ/mol
# Density = 2.620251 g / cm^3
# Si number density = 26.262285 Si / 1000 Ang^3
#
#
#
# Elastic Constant Matrix: (Units=GPa)
#
#
# Indices 1 2 3 4 5 6 
#
# 1 110.0774 22.3151 19.2278 0.0000 0.0000 0.0000
# 2 22.3151 71.1100 7.3800 0.0000 0.0000 0.0000
# 3 19.2278 7.3800 66.6520 0.0000 0.0000 0.0000
# 4 0.0000 0.0000 0.0000 33.7088 0.0000 0.0000
# 5 0.0000 0.0000 0.0000 0.0000 36.7761 0.0000
# 6 0.0000 0.0000 0.0000 0.0000 0.0000 20.3034
#
#
#
# Elastic Compliance Matrix: (Units=1/GPa)
#
#
# Indices 1 2 3 4 5 6 
#
# 1 0.010128 -0.002909 -0.002600 0.000000 0.000000 0.000000
# 2 -0.002909 0.015061 -0.000829 0.000000 0.000000 0.000000
# 3 -0.002600 -0.000829 0.015845 0.000000 0.000000 0.000000
# 4 0.000000 0.000000 0.000000 0.029666 0.000000 0.000000
# 5 0.000000 0.000000 0.000000 0.000000 0.027192 0.000000
# 6 0.000000 0.000000 0.000000 0.000000 0.000000 0.049253
#
#
# Mechanical properties :
#
#
# Convention : Reuss Voigt Hill
#
# Bulk Modulus (GPa) = 35.25982 38.40947 36.83464
# Shear Modulus (GPa) = 29.53820 31.41878 30.47849
#
# Velocity S-wave (km/s) = 3.35735 3.46258 3.41037
# Velocity P-wave (km/s) = 5.33706 5.53561 5.43724
#
# Compressibility (1/GPa) = 0.02836090
#
# Stress axis : x y z
#
# Youngs Moduli (GPa) = 98.73367 66.39468 63.11132
#
# Poissons Ratio (x) = 0.19311 0.16407
# Poissons Ratio (y) = 0.28717 0.05229
# Poissons Ratio (z) = 0.25668 0.05502
#
# Static dielectric constant tensor:
#      x y z
#    x 1.980100 0.000000 0.000000 
#    y 0.000000 2.190400 0.000000 
#    z 0.000000 0.000000 2.170430 
# 
# From -- ./inp_files/6139.got.cif
#   From: 2010.05.17/outbox.cif.g08.bks.cpg/sg19_4_cif.got.tgz:6139.got - 2010.06.03 22:46:19.
