data_PCOD9314760
_publ_section_title
;
Structure prediction by ZEFSAII (Michael W. Deem and Ramdas Pophale) SiO2 
 PCOD9314760
Probable space group: P 21 21 21
;
_chemical_formula_sum "Si O2"
_cell_formula_units_Z 32
_cell_length_a 5.161013
_cell_length_b 9.732794
_cell_length_c 23.520251
_cell_angle_alpha 90.000000
_cell_angle_beta 90.000000
_cell_angle_gamma 90.000000
_cell_volume 1181.447524
_symmetry_space_group_name_H-M "P 21 21 21"
_symmetry_group_IT_number 19
_symmetry_cell_setting 'orthorhombic'
loop_
_space_group_symop_operation_xyz
x,y,z
1/2-x,-y,1/2+z
1/2+x,1/2-y,-z
-x,1/2+y,1/2-z
loop_
_atom_site_type_symbol
_atom_site_label
_atom_site_fract_x
_atom_site_fract_y
_atom_site_fract_z
Si Si1 0.482193 0.880017 0.949270
Si Si2 0.355783 0.114794 0.680821
Si Si3 0.323059 0.916949 0.392394
Si Si4 0.474218 0.803999 0.073357
Si Si5 0.925227 0.140840 0.133360
Si Si6 0.995726 0.471937 0.724961
Si Si7 0.421905 0.837058 0.507437
Si Si8 0.707816 0.230186 0.759723
O O1 0.749799 0.805060 0.939735
O O2 0.251200 0.773882 0.929721
O O3 0.449463 0.014010 0.910122
O O4 0.463620 0.903668 0.017690
O O5 0.136056 0.135141 0.632516
O O6 0.217816 0.040224 0.733668
O O7 0.505032 0.245051 0.707768
O O8 0.581113 0.014301 0.655957
O O9 0.428448 0.002226 0.340243
O O10 0.468894 0.931266 0.452575
O O11 0.299535 0.755346 0.375851
O O12 0.039366 0.115807 0.071050
O O13 0.101784 0.215692 0.180535
O O14 0.966164 0.314165 0.742903
O O15 0.240434 0.568670 0.734166
O O16 0.634805 0.719331 0.499556
#
# Coordination Sequence:
#
# PCOD9314760 Si02
#       8
#     4   4   4   4   4   4   4   4
#     4  10  23  43  71 104 139 187 231 305 348 433
#     4  11  24  44  67  96 142 188 234 296 363 433
#     4  11  22  43  68 101 139 183 244 295 367 429
#     4  10  23  44  70 104 143 182 244 285 366 423
#     4  10  23  45  68 102 138 188 238 303 361 440
#     4  11  26  41  68 100 135 189 239 297 360 438
#     4  10  22  41  68  98 138 184 231 298 359 418
#     4  11  25  45  68  99 142 187 243 295 372 430
#
# _framework density 27.085419000000002
#
# number of rings (size 3 to 8) (size 9 to 14) (size 15 to 20)
#    0.000    1.500    1.250    2.250    5.250    3.000 
#    2.250    8.750    0.000    0.000    0.000    0.000 
#    0.000    0.000    0.000    0.000    0.000    0.000 
#
# Total GULP energy -179037.275532 kJ/mol
# GULP energy per Si atom -5594.914860 kJ/mol
# Density = 2.702377 g / cm^3
# Si number density = 27.085419 Si / 1000 Ang^3
#
#
#
# Elastic Constant Matrix: (Units=GPa)
#
#
# Indices 1 2 3 4 5 6 
#
# 1 73.9094 45.6987 14.4994 0.0000 0.0000 0.0000
# 2 45.6987 72.7621 56.8569 0.0000 0.0000 0.0000
# 3 14.4994 56.8569 225.5843 0.0000 0.0000 0.0000
# 4 0.0000 0.0000 0.0000 38.0476 0.0000 0.0000
# 5 0.0000 0.0000 0.0000 0.0000 28.1834 0.0000
# 6 0.0000 0.0000 0.0000 0.0000 0.0000 32.4711
#
#
#
# Elastic Compliance Matrix: (Units=1/GPa)
#
#
# Indices 1 2 3 4 5 6 
#
# 1 0.023406 -0.016841 0.002740 0.000000 0.000000 0.000000
# 2 -0.016841 0.029232 -0.006285 0.000000 0.000000 0.000000
# 3 0.002740 -0.006285 0.005841 0.000000 0.000000 0.000000
# 4 0.000000 0.000000 0.000000 0.026283 0.000000 0.000000
# 5 0.000000 0.000000 0.000000 0.000000 0.035482 0.000000
# 6 0.000000 0.000000 0.000000 0.000000 0.000000 0.030797
#
#
# Mechanical properties :
#
#
# Convention : Reuss Voigt Hill
#
# Bulk Modulus (GPa) = 56.47771 67.37399 61.92585
# Shear Modulus (GPa) = 25.28897 36.75381 31.02139
#
# Velocity S-wave (km/s) = 3.05892 3.68769 3.38792
# Velocity P-wave (km/s) = 5.77694 6.56207 6.18198
#
# Compressibility (1/GPa) = 0.01770610
#
# Stress axis : x y z
#
# Youngs Moduli (GPa) = 42.72480 34.20894 171.20485
#
# Poissons Ratio (x) = 0.57613 -0.46916
# Poissons Ratio (y) = 0.71954 1.07607
# Poissons Ratio (z) = -0.11708 0.21501
#
# Static dielectric constant tensor:
#      x y z
#    x 2.144010 0.000000 0.000000 
#    y 0.000000 2.169260 0.000000 
#    z 0.000000 0.000000 2.132940 
# 
# From -- ./inp_files/7305.got.cif
#   From: 2010.05.17/outbox.cif.g08.bks.cpg/sg19_4_cif.got.tgz:7305.got - 2010.06.03 22:46:19.
