data_PCOD9314470
_publ_section_title
;
Structure prediction by ZEFSAII (Michael W. Deem and Ramdas Pophale) SiO2 
 PCOD9314470
Probable space group: P 21 21 21
;
_chemical_formula_sum "Si O2"
_cell_formula_units_Z 28
_cell_length_a 12.031647
_cell_length_b 5.047101
_cell_length_c 17.188765
_cell_angle_alpha 90.000000
_cell_angle_beta 90.000000
_cell_angle_gamma 90.000000
_cell_volume 1043.786682
_symmetry_space_group_name_H-M "P 21 21 21"
_symmetry_group_IT_number 19
_symmetry_cell_setting 'orthorhombic'
loop_
_space_group_symop_operation_xyz
x,y,z
1/2-x,-y,1/2+z
1/2+x,1/2-y,-z
-x,1/2+y,1/2-z
loop_
_atom_site_type_symbol
_atom_site_label
_atom_site_fract_x
_atom_site_fract_y
_atom_site_fract_z
Si Si1 0.292725 0.236652 0.747745
Si Si2 0.950345 0.909706 0.786293
Si Si3 0.002909 0.130627 0.462867
Si Si4 0.450430 0.372702 0.048833
Si Si5 0.711320 0.075820 0.010797
Si Si6 0.762641 0.589721 0.111751
Si Si7 0.994259 0.009612 0.205162
O O1 0.183392 0.379388 0.717619
O O2 0.247666 0.990072 0.799082
O O3 0.366749 0.398896 0.813150
O O4 0.387600 0.139149 0.685469
O O5 0.004760 0.622232 0.775599
O O6 0.987375 0.037394 0.867531
O O7 0.887869 0.981262 0.451318
O O8 0.991610 0.438803 0.483979
O O9 0.043971 0.940416 0.533688
O O10 0.102397 0.115344 0.401162
O O11 0.323998 0.455124 0.035814
O O12 0.706111 0.848689 0.076497
O O13 0.718754 0.351529 0.056468
O O14 0.037569 0.299474 0.227538
#
# Coordination Sequence:
#
# PCOD9314470 Si02
#       7
#     4   4   4   4   4   4   4
#     4  10  24  42  65  97 132 165 235 264 339 395
#     4  12  29  42  65 100 136 196 216 263 335 401
#     4  10  21  42  64  92 124 166 216 269 335 370
#     4  10  23  44  59  94 132 162 227 259 314 406
#     4  10  22  39  65  91 124 173 199 280 324 369
#     4  10  23  36  65  97 122 161 219 267 320 393
#     4   8  20  39  63  87 124 169 206 288 327 366
#
# _framework density 26.825403999999999
#
# number of rings (size 3 to 8) (size 9 to 14) (size 15 to 20)
#    0.857    1.143    0.000    1.714   10.000    1.143 
#    0.000    2.857    0.000    0.000    0.000    0.000 
#    0.000    0.000    0.000    0.000    0.000    0.000 
#
# Total GULP energy -156185.176241 kJ/mol
# GULP energy per Si atom -5578.042009 kJ/mol
# Density = 2.676435 g / cm^3
# Si number density = 26.825404 Si / 1000 Ang^3
#
#
#
# Elastic Constant Matrix: (Units=GPa)
#
#
# Indices 1 2 3 4 5 6 
#
# 1 153.9570 21.7351 0.2360 0.0000 0.0000 0.0000
# 2 21.7351 134.8545 9.2747 0.0000 0.0000 0.0000
# 3 0.2360 9.2747 57.4500 0.0000 0.0000 0.0000
# 4 0.0000 0.0000 0.0000 26.3213 0.0000 0.0000
# 5 0.0000 0.0000 0.0000 0.0000 14.1350 0.0000
# 6 0.0000 0.0000 0.0000 0.0000 0.0000 43.9744
#
#
#
# Elastic Compliance Matrix: (Units=1/GPa)
#
#
# Indices 1 2 3 4 5 6 
#
# 1 0.006648 -0.001082 0.000147 0.000000 0.000000 0.000000
# 2 -0.001082 0.007675 -0.001235 0.000000 0.000000 0.000000
# 3 0.000147 -0.001235 0.017605 0.000000 0.000000 0.000000
# 4 0.000000 0.000000 0.000000 0.037992 0.000000 0.000000
# 5 0.000000 0.000000 0.000000 0.000000 0.070746 0.000000
# 6 0.000000 0.000000 0.000000 0.000000 0.000000 0.022741
#
#
# Mechanical properties :
#
#
# Convention : Reuss Voigt Hill
#
# Bulk Modulus (GPa) = 36.24512 45.41700 40.83106
# Shear Modulus (GPa) = 28.25804 37.88718 33.07261
#
# Velocity S-wave (km/s) = 3.24914 3.76222 3.51505
# Velocity P-wave (km/s) = 5.25516 5.98663 5.63278
#
# Compressibility (1/GPa) = 0.02758992
#
# Stress axis : x y z
#
# Youngs Moduli (GPa) = 150.42596 130.29947 56.80156
#
# Poissons Ratio (x) = 0.14093 -0.00837
# Poissons Ratio (y) = 0.16270 0.07012
# Poissons Ratio (z) = -0.02216 0.16086
#
# Static dielectric constant tensor:
#      x y z
#    x 2.157210 0.000000 0.000000 
#    y 0.000000 2.070710 0.000000 
#    z 0.000000 0.000000 2.195540 
# 
# From -- ./inp_files/7132.got.cif
#   From: 2010.05.17/outbox.cif.g08.bks.cpg/sg19_4_cif.got.tgz:7132.got - 2010.06.03 22:46:19.
