data_PCOD9314910
_publ_section_title
;
Structure prediction by ZEFSAII (Michael W. Deem and Ramdas Pophale) SiO2 
 PCOD9314910
Probable space group: P 21 21 21
;
_chemical_formula_sum "Si O2"
_cell_formula_units_Z 32
_cell_length_a 11.270945
_cell_length_b 8.328460
_cell_length_c 13.854106
_cell_angle_alpha 90.000000
_cell_angle_beta 90.000000
_cell_angle_gamma 90.000000
_cell_volume 1300.479591
_symmetry_space_group_name_H-M "P 21 21 21"
_symmetry_group_IT_number 19
_symmetry_cell_setting 'orthorhombic'
loop_
_space_group_symop_operation_xyz
x,y,z
1/2-x,-y,1/2+z
1/2+x,1/2-y,-z
-x,1/2+y,1/2-z
loop_
_atom_site_type_symbol
_atom_site_label
_atom_site_fract_x
_atom_site_fract_y
_atom_site_fract_z
Si Si1 0.540978 0.086017 0.987891
Si Si2 0.112042 0.192848 0.392950
Si Si3 0.144129 0.634436 0.709972
Si Si4 0.676011 0.349393 0.901586
Si Si5 0.753162 0.404189 0.118988
Si Si6 0.621695 0.690759 0.805271
Si Si7 0.439974 0.668773 0.310561
Si Si8 0.781808 0.918574 0.945179
O O1 0.492848 0.108855 0.094415
O O2 0.558667 0.253755 0.934326
O O3 0.464605 0.954375 0.935293
O O4 0.676394 0.020126 0.994318
O O5 0.151096 0.313514 0.476277
O O6 0.017403 0.270153 0.320329
O O7 0.228928 0.093788 0.363148
O O8 0.257495 0.736189 0.676335
O O9 0.141303 0.479346 0.779008
O O10 0.126030 0.535614 0.608889
O O11 0.044893 0.754745 0.751687
O O12 0.647866 0.518830 0.853825
O O13 0.747706 0.374000 0.003381
O O14 0.845367 0.319027 0.192731
O O15 0.634268 0.324337 0.159336
O O16 0.708978 0.811931 0.865155
#
# Coordination Sequence:
#
# PCOD9314910 Si02
#       8
#     4   4   4   4   4   4   4   4
#     4   9  23  42  65  96 135 185 229 286 358 427
#     4  11  24  43  73  97 139 190 240 291 363 435
#     4  11  25  41  70 101 139 183 232 299 354 430
#     4  10  23  47  68  97 148 188 230 304 361 422
#     4  11  24  45  69 104 147 184 238 300 367 431
#     4  11  24  45  72 103 139 187 245 293 356 445
#     4  11  25  41  69 103 136 183 241 290 362 429
#     4  10  22  44  66  99 137 178 233 299 357 423
#
# _framework density 24.606307000000001
#
# number of rings (size 3 to 8) (size 9 to 14) (size 15 to 20)
#    0.000    1.500    2.500    0.750    7.000    2.000 
#    6.750    0.000    0.000    0.000    0.000    0.000 
#    0.000    0.000    0.000    0.000    0.000    0.000 
#
# Total GULP energy -178555.440093 kJ/mol
# GULP energy per Si atom -5579.857503 kJ/mol
# Density = 2.455030 g / cm^3
# Si number density = 24.606307 Si / 1000 Ang^3
#
#
#
# Elastic Constant Matrix: (Units=GPa)
#
#
# Indices 1 2 3 4 5 6 
#
# 1 70.9010 29.8214 46.4348 0.0000 0.0000 0.0000
# 2 29.8214 112.3481 28.1889 0.0000 0.0000 0.0000
# 3 46.4348 28.1889 72.2464 0.0000 0.0000 0.0000
# 4 0.0000 0.0000 0.0000 48.4151 0.0000 0.0000
# 5 0.0000 0.0000 0.0000 0.0000 38.9896 0.0000
# 6 0.0000 0.0000 0.0000 0.0000 0.0000 40.4446
#
#
#
# Elastic Compliance Matrix: (Units=1/GPa)
#
#
# Indices 1 2 3 4 5 6 
#
# 1 0.025186 -0.002908 -0.015053 0.000000 0.000000 0.000000
# 2 -0.002908 0.010203 -0.002112 0.000000 0.000000 0.000000
# 3 -0.015053 -0.002112 0.024340 0.000000 0.000000 0.000000
# 4 0.000000 0.000000 0.000000 0.020655 0.000000 0.000000
# 5 0.000000 0.000000 0.000000 0.000000 0.025648 0.000000
# 6 0.000000 0.000000 0.000000 0.000000 0.000000 0.024725
#
#
# Mechanical properties :
#
#
# Convention : Reuss Voigt Hill
#
# Bulk Modulus (GPa) = 51.06408 51.59841 51.33125
# Shear Modulus (GPa) = 28.18005 35.63987 31.90996
#
# Velocity S-wave (km/s) = 3.38781 3.80992 3.60505
# Velocity P-wave (km/s) = 6.00837 6.35367 6.18343
#
# Compressibility (1/GPa) = 0.01958324
#
# Stress axis : x y z
#
# Youngs Moduli (GPa) = 39.70457 98.01320 41.08405
#
# Poissons Ratio (x) = 0.28506 0.61844
# Poissons Ratio (y) = 0.11548 0.08675
# Poissons Ratio (z) = 0.59767 0.20696
#
# Static dielectric constant tensor:
#      x y z
#    x 2.067300 0.000000 0.000000 
#    y 0.000000 1.976550 0.000000 
#    z 0.000000 0.000000 2.008880 
# 
# From -- ./inp_files/6121.got.cif
#   From: 2010.05.17/outbox.cif.g08.bks.cpg/sg19_4_cif.got.tgz:6121.got - 2010.06.03 22:46:19.
