data_PCOD9314505
_publ_section_title
;
Structure prediction by ZEFSAII (Michael W. Deem and Ramdas Pophale) SiO2 
 PCOD9314505
Probable space group: P 21 21 21
;
_chemical_formula_sum "Si O2"
_cell_formula_units_Z 32
_cell_length_a 24.602694
_cell_length_b 9.881005
_cell_length_c 5.905710
_cell_angle_alpha 90.000000
_cell_angle_beta 90.000000
_cell_angle_gamma 90.000000
_cell_volume 1435.674218
_symmetry_space_group_name_H-M "P 21 21 21"
_symmetry_group_IT_number 19
_symmetry_cell_setting 'orthorhombic'
loop_
_space_group_symop_operation_xyz
x,y,z
1/2-x,-y,1/2+z
1/2+x,1/2-y,-z
-x,1/2+y,1/2-z
loop_
_atom_site_type_symbol
_atom_site_label
_atom_site_fract_x
_atom_site_fract_y
_atom_site_fract_z
Si Si1 0.558963 0.714480 0.594827
Si Si2 0.095041 0.957733 0.755850
Si Si3 0.133987 0.182280 0.041358
Si Si4 0.489385 0.400733 0.293223
Si Si5 0.387098 0.521338 0.572849
Si Si6 0.278189 0.011527 0.727407
Si Si7 0.849396 0.243546 0.413295
Si Si8 0.451903 0.711885 0.848556
O O1 0.593143 0.589099 0.500503
O O2 0.537865 0.809166 0.396551
O O3 0.600951 0.793596 0.746380
O O4 0.507879 0.665842 0.734735
O O5 0.122349 0.836357 0.896057
O O6 0.031466 0.988293 0.803159
O O7 0.128466 0.088617 0.822244
O O8 0.137889 0.338060 0.976493
O O9 0.077523 0.180305 0.181774
O O10 0.179269 0.111979 0.195164
O O11 0.441235 0.473387 0.433995
O O12 0.528087 0.297607 0.436298
O O13 0.339347 0.411137 0.525512
O O14 0.410272 0.584873 0.816198
O O15 0.305306 0.160312 0.699054
O O16 0.244788 0.998299 0.485440
#
# Coordination Sequence:
#
# PCOD9314505 Si02
#       8
#     4   4   4   4   4   4   4   4
#     4  12  22  35  60  99 145 195 235 278 341 431
#     4  11  22  37  62  92 135 198 237 280 331 422
#     4   9  23  43  67 101 140 180 242 301 364 428
#     4  12  22  34  60  94 147 206 242 263 334 430
#     4  10  21  43  61 100 145 185 233 293 347 427
#     4  11  28  53  84 107 136 185 258 326 395 445
#     4  11  26  43  70 100 143 175 247 305 365 438
#     4  10  22  38  58  97 151 190 236 276 345 435
#
# _framework density 22.289180999999999
#
# number of rings (size 3 to 8) (size 9 to 14) (size 15 to 20)
#    0.750    0.500    5.000    0.000    7.000    3.000 
#    0.000    1.250    0.000    0.000    0.000    0.000 
#    0.000    0.000    0.000    0.000    0.000    0.000 
#
# Total GULP energy -178138.037101 kJ/mol
# GULP energy per Si atom -5566.813659 kJ/mol
# Density = 2.223845 g / cm^3
# Si number density = 22.289181 Si / 1000 Ang^3
#
#
#
# Elastic Constant Matrix: (Units=GPa)
#
#
# Indices 1 2 3 4 5 6 
#
# 1 32.3228 8.0052 14.0824 0.0000 0.0000 0.0000
# 2 8.0052 133.8908 17.1879 0.0000 0.0000 0.0000
# 3 14.0824 17.1879 61.6623 0.0000 0.0000 0.0000
# 4 0.0000 0.0000 0.0000 21.6243 0.0000 0.0000
# 5 0.0000 0.0000 0.0000 0.0000 35.3217 0.0000
# 6 0.0000 0.0000 0.0000 0.0000 0.0000 33.2678
#
#
#
# Elastic Compliance Matrix: (Units=1/GPa)
#
#
# Indices 1 2 3 4 5 6 
#
# 1 0.034509 -0.001091 -0.007577 0.000000 0.000000 0.000000
# 2 -0.001091 0.007780 -0.001920 0.000000 0.000000 0.000000
# 3 -0.007577 -0.001920 0.018483 0.000000 0.000000 0.000000
# 4 0.000000 0.000000 0.000000 0.046244 0.000000 0.000000
# 5 0.000000 0.000000 0.000000 0.000000 0.028311 0.000000
# 6 0.000000 0.000000 0.000000 0.000000 0.000000 0.030059
#
#
# Mechanical properties :
#
#
# Convention : Reuss Voigt Hill
#
# Bulk Modulus (GPa) = 25.25398 34.04742 29.65070
# Shear Modulus (GPa) = 25.02987 30.61612 27.82299
#
# Velocity S-wave (km/s) = 3.35470 3.71021 3.53692
# Velocity P-wave (km/s) = 5.13421 5.80196 5.47827
#
# Compressibility (1/GPa) = 0.03959772
#
# Stress axis : x y z
#
# Youngs Moduli (GPa) = 28.97775 128.52794 54.10397
#
# Poissons Ratio (x) = 0.14017 0.40996
# Poissons Ratio (y) = 0.03160 0.10386
# Poissons Ratio (z) = 0.21957 0.24673
#
# Static dielectric constant tensor:
#      x y z
#    x 1.841180 0.000000 0.000000 
#    y 0.000000 2.034870 0.000000 
#    z 0.000000 0.000000 1.884330 
# 
# From -- ./inp_files/2171.got.cif
#   From: 2010.05.17/outbox.cif.g08.bks.cpg/sg19_2_cif.got.tgz:2171.got - 2010.06.03 22:46:19.
