data_PCOD9314378
_publ_section_title
;
Structure prediction by ZEFSAII (Michael W. Deem and Ramdas Pophale) SiO2 
 PCOD9314378
Probable space group: P 21 21 21
;
_chemical_formula_sum "Si O2"
_cell_formula_units_Z 24
_cell_length_a 5.162439
_cell_length_b 12.568731
_cell_length_c 15.075101
_cell_angle_alpha 90.000000
_cell_angle_beta 90.000000
_cell_angle_gamma 90.000000
_cell_volume 978.152558
_symmetry_space_group_name_H-M "P 21 21 21"
_symmetry_group_IT_number 19
_symmetry_cell_setting 'orthorhombic'
loop_
_space_group_symop_operation_xyz
x,y,z
1/2-x,-y,1/2+z
1/2+x,1/2-y,-z
-x,1/2+y,1/2-z
loop_
_atom_site_type_symbol
_atom_site_label
_atom_site_fract_x
_atom_site_fract_y
_atom_site_fract_z
Si Si1 0.396481 0.191655 0.987052
Si Si2 0.380916 0.584720 0.687586
Si Si3 0.825949 0.793756 0.052546
Si Si4 0.322940 0.026341 0.530196
Si Si5 0.688577 0.393873 0.666024
Si Si6 0.876396 0.559801 0.788386
O O1 0.234998 0.098143 0.035564
O O2 0.648314 0.235450 0.040204
O O3 0.549696 0.143231 0.902813
O O4 0.414369 0.455909 0.674297
O O5 0.110357 0.604572 0.732211
O O6 0.614855 0.612449 0.752930
O O7 0.906205 0.917519 0.054977
O O8 0.798068 0.729281 0.144175
O O9 0.081977 0.737582 0.008321
O O10 0.291333 0.054543 0.426618
O O11 0.130039 0.070926 0.606361
O O12 0.838652 0.438306 0.751690
#
# Coordination Sequence:
#
# PCOD9314378 Si02
#       6
#     4   4   4   4   4   4
#     4  11  24  43  71  97 134 190 233 275 341 404
#     4   9  21  40  63  90 138 163 220 282 332 382
#     4  10  22  38  67  99 129 177 221 272 342 402
#     4  10  23  43  69  97 134 180 227 277 336 417
#     4   8  21  40  65  92 133 165 215 278 338 390
#     4  10  21  40  65  99 128 177 214 276 339 399
#
# _framework density 24.536051
#
# number of rings (size 3 to 8) (size 9 to 14) (size 15 to 20)
#    1.000    1.333    0.000    1.000    4.667    6.667 
#    3.000    1.667    0.000    0.000    0.000    0.000 
#    0.000    0.000    0.000    0.000    0.000    0.000 
#
# Total GULP energy -133632.273099 kJ/mol
# GULP energy per Si atom -5568.011379 kJ/mol
# Density = 2.448021 g / cm^3
# Si number density = 24.536051 Si / 1000 Ang^3
#
#
#
# Elastic Constant Matrix: (Units=GPa)
#
#
# Indices 1 2 3 4 5 6 
#
# 1 122.0180 4.6447 17.4454 0.0000 0.0000 0.0000
# 2 4.6447 51.6759 21.2308 0.0000 0.0000 0.0000
# 3 17.4454 21.2308 87.4653 0.0000 0.0000 0.0000
# 4 0.0000 0.0000 0.0000 29.5676 0.0000 0.0000
# 5 0.0000 0.0000 0.0000 0.0000 32.4940 0.0000
# 6 0.0000 0.0000 0.0000 0.0000 0.0000 14.4142
#
#
#
# Elastic Compliance Matrix: (Units=1/GPa)
#
#
# Indices 1 2 3 4 5 6 
#
# 1 0.008436 -0.000074 -0.001665 0.000000 0.000000 0.000000
# 2 -0.000074 0.021496 -0.005203 0.000000 0.000000 0.000000
# 3 -0.001665 -0.005203 0.013028 0.000000 0.000000 0.000000
# 4 0.000000 0.000000 0.000000 0.033821 0.000000 0.000000
# 5 0.000000 0.000000 0.000000 0.000000 0.030775 0.000000
# 6 0.000000 0.000000 0.000000 0.000000 0.000000 0.069376
#
#
# Mechanical properties :
#
#
# Convention : Reuss Voigt Hill
#
# Bulk Modulus (GPa) = 34.39228 38.64453 36.51841
# Shear Modulus (GPa) = 24.93673 29.81772 27.37722
#
# Velocity S-wave (km/s) = 3.19145 3.48984 3.34398
# Velocity P-wave (km/s) = 5.25623 5.65888 5.46127
#
# Compressibility (1/GPa) = 0.02907629
#
# Stress axis : x y z
#
# Youngs Moduli (GPa) = 118.53479 46.52104 76.75753
#
# Poissons Ratio (x) = 0.00346 0.12777
# Poissons Ratio (y) = 0.00882 0.39936
# Poissons Ratio (z) = 0.19731 0.24204
#
# Static dielectric constant tensor:
#      x y z
#    x 1.963820 0.000000 0.000000 
#    y 0.000000 2.102090 0.000000 
#    z 0.000000 0.000000 1.965480 
# 
# From -- ./inp_files/5673.got.cif
#   From: 2010.05.17/outbox.cif.g08.bks.cpg/sg19_3_cif.got.tgz:5673.got - 2010.06.03 22:46:19.
