data_PCOD9314480
_publ_section_title
;
Structure prediction by ZEFSAII (Michael W. Deem and Ramdas Pophale) SiO2 
 PCOD9314480
Probable space group: P 21 21 21
;
_chemical_formula_sum "Si O2"
_cell_formula_units_Z 32
_cell_length_a 14.291289
_cell_length_b 9.488330
_cell_length_c 11.985524
_cell_angle_alpha 90.000000
_cell_angle_beta 90.000000
_cell_angle_gamma 90.000000
_cell_volume 1625.242642
_symmetry_space_group_name_H-M "P 21 21 21"
_symmetry_group_IT_number 19
_symmetry_cell_setting 'orthorhombic'
loop_
_space_group_symop_operation_xyz
x,y,z
1/2-x,-y,1/2+z
1/2+x,1/2-y,-z
-x,1/2+y,1/2-z
loop_
_atom_site_type_symbol
_atom_site_label
_atom_site_fract_x
_atom_site_fract_y
_atom_site_fract_z
Si Si1 0.276206 0.110955 0.891549
Si Si2 0.049320 0.881082 0.539170
Si Si3 0.103535 0.598421 0.894341
Si Si4 0.578263 0.899281 0.357361
Si Si5 0.578449 0.529308 0.795114
Si Si6 0.928297 0.795213 0.328999
Si Si7 0.599052 0.572350 0.059150
Si Si8 0.765459 0.890097 0.485264
O O1 0.339129 0.096758 0.780626
O O2 0.192134 0.001168 0.893528
O O3 0.348668 0.082075 0.993087
O O4 0.235781 0.265203 0.922506
O O5 0.053256 0.767217 0.637249
O O6 0.994906 0.800307 0.438841
O O7 0.990699 0.018365 0.567886
O O8 0.115520 0.566474 0.764413
O O9 0.097577 0.763322 0.914383
O O10 0.185640 0.526638 0.964652
O O11 0.660441 0.917571 0.446906
O O12 0.489420 0.991939 0.388872
O O13 0.575820 0.360701 0.778435
O O14 0.480445 0.598109 0.754798
O O15 0.595968 0.553370 0.925419
O O16 0.827877 0.839615 0.379173
#
# Coordination Sequence:
#
# PCOD9314480 Si02
#       8
#     4   4   4   4   4   4   4   4
#     4  10  23  42  67  91 125 180 208 265 332 389
#     4   9  20  44  63  89 131 172 212 257 335 389
#     4  11  25  39  65  95 128 168 212 273 321 389
#     4  11  23  43  67  87 130 181 207 263 328 390
#     4  11  24  40  72  98 129 173 221 273 328 382
#     4  10  21  42  66  95 130 171 214 275 320 383
#     4  12  25  41  64 102 133 160 228 276 311 393
#     4  10  23  45  64  91 134 173 216 260 337 397
#
# _framework density 19.689368000000002
#
# number of rings (size 3 to 8) (size 9 to 14) (size 15 to 20)
#    0.000    1.500    2.500    1.500    7.000    4.000 
#    0.000    0.000    0.000    0.000    0.000    0.000 
#    0.000    0.000    0.000    0.000    0.000    0.000 
#
# Total GULP energy -178789.815461 kJ/mol
# GULP energy per Si atom -5587.181733 kJ/mol
# Density = 1.964455 g / cm^3
# Si number density = 19.689368 Si / 1000 Ang^3
#
#
#
# Elastic Constant Matrix: (Units=GPa)
#
#
# Indices 1 2 3 4 5 6 
#
# 1 102.9832 65.0420 0.4813 0.0000 0.0000 0.0000
# 2 65.0420 126.6421 20.8720 0.0000 0.0000 0.0000
# 3 0.4813 20.8720 49.2824 0.0000 0.0000 0.0000
# 4 0.0000 0.0000 0.0000 29.9335 0.0000 0.0000
# 5 0.0000 0.0000 0.0000 0.0000 8.3134 0.0000
# 6 0.0000 0.0000 0.0000 0.0000 0.0000 -9.6297
#
#
#
# Elastic Compliance Matrix: (Units=1/GPa)
#
#
# Indices 1 2 3 4 5 6 
#
# 1 0.014861 -0.008179 0.003319 0.000000 0.000000 0.000000
# 2 -0.008179 0.012991 -0.005422 0.000000 0.000000 0.000000
# 3 0.003319 -0.005422 0.022555 0.000000 0.000000 0.000000
# 4 0.000000 0.000000 0.000000 0.033407 0.000000 0.000000
# 5 0.000000 0.000000 0.000000 0.000000 0.120287 0.000000
# 6 0.000000 0.000000 0.000000 0.000000 0.000000 -0.103846
#
#
# Mechanical properties :
#
#
# Convention : Reuss Voigt Hill
#
# Bulk Modulus (GPa) = 33.50988 50.18872 41.84930
# Shear Modulus (GPa) = 38.23600 18.55761 28.39681
#
# Velocity S-wave (km/s) = 4.41155 3.07338 3.80180
# Velocity P-wave (km/s) = 6.55784 6.17574 6.36966
#
# Compressibility (1/GPa) = 0.02984195
#
# Stress axis : x y z
#
# Youngs Moduli (GPa) = 67.29166 76.97844 44.33586
#
# Poissons Ratio (x) = 0.62963 -0.14715
# Poissons Ratio (y) = 0.55040 0.24039
# Poissons Ratio (z) = -0.22334 0.41737
#
# Static dielectric constant tensor:
#      x y z
#    x 1.686520 0.000000 0.000000 
#    y 0.000000 1.674680 0.000000 
#    z 0.000000 0.000000 1.686170 
# 
# From -- ./inp_files/5258.got.cif
#   From: 2010.05.17/outbox.cif.g08.bks.cpg/sg19_3_cif.got.tgz:5258.got - 2010.06.03 22:46:19.
