data_PCOD9314939
_publ_section_title
;
Structure prediction by ZEFSAII (Michael W. Deem and Ramdas Pophale) SiO2 
 PCOD9314939
Probable space group: P 21 21 21
;
_chemical_formula_sum "Si O2"
_cell_formula_units_Z 24
_cell_length_a 9.584845
_cell_length_b 5.968709
_cell_length_c 17.560201
_cell_angle_alpha 90.000000
_cell_angle_beta 90.000000
_cell_angle_gamma 90.000000
_cell_volume 1004.604184
_symmetry_space_group_name_H-M "P 21 21 21"
_symmetry_group_IT_number 19
_symmetry_cell_setting 'orthorhombic'
loop_
_space_group_symop_operation_xyz
x,y,z
1/2-x,-y,1/2+z
1/2+x,1/2-y,-z
-x,1/2+y,1/2-z
loop_
_atom_site_type_symbol
_atom_site_label
_atom_site_fract_x
_atom_site_fract_y
_atom_site_fract_z
Si Si1 0.089871 0.748267 0.514533
Si Si2 0.361327 0.768068 0.286486
Si Si3 0.934071 0.743295 0.232859
Si Si4 0.821348 0.976103 0.567383
Si Si5 0.282983 0.900056 0.907675
Si Si6 0.831605 0.091165 0.817621
O O1 0.162955 0.579673 0.455815
O O2 0.146166 0.657885 0.594959
O O3 0.150337 0.976436 0.479065
O O4 0.926898 0.808199 0.524715
O O5 0.348660 0.557957 0.343645
O O6 0.519293 0.846407 0.280938
O O7 0.307374 0.669968 0.206409
O O8 0.281414 0.942852 0.341011
O O9 0.899000 0.722859 0.143560
O O10 0.794051 0.766850 0.283301
O O11 0.997979 0.494528 0.253839
O O12 0.836154 0.239929 0.558104
#
# Coordination Sequence:
#
# PCOD9314939 Si02
#       6
#     4   4   4   4   4   4
#     4  10  26  44  76 108 149 193 253 313 387 461
#     4  10  22  44  74 100 143 186 255 320 378 439
#     4  12  28  46  74 108 154 207 257 318 393 470
#     4  10  23  46  69 106 144 197 239 311 385 457
#     4  11  24  48  73 102 155 196 245 326 390 453
#     4  11  23  46  74 110 141 195 261 314 375 474
#
# _framework density 23.890006
#
# number of rings (size 3 to 8) (size 9 to 14) (size 15 to 20)
#    0.000    1.333    1.667    2.000    4.667    5.333 
#    9.000    0.000    0.000    0.000    0.000    0.000 
#    0.000    0.000    0.000    0.000    0.000    0.000 
#
# Total GULP energy -133629.971891 kJ/mol
# GULP energy per Si atom -5567.915495 kJ/mol
# Density = 2.383563 g / cm^3
# Si number density = 23.890006 Si / 1000 Ang^3
#
#
#
# Elastic Constant Matrix: (Units=GPa)
#
#
# Indices 1 2 3 4 5 6 
#
# 1 71.4131 34.7252 33.8562 0.0000 0.0000 0.0000
# 2 34.7252 98.2557 39.0240 0.0000 0.0000 0.0000
# 3 33.8562 39.0240 88.8097 0.0000 0.0000 0.0000
# 4 0.0000 0.0000 0.0000 36.8074 0.0000 0.0000
# 5 0.0000 0.0000 0.0000 0.0000 28.9373 0.0000
# 6 0.0000 0.0000 0.0000 0.0000 0.0000 22.0240
#
#
#
# Elastic Compliance Matrix: (Units=1/GPa)
#
#
# Indices 1 2 3 4 5 6 
#
# 1 0.018640 -0.004561 -0.005102 0.000000 0.000000 0.000000
# 2 -0.004561 0.013445 -0.004169 0.000000 0.000000 0.000000
# 3 -0.005102 -0.004169 0.015037 0.000000 0.000000 0.000000
# 4 0.000000 0.000000 0.000000 0.027168 0.000000 0.000000
# 5 0.000000 0.000000 0.000000 0.000000 0.034557 0.000000
# 6 0.000000 0.000000 0.000000 0.000000 0.000000 0.045405
#
#
# Mechanical properties :
#
#
# Convention : Reuss Voigt Hill
#
# Bulk Modulus (GPa) = 51.39343 52.63214 52.01279
# Shear Modulus (GPa) = 26.53887 27.61195 27.07541
#
# Velocity S-wave (km/s) = 3.33660 3.40339 3.37016
# Velocity P-wave (km/s) = 6.03350 6.12559 6.07972
#
# Compressibility (1/GPa) = 0.01945774
#
# Stress axis : x y z
#
# Youngs Moduli (GPa) = 53.64918 74.37450 66.50340
#
# Poissons Ratio (x) = 0.33925 0.33927
# Poissons Ratio (y) = 0.24472 0.27727
# Poissons Ratio (z) = 0.27369 0.31008
#
# Static dielectric constant tensor:
#      x y z
#    x 1.993140 0.000000 0.000000 
#    y 0.000000 2.124900 0.000000 
#    z 0.000000 0.000000 1.855800 
# 
# From -- ./inp_files/6534.got.cif
#   From: 2010.05.17/outbox.cif.g08.bks.cpg/sg19_4_cif.got.tgz:6534.got - 2010.06.03 22:46:19.
