data_PCOD9314935
_publ_section_title
;
Structure prediction by ZEFSAII (Michael W. Deem and Ramdas Pophale) SiO2 
 PCOD9314935
Probable space group: P 21 21 21
;
_chemical_formula_sum "Si O2"
_cell_formula_units_Z 32
_cell_length_a 10.156376
_cell_length_b 14.305116
_cell_length_c 10.173081
_cell_angle_alpha 90.000000
_cell_angle_beta 90.000000
_cell_angle_gamma 90.000000
_cell_volume 1478.027984
_symmetry_space_group_name_H-M "P 21 21 21"
_symmetry_group_IT_number 19
_symmetry_cell_setting 'orthorhombic'
loop_
_space_group_symop_operation_xyz
x,y,z
1/2-x,-y,1/2+z
1/2+x,1/2-y,-z
-x,1/2+y,1/2-z
loop_
_atom_site_type_symbol
_atom_site_label
_atom_site_fract_x
_atom_site_fract_y
_atom_site_fract_z
Si Si1 0.522477 0.421666 0.045498
Si Si2 0.977310 0.151648 0.688869
Si Si3 0.784185 0.784777 0.773494
Si Si4 0.211571 0.794066 0.664081
Si Si5 0.771697 0.869657 0.503194
Si Si6 0.316662 0.139146 0.895771
Si Si7 0.096068 0.038455 0.228999
Si Si8 0.632735 0.927635 0.922590
O O1 0.483936 0.430679 0.199935
O O2 0.660405 0.367696 0.067936
O O3 0.388895 0.373675 0.993031
O O4 0.563100 0.488743 0.923418
O O5 0.877288 0.232869 0.738165
O O6 0.938762 0.107656 0.552262
O O7 0.113084 0.207804 0.678608
O O8 0.826264 0.845852 0.646787
O O9 0.667712 0.722264 0.708687
O O10 0.747158 0.855291 0.887496
O O11 0.302972 0.713777 0.597625
O O12 0.128189 0.837395 0.540349
O O13 0.295683 0.878676 0.724256
O O14 0.817486 0.968287 0.448571
O O15 0.356781 0.045246 0.822699
O O16 0.964044 0.073615 0.298505
#
# Coordination Sequence:
#
# PCOD9314935 Si02
#       8
#     4   4   4   4   4   4   4   4
#     4   9  20  43  67  95 133 176 227 270 334 421
#     4  10  24  43  66  95 136 184 222 283 354 414
#     4  10  23  46  64  94 142 176 225 292 342 406
#     4   9  22  43  70  96 135 184 223 272 358 417
#     4  10  22  44  72  95 135 185 234 279 350 418
#     4   9  21  41  69  99 134 180 221 281 337 415
#     4  11  23  42  69 104 134 171 235 282 333 421
#     4  12  27  40  67 106 133 174 239 295 342 412
#
# _framework density 21.650469999999999
#
# number of rings (size 3 to 8) (size 9 to 14) (size 15 to 20)
#    0.000    2.000    1.250    0.750    7.000    6.000 
#    2.250    0.000    0.000    0.000    0.000    0.000 
#    0.000    0.000    0.000    0.000    0.000    0.000 
#
# Total GULP energy -178202.177109 kJ/mol
# GULP energy per Si atom -5568.818035 kJ/mol
# Density = 2.160119 g / cm^3
# Si number density = 21.650470 Si / 1000 Ang^3
#
#
#
# Elastic Constant Matrix: (Units=GPa)
#
#
# Indices 1 2 3 4 5 6 
#
# 1 38.2712 22.3540 13.2795 0.0000 0.0000 0.0000
# 2 22.3540 105.7995 41.9243 0.0000 0.0000 0.0000
# 3 13.2795 41.9243 103.2374 0.0000 0.0000 0.0000
# 4 0.0000 0.0000 0.0000 31.5059 0.0000 0.0000
# 5 0.0000 0.0000 0.0000 0.0000 19.7319 0.0000
# 6 0.0000 0.0000 0.0000 0.0000 0.0000 3.9365
#
#
#
# Elastic Compliance Matrix: (Units=1/GPa)
#
#
# Indices 1 2 3 4 5 6 
#
# 1 0.030010 -0.005734 -0.001532 0.000000 0.000000 0.000000
# 2 -0.005734 0.012360 -0.004282 0.000000 0.000000 0.000000
# 3 -0.001532 -0.004282 0.011622 0.000000 0.000000 0.000000
# 4 0.000000 0.000000 0.000000 0.031740 0.000000 0.000000
# 5 0.000000 0.000000 0.000000 0.000000 0.050679 0.000000
# 6 0.000000 0.000000 0.000000 0.000000 0.000000 0.254034
#
#
# Mechanical properties :
#
#
# Convention : Reuss Voigt Hill
#
# Bulk Modulus (GPa) = 32.36502 44.71374 38.53938
# Shear Modulus (GPa) = 11.79694 22.35153 17.07424
#
# Velocity S-wave (km/s) = 2.33680 3.21655 2.81130
# Velocity P-wave (km/s) = 4.71828 5.87302 5.32703
#
# Compressibility (1/GPa) = 0.03089756
#
# Stress axis : x y z
#
# Youngs Moduli (GPa) = 33.32241 80.90604 86.04165
#
# Poissons Ratio (x) = 0.46389 0.13180
# Poissons Ratio (y) = 0.19106 0.36841
# Poissons Ratio (z) = 0.05104 0.34643
#
# Static dielectric constant tensor:
#      x y z
#    x 1.873330 0.000000 0.000000 
#    y 0.000000 1.791510 0.000000 
#    z 0.000000 0.000000 1.814090 
# 
# From -- ./inp_files/3571.got.cif
#   From: 2010.05.17/outbox.cif.g08.bks.cpg/sg19_2_cif.got.tgz:3571.got - 2010.06.03 22:46:19.
