data_PCOD9314703
_publ_section_title
;
Structure prediction by ZEFSAII (Michael W. Deem and Ramdas Pophale) SiO2 
 PCOD9314703
Probable space group: P 21 21 21
;
_chemical_formula_sum "Si O2"
_cell_formula_units_Z 32
_cell_length_a 11.947847
_cell_length_b 13.891853
_cell_length_c 7.285097
_cell_angle_alpha 90.000000
_cell_angle_beta 90.000000
_cell_angle_gamma 90.000000
_cell_volume 1209.163893
_symmetry_space_group_name_H-M "P 21 21 21"
_symmetry_group_IT_number 19
_symmetry_cell_setting 'orthorhombic'
loop_
_space_group_symop_operation_xyz
x,y,z
1/2-x,-y,1/2+z
1/2+x,1/2-y,-z
-x,1/2+y,1/2-z
loop_
_atom_site_type_symbol
_atom_site_label
_atom_site_fract_x
_atom_site_fract_y
_atom_site_fract_z
Si Si1 0.135070 0.013343 0.098298
Si Si2 0.666371 0.919964 0.901169
Si Si3 0.118397 0.682841 0.762143
Si Si4 0.661484 0.399817 0.495188
Si Si5 0.788286 0.317319 0.023391
Si Si6 0.378868 0.484966 0.994418
Si Si7 0.004405 0.934026 0.565194
Si Si8 0.609280 0.229769 0.272405
O O1 0.138151 0.060751 0.301094
O O2 0.204561 0.092941 0.986175
O O3 0.008953 0.995187 0.038587
O O4 0.211817 0.919437 0.069076
O O5 0.617952 0.831556 0.019400
O O6 0.791521 0.928670 0.980629
O O7 0.595636 0.015487 0.956110
O O8 0.655773 0.922955 0.684375
O O9 0.197593 0.763077 0.672591
O O10 0.144861 0.580879 0.671143
O O11 0.993979 0.706808 0.693191
O O12 0.585346 0.477032 0.379370
O O13 0.630782 0.288945 0.460111
O O14 0.912809 0.362800 0.049663
O O15 0.723384 0.246923 0.160630
O O16 0.946593 0.873420 0.727634
#
# Coordination Sequence:
#
# PCOD9314703 Si02
#       8
#     4   4   4   4   4   4   4   4
#     4  11  23  42  71 105 138 187 242 298 364 432
#     4  12  24  44  69 101 141 186 241 288 350 436
#     4  11  23  44  67  98 143 190 227 296 356 425
#     4  11  22  42  73 106 143 185 242 306 359 435
#     4  10  23  41  68 100 139 178 235 290 363 420
#     4  12  24  41  70  99 136 193 240 285 360 427
#     4  10  22  40  69 100 139 183 238 293 352 426
#     4  11  21  40  71  99 139 188 229 296 368 411
#
# _framework density 26.464566000000001
#
# number of rings (size 3 to 8) (size 9 to 14) (size 15 to 20)
#    0.000    1.000    5.000    2.250    0.000    0.000 
#    4.500    0.000    0.000    0.000    0.000    0.000 
#    0.000    0.000    0.000    0.000    0.000    0.000 
#
# Total GULP energy -178889.541093 kJ/mol
# GULP energy per Si atom -5590.298159 kJ/mol
# Density = 2.640433 g / cm^3
# Si number density = 26.464566 Si / 1000 Ang^3
#
#
#
# Elastic Constant Matrix: (Units=GPa)
#
#
# Indices 1 2 3 4 5 6 
#
# 1 200.8217 30.7156 30.2172 0.0000 0.0000 0.0000
# 2 30.7156 66.7632 -17.5846 0.0000 0.0000 0.0000
# 3 30.2172 -17.5846 90.3736 0.0000 0.0000 0.0000
# 4 0.0000 0.0000 0.0000 9.9677 0.0000 0.0000
# 5 0.0000 0.0000 0.0000 0.0000 40.7093 0.0000
# 6 0.0000 0.0000 0.0000 0.0000 0.0000 52.9363
#
#
#
# Elastic Compliance Matrix: (Units=1/GPa)
#
#
# Indices 1 2 3 4 5 6 
#
# 1 0.005897 -0.003407 -0.002635 0.000000 0.000000 0.000000
# 2 -0.003407 0.017756 0.004594 0.000000 0.000000 0.000000
# 3 -0.002635 0.004594 0.012840 0.000000 0.000000 0.000000
# 4 0.000000 0.000000 0.000000 0.100325 0.000000 0.000000
# 5 0.000000 0.000000 0.000000 0.000000 0.024564 0.000000
# 6 0.000000 0.000000 0.000000 0.000000 0.000000 0.018891
#
#
# Mechanical properties :
#
#
# Convention : Reuss Voigt Hill
#
# Bulk Modulus (GPa) = 29.76405 49.40610 39.58508
# Shear Modulus (GPa) = 25.72455 41.69667 33.71061
#
# Velocity S-wave (km/s) = 3.12113 3.97365 3.57291
# Velocity P-wave (km/s) = 4.92542 6.30575 5.65784
#
# Compressibility (1/GPa) = 0.03359758
#
# Stress axis : x y z
#
# Youngs Moduli (GPa) = 169.57566 56.31969 77.88169
#
# Poissons Ratio (x) = 0.19188 0.20519
# Poissons Ratio (y) = 0.57774 -0.35779
# Poissons Ratio (z) = 0.44677 -0.25873
#
# Static dielectric constant tensor:
#      x y z
#    x 2.057020 0.000000 0.000000 
#    y 0.000000 2.138680 0.000000 
#    z 0.000000 0.000000 2.117620 
# 
# From -- ./inp_files/3627.got.cif
#   From: 2010.05.17/outbox.cif.g08.bks.cpg/sg19_2_cif.got.tgz:3627.got - 2010.06.03 22:46:19.
