data_PCOD9314366
_publ_section_title
;
Structure prediction by ZEFSAII (Michael W. Deem and Ramdas Pophale) SiO2 
 PCOD9314366
Probable space group: P 21 21 21
;
_chemical_formula_sum "Si O2"
_cell_formula_units_Z 32
_cell_length_a 11.223078
_cell_length_b 5.107690
_cell_length_c 22.528692
_cell_angle_alpha 90.000000
_cell_angle_beta 90.000000
_cell_angle_gamma 90.000000
_cell_volume 1291.434814
_symmetry_space_group_name_H-M "P 21 21 21"
_symmetry_group_IT_number 19
_symmetry_cell_setting 'orthorhombic'
loop_
_space_group_symop_operation_xyz
x,y,z
1/2-x,-y,1/2+z
1/2+x,1/2-y,-z
-x,1/2+y,1/2-z
loop_
_atom_site_type_symbol
_atom_site_label
_atom_site_fract_x
_atom_site_fract_y
_atom_site_fract_z
Si Si1 0.266420 0.852651 0.372137
Si Si2 0.602300 0.778716 0.953075
Si Si3 0.706548 0.367140 0.815871
Si Si4 0.171495 0.552619 0.582803
Si Si5 0.934676 0.684282 0.827522
Si Si6 0.472554 0.629273 0.440719
Si Si7 0.815046 0.140720 0.703295
Si Si8 0.005779 0.219452 0.109685
O O1 0.356828 0.803711 0.426633
O O2 0.305392 0.652088 0.320358
O O3 0.135299 0.750563 0.387388
O O4 0.275879 0.147183 0.346869
O O5 0.744514 0.828770 0.944899
O O6 0.545938 0.984611 0.906126
O O7 0.554102 0.493058 0.937928
O O8 0.561966 0.895634 0.015741
O O9 0.746611 0.245901 0.879041
O O10 0.802702 0.599575 0.807207
O O11 0.734405 0.184377 0.760552
O O12 0.566405 0.389831 0.829097
O O13 0.084969 0.441648 0.633730
O O14 0.087531 0.707585 0.538002
O O15 0.982934 0.489128 0.878365
O O16 0.045432 0.703297 0.782990
#
# Coordination Sequence:
#
# PCOD9314366 Si02
#       8
#     4   4   4   4   4   4   4   4
#     4  11  25  44  62  96 137 167 219 272 325 395
#     4  11  25  41  69  94 123 180 221 262 342 385
#     4  10  24  40  67  96 131 173 221 274 330 395
#     4  10  21  43  62  95 133 165 218 280 318 388
#     4  10  21  40  64  92 136 159 220 280 325 384
#     4  10  24  40  63  97 129 172 218 273 328 395
#     4  11  25  40  68  98 125 180 215 264 344 388
#     4  11  25  46  63  96 134 172 222 277 320 402
#
# _framework density 24.778644
#
# number of rings (size 3 to 8) (size 9 to 14) (size 15 to 20)
#    0.000    1.500    2.500    0.750    7.000    1.000 
#    0.000    0.000    0.000    0.000    0.000    0.000 
#    0.000    0.000    0.000    0.000    0.000    0.000 
#
# Total GULP energy -178802.197834 kJ/mol
# GULP energy per Si atom -5587.568682 kJ/mol
# Density = 2.472225 g / cm^3
# Si number density = 24.778644 Si / 1000 Ang^3
#
#
#
# Elastic Constant Matrix: (Units=GPa)
#
#
# Indices 1 2 3 4 5 6 
#
# 1 112.8490 4.5180 1.5971 0.0000 0.0000 0.0000
# 2 4.5180 66.3447 0.5092 0.0000 0.0000 0.0000
# 3 1.5971 0.5092 37.0747 0.0000 0.0000 0.0000
# 4 0.0000 0.0000 0.0000 38.3274 0.0000 0.0000
# 5 0.0000 0.0000 0.0000 0.0000 25.2687 0.0000
# 6 0.0000 0.0000 0.0000 0.0000 0.0000 34.9499
#
#
#
# Elastic Compliance Matrix: (Units=1/GPa)
#
#
# Indices 1 2 3 4 5 6 
#
# 1 0.008891 -0.000603 -0.000375 0.000000 0.000000 0.000000
# 2 -0.000603 0.015115 -0.000182 0.000000 0.000000 0.000000
# 3 -0.000375 -0.000182 0.026991 0.000000 0.000000 0.000000
# 4 0.000000 0.000000 0.000000 0.026091 0.000000 0.000000
# 5 0.000000 0.000000 0.000000 0.000000 0.039575 0.000000
# 6 0.000000 0.000000 0.000000 0.000000 0.000000 0.028612
#
#
# Mechanical properties :
#
#
# Convention : Reuss Voigt Hill
#
# Bulk Modulus (GPa) = 20.54259 25.50189 23.02224
# Shear Modulus (GPa) = 30.52139 33.68549 32.10344
#
# Velocity S-wave (km/s) = 3.51345 3.69108 3.60336
# Velocity P-wave (km/s) = 4.97670 5.33663 5.15981
#
# Compressibility (1/GPa) = 0.04867937
#
# Stress axis : x y z
#
# Youngs Moduli (GPa) = 112.47548 66.15847 37.04915
#
# Poissons Ratio (x) = 0.03987 0.01388
# Poissons Ratio (y) = 0.06778 0.00673
# Poissons Ratio (z) = 0.04215 0.01202
#
# Static dielectric constant tensor:
#      x y z
#    x 2.077450 0.000000 0.000000 
#    y 0.000000 1.978930 0.000000 
#    z 0.000000 0.000000 2.011360 
# 
# From -- ./inp_files/7186.got.cif
#   From: 2010.05.17/outbox.cif.g08.bks.cpg/sg19_4_cif.got.tgz:7186.got - 2010.06.03 22:46:19.
