data_PCOD9314102
_publ_section_title
;
Structure prediction by ZEFSAII (Michael W. Deem and Ramdas Pophale) SiO2 
 PCOD9314102
Probable space group: P 21 21 21
;
_chemical_formula_sum "Si O2"
_cell_formula_units_Z 28
_cell_length_a 11.983063
_cell_length_b 9.315438
_cell_length_c 9.885348
_cell_angle_alpha 90.000000
_cell_angle_beta 90.000000
_cell_angle_gamma 90.000000
_cell_volume 1103.476490
_symmetry_space_group_name_H-M "P 21 21 21"
_symmetry_group_IT_number 19
_symmetry_cell_setting 'orthorhombic'
loop_
_space_group_symop_operation_xyz
x,y,z
1/2-x,-y,1/2+z
1/2+x,1/2-y,-z
-x,1/2+y,1/2-z
loop_
_atom_site_type_symbol
_atom_site_label
_atom_site_fract_x
_atom_site_fract_y
_atom_site_fract_z
Si Si1 0.085445 0.002847 0.554756
Si Si2 0.323276 0.339407 0.699051
Si Si3 0.156158 0.248380 0.359591
Si Si4 0.096825 0.358724 0.107000
Si Si5 0.586055 0.053212 0.400442
Si Si6 0.829104 0.237471 0.995241
Si Si7 0.095514 0.737596 0.901223
O O1 0.179394 0.887099 0.590700
O O2 0.007544 0.881307 0.487120
O O3 0.144222 0.105198 0.446000
O O4 0.995281 0.109795 0.622748
O O5 0.385289 0.492148 0.687414
O O6 0.191656 0.380803 0.681162
O O7 0.339588 0.259022 0.840244
O O8 0.369364 0.261822 0.561917
O O9 0.090196 0.238754 0.220669
O O10 0.104610 0.370792 0.454406
O O11 0.284892 0.288476 0.335027
O O12 0.206325 0.334690 0.020044
O O13 0.467635 0.118383 0.354428
O O14 0.593676 0.884689 0.425514
#
# Coordination Sequence:
#
# PCOD9314102 Si02
#       7
#     4   4   4   4   4   4   4
#     4  10  24  38  62  97 118 164 217 255 310 374
#     4   9  19  36  63  88 118 170 206 252 312 372
#     4  10  20  42  62  87 121 166 213 253 316 381
#     4  10  22  39  61  88 127 162 202 265 308 372
#     4   9  19  37  64  85 117 172 208 249 320 378
#     4  11  22  39  59  96 129 158 211 267 311 367
#     4   9  20  39  63  89 122 162 215 255 307 390
#
# _framework density 25.374351999999998
#
# number of rings (size 3 to 8) (size 9 to 14) (size 15 to 20)
#    0.000    2.286    1.429    0.857    6.000    1.143 
#   10.286    0.000    0.000    0.000    0.000    0.000 
#    0.000    0.000    0.000    0.000    0.000    0.000 
#
# Total GULP energy -156310.584838 kJ/mol
# GULP energy per Si atom -5582.520887 kJ/mol
# Density = 2.531660 g / cm^3
# Si number density = 25.374352 Si / 1000 Ang^3
#
#
#
# Elastic Constant Matrix: (Units=GPa)
#
#
# Indices 1 2 3 4 5 6 
#
# 1 51.1115 4.4176 -2.4906 0.0000 0.0000 0.0000
# 2 4.4176 101.8984 6.3647 0.0000 0.0000 0.0000
# 3 -2.4906 6.3647 79.7075 0.0000 0.0000 0.0000
# 4 0.0000 0.0000 0.0000 25.5010 0.0000 0.0000
# 5 0.0000 0.0000 0.0000 0.0000 14.3726 0.0000
# 6 0.0000 0.0000 0.0000 0.0000 0.0000 16.5427
#
#
#
# Elastic Compliance Matrix: (Units=1/GPa)
#
#
# Indices 1 2 3 4 5 6 
#
# 1 0.019676 -0.000896 0.000686 0.000000 0.000000 0.000000
# 2 -0.000896 0.009904 -0.000819 0.000000 0.000000 0.000000
# 3 0.000686 -0.000819 0.012633 0.000000 0.000000 0.000000
# 4 0.000000 0.000000 0.000000 0.039214 0.000000 0.000000
# 5 0.000000 0.000000 0.000000 0.000000 0.069577 0.000000
# 6 0.000000 0.000000 0.000000 0.000000 0.000000 0.060450
#
#
# Mechanical properties :
#
#
# Convention : Reuss Voigt Hill
#
# Bulk Modulus (GPa) = 24.90314 27.70012 26.30163
# Shear Modulus (GPa) = 22.03664 26.24497 24.14081
#
# Velocity S-wave (km/s) = 2.95016 3.21956 3.08780
# Velocity P-wave (km/s) = 4.63036 4.97605 4.80631
#
# Compressibility (1/GPa) = 0.04015558
#
# Stress axis : x y z
#
# Youngs Moduli (GPa) = 50.82353 100.97258 79.15965
#
# Poissons Ratio (x) = 0.09046 -0.05433
# Poissons Ratio (y) = 0.04553 0.06482
# Poissons Ratio (z) = -0.03488 0.08268
#
# Static dielectric constant tensor:
#      x y z
#    x 2.128360 0.000000 0.000000 
#    y 0.000000 2.612660 0.000000 
#    z 0.000000 0.000000 2.148090 
# 
# From -- ./inp_files/4951.got.cif
#   From: 2010.05.17/outbox.cif.g08.bks.cpg/sg19_3_cif.got.tgz:4951.got - 2010.06.03 22:46:19.
