data_PCOD9314022
_publ_section_title
;
Structure prediction by ZEFSAII (Michael W. Deem and Ramdas Pophale) SiO2 
 PCOD9314022
Probable space group: P 21 21 21
;
_chemical_formula_sum "Si O2"
_cell_formula_units_Z 24
_cell_length_a 8.706279
_cell_length_b 8.629875
_cell_length_c 13.466437
_cell_angle_alpha 90.000000
_cell_angle_beta 90.000000
_cell_angle_gamma 90.000000
_cell_volume 1011.788617
_symmetry_space_group_name_H-M "P 21 21 21"
_symmetry_group_IT_number 19
_symmetry_cell_setting 'orthorhombic'
loop_
_space_group_symop_operation_xyz
x,y,z
1/2-x,-y,1/2+z
1/2+x,1/2-y,-z
-x,1/2+y,1/2-z
loop_
_atom_site_type_symbol
_atom_site_label
_atom_site_fract_x
_atom_site_fract_y
_atom_site_fract_z
Si Si1 0.696020 0.420474 0.436011
Si Si2 0.246726 0.432876 0.560860
Si Si3 0.051660 0.045258 0.348095
Si Si4 0.897018 0.934036 0.624699
Si Si5 0.635471 0.770050 0.703880
Si Si6 0.022720 0.130559 0.001992
O O1 0.746106 0.247132 0.409803
O O2 0.623977 0.407262 0.547415
O O3 0.563424 0.487937 0.364598
O O4 0.836810 0.537193 0.450075
O O5 0.381985 0.518801 0.621072
O O6 0.303035 0.448186 0.446081
O O7 0.082594 0.514471 0.562571
O O8 0.004702 0.180970 0.274203
O O9 0.151891 0.914525 0.294686
O O10 0.787835 0.876347 0.713299
O O11 0.925850 0.774886 0.563915
O O12 0.581884 0.805485 0.591050
#
# Coordination Sequence:
#
# PCOD9314022 Si02
#       6
#     4   4   4   4   4   4
#     4  11  21  39  68  94 124 164 218 266 312 380
#     4  10  22  37  62  95 127 161 217 262 308 385
#     4  11  24  42  60  95 130 165 212 266 327 379
#     4  10  20  40  62  89 123 169 217 251 312 388
#     4  11  24  40  62  92 127 167 209 267 324 381
#     4  11  19  40  68  87 121 172 215 260 311 387
#
# _framework density 23.720369999999999
#
# number of rings (size 3 to 8) (size 9 to 14) (size 15 to 20)
#    0.000    1.333    5.000    3.000    7.000    0.000 
#    0.000    3.333    0.000    0.000    0.000    0.000 
#    0.000    0.000    0.000    0.000    0.000    0.000 
#
# Total GULP energy -134123.743201 kJ/mol
# GULP energy per Si atom -5588.489300 kJ/mol
# Density = 2.366638 g / cm^3
# Si number density = 23.720370 Si / 1000 Ang^3
#
#
#
# Elastic Constant Matrix: (Units=GPa)
#
#
# Indices 1 2 3 4 5 6 
#
# 1 112.2012 41.0411 -1.8775 0.0000 0.0000 0.0000
# 2 41.0411 113.0425 0.5610 0.0000 0.0000 0.0000
# 3 -1.8775 0.5610 34.9996 0.0000 0.0000 0.0000
# 4 0.0000 0.0000 0.0000 33.7250 0.0000 0.0000
# 5 0.0000 0.0000 0.0000 0.0000 28.3365 0.0000
# 6 0.0000 0.0000 0.0000 0.0000 0.0000 43.9384
#
#
#
# Elastic Compliance Matrix: (Units=1/GPa)
#
#
# Indices 1 2 3 4 5 6 
#
# 1 0.010290 -0.003739 0.000612 0.000000 0.000000 0.000000
# 2 -0.003739 0.010206 -0.000364 0.000000 0.000000 0.000000
# 3 0.000612 -0.000364 0.028610 0.000000 0.000000 0.000000
# 4 0.000000 0.000000 0.000000 0.029652 0.000000 0.000000
# 5 0.000000 0.000000 0.000000 0.000000 0.035290 0.000000
# 6 0.000000 0.000000 0.000000 0.000000 0.000000 0.022759
#
#
# Mechanical properties :
#
#
# Convention : Reuss Voigt Hill
#
# Bulk Modulus (GPa) = 23.73951 37.74362 30.74157
# Shear Modulus (GPa) = 31.67939 35.90122 33.79031
#
# Velocity S-wave (km/s) = 3.65846 3.89462 3.77839
# Velocity P-wave (km/s) = 5.27973 6.01419 5.65889
#
# Compressibility (1/GPa) = 0.04212386
#
# Stress axis : x y z
#
# Youngs Moduli (GPa) = 97.17714 97.98593 34.95230
#
# Poissons Ratio (x) = 0.36638 -0.02139
# Poissons Ratio (y) = 0.36335 0.01273
# Poissons Ratio (z) = -0.05947 0.03568
#
# Static dielectric constant tensor:
#      x y z
#    x 1.914050 0.000000 0.000000 
#    y 0.000000 1.864610 0.000000 
#    z 0.000000 0.000000 1.939170 
# 
# From -- ./inp_files/2740.got.cif
#   From: 2010.05.17/outbox.cif.g08.bks.cpg/sg19_2_cif.got.tgz:2740.got - 2010.06.03 22:46:19.
