data_PCOD9314518
_publ_section_title
;
Structure prediction by ZEFSAII (Michael W. Deem and Ramdas Pophale) SiO2 
 PCOD9314518
Probable space group: P 21 21 21
;
_chemical_formula_sum "Si O2"
_cell_formula_units_Z 28
_cell_length_a 18.103435
_cell_length_b 9.892836
_cell_length_c 6.297673
_cell_angle_alpha 90.000000
_cell_angle_beta 90.000000
_cell_angle_gamma 90.000000
_cell_volume 1127.877423
_symmetry_space_group_name_H-M "P 21 21 21"
_symmetry_group_IT_number 19
_symmetry_cell_setting 'orthorhombic'
loop_
_space_group_symop_operation_xyz
x,y,z
1/2-x,-y,1/2+z
1/2+x,1/2-y,-z
-x,1/2+y,1/2-z
loop_
_atom_site_type_symbol
_atom_site_label
_atom_site_fract_x
_atom_site_fract_y
_atom_site_fract_z
Si Si1 0.445082 0.162005 0.672614
Si Si2 0.199539 0.320937 0.806177
Si Si3 0.840077 0.551123 0.446323
Si Si4 0.760053 0.688001 0.099142
Si Si5 0.451951 0.629312 0.464858
Si Si6 0.843457 0.202430 0.976333
Si Si7 0.475349 0.362232 0.292540
O O1 0.447538 0.279739 0.499099
O O2 0.418306 0.024574 0.560160
O O3 0.522800 0.149873 0.794384
O O4 0.385422 0.198999 0.857342
O O5 0.211340 0.304703 0.555737
O O6 0.133143 0.401849 0.915904
O O7 0.181564 0.166636 0.885768
O O8 0.277881 0.368066 0.897031
O O9 0.828703 0.624878 0.222845
O O10 0.781100 0.430578 0.471590
O O11 0.700405 0.729788 0.279254
O O12 0.500859 0.506256 0.375914
O O13 0.469961 0.761622 0.327407
O O14 0.908776 0.117042 0.873893
#
# Coordination Sequence:
#
# PCOD9314518 Si02
#       7
#     4   4   4   4   4   4   4
#     4  11  24  43  72  98 142 188 238 297 357 427
#     4  11  24  40  65 107 140 184 244 296 357 434
#     4  11  20  33  66 102 136 175 232 289 358 412
#     4  11  19  35  65 104 140 177 228 296 346 425
#     4  11  30  46  72 106 141 196 246 296 371 440
#     4  10  21  43  66 102 138 188 231 288 361 425
#     4  11  26  50  72 103 147 192 243 302 362 437
#
# _framework density 24.825392000000001
#
# number of rings (size 3 to 8) (size 9 to 14) (size 15 to 20)
#    0.000    1.143    4.286    0.857    6.000    2.286 
#    5.143    0.000    0.000    0.000    0.000    0.000 
#    0.000    0.000    0.000    0.000    0.000    0.000 
#
# Total GULP energy -156571.174401 kJ/mol
# GULP energy per Si atom -5591.827657 kJ/mol
# Density = 2.476889 g / cm^3
# Si number density = 24.825392 Si / 1000 Ang^3
#
#
#
# Elastic Constant Matrix: (Units=GPa)
#
#
# Indices 1 2 3 4 5 6 
#
# 1 82.5717 -10.6492 17.6222 0.0000 0.0000 0.0000
# 2 -10.6492 52.4264 -0.4617 0.0000 0.0000 0.0000
# 3 17.6222 -0.4617 85.3407 0.0000 0.0000 0.0000
# 4 0.0000 0.0000 0.0000 16.8085 0.0000 0.0000
# 5 0.0000 0.0000 0.0000 0.0000 25.9788 0.0000
# 6 0.0000 0.0000 0.0000 0.0000 0.0000 21.3522
#
#
#
# Elastic Compliance Matrix: (Units=1/GPa)
#
#
# Indices 1 2 3 4 5 6 
#
# 1 0.013019 0.002621 -0.002674 0.000000 0.000000 0.000000
# 2 0.002621 0.019603 -0.000435 0.000000 0.000000 0.000000
# 3 -0.002674 -0.000435 0.012268 0.000000 0.000000 0.000000
# 4 0.000000 0.000000 0.000000 0.059494 0.000000 0.000000
# 5 0.000000 0.000000 0.000000 0.000000 0.038493 0.000000
# 6 0.000000 0.000000 0.000000 0.000000 0.000000 0.046834
#
#
# Mechanical properties :
#
#
# Convention : Reuss Voigt Hill
#
# Bulk Modulus (GPa) = 22.77218 25.92906 24.35062
# Shear Modulus (GPa) = 24.35167 27.08306 25.71736
#
# Velocity S-wave (km/s) = 3.13536 3.30652 3.22208
# Velocity P-wave (km/s) = 4.72230 5.00447 4.86543
#
# Compressibility (1/GPa) = 0.04391322
#
# Stress axis : x y z
#
# Youngs Moduli (GPa) = 76.80814 51.01279 81.51559
#
# Poissons Ratio (x) = -0.13371 0.21799
# Poissons Ratio (y) = -0.20132 0.03547
# Poissons Ratio (z) = 0.20540 0.02220
#
# Static dielectric constant tensor:
#      x y z
#    x 2.028770 0.000000 0.000000 
#    y 0.000000 1.941680 0.000000 
#    z 0.000000 0.000000 1.965140 
# 
# From -- ./inp_files/1929.got.cif
#   From: 2010.05.17/outbox.cif.g08.bks.cpg/sg19_1_cif.got.tgz:1929.got - 2010.06.03 22:46:19.
