data_PCOD9314101
_publ_section_title
;
Structure prediction by ZEFSAII (Michael W. Deem and Ramdas Pophale) SiO2 
 PCOD9314101
Probable space group: P 21 21 21
;
_chemical_formula_sum "Si O2"
_cell_formula_units_Z 32
_cell_length_a 4.891064
_cell_length_b 9.612157
_cell_length_c 28.245352
_cell_angle_alpha 90.000000
_cell_angle_beta 90.000000
_cell_angle_gamma 90.000000
_cell_volume 1327.917801
_symmetry_space_group_name_H-M "P 21 21 21"
_symmetry_group_IT_number 19
_symmetry_cell_setting 'orthorhombic'
loop_
_space_group_symop_operation_xyz
x,y,z
1/2-x,-y,1/2+z
1/2+x,1/2-y,-z
-x,1/2+y,1/2-z
loop_
_atom_site_type_symbol
_atom_site_label
_atom_site_fract_x
_atom_site_fract_y
_atom_site_fract_z
Si Si1 0.538573 0.037660 0.208188
Si Si2 0.412076 0.884085 0.957370
Si Si3 0.693786 0.087412 0.888075
Si Si4 0.557591 0.209881 0.697833
Si Si5 0.581583 0.080105 0.522784
Si Si6 0.646824 0.286434 0.969706
Si Si7 0.040113 0.388284 0.682724
Si Si8 0.479307 0.788895 0.694244
O O1 0.563353 0.038606 0.265515
O O2 0.224793 0.074705 0.194999
O O3 0.704064 0.172512 0.191717
O O4 0.733418 0.917038 0.187087
O O5 0.105869 0.901250 0.976037
O O6 0.612106 0.919656 0.002151
O O7 0.491404 0.983587 0.915220
O O8 0.456948 0.719910 0.946853
O O9 0.783990 0.195638 0.928600
O O10 0.575984 0.186035 0.847869
O O11 0.898809 0.988831 0.860269
O O12 0.249064 0.254350 0.683433
O O13 0.559369 0.217919 0.754873
O O14 0.730819 0.340030 0.679650
O O15 0.473318 0.936837 0.544961
O O16 0.381400 0.207511 0.990578
#
# Coordination Sequence:
#
# PCOD9314101 Si02
#       8
#     4   4   4   4   4   4   4   4
#     4  10  20  42  61  90 131 172 209 264 337 380
#     4  10  22  38  73  82 133 152 221 256 316 387
#     4  12  24  44  66 101 127 172 228 274 320 397
#     4  10  20  42  61  87 128 170 213 262 327 391
#     4  10  20  44  60  99 113 179 198 260 327 386
#     4  12  24  42  69  95 133 170 213 270 337 388
#     4  10  23  36  65  93 122 171 218 261 321 393
#     4  10  23  36  65  93 123 166 214 269 321 392
#
# _framework density 24.097874999999998
#
# number of rings (size 3 to 8) (size 9 to 14) (size 15 to 20)
#    0.000    1.500    3.750    0.750    0.000    5.000 
#    4.500    0.000    0.000    0.000    0.000    0.000 
#    0.000    0.000    0.000    0.000    0.000    0.000 
#
# Total GULP energy -178705.094591 kJ/mol
# GULP energy per Si atom -5584.534206 kJ/mol
# Density = 2.404303 g / cm^3
# Si number density = 24.097875 Si / 1000 Ang^3
#
#
#
# Elastic Constant Matrix: (Units=GPa)
#
#
# Indices 1 2 3 4 5 6 
#
# 1 109.4836 2.5668 4.1068 0.0000 0.0000 0.0000
# 2 2.5668 101.8567 29.7168 0.0000 0.0000 0.0000
# 3 4.1068 29.7168 72.4134 0.0000 0.0000 0.0000
# 4 0.0000 0.0000 0.0000 25.5539 0.0000 0.0000
# 5 0.0000 0.0000 0.0000 0.0000 12.1993 0.0000
# 6 0.0000 0.0000 0.0000 0.0000 0.0000 7.3069
#
#
#
# Elastic Compliance Matrix: (Units=1/GPa)
#
#
# Indices 1 2 3 4 5 6 
#
# 1 0.009154 -0.000090 -0.000482 0.000000 0.000000 0.000000
# 2 -0.000090 0.011154 -0.004572 0.000000 0.000000 0.000000
# 3 -0.000482 -0.004572 0.015713 0.000000 0.000000 0.000000
# 4 0.000000 0.000000 0.000000 0.039133 0.000000 0.000000
# 5 0.000000 0.000000 0.000000 0.000000 0.081972 0.000000
# 6 0.000000 0.000000 0.000000 0.000000 0.000000 0.136857
#
#
# Mechanical properties :
#
#
# Convention : Reuss Voigt Hill
#
# Bulk Modulus (GPa) = 38.86162 39.61496 39.23829
# Shear Modulus (GPa) = 15.98211 25.50289 20.74250
#
# Velocity S-wave (km/s) = 2.57809 3.25669 2.93706
# Velocity P-wave (km/s) = 5.00237 5.53319 5.27446
#
# Compressibility (1/GPa) = 0.02573233
#
# Stress axis : x y z
#
# Youngs Moduli (GPa) = 109.24199 89.65454 63.64048
#
# Poissons Ratio (x) = 0.00807 0.03069
# Poissons Ratio (y) = 0.00983 0.29098
# Poissons Ratio (z) = 0.05268 0.40992
#
# Static dielectric constant tensor:
#      x y z
#    x 1.872540 0.000000 0.000000 
#    y 0.000000 2.019330 0.000000 
#    z 0.000000 0.000000 1.915080 
# 
# From -- ./inp_files/7544.got.cif
#   From: 2010.05.17/outbox.cif.g08.bks.cpg/sg19_4_cif.got.tgz:7544.got - 2010.06.03 22:46:19.
