data_PCOD9314477
_publ_section_title
;
Structure prediction by ZEFSAII (Michael W. Deem and Ramdas Pophale) SiO2 
 PCOD9314477
Probable space group: P 21 21 21
;
_chemical_formula_sum "Si O2"
_cell_formula_units_Z 20
_cell_length_a 8.258817
_cell_length_b 13.059668
_cell_length_c 9.108486
_cell_angle_alpha 90.000000
_cell_angle_beta 90.000000
_cell_angle_gamma 90.000000
_cell_volume 982.417692
_symmetry_space_group_name_H-M "P 21 21 21"
_symmetry_group_IT_number 19
_symmetry_cell_setting 'orthorhombic'
loop_
_space_group_symop_operation_xyz
x,y,z
1/2-x,-y,1/2+z
1/2+x,1/2-y,-z
-x,1/2+y,1/2-z
loop_
_atom_site_type_symbol
_atom_site_label
_atom_site_fract_x
_atom_site_fract_y
_atom_site_fract_z
Si Si1 0.144219 0.668885 0.814436
Si Si2 0.433048 0.549245 0.893180
Si Si3 0.140223 0.816183 0.310204
Si Si4 0.466694 0.831286 0.486248
Si Si5 0.650153 0.244937 0.452395
O O1 0.252802 0.567026 0.826805
O O2 0.081460 0.691190 0.653771
O O3 0.983861 0.670889 0.915543
O O4 0.259539 0.753473 0.891681
O O5 0.561650 0.588138 0.773199
O O6 0.474422 0.437851 0.946673
O O7 0.431406 0.633032 0.026266
O O8 0.285689 0.838904 0.422694
O O9 0.222075 0.748673 0.180181
O O10 0.999409 0.756526 0.395324
#
# Coordination Sequence:
#
# PCOD9314477 Si02
#       5
#     4   4   4   4   4
#     4   9  19  38  65  94 128 173 212 270 323 379
#     4  10  21  42  65  96 128 172 220 258 333 389
#     4  11  23  46  63  98 133 172 213 283 323 387
#     4  11  25  42  67  99 134 172 225 270 327 391
#     4   9  18  38  68  89 129 167 214 263 334 378
#
# _framework density 20.357939999999999
#
# number of rings (size 3 to 8) (size 9 to 14) (size 15 to 20)
#    1.200    0.800    2.000    1.200    2.800    0.000 
#   14.400    2.000    0.000    0.000    0.000    0.000 
#    0.000    0.000    0.000    0.000    0.000    0.000 
#
# Total GULP energy -111374.269240 kJ/mol
# GULP energy per Si atom -5568.713462 kJ/mol
# Density = 2.031160 g / cm^3
# Si number density = 20.357940 Si / 1000 Ang^3
#
#
#
# Elastic Constant Matrix: (Units=GPa)
#
#
# Indices 1 2 3 4 5 6 
#
# 1 85.1487 5.4704 51.6942 0.0000 0.0000 0.0000
# 2 5.4704 19.3747 21.0390 0.0000 0.0000 0.0000
# 3 51.6942 21.0390 89.7870 0.0000 0.0000 0.0000
# 4 0.0000 0.0000 0.0000 26.0998 0.0000 0.0000
# 5 0.0000 0.0000 0.0000 0.0000 48.8587 0.0000
# 6 0.0000 0.0000 0.0000 0.0000 0.0000 16.3510
#
#
#
# Elastic Compliance Matrix: (Units=1/GPa)
#
#
# Indices 1 2 3 4 5 6 
#
# 1 0.019109 0.008788 -0.013061 0.000000 0.000000 0.000000
# 2 0.008788 0.073270 -0.022228 0.000000 0.000000 0.000000
# 3 -0.013061 -0.022228 0.023866 0.000000 0.000000 0.000000
# 4 0.000000 0.000000 0.000000 0.038314 0.000000 0.000000
# 5 0.000000 0.000000 0.000000 0.000000 0.020467 0.000000
# 6 0.000000 0.000000 0.000000 0.000000 0.000000 0.061158
#
#
# Mechanical properties :
#
#
# Convention : Reuss Voigt Hill
#
# Bulk Modulus (GPa) = 15.81236 38.96861 27.39049
# Shear Modulus (GPa) = 16.11510 26.00237 21.05873
#
# Velocity S-wave (km/s) = 2.81657 3.57775 3.21973
# Velocity P-wave (km/s) = 4.28503 6.02083 5.22551
#
# Compressibility (1/GPa) = 0.06324167
#
# Stress axis : x y z
#
# Youngs Moduli (GPa) = 52.33143 13.64816 41.90110
#
# Poissons Ratio (x) = -0.11993 0.54727
# Poissons Ratio (y) = -0.45986 0.93138
# Poissons Ratio (z) = 0.68350 0.30337
#
# Static dielectric constant tensor:
#      x y z
#    x 1.798980 0.000000 0.000000 
#    y 0.000000 1.694700 0.000000 
#    z 0.000000 0.000000 1.729500 
# 
# From -- ./inp_files/2609.got.cif
#   From: 2010.05.17/outbox.cif.g08.bks.cpg/sg19_2_cif.got.tgz:2609.got - 2010.06.03 22:46:19.
