data_PCOD9314871
_publ_section_title
;
Structure prediction by ZEFSAII (Michael W. Deem and Ramdas Pophale) SiO2 
 PCOD9314871
Probable space group: P 21 21 21
;
_chemical_formula_sum "Si O2"
_cell_formula_units_Z 28
_cell_length_a 17.232020
_cell_length_b 7.616214
_cell_length_c 8.889138
_cell_angle_alpha 90.000000
_cell_angle_beta 90.000000
_cell_angle_gamma 90.000000
_cell_volume 1166.634934
_symmetry_space_group_name_H-M "P 21 21 21"
_symmetry_group_IT_number 19
_symmetry_cell_setting 'orthorhombic'
loop_
_space_group_symop_operation_xyz
x,y,z
1/2-x,-y,1/2+z
1/2+x,1/2-y,-z
-x,1/2+y,1/2-z
loop_
_atom_site_type_symbol
_atom_site_label
_atom_site_fract_x
_atom_site_fract_y
_atom_site_fract_z
Si Si1 0.169365 0.060119 0.174481
Si Si2 0.090816 0.844213 0.409490
Si Si3 0.008587 0.126634 0.268076
Si Si4 0.747137 0.093574 0.717120
Si Si5 0.080570 0.662107 0.712957
Si Si6 0.773516 0.756147 0.901128
Si Si7 0.944852 0.786645 0.925168
O O1 0.077659 0.094194 0.145625
O O2 0.210524 0.248307 0.183389
O O3 0.158388 0.964722 0.339308
O O4 0.216775 0.911512 0.085313
O O5 0.094705 0.804235 0.582455
O O6 0.072420 0.675997 0.305540
O O7 0.011615 0.950567 0.368890
O O8 0.038465 0.260698 0.397690
O O9 0.838545 0.130758 0.705708
O O10 0.716091 0.127013 0.551105
O O11 0.741491 0.897415 0.780986
O O12 0.059427 0.487752 0.622081
O O13 0.014725 0.706379 0.830513
O O14 0.862746 0.703428 0.871191
#
# Coordination Sequence:
#
# PCOD9314871 Si02
#       7
#     4   4   4   4   4   4   4
#     4  10  26  44  78  97 141 195 231 300 349 435
#     4  10  23  43  66 101 134 185 231 290 355 419
#     4  10  22  43  67 100 133 184 232 284 356 423
#     4  11  27  47  74 105 147 189 243 299 357 433
#     4  11  26  43  71 102 140 183 234 306 353 429
#     4  11  26  48  71 108 144 190 242 297 362 430
#     4  11  24  46  67 103 139 178 237 298 358 425
#
# _framework density 24.000651999999999
#
# number of rings (size 3 to 8) (size 9 to 14) (size 15 to 20)
#    0.857    0.571    1.429    1.714   12.000    1.143 
#    5.143    0.000    0.000    0.000    0.000    0.000 
#    0.000    0.000    0.000    0.000    0.000    0.000 
#
# Total GULP energy -156294.260665 kJ/mol
# GULP energy per Si atom -5581.937881 kJ/mol
# Density = 2.394603 g / cm^3
# Si number density = 24.000652 Si / 1000 Ang^3
#
#
#
# Elastic Constant Matrix: (Units=GPa)
#
#
# Indices 1 2 3 4 5 6 
#
# 1 108.1812 27.0665 7.4140 0.0000 0.0000 0.0000
# 2 27.0665 72.0404 -1.0775 0.0000 0.0000 0.0000
# 3 7.4140 -1.0775 33.6524 0.0000 0.0000 0.0000
# 4 0.0000 0.0000 0.0000 38.9652 0.0000 0.0000
# 5 0.0000 0.0000 0.0000 0.0000 27.1839 0.0000
# 6 0.0000 0.0000 0.0000 0.0000 0.0000 23.9886
#
#
#
# Elastic Compliance Matrix: (Units=1/GPa)
#
#
# Indices 1 2 3 4 5 6 
#
# 1 0.010396 -0.003942 -0.002416 0.000000 0.000000 0.000000
# 2 -0.003942 0.015382 0.001361 0.000000 0.000000 0.000000
# 3 -0.002416 0.001361 0.030291 0.000000 0.000000 0.000000
# 4 0.000000 0.000000 0.000000 0.025664 0.000000 0.000000
# 5 0.000000 0.000000 0.000000 0.000000 0.036786 0.000000
# 6 0.000000 0.000000 0.000000 0.000000 0.000000 0.041687
#
#
# Mechanical properties :
#
#
# Convention : Reuss Voigt Hill
#
# Bulk Modulus (GPa) = 21.70385 31.18666 26.44526
# Shear Modulus (GPa) = 26.94553 30.05895 28.50224
#
# Velocity S-wave (km/s) = 3.35431 3.54280 3.44984
# Velocity P-wave (km/s) = 4.90556 5.45504 5.18758
#
# Compressibility (1/GPa) = 0.04607477
#
# Stress axis : x y z
#
# Youngs Moduli (GPa) = 96.19451 65.00905 33.01257
#
# Poissons Ratio (x) = 0.25626 0.07977
# Poissons Ratio (y) = 0.37919 -0.04493
# Poissons Ratio (z) = 0.23245 -0.08848
#
# Static dielectric constant tensor:
#      x y z
#    x 1.929280 0.000000 0.000000 
#    y 0.000000 2.222630 0.000000 
#    z 0.000000 0.000000 1.921100 
# 
# From -- ./inp_files/4180.got.cif
#   From: 2010.05.17/outbox.cif.g08.bks.cpg/sg19_3_cif.got.tgz:4180.got - 2010.06.03 22:46:19.
