data_PCOD9314539
_publ_section_title
;
Structure prediction by ZEFSAII (Michael W. Deem and Ramdas Pophale) SiO2 
 PCOD9314539
Probable space group: P 21 21 21
;
_chemical_formula_sum "Si O2"
_cell_formula_units_Z 24
_cell_length_a 8.714140
_cell_length_b 10.634037
_cell_length_c 10.825893
_cell_angle_alpha 90.000000
_cell_angle_beta 90.000000
_cell_angle_gamma 90.000000
_cell_volume 1003.197475
_symmetry_space_group_name_H-M "P 21 21 21"
_symmetry_group_IT_number 19
_symmetry_cell_setting 'orthorhombic'
loop_
_space_group_symop_operation_xyz
x,y,z
1/2-x,-y,1/2+z
1/2+x,1/2-y,-z
-x,1/2+y,1/2-z
loop_
_atom_site_type_symbol
_atom_site_label
_atom_site_fract_x
_atom_site_fract_y
_atom_site_fract_z
Si Si1 0.224199 0.261862 0.813823
Si Si2 0.721694 0.891391 0.439816
Si Si3 0.971628 0.071385 0.504561
Si Si4 0.114013 0.007584 0.905815
Si Si5 0.383158 0.144842 0.174444
Si Si6 0.274478 0.212425 0.530111
O O1 0.289432 0.362516 0.911932
O O2 0.283531 0.253384 0.674478
O O3 0.044472 0.289083 0.796861
O O4 0.218978 0.129556 0.887244
O O5 0.725469 0.753260 0.378506
O O6 0.872409 0.976138 0.418569
O O7 0.565233 0.957265 0.395278
O O8 0.839308 0.169132 0.546805
O O9 0.106391 0.172620 0.481912
O O10 0.060359 0.973051 0.592052
O O11 0.173315 0.917242 0.798141
O O12 0.132039 0.918287 0.022714
#
# Coordination Sequence:
#
# PCOD9314539 Si02
#       6
#     4   4   4   4   4   4
#     4  10  22  41  66  99 141 183 238 288 364 422
#     4  10  23  44  72 101 135 190 244 295 355 434
#     4  11  23  43  69 104 144 179 244 289 356 436
#     4  11  23  43  74  99 141 188 246 295 360 435
#     4  10  21  43  73  99 133 195 231 288 363 433
#     4  12  24  44  68 108 142 189 235 299 364 422
#
# _framework density 23.923504999999999
#
# number of rings (size 3 to 8) (size 9 to 14) (size 15 to 20)
#    0.000    1.333    1.667    4.000    2.333    0.000 
#    6.000    1.667    3.667    0.000    0.000    0.000 
#    0.000    0.000    0.000    0.000    0.000    0.000 
#
# Total GULP energy -133729.624340 kJ/mol
# GULP energy per Si atom -5572.067681 kJ/mol
# Density = 2.386905 g / cm^3
# Si number density = 23.923505 Si / 1000 Ang^3
#
#
#
# Elastic Constant Matrix: (Units=GPa)
#
#
# Indices 1 2 3 4 5 6 
#
# 1 66.4339 43.9779 17.2476 0.0000 0.0000 0.0000
# 2 43.9779 142.5050 26.4979 0.0000 0.0000 0.0000
# 3 17.2476 26.4979 44.3747 0.0000 0.0000 0.0000
# 4 0.0000 0.0000 0.0000 28.1178 0.0000 0.0000
# 5 0.0000 0.0000 0.0000 0.0000 26.4557 0.0000
# 6 0.0000 0.0000 0.0000 0.0000 0.0000 54.3661
#
#
#
# Elastic Compliance Matrix: (Units=1/GPa)
#
#
# Indices 1 2 3 4 5 6 
#
# 1 0.019694 -0.005236 -0.004528 0.000000 0.000000 0.000000
# 2 -0.005236 0.009286 -0.003510 0.000000 0.000000 0.000000
# 3 -0.004528 -0.003510 0.026391 0.000000 0.000000 0.000000
# 4 0.000000 0.000000 0.000000 0.035565 0.000000 0.000000
# 5 0.000000 0.000000 0.000000 0.000000 0.037799 0.000000
# 6 0.000000 0.000000 0.000000 0.000000 0.000000 0.018394
#
#
# Mechanical properties :
#
#
# Convention : Reuss Voigt Hill
#
# Bulk Modulus (GPa) = 34.69400 47.64007 41.16703
# Shear Modulus (GPa) = 27.28003 32.82725 30.05364
#
# Velocity S-wave (km/s) = 3.38050 3.70831 3.54819
# Velocity P-wave (km/s) = 5.45624 6.18806 5.83364
#
# Compressibility (1/GPa) = 0.02882343
#
# Stress axis : x y z
#
# Youngs Moduli (GPa) = 50.77646 107.69228 37.89129
#
# Poissons Ratio (x) = 0.56385 0.17158
# Poissons Ratio (y) = 0.26585 0.13299
# Poissons Ratio (z) = 0.22993 0.37798
#
# Static dielectric constant tensor:
#      x y z
#    x 1.917240 0.000000 0.000000 
#    y 0.000000 1.985550 0.000000 
#    z 0.000000 0.000000 1.983320 
# 
# From -- ./inp_files/4566.got.cif
#   From: 2010.05.17/outbox.cif.g08.bks.cpg/sg19_3_cif.got.tgz:4566.got - 2010.06.03 22:46:19.
