data_PCOD9314747
_publ_section_title
;
Structure prediction by ZEFSAII (Michael W. Deem and Ramdas Pophale) SiO2 
 PCOD9314747
Probable space group: P 21 21 21
;
_chemical_formula_sum "Si O2"
_cell_formula_units_Z 32
_cell_length_a 11.076349
_cell_length_b 19.139517
_cell_length_c 5.673939
_cell_angle_alpha 90.000000
_cell_angle_beta 90.000000
_cell_angle_gamma 90.000000
_cell_volume 1202.852202
_symmetry_space_group_name_H-M "P 21 21 21"
_symmetry_group_IT_number 19
_symmetry_cell_setting 'orthorhombic'
loop_
_space_group_symop_operation_xyz
x,y,z
1/2-x,-y,1/2+z
1/2+x,1/2-y,-z
-x,1/2+y,1/2-z
loop_
_atom_site_type_symbol
_atom_site_label
_atom_site_fract_x
_atom_site_fract_y
_atom_site_fract_z
Si Si1 0.395561 0.545873 0.488716
Si Si2 0.189891 0.091663 0.504060
Si Si3 0.878293 0.064102 0.154334
Si Si4 0.938461 0.455324 0.592044
Si Si5 0.729333 0.245391 0.533234
Si Si6 0.487215 0.669639 0.782353
Si Si7 0.091724 0.128468 0.002825
Si Si8 0.703446 0.747633 0.537095
O O1 0.264032 0.556207 0.377604
O O2 0.526000 0.550243 0.363109
O O3 0.401026 0.614425 0.652130
O O4 0.395040 0.466525 0.584783
O O5 0.300197 0.037517 0.486823
O O6 0.236432 0.171874 0.503473
O O7 0.119137 0.089043 0.754233
O O8 0.127575 0.089643 0.247557
O O9 0.947896 0.132586 0.055842
O O10 0.955586 0.005006 0.009622
O O11 0.964061 0.378981 0.487716
O O12 0.591353 0.228390 0.592680
O O13 0.767308 0.211844 0.283455
O O14 0.803815 0.225365 0.767589
O O15 0.586819 0.701560 0.608450
O O16 0.175797 0.196941 0.988029
#
# Coordination Sequence:
#
# PCOD9314747 Si02
#       8
#     4   4   4   4   4   4   4   4
#     4  11  24  45  65 102 136 189 245 287 364 438
#     4  10  22  44  67 103 139 172 236 291 348 416
#     4  11  25  42  68  98 139 183 234 294 359 429
#     4  11  23  43  73  91 138 188 228 296 347 432
#     4  10  22  41  67 104 134 180 224 281 348 412
#     4  11  24  43  73  97 137 192 230 289 362 428
#     4  10  22  42  69  99 135 178 223 296 347 411
#     4  10  22  46  68 104 142 174 232 292 345 424
#
# _framework density 26.603435000000001
#
# number of rings (size 3 to 8) (size 9 to 14) (size 15 to 20)
#    0.000    1.500    3.750    1.500    5.250    1.000 
#    9.000    0.000    0.000    0.000    0.000    0.000 
#    0.000    0.000    0.000    0.000    0.000    0.000 
#
# Total GULP energy -178440.862188 kJ/mol
# GULP energy per Si atom -5576.276943 kJ/mol
# Density = 2.654288 g / cm^3
# Si number density = 26.603435 Si / 1000 Ang^3
#
#
#
# Elastic Constant Matrix: (Units=GPa)
#
#
# Indices 1 2 3 4 5 6 
#
# 1 117.7006 3.2805 61.0465 0.0000 0.0000 0.0000
# 2 3.2805 29.7480 8.1932 0.0000 0.0000 0.0000
# 3 61.0465 8.1932 180.4036 0.0000 0.0000 0.0000
# 4 0.0000 0.0000 0.0000 31.9917 0.0000 0.0000
# 5 0.0000 0.0000 0.0000 0.0000 46.8106 0.0000
# 6 0.0000 0.0000 0.0000 0.0000 0.0000 24.3293
#
#
#
# Elastic Compliance Matrix: (Units=1/GPa)
#
#
# Indices 1 2 3 4 5 6 
#
# 1 0.010306 -0.000178 -0.003479 0.000000 0.000000 0.000000
# 2 -0.000178 0.034045 -0.001486 0.000000 0.000000 0.000000
# 3 -0.003479 -0.001486 0.006788 0.000000 0.000000 0.000000
# 4 0.000000 0.000000 0.000000 0.031258 0.000000 0.000000
# 5 0.000000 0.000000 0.000000 0.000000 0.021363 0.000000
# 6 0.000000 0.000000 0.000000 0.000000 0.000000 0.041103
#
#
# Mechanical properties :
#
#
# Convention : Reuss Voigt Hill
#
# Bulk Modulus (GPa) = 24.47888 52.54363 38.51125
# Shear Modulus (GPa) = 29.62693 37.64845 33.63769
#
# Velocity S-wave (km/s) = 3.34076 3.76596 3.55971
# Velocity P-wave (km/s) = 4.90941 6.22121 5.60383
#
# Compressibility (1/GPa) = 0.04085155
#
# Stress axis : x y z
#
# Youngs Moduli (GPa) = 97.03433 29.37325 147.32020
#
# Poissons Ratio (x) = 0.00524 0.51256
# Poissons Ratio (y) = 0.01729 0.21890
# Poissons Ratio (z) = 0.33760 0.04364
#
# Static dielectric constant tensor:
#      x y z
#    x 2.123120 0.000000 0.000000 
#    y 0.000000 2.217440 0.000000 
#    z 0.000000 0.000000 2.221780 
# 
# From -- ./inp_files/1247.got.cif
#   From: 2010.05.17/outbox.cif.g08.bks.cpg/sg19_1_cif.got.tgz:1247.got - 2010.06.03 22:46:19.
