data_PCOD9314456
_publ_section_title
;
Structure prediction by ZEFSAII (Michael W. Deem and Ramdas Pophale) SiO2 
 PCOD9314456
Probable space group: P 21 21 21
;
_chemical_formula_sum "Si O2"
_cell_formula_units_Z 20
_cell_length_a 8.997554
_cell_length_b 10.046599
_cell_length_c 8.568132
_cell_angle_alpha 90.000000
_cell_angle_beta 90.000000
_cell_angle_gamma 90.000000
_cell_volume 774.514724
_symmetry_space_group_name_H-M "P 21 21 21"
_symmetry_group_IT_number 19
_symmetry_cell_setting 'orthorhombic'
loop_
_space_group_symop_operation_xyz
x,y,z
1/2-x,-y,1/2+z
1/2+x,1/2-y,-z
-x,1/2+y,1/2-z
loop_
_atom_site_type_symbol
_atom_site_label
_atom_site_fract_x
_atom_site_fract_y
_atom_site_fract_z
Si Si1 0.217220 0.047387 0.496726
Si Si2 0.570025 0.884486 0.190454
Si Si3 0.129387 0.745243 0.508191
Si Si4 0.556852 0.437176 0.798729
Si Si5 0.776700 0.009281 0.411752
O O1 0.186239 0.889861 0.470892
O O2 0.375141 0.045697 0.582358
O O3 0.090360 0.096727 0.615304
O O4 0.181919 0.104419 0.326617
O O5 0.572298 0.765901 0.314067
O O6 0.629845 0.004696 0.303941
O O7 0.685761 0.883091 0.044742
O O8 0.257533 0.632247 0.501946
O O9 0.005875 0.687809 0.392604
O O10 0.418246 0.491192 0.700530
#
# Coordination Sequence:
#
# PCOD9314456 Si02
#       5
#     4   4   4   4   4
#     4  11  25  41  67  98 138 173 216 288 327 383
#     4   9  19  38  64  94 123 180 217 270 324 397
#     4  10  21  41  69  86 134 182 214 257 351 392
#     4  11  23  41  67  99 133 169 228 276 328 396
#     4   9  18  39  65  87 128 174 221 267 324 400
#
# _framework density 25.822623
#
# number of rings (size 3 to 8) (size 9 to 14) (size 15 to 20)
#    1.200    0.800    2.000    1.200    5.600    0.000 
#    0.000   12.000    0.000    0.000    0.000    0.000 
#    0.000    0.000    0.000    0.000    0.000    0.000 
#
# Total GULP energy -111713.537053 kJ/mol
# GULP energy per Si atom -5585.676853 kJ/mol
# Density = 2.576385 g / cm^3
# Si number density = 25.822623 Si / 1000 Ang^3
#
#
#
# Elastic Constant Matrix: (Units=GPa)
#
#
# Indices 1 2 3 4 5 6 
#
# 1 47.3409 24.9655 69.2731 0.0000 0.0000 0.0000
# 2 24.9655 49.5956 22.6381 0.0000 0.0000 0.0000
# 3 69.2731 22.6381 147.9866 0.0000 0.0000 0.0000
# 4 0.0000 0.0000 0.0000 16.0500 0.0000 0.0000
# 5 0.0000 0.0000 0.0000 0.0000 72.9674 0.0000
# 6 0.0000 0.0000 0.0000 0.0000 0.0000 40.8047
#
#
#
# Elastic Compliance Matrix: (Units=1/GPa)
#
#
# Indices 1 2 3 4 5 6 
#
# 1 0.095798 -0.029837 -0.040279 0.000000 0.000000 0.000000
# 2 -0.029837 0.030970 0.009229 0.000000 0.000000 0.000000
# 3 -0.040279 0.009229 0.024200 0.000000 0.000000 0.000000
# 4 0.000000 0.000000 0.000000 0.062305 0.000000 0.000000
# 5 0.000000 0.000000 0.000000 0.000000 0.013705 0.000000
# 6 0.000000 0.000000 0.000000 0.000000 0.000000 0.024507
#
#
# Mechanical properties :
#
#
# Convention : Reuss Voigt Hill
#
# Bulk Modulus (GPa) = 34.25352 53.18627 43.71989
# Shear Modulus (GPa) = 13.05517 34.50085 23.77801
#
# Velocity S-wave (km/s) = 2.25093 3.65920 3.03779
# Velocity P-wave (km/s) = 4.47764 6.20439 5.41035
#
# Compressibility (1/GPa) = 0.02919408
#
# Stress axis : x y z
#
# Youngs Moduli (GPa) = 10.43865 32.28951 41.32185
#
# Poissons Ratio (x) = 0.96343 1.66440
# Poissons Ratio (y) = 0.31146 -0.38137
# Poissons Ratio (z) = 0.42046 -0.29801
#
# Static dielectric constant tensor:
#      x y z
#    x 2.056780 0.000000 0.000000 
#    y 0.000000 2.000800 0.000000 
#    z 0.000000 0.000000 2.084240 
# 
# From -- ./inp_files/3475.got.cif
#   From: 2010.05.17/outbox.cif.g08.bks.cpg/sg19_2_cif.got.tgz:3475.got - 2010.06.03 22:46:19.
