data_PCOD9314201
_publ_section_title
;
Structure prediction by ZEFSAII (Michael W. Deem and Ramdas Pophale) SiO2 
 PCOD9314201
Probable space group: P 21 21 21
;
_chemical_formula_sum "Si O2"
_cell_formula_units_Z 32
_cell_length_a 7.967067
_cell_length_b 7.933007
_cell_length_c 18.790066
_cell_angle_alpha 90.000000
_cell_angle_beta 90.000000
_cell_angle_gamma 90.000000
_cell_volume 1187.584751
_symmetry_space_group_name_H-M "P 21 21 21"
_symmetry_group_IT_number 19
_symmetry_cell_setting 'orthorhombic'
loop_
_space_group_symop_operation_xyz
x,y,z
1/2-x,-y,1/2+z
1/2+x,1/2-y,-z
-x,1/2+y,1/2-z
loop_
_atom_site_type_symbol
_atom_site_label
_atom_site_fract_x
_atom_site_fract_y
_atom_site_fract_z
Si Si1 0.511089 0.049257 0.784533
Si Si2 0.812191 0.379750 0.906949
Si Si3 0.025494 0.759886 0.467160
Si Si4 0.140752 0.600314 0.342672
Si Si5 0.617210 0.060182 0.342259
Si Si6 0.263319 0.251885 0.536742
Si Si7 0.619022 0.380122 0.592239
Si Si8 0.485075 0.720697 0.290739
O O1 0.536810 0.039158 0.699955
O O2 0.696712 0.000677 0.815542
O O3 0.390771 0.912310 0.823730
O O4 0.441048 0.229276 0.808621
O O5 0.659913 0.267693 0.937292
O O6 0.782935 0.570674 0.929396
O O7 0.846828 0.359785 0.823816
O O8 0.966021 0.292171 0.949623
O O9 0.117832 0.606904 0.427036
O O10 0.115107 0.928027 0.437507
O O11 0.333476 0.609059 0.321963
O O12 0.640979 0.115018 0.423595
O O13 0.549891 0.212369 0.292991
O O14 0.492655 0.909206 0.321288
O O15 0.446783 0.302881 0.562171
O O16 0.254698 0.225954 0.451582
#
# Coordination Sequence:
#
# PCOD9314201 Si02
#       8
#     4   4   4   4   4   4   4   4
#     4   9  20  38  55  79 112 146 187 234 281 339
#     4  11  22  38  60  86 116 151 194 239 290 346
#     4  10  22  39  58  82 116 151 189 237 287 343
#     4  10  21  37  58  83 111 148 191 236 287 340
#     4  10  22  39  58  82 116 151 189 237 287 343
#     4  10  21  37  58  83 111 148 191 236 287 340
#     4   9  20  38  55  79 112 146 187 234 281 339
#     4  11  22  38  60  86 116 151 194 239 290 346
#
# _framework density 26.945444999999999
#
# number of rings (size 3 to 8) (size 9 to 14) (size 15 to 20)
#    0.000    2.000    0.000    3.750    0.000   10.000 
#    0.000    5.000    0.000    0.000    0.000    0.000 
#    0.000    0.000    0.000    0.000    0.000    0.000 
#
# Total GULP energy -178890.068730 kJ/mol
# GULP energy per Si atom -5590.314648 kJ/mol
# Density = 2.688412 g / cm^3
# Si number density = 26.945445 Si / 1000 Ang^3
#
#
#
# Elastic Constant Matrix: (Units=GPa)
#
#
# Indices 1 2 3 4 5 6 
#
# 1 66.9801 -21.0398 -5.5066 0.0000 0.0000 0.0000
# 2 -21.0398 73.8957 -1.6202 0.0000 0.0000 0.0000
# 3 -5.5066 -1.6202 72.8065 0.0000 0.0000 0.0000
# 4 0.0000 0.0000 0.0000 26.6821 0.0000 0.0000
# 5 0.0000 0.0000 0.0000 0.0000 36.8933 0.0000
# 6 0.0000 0.0000 0.0000 0.0000 0.0000 21.1103
#
#
#
# Elastic Compliance Matrix: (Units=1/GPa)
#
#
# Indices 1 2 3 4 5 6 
#
# 1 0.016529 0.004736 0.001356 0.000000 0.000000 0.000000
# 2 0.004736 0.014896 0.000690 0.000000 0.000000 0.000000
# 3 0.001356 0.000690 0.013853 0.000000 0.000000 0.000000
# 4 0.000000 0.000000 0.000000 0.037478 0.000000 0.000000
# 5 0.000000 0.000000 0.000000 0.000000 0.027105 0.000000
# 6 0.000000 0.000000 0.000000 0.000000 0.000000 0.047370
#
#
# Mechanical properties :
#
#
# Convention : Reuss Voigt Hill
#
# Bulk Modulus (GPa) = 16.99522 17.48323 17.23923
# Shear Modulus (GPa) = 30.62170 33.06040 31.84105
#
# Velocity S-wave (km/s) = 3.37476 3.50657 3.44130
# Velocity P-wave (km/s) = 4.63749 4.78510 4.71187
#
# Compressibility (1/GPa) = 0.05884007
#
# Stress axis : x y z
#
# Youngs Moduli (GPa) = 60.50018 67.13157 72.18702
#
# Poissons Ratio (x) = -0.31793 -0.09785
# Poissons Ratio (y) = -0.28652 -0.04979
# Poissons Ratio (z) = -0.08201 -0.04630
#
# Static dielectric constant tensor:
#      x y z
#    x 2.161270 0.000000 0.000000 
#    y 0.000000 2.117600 0.000000 
#    z 0.000000 0.000000 2.166610 
# 
# From -- ./inp_files/7073.got.cif
#   From: 2010.05.17/outbox.cif.g08.bks.cpg/sg19_4_cif.got.tgz:7073.got - 2010.06.03 22:46:19.
