data_PCOD9314777
_publ_section_title
;
Structure prediction by ZEFSAII (Michael W. Deem and Ramdas Pophale) SiO2 
 PCOD9314777
Probable space group: P 21 21 21
;
_chemical_formula_sum "Si O2"
_cell_formula_units_Z 32
_cell_length_a 18.289376
_cell_length_b 13.757442
_cell_length_c 5.460794
_cell_angle_alpha 90.000000
_cell_angle_beta 90.000000
_cell_angle_gamma 90.000000
_cell_volume 1374.017844
_symmetry_space_group_name_H-M "P 21 21 21"
_symmetry_group_IT_number 19
_symmetry_cell_setting 'orthorhombic'
loop_
_space_group_symop_operation_xyz
x,y,z
1/2-x,-y,1/2+z
1/2+x,1/2-y,-z
-x,1/2+y,1/2-z
loop_
_atom_site_type_symbol
_atom_site_label
_atom_site_fract_x
_atom_site_fract_y
_atom_site_fract_z
Si Si1 0.467170 0.014654 0.840416
Si Si2 0.942571 0.657736 0.472241
Si Si3 0.565898 0.889618 0.146254
Si Si4 0.493932 0.207296 0.586833
Si Si5 0.147073 0.279845 0.699681
Si Si6 0.704327 0.007280 0.249364
Si Si7 0.259675 0.130389 0.577268
Si Si8 0.669478 0.571465 0.417836
O O1 0.475972 0.096688 0.637557
O O2 0.417179 0.058645 0.052422
O O3 0.424244 0.923428 0.726238
O O4 0.541903 0.967390 0.937641
O O5 0.870634 0.704195 0.583811
O O6 0.997928 0.610159 0.665759
O O7 0.987880 0.744234 0.348196
O O8 0.641198 0.925575 0.257301
O O9 0.563563 0.780837 0.036517
O O10 0.570196 0.214476 0.441405
O O11 0.168247 0.386682 0.781118
O O12 0.211735 0.227615 0.554724
O O13 0.746802 0.008905 0.507616
O O14 0.303177 0.126333 0.835587
O O15 0.207608 0.034862 0.581683
O O16 0.309003 0.119657 0.336981
#
# Coordination Sequence:
#
# PCOD9314777 Si02
#       8
#     4   4   4   4   4   4   4   4
#     4  11  23  41  75 106 146 187 248 315 387 443
#     4  10  22  41  78 105 144 192 253 316 371 458
#     4  10  24  47  72 108 146 190 261 316 379 447
#     4  10  23  42  76 109 142 194 248 329 375 450
#     4  11  25  46  74 106 140 204 253 296 382 447
#     4  12  31  52  80 108 152 210 257 313 375 460
#     4  10  23  41  65  97 147 190 230 285 352 457
#     4  10  23  40  64 103 145 185 228 290 367 428
#
# _framework density 23.289362000000001
#
# number of rings (size 3 to 8) (size 9 to 14) (size 15 to 20)
#    0.000    1.500    0.000    3.750   15.750    2.000 
#    2.250    0.000    0.000    0.000    0.000    0.000 
#    0.000    0.000    0.000    0.000    0.000    0.000 
#
# Total GULP energy -179114.969405 kJ/mol
# GULP energy per Si atom -5597.342794 kJ/mol
# Density = 2.323635 g / cm^3
# Si number density = 23.289362 Si / 1000 Ang^3
#
#
#
# Elastic Constant Matrix: (Units=GPa)
#
#
# Indices 1 2 3 4 5 6 
#
# 1 40.3468 39.1334 9.2870 0.0000 0.0000 0.0000
# 2 39.1334 83.6350 24.5384 0.0000 0.0000 0.0000
# 3 9.2870 24.5384 82.0604 0.0000 0.0000 0.0000
# 4 0.0000 0.0000 0.0000 16.3346 0.0000 0.0000
# 5 0.0000 0.0000 0.0000 0.0000 26.7975 0.0000
# 6 0.0000 0.0000 0.0000 0.0000 0.0000 26.3851
#
#
#
# Elastic Compliance Matrix: (Units=1/GPa)
#
#
# Indices 1 2 3 4 5 6 
#
# 1 0.045513 -0.021687 0.001334 0.000000 0.000000 0.000000
# 2 -0.021687 0.023441 -0.004555 0.000000 0.000000 0.000000
# 3 0.001334 -0.004555 0.013397 0.000000 0.000000 0.000000
# 4 0.000000 0.000000 0.000000 0.061220 0.000000 0.000000
# 5 0.000000 0.000000 0.000000 0.000000 0.037317 0.000000
# 6 0.000000 0.000000 0.000000 0.000000 0.000000 0.037900
#
#
# Mechanical properties :
#
#
# Convention : Reuss Voigt Hill
#
# Bulk Modulus (GPa) = 30.73620 39.10663 34.92142
# Shear Modulus (GPa) = 17.89232 22.77567 20.33400
#
# Velocity S-wave (km/s) = 2.77476 3.13060 2.95804
# Velocity P-wave (km/s) = 4.84684 5.46769 5.16660
#
# Compressibility (1/GPa) = 0.03253493
#
# Stress axis : x y z
#
# Youngs Moduli (GPa) = 21.97162 42.66049 74.64231
#
# Poissons Ratio (x) = 0.92520 -0.09959
# Poissons Ratio (y) = 0.47651 0.34000
# Poissons Ratio (z) = -0.02932 0.19432
#
# Static dielectric constant tensor:
#      x y z
#    x 1.871280 0.000000 0.000000 
#    y 0.000000 1.848390 0.000000 
#    z 0.000000 0.000000 1.940780 
# 
# From -- ./inp_files/1788.got.cif
#   From: 2010.05.17/outbox.cif.g08.bks.cpg/sg19_1_cif.got.tgz:1788.got - 2010.06.03 22:46:19.
