data_PCOD9314988
_publ_section_title
;
Structure prediction by ZEFSAII (Michael W. Deem and Ramdas Pophale) SiO2 
 PCOD9314988
Probable space group: P 21 21 21
;
_chemical_formula_sum "Si O2"
_cell_formula_units_Z 32
_cell_length_a 8.991801
_cell_length_b 20.138906
_cell_length_c 8.308169
_cell_angle_alpha 90.000000
_cell_angle_beta 90.000000
_cell_angle_gamma 90.000000
_cell_volume 1504.485075
_symmetry_space_group_name_H-M "P 21 21 21"
_symmetry_group_IT_number 19
_symmetry_cell_setting 'orthorhombic'
loop_
_space_group_symop_operation_xyz
x,y,z
1/2-x,-y,1/2+z
1/2+x,1/2-y,-z
-x,1/2+y,1/2-z
loop_
_atom_site_type_symbol
_atom_site_label
_atom_site_fract_x
_atom_site_fract_y
_atom_site_fract_z
Si Si1 0.218485 0.937749 0.783066
Si Si2 0.821018 0.767949 0.335192
Si Si3 0.823996 0.636566 0.521250
Si Si4 0.679023 0.269157 0.485007
Si Si5 0.548681 0.857727 0.215766
Si Si6 0.965670 0.519754 0.959570
Si Si7 0.011525 0.893747 0.337040
Si Si8 0.020149 0.845558 0.989794
O O1 0.312249 0.905646 0.639899
O O2 0.121908 0.994718 0.698865
O O3 0.096962 0.886225 0.849078
O O4 0.333439 0.954840 0.923527
O O5 0.800882 0.713641 0.472844
O O6 0.866741 0.727625 0.173808
O O7 0.681746 0.809068 0.263839
O O8 0.933604 0.825220 0.390389
O O9 0.685830 0.613703 0.629000
O O10 0.974807 0.623930 0.614635
O O11 0.577826 0.316863 0.378734
O O12 0.627572 0.194476 0.441619
O O13 0.849684 0.291673 0.465202
O O14 0.574044 0.922109 0.103704
O O15 0.036466 0.457902 0.058960
O O16 0.990433 0.892259 0.144259
#
# Coordination Sequence:
#
# PCOD9314988 Si02
#       8
#     4   4   4   4   4   4   4   4
#     4  11  20  37  60  90 113 157 203 256 280 357
#     4  11  23  39  59  90 127 152 195 256 315 362
#     4  11  20  37  63  90 115 152 206 253 308 351
#     4  11  20  37  61  89 118 151 194 248 310 362
#     4  12  22  38  61  89 122 163 198 251 301 365
#     4  11  22  38  60  85 121 161 211 240 292 359
#     4  10  23  38  59  86 120 158 197 248 295 360
#     4  11  20  38  61  89 118 152 194 250 311 350
#
# _framework density 21.269736000000002
#
# number of rings (size 3 to 8) (size 9 to 14) (size 15 to 20)
#    0.000    1.000    5.000    3.000    0.000    1.000 
#    0.000    3.750    0.000    0.000    0.000    0.000 
#    0.000    0.000    0.000    0.000    0.000    0.000 
#
# Total GULP energy -178589.678860 kJ/mol
# GULP energy per Si atom -5580.927464 kJ/mol
# Density = 2.122133 g / cm^3
# Si number density = 21.269736 Si / 1000 Ang^3
#
#
#
# Elastic Constant Matrix: (Units=GPa)
#
#
# Indices 1 2 3 4 5 6 
#
# 1 36.7917 4.9581 1.5110 0.0000 0.0000 0.0000
# 2 4.9581 58.0012 30.6143 0.0000 0.0000 0.0000
# 3 1.5110 30.6143 72.1903 0.0000 0.0000 0.0000
# 4 0.0000 0.0000 0.0000 52.5925 0.0000 0.0000
# 5 0.0000 0.0000 0.0000 0.0000 16.4264 0.0000
# 6 0.0000 0.0000 0.0000 0.0000 0.0000 25.4899
#
#
#
# Elastic Compliance Matrix: (Units=1/GPa)
#
#
# Indices 1 2 3 4 5 6 
#
# 1 0.027513 -0.002639 0.000543 0.000000 0.000000 0.000000
# 2 -0.002639 0.022466 -0.009472 0.000000 0.000000 0.000000
# 3 0.000543 -0.009472 0.017858 0.000000 0.000000 0.000000
# 4 0.000000 0.000000 0.000000 0.019014 0.000000 0.000000
# 5 0.000000 0.000000 0.000000 0.000000 0.060878 0.000000
# 6 0.000000 0.000000 0.000000 0.000000 0.000000 0.039231
#
#
# Mechanical properties :
#
#
# Convention : Reuss Voigt Hill
#
# Bulk Modulus (GPa) = 22.37035 26.79444 24.58239
# Shear Modulus (GPa) = 22.22261 27.56176 24.89219
#
# Velocity S-wave (km/s) = 3.23584 3.60366 3.42469
# Velocity P-wave (km/s) = 4.94987 5.47174 5.21733
#
# Compressibility (1/GPa) = 0.04470203
#
# Stress axis : x y z
#
# Youngs Moduli (GPa) = 36.34608 44.51136 55.99784
#
# Poissons Ratio (x) = 0.11745 -0.03041
# Poissons Ratio (y) = 0.09590 0.53042
# Poissons Ratio (z) = -0.01974 0.42162
#
# Static dielectric constant tensor:
#      x y z
#    x 1.756030 0.000000 0.000000 
#    y 0.000000 1.843270 0.000000 
#    z 0.000000 0.000000 1.785270 
# 
# From -- ./inp_files/3137.got.cif
#   From: 2010.05.17/outbox.cif.g08.bks.cpg/sg19_2_cif.got.tgz:3137.got - 2010.06.03 22:46:19.
