data_PCOD9314816
_publ_section_title
;
Structure prediction by ZEFSAII (Michael W. Deem and Ramdas Pophale) SiO2 
 PCOD9314816
Probable space group: P 21 21 21
;
_chemical_formula_sum "Si O2"
_cell_formula_units_Z 32
_cell_length_a 12.194240
_cell_length_b 11.846248
_cell_length_c 9.417882
_cell_angle_alpha 90.000000
_cell_angle_beta 90.000000
_cell_angle_gamma 90.000000
_cell_volume 1360.469479
_symmetry_space_group_name_H-M "P 21 21 21"
_symmetry_group_IT_number 19
_symmetry_cell_setting 'orthorhombic'
loop_
_space_group_symop_operation_xyz
x,y,z
1/2-x,-y,1/2+z
1/2+x,1/2-y,-z
-x,1/2+y,1/2-z
loop_
_atom_site_type_symbol
_atom_site_label
_atom_site_fract_x
_atom_site_fract_y
_atom_site_fract_z
Si Si1 0.830509 0.548427 0.844596
Si Si2 0.458293 0.683775 0.518196
Si Si3 0.024006 0.103074 0.211990
Si Si4 0.991280 0.712440 0.004280
Si Si5 0.091585 0.808482 0.740983
Si Si6 0.358701 0.566126 0.932147
Si Si7 0.823566 0.446603 0.125254
Si Si8 0.763874 0.101165 0.845973
O O1 0.931058 0.617100 0.910839
O O2 0.872441 0.437708 0.763411
O O3 0.757055 0.616275 0.732734
O O4 0.770163 0.497564 0.983676
O O5 0.453615 0.804089 0.594326
O O6 0.478809 0.694856 0.350453
O O7 0.568788 0.621886 0.576449
O O8 0.350226 0.619479 0.569624
O O9 0.965747 0.161454 0.348237
O O10 0.954944 0.003127 0.144976
O O11 0.132305 0.051313 0.281901
O O12 0.079087 0.768385 0.901488
O O13 0.901905 0.808195 0.041062
O O14 0.170857 0.719901 0.660165
O O15 0.262302 0.569777 0.816219
O O16 0.327975 0.496702 0.072036
#
# Coordination Sequence:
#
# PCOD9314816 Si02
#       8
#     4   4   4   4   4   4   4   4
#     4  10  25  43  71 105 142 191 249 310 359 450
#     4  11  23  45  68 100 150 188 238 304 374 439
#     4  11  21  47  70  99 143 193 239 304 371 437
#     4  11  27  48  75 110 151 193 254 309 378 448
#     4  11  27  45  75 107 146 199 249 312 368 452
#     4  12  28  46  76 112 151 201 247 317 384 449
#     4  10  22  42  67 100 135 189 235 296 366 426
#     4  12  27  48  74 113 150 198 253 312 384 461
#
# _framework density 23.521291999999999
#
# number of rings (size 3 to 8) (size 9 to 14) (size 15 to 20)
#    0.000    1.000    3.750    0.750    7.000    6.000 
#    0.000    0.000    0.000    0.000    0.000    0.000 
#    0.000    0.000    0.000    0.000    0.000    0.000 
#
# Total GULP energy -179088.083291 kJ/mol
# GULP energy per Si atom -5596.502603 kJ/mol
# Density = 2.346776 g / cm^3
# Si number density = 23.521292 Si / 1000 Ang^3
#
#
#
# Elastic Constant Matrix: (Units=GPa)
#
#
# Indices 1 2 3 4 5 6 
#
# 1 31.9538 5.0939 17.8383 0.0000 0.0000 0.0000
# 2 5.0939 73.1143 -2.1529 0.0000 0.0000 0.0000
# 3 17.8383 -2.1529 60.7830 0.0000 0.0000 0.0000
# 4 0.0000 0.0000 0.0000 38.9877 0.0000 0.0000
# 5 0.0000 0.0000 0.0000 0.0000 44.4414 0.0000
# 6 0.0000 0.0000 0.0000 0.0000 0.0000 20.7479
#
#
#
# Elastic Compliance Matrix: (Units=1/GPa)
#
#
# Indices 1 2 3 4 5 6 
#
# 1 0.038066 -0.002984 -0.011277 0.000000 0.000000 0.000000
# 2 -0.002984 0.013925 0.001369 0.000000 0.000000 0.000000
# 3 -0.011277 0.001369 0.019810 0.000000 0.000000 0.000000
# 4 0.000000 0.000000 0.000000 0.025649 0.000000 0.000000
# 5 0.000000 0.000000 0.000000 0.000000 0.022502 0.000000
# 6 0.000000 0.000000 0.000000 0.000000 0.000000 0.048198
#
#
# Mechanical properties :
#
#
# Convention : Reuss Voigt Hill
#
# Bulk Modulus (GPa) = 21.73106 23.04554 22.38830
# Shear Modulus (GPa) = 23.89211 30.50686 27.19949
#
# Velocity S-wave (km/s) = 3.19056 3.60528 3.40424
# Velocity P-wave (km/s) = 4.77827 5.21054 4.99908
#
# Compressibility (1/GPa) = 0.04601708
#
# Stress axis : x y z
#
# Youngs Moduli (GPa) = 26.26985 71.81104 50.47943
#
# Poissons Ratio (x) = 0.21430 0.56927
# Poissons Ratio (y) = 0.07839 -0.06911
# Poissons Ratio (z) = 0.29625 -0.09831
#
# Static dielectric constant tensor:
#      x y z
#    x 1.936760 0.000000 0.000000 
#    y 0.000000 1.883690 0.000000 
#    z 0.000000 0.000000 1.902870 
# 
# From -- ./inp_files/3925.got.cif
#   From: 2010.05.17/outbox.cif.g08.bks.cpg/sg19_2_cif.got.tgz:3925.got - 2010.06.03 22:46:19.
