data_PCOD9314944
_publ_section_title
;
Structure prediction by ZEFSAII (Michael W. Deem and Ramdas Pophale) SiO2 
 PCOD9314944
Probable space group: P 21 21 21
;
_chemical_formula_sum "Si O2"
_cell_formula_units_Z 32
_cell_length_a 11.980809
_cell_length_b 9.666903
_cell_length_c 12.203408
_cell_angle_alpha 90.000000
_cell_angle_beta 90.000000
_cell_angle_gamma 90.000000
_cell_volume 1413.365991
_symmetry_space_group_name_H-M "P 21 21 21"
_symmetry_group_IT_number 19
_symmetry_cell_setting 'orthorhombic'
loop_
_space_group_symop_operation_xyz
x,y,z
1/2-x,-y,1/2+z
1/2+x,1/2-y,-z
-x,1/2+y,1/2-z
loop_
_atom_site_type_symbol
_atom_site_label
_atom_site_fract_x
_atom_site_fract_y
_atom_site_fract_z
Si Si1 0.654012 0.907442 0.298353
Si Si2 0.581664 0.605733 0.859902
Si Si3 0.435567 0.925951 0.422243
Si Si4 0.411704 0.174416 0.057493
Si Si5 0.523271 0.908398 0.084306
Si Si6 0.869901 0.775788 0.052795
Si Si7 0.802890 0.481112 0.143759
Si Si8 0.310266 0.398707 0.593891
O O1 0.544742 0.976390 0.356030
O O2 0.670446 0.768504 0.369447
O O3 0.612163 0.873443 0.177213
O O4 0.758450 0.007611 0.311771
O O5 0.452804 0.654905 0.859835
O O6 0.626829 0.528001 0.754487
O O7 0.654636 0.745601 0.869393
O O8 0.590658 0.513421 0.969206
O O9 0.479132 0.772450 0.454413
O O10 0.325371 0.933508 0.348802
O O11 0.447336 0.035894 0.119681
O O12 0.357233 0.123016 0.945458
O O13 0.448946 0.780799 0.045720
O O14 0.583993 0.956644 0.971933
O O15 0.811696 0.637966 0.099177
O O16 0.784051 0.880513 0.999039
#
# Coordination Sequence:
#
# PCOD9314944 Si02
#       8
#     4   4   4   4   4   4   4   4
#     4  10  24  39  69  93 127 173 208 273 318 371
#     4  11  24  42  68  93 132 172 208 273 325 383
#     4  10  23  42  64  97 128 166 219 268 308 386
#     4   9  24  42  61  94 135 154 225 266 298 405
#     4  10  24  42  65  95 127 176 207 264 331 370
#     4  10  22  45  62  95 135 159 221 263 310 399
#     4  11  24  42  69  95 128 179 207 267 336 373
#     4  11  23  42  64  96 134 163 219 262 314 397
#
# _framework density 22.640986999999999
#
# number of rings (size 3 to 8) (size 9 to 14) (size 15 to 20)
#    0.750    1.000    2.500    0.000    8.750    0.000 
#    9.000    0.000    0.000    0.000    0.000    0.000 
#    0.000    0.000    0.000    0.000    0.000    0.000 
#
# Total GULP energy -178720.605277 kJ/mol
# GULP energy per Si atom -5585.018915 kJ/mol
# Density = 2.258946 g / cm^3
# Si number density = 22.640987 Si / 1000 Ang^3
#
#
#
# Elastic Constant Matrix: (Units=GPa)
#
#
# Indices 1 2 3 4 5 6 
#
# 1 66.8955 5.6085 0.2348 0.0000 0.0000 0.0000
# 2 5.6085 56.9895 6.7781 0.0000 0.0000 0.0000
# 3 0.2348 6.7781 66.1014 0.0000 0.0000 0.0000
# 4 0.0000 0.0000 0.0000 -13.8979 0.0000 0.0000
# 5 0.0000 0.0000 0.0000 0.0000 26.8066 0.0000
# 6 0.0000 0.0000 0.0000 0.0000 0.0000 37.6660
#
#
#
# Elastic Compliance Matrix: (Units=1/GPa)
#
#
# Indices 1 2 3 4 5 6 
#
# 1 0.015074 -0.001495 0.000100 0.000000 0.000000 0.000000
# 2 -0.001495 0.017912 -0.001831 0.000000 0.000000 0.000000
# 3 0.000100 -0.001831 0.015316 0.000000 0.000000 0.000000
# 4 0.000000 0.000000 0.000000 -0.071953 0.000000 0.000000
# 5 0.000000 0.000000 0.000000 0.000000 0.037304 0.000000
# 6 0.000000 0.000000 0.000000 0.000000 0.000000 0.026549
#
#
# Mechanical properties :
#
#
# Convention : Reuss Voigt Hill
#
# Bulk Modulus (GPa) = 23.89622 23.91436 23.90529
# Shear Modulus (GPa) = 82.50206 21.93928 52.22067
#
# Velocity S-wave (km/s) = 6.04304 3.11627 4.80778
# Velocity P-wave (km/s) = 7.69860 4.85113 6.43436
#
# Compressibility (1/GPa) = 0.04184762
#
# Stress axis : x y z
#
# Youngs Moduli (GPa) = 66.34067 55.82823 65.29245
#
# Poissons Ratio (x) = 0.08348 -0.00652
# Poissons Ratio (y) = 0.09920 0.11958
# Poissons Ratio (z) = -0.00662 0.10224
#
# Static dielectric constant tensor:
#      x y z
#    x 1.883290 0.000000 0.000000 
#    y 0.000000 1.818850 0.000000 
#    z 0.000000 0.000000 1.838530 
# 
# From -- ./inp_files/5071.got.cif
#   From: 2010.05.17/outbox.cif.g08.bks.cpg/sg19_3_cif.got.tgz:5071.got - 2010.06.03 22:46:19.
