data_PCOD9314926
_publ_section_title
;
Structure prediction by ZEFSAII (Michael W. Deem and Ramdas Pophale) SiO2 
 PCOD9314926
Probable space group: P 21 21 21
;
_chemical_formula_sum "Si O2"
_cell_formula_units_Z 24
_cell_length_a 8.863931
_cell_length_b 7.984750
_cell_length_c 14.050341
_cell_angle_alpha 90.000000
_cell_angle_beta 90.000000
_cell_angle_gamma 90.000000
_cell_volume 994.430771
_symmetry_space_group_name_H-M "P 21 21 21"
_symmetry_group_IT_number 19
_symmetry_cell_setting 'orthorhombic'
loop_
_space_group_symop_operation_xyz
x,y,z
1/2-x,-y,1/2+z
1/2+x,1/2-y,-z
-x,1/2+y,1/2-z
loop_
_atom_site_type_symbol
_atom_site_label
_atom_site_fract_x
_atom_site_fract_y
_atom_site_fract_z
Si Si1 0.268968 0.418131 0.079749
Si Si2 0.553571 0.265077 0.439125
Si Si3 0.188506 0.123576 0.829099
Si Si4 0.346492 0.040871 0.537186
Si Si5 0.470308 0.248178 0.914991
Si Si6 0.906501 0.280986 0.753476
O O1 0.339892 0.602208 0.080571
O O2 0.303323 0.335840 0.181939
O O3 0.092056 0.394288 0.058851
O O4 0.360737 0.311410 0.000165
O O5 0.452358 0.204111 0.527441
O O6 0.673748 0.411648 0.448153
O O7 0.437977 0.288678 0.352380
O O8 0.358491 0.187471 0.832914
O O9 0.071010 0.268557 0.802781
O O10 0.155955 0.967057 0.760489
O O11 0.150509 0.049795 0.933589
O O12 0.425997 0.909813 0.606552
#
# Coordination Sequence:
#
# PCOD9314926 Si02
#       6
#     4   4   4   4   4   4
#     4  11  22  44  70 101 143 191 242 298 366 436
#     4  10  24  42  68 105 137 187 245 298 376 423
#     4  11  24  45  68 104 136 198 237 292 375 423
#     4  10  22  44  69 105 136 185 244 300 351 443
#     4  11  22  43  73 101 138 190 246 289 360 431
#     4  11  22  48  66 100 148 187 242 301 372 432
#
# _framework density 24.134411
#
# number of rings (size 3 to 8) (size 9 to 14) (size 15 to 20)
#    0.000    1.333    6.667    0.000    4.667    0.000 
#   18.000    0.000    0.000    0.000    0.000    0.000 
#    0.000    0.000    0.000    0.000    0.000    0.000 
#
# Total GULP energy -134197.811459 kJ/mol
# GULP energy per Si atom -5591.575477 kJ/mol
# Density = 2.407948 g / cm^3
# Si number density = 24.134411 Si / 1000 Ang^3
#
#
#
# Elastic Constant Matrix: (Units=GPa)
#
#
# Indices 1 2 3 4 5 6 
#
# 1 134.1309 33.1691 17.7958 0.0000 0.0000 0.0000
# 2 33.1691 88.0726 28.3483 0.0000 0.0000 0.0000
# 3 17.7958 28.3483 36.9855 0.0000 0.0000 0.0000
# 4 0.0000 0.0000 0.0000 31.7527 0.0000 0.0000
# 5 0.0000 0.0000 0.0000 0.0000 40.4260 0.0000
# 6 0.0000 0.0000 0.0000 0.0000 0.0000 63.0236
#
#
#
# Elastic Compliance Matrix: (Units=1/GPa)
#
#
# Indices 1 2 3 4 5 6 
#
# 1 0.008346 -0.002457 -0.002133 0.000000 0.000000 0.000000
# 2 -0.002457 0.015796 -0.010925 0.000000 0.000000 0.000000
# 3 -0.002133 -0.010925 0.036438 0.000000 0.000000 0.000000
# 4 0.000000 0.000000 0.000000 0.031493 0.000000 0.000000
# 5 0.000000 0.000000 0.000000 0.000000 0.024737 0.000000
# 6 0.000000 0.000000 0.000000 0.000000 0.000000 0.015867
#
#
# Mechanical properties :
#
#
# Convention : Reuss Voigt Hill
#
# Bulk Modulus (GPa) = 33.84043 46.42394 40.13218
# Shear Modulus (GPa) = 28.80918 39.03215 33.92067
#
# Velocity S-wave (km/s) = 3.45874 4.02591 3.75305
# Velocity P-wave (km/s) = 5.47746 6.39437 5.95359
#
# Compressibility (1/GPa) = 0.02955046
#
# Stress axis : x y z
#
# Youngs Moduli (GPa) = 119.81972 63.30717 27.44416
#
# Poissons Ratio (x) = 0.15553 0.05853
# Poissons Ratio (y) = 0.29436 0.29983
# Poissons Ratio (z) = 0.25554 0.69164
#
# Static dielectric constant tensor:
#      x y z
#    x 1.953940 0.000000 0.000000 
#    y 0.000000 1.990750 0.000000 
#    z 0.000000 0.000000 1.965260 
# 
# From -- ./inp_files/5839.got.cif
#   From: 2010.05.17/outbox.cif.g08.bks.cpg/sg19_3_cif.got.tgz:5839.got - 2010.06.03 22:46:19.
