data_PCOD9314089
_publ_section_title
;
Structure prediction by ZEFSAII (Michael W. Deem and Ramdas Pophale) SiO2 
 PCOD9314089
Probable space group: P 21 21 21
;
_chemical_formula_sum "Si O2"
_cell_formula_units_Z 32
_cell_length_a 8.737937
_cell_length_b 8.637097
_cell_length_c 17.926573
_cell_angle_alpha 90.000000
_cell_angle_beta 90.000000
_cell_angle_gamma 90.000000
_cell_volume 1352.925804
_symmetry_space_group_name_H-M "P 21 21 21"
_symmetry_group_IT_number 19
_symmetry_cell_setting 'orthorhombic'
loop_
_space_group_symop_operation_xyz
x,y,z
1/2-x,-y,1/2+z
1/2+x,1/2-y,-z
-x,1/2+y,1/2-z
loop_
_atom_site_type_symbol
_atom_site_label
_atom_site_fract_x
_atom_site_fract_y
_atom_site_fract_z
Si Si1 0.344995 0.311202 0.684736
Si Si2 0.563954 0.337048 0.395066
Si Si3 0.446977 0.646382 0.709713
Si Si4 0.174042 0.896236 0.507144
Si Si5 0.149230 0.702701 0.644221
Si Si6 0.468911 0.029062 0.452836
Si Si7 0.874467 0.918780 0.680817
Si Si8 0.579985 0.877169 0.589440
O O1 0.231429 0.233414 0.624533
O O2 0.446166 0.471152 0.674721
O O3 0.456803 0.174203 0.715304
O O4 0.222242 0.370967 0.746895
O O5 0.585086 0.456058 0.463240
O O6 0.456479 0.199976 0.422249
O O7 0.484042 0.431103 0.327517
O O8 0.266414 0.681282 0.711384
O O9 0.513087 0.788429 0.660770
O O10 0.230359 0.814801 0.583546
O O11 0.074846 0.763670 0.469928
O O12 0.307952 0.940741 0.450871
O O13 0.098689 0.551417 0.598416
O O14 0.993948 0.781663 0.668176
O O15 0.512566 0.016613 0.540395
O O16 0.750615 0.924369 0.614253
#
# Coordination Sequence:
#
# PCOD9314089 Si02
#       8
#     4   4   4   4   4   4   4   4
#     4  11  27  46  67  98 134 183 226 280 329 394
#     4  11  26  40  65 104 135 168 227 280 335 390
#     4  11  24  45  67  96 133 178 227 274 332 400
#     4  10  22  39  64  96 132 173 211 269 331 405
#     4  10  20  41  68  91 128 176 219 265 336 403
#     4  11  21  38  65  96 135 167 217 272 342 396
#     4  10  24  44  68  95 131 176 228 269 331 399
#     4  10  22  43  68  96 128 183 219 261 342 413
#
# _framework density 23.652442000000001
#
# number of rings (size 3 to 8) (size 9 to 14) (size 15 to 20)
#    0.000    1.500    3.750    0.000    7.000    1.000 
#    2.250    0.000    0.000    0.000    0.000    0.000 
#    0.000    0.000    0.000    0.000    0.000    0.000 
#
# Total GULP energy -178446.829633 kJ/mol
# GULP energy per Si atom -5576.463426 kJ/mol
# Density = 2.359861 g / cm^3
# Si number density = 23.652442 Si / 1000 Ang^3
#
#
#
# Elastic Constant Matrix: (Units=GPa)
#
#
# Indices 1 2 3 4 5 6 
#
# 1 69.1401 6.0499 3.1745 0.0000 0.0000 0.0000
# 2 6.0499 74.1833 -4.7634 0.0000 0.0000 0.0000
# 3 3.1745 -4.7634 37.9238 0.0000 0.0000 0.0000
# 4 0.0000 0.0000 0.0000 28.3822 0.0000 0.0000
# 5 0.0000 0.0000 0.0000 0.0000 26.5183 0.0000
# 6 0.0000 0.0000 0.0000 0.0000 0.0000 26.9159
#
#
#
# Elastic Compliance Matrix: (Units=1/GPa)
#
#
# Indices 1 2 3 4 5 6 
#
# 1 0.014639 -0.001283 -0.001387 0.000000 0.000000 0.000000
# 2 -0.001283 0.013702 0.001828 0.000000 0.000000 0.000000
# 3 -0.001387 0.001828 0.026714 0.000000 0.000000 0.000000
# 4 0.000000 0.000000 0.000000 0.035233 0.000000 0.000000
# 5 0.000000 0.000000 0.000000 0.000000 0.037710 0.000000
# 6 0.000000 0.000000 0.000000 0.000000 0.000000 0.037153
#
#
# Mechanical properties :
#
#
# Convention : Reuss Voigt Hill
#
# Bulk Modulus (GPa) = 18.73581 21.12993 19.93287
# Shear Modulus (GPa) = 27.08191 28.14903 27.61547
#
# Velocity S-wave (km/s) = 3.38745 3.45354 3.42065
# Velocity P-wave (km/s) = 4.82060 4.98553 4.90376
#
# Compressibility (1/GPa) = 0.05337373
#
# Stress axis : x y z
#
# Youngs Moduli (GPa) = 68.30923 72.98125 37.43300
#
# Poissons Ratio (x) = 0.09363 0.05190
# Poissons Ratio (y) = 0.08764 -0.06844
# Poissons Ratio (z) = 0.09472 -0.13344
#
# Static dielectric constant tensor:
#      x y z
#    x 1.932580 0.000000 0.000000 
#    y 0.000000 1.944820 0.000000 
#    z 0.000000 0.000000 1.996460 
# 
# From -- ./inp_files/7078.got.cif
#   From: 2010.05.17/outbox.cif.g08.bks.cpg/sg19_4_cif.got.tgz:7078.got - 2010.06.03 22:46:19.
