data_PCOD9314285
_publ_section_title
;
Structure prediction by ZEFSAII (Michael W. Deem and Ramdas Pophale) SiO2 
 PCOD9314285
Probable space group: P 21 21 21
;
_chemical_formula_sum "Si O2"
_cell_formula_units_Z 32
_cell_length_a 8.784961
_cell_length_b 13.281597
_cell_length_c 11.006499
_cell_angle_alpha 90.000000
_cell_angle_beta 90.000000
_cell_angle_gamma 90.000000
_cell_volume 1284.219721
_symmetry_space_group_name_H-M "P 21 21 21"
_symmetry_group_IT_number 19
_symmetry_cell_setting 'orthorhombic'
loop_
_space_group_symop_operation_xyz
x,y,z
1/2-x,-y,1/2+z
1/2+x,1/2-y,-z
-x,1/2+y,1/2-z
loop_
_atom_site_type_symbol
_atom_site_label
_atom_site_fract_x
_atom_site_fract_y
_atom_site_fract_z
Si Si1 0.696059 0.764807 0.904887
Si Si2 0.186907 0.344345 0.002034
Si Si3 0.649052 0.052922 0.507422
Si Si4 0.973971 0.850200 0.244038
Si Si5 0.471315 0.835571 0.222894
Si Si6 0.097109 0.952496 0.624481
Si Si7 0.253971 0.871208 0.408317
Si Si8 0.635976 0.650571 0.134664
O O1 0.537204 0.742058 0.838301
O O2 0.829403 0.736559 0.812807
O O3 0.715708 0.875696 0.956393
O O4 0.723974 0.686122 0.014984
O O5 0.298361 0.439193 0.002970
O O6 0.266217 0.243162 0.955417
O O7 0.041815 0.379177 0.918421
O O8 0.125258 0.326058 0.138228
O O9 0.607707 0.078056 0.647188
O O10 0.508906 0.093104 0.425423
O O11 0.128707 0.894527 0.304644
O O12 0.424082 0.870674 0.356486
O O13 0.605996 0.760295 0.196190
O O14 0.470525 0.937274 0.146055
O O15 0.220356 0.946097 0.517808
O O16 0.175084 0.916316 0.749483
#
# Coordination Sequence:
#
# PCOD9314285 Si02
#       8
#     4   4   4   4   4   4   4   4
#     4   9  20  40  62  91 130 167 209 266 322 376
#     4  11  23  42  66  98 131 167 216 272 332 380
#     4  10  22  39  70  96 122 171 216 264 326 390
#     4   9  22  41  61  94 132 167 217 264 327 393
#     4  10  21  41  64  85 134 167 209 270 313 385
#     4  11  24  38  63  95 120 170 216 252 327 391
#     4  10  23  44  60  92 136 168 209 275 333 383
#     4  10  21  39  60  95 123 159 214 261 308 382
#
# _framework density 24.917853999999998
#
# number of rings (size 3 to 8) (size 9 to 14) (size 15 to 20)
#    0.000    2.000    1.250    0.750    5.250    1.000 
#    0.000    6.250    0.000    0.000    0.000    0.000 
#    0.000    0.000    0.000    0.000    0.000    0.000 
#
# Total GULP energy -178888.831754 kJ/mol
# GULP energy per Si atom -5590.275992 kJ/mol
# Density = 2.486114 g / cm^3
# Si number density = 24.917854 Si / 1000 Ang^3
#
#
#
# Elastic Constant Matrix: (Units=GPa)
#
#
# Indices 1 2 3 4 5 6 
#
# 1 40.7609 24.1735 35.1092 0.0000 0.0000 0.0000
# 2 24.1735 150.1306 31.1767 0.0000 0.0000 0.0000
# 3 35.1092 31.1767 147.1065 0.0000 0.0000 0.0000
# 4 0.0000 0.0000 0.0000 22.9695 0.0000 0.0000
# 5 0.0000 0.0000 0.0000 0.0000 34.6660 0.0000
# 6 0.0000 0.0000 0.0000 0.0000 0.0000 29.8350
#
#
#
# Elastic Compliance Matrix: (Units=1/GPa)
#
#
# Indices 1 2 3 4 5 6 
#
# 1 0.032861 -0.003831 -0.007031 0.000000 0.000000 0.000000
# 2 -0.003831 0.007414 -0.000657 0.000000 0.000000 0.000000
# 3 -0.007031 -0.000657 0.008615 0.000000 0.000000 0.000000
# 4 0.000000 0.000000 0.000000 0.043536 0.000000 0.000000
# 5 0.000000 0.000000 0.000000 0.000000 0.028847 0.000000
# 6 0.000000 0.000000 0.000000 0.000000 0.000000 0.033518
#
#
# Mechanical properties :
#
#
# Convention : Reuss Voigt Hill
#
# Bulk Modulus (GPa) = 38.68080 57.65741 48.16910
# Shear Modulus (GPa) = 26.81731 33.99667 30.40699
#
# Velocity S-wave (km/s) = 3.28415 3.69772 3.49705
# Velocity P-wave (km/s) = 5.47155 6.43584 5.97319
#
# Compressibility (1/GPa) = 0.02585262
#
# Stress axis : x y z
#
# Youngs Moduli (GPa) = 30.43077 134.87686 116.07578
#
# Poissons Ratio (x) = 0.51674 0.81612
# Poissons Ratio (y) = 0.11659 0.07625
# Poissons Ratio (z) = 0.21396 0.08861
#
# Static dielectric constant tensor:
#      x y z
#    x 2.028600 0.000000 0.000000 
#    y 0.000000 1.938630 0.000000 
#    z 0.000000 0.000000 2.008780 
# 
# From -- ./inp_files/5070.got.cif
#   From: 2010.05.17/outbox.cif.g08.bks.cpg/sg19_3_cif.got.tgz:5070.got - 2010.06.03 22:46:19.
