data_PCOD9314951
_publ_section_title
;
Structure prediction by ZEFSAII (Michael W. Deem and Ramdas Pophale) SiO2 
 PCOD9314951
Probable space group: P 21 21 21
;
_chemical_formula_sum "Si O2"
_cell_formula_units_Z 24
_cell_length_a 12.213698
_cell_length_b 7.799625
_cell_length_c 9.880285
_cell_angle_alpha 90.000000
_cell_angle_beta 90.000000
_cell_angle_gamma 90.000000
_cell_volume 941.218321
_symmetry_space_group_name_H-M "P 21 21 21"
_symmetry_group_IT_number 19
_symmetry_cell_setting 'orthorhombic'
loop_
_space_group_symop_operation_xyz
x,y,z
1/2-x,-y,1/2+z
1/2+x,1/2-y,-z
-x,1/2+y,1/2-z
loop_
_atom_site_type_symbol
_atom_site_label
_atom_site_fract_x
_atom_site_fract_y
_atom_site_fract_z
Si Si1 0.937189 0.579182 0.942815
Si Si2 0.965904 0.702114 0.244018
Si Si3 0.947572 0.727567 0.655068
Si Si4 0.283621 0.891399 0.564014
Si Si5 0.166892 0.534339 0.313771
Si Si6 0.337270 0.458827 0.111049
O O1 0.948759 0.709670 0.817505
O O2 0.807916 0.534929 0.953543
O O3 0.006942 0.408464 0.902626
O O4 0.974563 0.652585 0.086682
O O5 0.882713 0.581954 0.330259
O O6 0.085059 0.695151 0.313103
O O7 0.910147 0.888159 0.251341
O O8 0.838650 0.669069 0.576227
O O9 0.035454 0.579970 0.615054
O O10 0.215162 0.731041 0.621609
O O11 0.276052 0.558513 0.229016
O O12 0.194566 0.474204 0.463923
#
# Coordination Sequence:
#
# PCOD9314951 Si02
#       6
#     4   4   4   4   4   4
#     4  11  25  41  70 102 138 183 232 290 346 416
#     4  11  24  45  68 101 138 182 232 282 349 413
#     4  11  24  44  69 101 145 178 234 290 346 409
#     4  10  22  45  68  97 134 184 230 286 345 406
#     4  11  25  45  70 101 138 187 232 284 349 412
#     4  10  24  42  69  98 139 180 232 286 347 408
#
# _framework density 25.498866
#
# number of rings (size 3 to 8) (size 9 to 14) (size 15 to 20)
#    0.000    1.333    1.667    3.000    9.333    0.000 
#    3.000    0.000    0.000    0.000    0.000    0.000 
#    0.000    0.000    0.000    0.000    0.000    0.000 
#
# Total GULP energy -134425.386760 kJ/mol
# GULP energy per Si atom -5601.057782 kJ/mol
# Density = 2.544083 g / cm^3
# Si number density = 25.498866 Si / 1000 Ang^3
#
#
#
# Elastic Constant Matrix: (Units=GPa)
#
#
# Indices 1 2 3 4 5 6 
#
# 1 61.3007 5.4375 0.9625 0.0000 0.0000 0.0000
# 2 5.4375 73.3271 6.1839 0.0000 0.0000 0.0000
# 3 0.9625 6.1839 158.0395 0.0000 0.0000 0.0000
# 4 0.0000 0.0000 0.0000 35.7297 0.0000 0.0000
# 5 0.0000 0.0000 0.0000 0.0000 43.2059 0.0000
# 6 0.0000 0.0000 0.0000 0.0000 0.0000 33.3711
#
#
#
# Elastic Compliance Matrix: (Units=1/GPa)
#
#
# Indices 1 2 3 4 5 6 
#
# 1 0.016421 -0.001213 -0.000053 0.000000 0.000000 0.000000
# 2 -0.001213 0.013772 -0.000532 0.000000 0.000000 0.000000
# 3 -0.000053 -0.000532 0.006349 0.000000 0.000000 0.000000
# 4 0.000000 0.000000 0.000000 0.027988 0.000000 0.000000
# 5 0.000000 0.000000 0.000000 0.000000 0.023145 0.000000
# 6 0.000000 0.000000 0.000000 0.000000 0.000000 0.029966
#
#
# Mechanical properties :
#
#
# Convention : Reuss Voigt Hill
#
# Bulk Modulus (GPa) = 30.35104 35.31501 32.83303
# Shear Modulus (GPa) = 37.81615 41.13357 39.47486
#
# Velocity S-wave (km/s) = 3.85522 4.02076 3.93886
# Velocity P-wave (km/s) = 5.63433 5.95274 5.79572
#
# Compressibility (1/GPa) = 0.03294780
#
# Stress axis : x y z
#
# Youngs Moduli (GPa) = 60.89587 72.60940 157.51384
#
# Poissons Ratio (x) = 0.08810 0.00828
# Poissons Ratio (y) = 0.07388 0.08372
# Poissons Ratio (z) = 0.00320 0.03859
#
# Static dielectric constant tensor:
#      x y z
#    x 2.026850 0.000000 0.000000 
#    y 0.000000 2.080250 0.000000 
#    z 0.000000 0.000000 2.010420 
# 
# From -- ./inp_files/2687.got.cif
#   From: 2010.05.17/outbox.cif.g08.bks.cpg/sg19_2_cif.got.tgz:2687.got - 2010.06.03 22:46:19.
