data_PCOD9314436
_publ_section_title
;
Structure prediction by ZEFSAII (Michael W. Deem and Ramdas Pophale) SiO2 
 PCOD9314436
Probable space group: P 21 21 21
;
_chemical_formula_sum "Si O2"
_cell_formula_units_Z 28
_cell_length_a 6.459234
_cell_length_b 23.579200
_cell_length_c 7.789598
_cell_angle_alpha 90.000000
_cell_angle_beta 90.000000
_cell_angle_gamma 90.000000
_cell_volume 1186.383587
_symmetry_space_group_name_H-M "P 21 21 21"
_symmetry_group_IT_number 19
_symmetry_cell_setting 'orthorhombic'
loop_
_space_group_symop_operation_xyz
x,y,z
1/2-x,-y,1/2+z
1/2+x,1/2-y,-z
-x,1/2+y,1/2-z
loop_
_atom_site_type_symbol
_atom_site_label
_atom_site_fract_x
_atom_site_fract_y
_atom_site_fract_z
Si Si1 0.775810 0.293496 0.718146
Si Si2 0.480342 0.362571 0.925920
Si Si3 0.967875 0.182593 0.597795
Si Si4 0.151637 0.376976 0.630172
Si Si5 0.046228 0.487594 0.780689
Si Si6 0.284402 0.915437 0.289984
Si Si7 0.160341 0.419320 0.126437
O O1 0.627472 0.310027 0.878310
O O2 0.901108 0.235114 0.715625
O O3 0.617730 0.294365 0.555331
O O4 0.955651 0.341006 0.698352
O O5 0.355855 0.378993 0.754623
O O6 0.630915 0.408785 0.014201
O O7 0.290097 0.365373 0.059821
O O8 0.755584 0.154642 0.528698
O O9 0.099042 0.132941 0.684434
O O10 0.070498 0.441120 0.631018
O O11 0.205682 0.538349 0.741418
O O12 0.832172 0.521719 0.776247
O O13 0.093944 0.455808 0.957775
O O14 0.046495 0.901715 0.283000
#
# Coordination Sequence:
#
# PCOD9314436 Si02
#       7
#     4   4   4   4   4   4   4
#     4  11  22  44  68  95 133 183 230 284 343 405
#     4   9  21  41  64  92 132 176 218 274 342 402
#     4  11  24  42  68 100 133 177 239 285 342 411
#     4  10  21  41  66  96 134 178 227 281 331 413
#     4  10  22  39  67  96 136 176 221 277 343 411
#     4  11  24  42  65 102 136 176 227 282 348 414
#     4  10  22  41  62  99 140 176 224 279 339 416
#
# _framework density 23.601137000000001
#
# number of rings (size 3 to 8) (size 9 to 14) (size 15 to 20)
#    0.000    1.714    1.429    2.571    0.000   11.429 
#    2.571    0.000    0.000    0.000    0.000    0.000 
#    0.000    0.000    0.000    0.000    0.000    0.000 
#
# Total GULP energy -156344.481960 kJ/mol
# GULP energy per Si atom -5583.731499 kJ/mol
# Density = 2.354742 g / cm^3
# Si number density = 23.601137 Si / 1000 Ang^3
#
#
#
# Elastic Constant Matrix: (Units=GPa)
#
#
# Indices 1 2 3 4 5 6 
#
# 1 113.0659 29.2168 10.9353 0.0000 0.0000 0.0000
# 2 29.2168 113.5463 15.8860 0.0000 0.0000 0.0000
# 3 10.9353 15.8860 50.4613 0.0000 0.0000 0.0000
# 4 0.0000 0.0000 0.0000 32.8181 0.0000 0.0000
# 5 0.0000 0.0000 0.0000 0.0000 37.9105 0.0000
# 6 0.0000 0.0000 0.0000 0.0000 0.0000 30.3747
#
#
#
# Elastic Compliance Matrix: (Units=1/GPa)
#
#
# Indices 1 2 3 4 5 6 
#
# 1 0.009562 -0.002271 -0.001357 0.000000 0.000000 0.000000
# 2 -0.002271 0.009752 -0.002578 0.000000 0.000000 0.000000
# 3 -0.001357 -0.002578 0.020923 0.000000 0.000000 0.000000
# 4 0.000000 0.000000 0.000000 0.030471 0.000000 0.000000
# 5 0.000000 0.000000 0.000000 0.000000 0.026378 0.000000
# 6 0.000000 0.000000 0.000000 0.000000 0.000000 0.032922
#
#
# Mechanical properties :
#
#
# Convention : Reuss Voigt Hill
#
# Bulk Modulus (GPa) = 35.93865 43.23887 39.58876
# Shear Modulus (GPa) = 32.96078 34.95636 33.95857
#
# Velocity S-wave (km/s) = 3.74113 3.85272 3.79734
# Velocity P-wave (km/s) = 5.82426 6.17671 6.00307
#
# Compressibility (1/GPa) = 0.02782519
#
# Stress axis : x y z
#
# Youngs Moduli (GPa) = 104.57605 102.54395 47.79448
#
# Poissons Ratio (x) = 0.23284 0.06488
# Poissons Ratio (y) = 0.23745 0.12321
# Poissons Ratio (z) = 0.14195 0.26436
#
# Static dielectric constant tensor:
#      x y z
#    x 1.915580 0.000000 0.000000 
#    y 0.000000 1.840360 0.000000 
#    z 0.000000 0.000000 2.020920 
# 
# From -- ./inp_files/2435.got.cif
#   From: 2010.05.17/outbox.cif.g08.bks.cpg/sg19_2_cif.got.tgz:2435.got - 2010.06.03 22:46:19.
