data_PCOD9314919
_publ_section_title
;
Structure prediction by ZEFSAII (Michael W. Deem and Ramdas Pophale) SiO2 
 PCOD9314919
Probable space group: P 21 21 21
;
_chemical_formula_sum "Si O2"
_cell_formula_units_Z 32
_cell_length_a 8.622148
_cell_length_b 5.184601
_cell_length_c 31.378884
_cell_angle_alpha 90.000000
_cell_angle_beta 90.000000
_cell_angle_gamma 90.000000
_cell_volume 1402.711334
_symmetry_space_group_name_H-M "P 21 21 21"
_symmetry_group_IT_number 19
_symmetry_cell_setting 'orthorhombic'
loop_
_space_group_symop_operation_xyz
x,y,z
1/2-x,-y,1/2+z
1/2+x,1/2-y,-z
-x,1/2+y,1/2-z
loop_
_atom_site_type_symbol
_atom_site_label
_atom_site_fract_x
_atom_site_fract_y
_atom_site_fract_z
Si Si1 0.985949 0.917462 0.555831
Si Si2 0.422176 0.982371 0.232586
Si Si3 0.219505 0.527872 0.571869
Si Si4 0.935692 0.650296 0.366501
Si Si5 0.980298 0.238960 0.475133
Si Si6 0.629107 0.345386 0.363862
Si Si7 0.576897 0.301437 0.768245
Si Si8 0.861967 0.235891 0.062044
O O1 0.818477 0.793254 0.552604
O O2 0.125147 0.726301 0.543339
O O3 0.982569 0.163558 0.524702
O O4 0.031813 0.975721 0.604441
O O5 0.468763 0.732523 0.260394
O O6 0.424543 0.877921 0.184084
O O7 0.249304 0.091647 0.240941
O O8 0.349404 0.673997 0.598959
O O9 0.308662 0.315756 0.543824
O O10 0.114597 0.417530 0.610074
O O11 0.815411 0.409413 0.364340
O O12 0.937968 0.753598 0.318688
O O13 0.103140 0.646946 0.388704
O O14 0.037733 0.519954 0.462931
O O15 0.086826 0.023032 0.451598
O O16 0.536553 0.037980 0.743938
#
# Coordination Sequence:
#
# PCOD9314919 Si02
#       8
#     4   4   4   4   4   4   4   4
#     4  11  26  38  67 102 134 170 229 286 331 389
#     4  11  26  46  72 102 140 180 227 283 348 414
#     4  10  22  44  68  94 131 191 223 272 335 427
#     4   9  22  43  68  91 135 180 225 267 344 414
#     4  11  25  43  66  94 138 178 225 269 342 402
#     4  10  23  43  71  93 136 182 227 268 352 412
#     4  11  25  42  71 104 136 175 226 282 344 409
#     4  11  25  43  65  98 130 176 224 285 326 391
#
# _framework density 22.812961999999999
#
# number of rings (size 3 to 8) (size 9 to 14) (size 15 to 20)
#    0.000    1.500    1.250    1.500   14.000    2.000 
#    0.000    0.000    0.000    0.000    0.000    0.000 
#    0.000    0.000    0.000    0.000    0.000    0.000 
#
# Total GULP energy -178729.544823 kJ/mol
# GULP energy per Si atom -5585.298276 kJ/mol
# Density = 2.276104 g / cm^3
# Si number density = 22.812962 Si / 1000 Ang^3
#
#
#
# Elastic Constant Matrix: (Units=GPa)
#
#
# Indices 1 2 3 4 5 6 
#
# 1 72.9488 6.1254 35.4383 0.0000 0.0000 0.0000
# 2 6.1254 83.5082 19.2051 0.0000 0.0000 0.0000
# 3 35.4383 19.2051 85.7453 0.0000 0.0000 0.0000
# 4 0.0000 0.0000 0.0000 29.2997 0.0000 0.0000
# 5 0.0000 0.0000 0.0000 0.0000 27.0677 0.0000
# 6 0.0000 0.0000 0.0000 0.0000 0.0000 31.7830
#
#
#
# Elastic Compliance Matrix: (Units=1/GPa)
#
#
# Indices 1 2 3 4 5 6 
#
# 1 0.017164 0.000393 -0.007182 0.000000 0.000000 0.000000
# 2 0.000393 0.012634 -0.002992 0.000000 0.000000 0.000000
# 3 -0.007182 -0.002992 0.015301 0.000000 0.000000 0.000000
# 4 0.000000 0.000000 0.000000 0.034130 0.000000 0.000000
# 5 0.000000 0.000000 0.000000 0.000000 0.036944 0.000000
# 6 0.000000 0.000000 0.000000 0.000000 0.000000 0.031463
#
#
# Mechanical properties :
#
#
# Convention : Reuss Voigt Hill
#
# Bulk Modulus (GPa) = 39.15933 40.41553 39.78743
# Shear Modulus (GPa) = 28.45571 29.72567 29.09069
#
# Velocity S-wave (km/s) = 3.53561 3.61365 3.57484
# Velocity P-wave (km/s) = 5.81980 5.93007 5.87520
#
# Compressibility (1/GPa) = 0.02553670
#
# Stress axis : x y z
#
# Youngs Moduli (GPa) = 58.26087 79.15035 65.35590
#
# Poissons Ratio (x) = -0.03108 0.46938
# Poissons Ratio (y) = -0.02288 0.19555
# Poissons Ratio (z) = 0.41842 0.23682
#
# Static dielectric constant tensor:
#      x y z
#    x 1.919850 0.000000 0.000000 
#    y 0.000000 1.889960 0.000000 
#    z 0.000000 0.000000 1.834700 
# 
# From -- ./inp_files/706.got.cif
#   From: 2010.05.17/outbox.cif.g08.bks.cpg/sg19_1_cif.got.tgz:706.got - 2010.06.03 22:46:19.
