data_PCOD9314483
_publ_section_title
;
Structure prediction by ZEFSAII (Michael W. Deem and Ramdas Pophale) SiO2 
 PCOD9314483
Probable space group: P 21 21 21
;
_chemical_formula_sum "Si O2"
_cell_formula_units_Z 28
_cell_length_a 12.442129
_cell_length_b 12.296760
_cell_length_c 8.095873
_cell_angle_alpha 90.000000
_cell_angle_beta 90.000000
_cell_angle_gamma 90.000000
_cell_volume 1238.651359
_symmetry_space_group_name_H-M "P 21 21 21"
_symmetry_group_IT_number 19
_symmetry_cell_setting 'orthorhombic'
loop_
_space_group_symop_operation_xyz
x,y,z
1/2-x,-y,1/2+z
1/2+x,1/2-y,-z
-x,1/2+y,1/2-z
loop_
_atom_site_type_symbol
_atom_site_label
_atom_site_fract_x
_atom_site_fract_y
_atom_site_fract_z
Si Si1 0.913177 0.270858 0.231991
Si Si2 0.529704 0.973588 0.137959
Si Si3 0.391125 0.820405 0.901788
Si Si4 0.687745 0.812517 0.067034
Si Si5 0.550988 0.714844 0.374977
Si Si6 0.186067 0.988652 0.204284
Si Si7 0.615818 0.395885 0.125069
O O1 0.846435 0.217471 0.380433
O O2 0.906649 0.399302 0.271699
O O3 0.883068 0.253168 0.040916
O O4 0.030000 0.219553 0.257505
O O5 0.651675 0.936318 0.107900
O O6 0.491777 0.962435 0.327077
O O7 0.482798 0.090166 0.094840
O O8 0.467945 0.876340 0.038164
O O9 0.312045 0.720540 0.932963
O O10 0.318047 0.919575 0.842851
O O11 0.294413 0.920671 0.235637
O O12 0.621938 0.742552 0.210895
O O13 0.435860 0.776953 0.373428
O O14 0.168464 0.056494 0.038725
#
# Coordination Sequence:
#
# PCOD9314483 Si02
#       7
#     4   4   4   4   4   4   4
#     4  11  23  39  65  94 130 167 216 268 325 390
#     4  10  21  42  67  89 131 175 210 274 331 385
#     4  11  22  42  64  93 130 166 219 271 320 391
#     4  10  24  40  63  97 132 167 217 274 323 385
#     4  11  22  42  66  96 131 170 217 270 329 391
#     4  12  22  38  64  97 123 167 218 266 326 383
#     4  11  24  39  65 100 129 166 225 273 326 393
#
# _framework density 22.605232000000001
#
# number of rings (size 3 to 8) (size 9 to 14) (size 15 to 20)
#    0.000    1.143    2.857    4.286    2.000    0.000 
#    0.000    1.429   15.714    0.000    0.000    0.000 
#    0.000    0.000    0.000    0.000    0.000    0.000 
#
# Total GULP energy -155965.246149 kJ/mol
# GULP energy per Si atom -5570.187362 kJ/mol
# Density = 2.255378 g / cm^3
# Si number density = 22.605232 Si / 1000 Ang^3
#
#
#
# Elastic Constant Matrix: (Units=GPa)
#
#
# Indices 1 2 3 4 5 6 
#
# 1 31.0747 9.3901 -0.0268 0.0000 0.0000 0.0000
# 2 9.3901 38.3510 26.0057 0.0000 0.0000 0.0000
# 3 -0.0268 26.0057 85.0100 0.0000 0.0000 0.0000
# 4 0.0000 0.0000 0.0000 15.3923 0.0000 0.0000
# 5 0.0000 0.0000 0.0000 0.0000 19.6317 0.0000
# 6 0.0000 0.0000 0.0000 0.0000 0.0000 47.8821
#
#
#
# Elastic Compliance Matrix: (Units=1/GPa)
#
#
# Indices 1 2 3 4 5 6 
#
# 1 0.035500 -0.010977 0.003369 0.000000 0.000000 0.000000
# 2 -0.010977 0.036294 -0.011106 0.000000 0.000000 0.000000
# 3 0.003369 -0.011106 0.015162 0.000000 0.000000 0.000000
# 4 0.000000 0.000000 0.000000 0.064968 0.000000 0.000000
# 5 0.000000 0.000000 0.000000 0.000000 0.050938 0.000000
# 6 0.000000 0.000000 0.000000 0.000000 0.000000 0.020885
#
#
# Mechanical properties :
#
#
# Convention : Reuss Voigt Hill
#
# Bulk Modulus (GPa) = 20.19046 25.01930 22.60488
# Shear Modulus (GPa) = 18.00616 24.51901 21.26259
#
# Velocity S-wave (km/s) = 2.82538 3.29699 3.07026
# Velocity P-wave (km/s) = 4.42661 5.05821 4.75291
#
# Compressibility (1/GPa) = 0.04952835
#
# Stress axis : x y z
#
# Youngs Moduli (GPa) = 28.16879 27.55311 65.95476
#
# Poissons Ratio (x) = 0.30244 -0.22221
# Poissons Ratio (y) = 0.30920 0.73250
# Poissons Ratio (z) = -0.09490 0.30601
#
# Static dielectric constant tensor:
#      x y z
#    x 1.955140 0.000000 0.000000 
#    y 0.000000 1.875990 0.000000 
#    z 0.000000 0.000000 1.924490 
# 
# From -- ./inp_files/3890.got.cif
#   From: 2010.05.17/outbox.cif.g08.bks.cpg/sg19_2_cif.got.tgz:3890.got - 2010.06.03 22:46:19.
