data_PCOD9314174
_publ_section_title
;
Structure prediction by ZEFSAII (Michael W. Deem and Ramdas Pophale) SiO2 
 PCOD9314174
Probable space group: P 21 21 21
;
_chemical_formula_sum "Si O2"
_cell_formula_units_Z 32
_cell_length_a 15.562061
_cell_length_b 8.183429
_cell_length_c 9.663458
_cell_angle_alpha 90.000000
_cell_angle_beta 90.000000
_cell_angle_gamma 90.000000
_cell_volume 1230.651245
_symmetry_space_group_name_H-M "P 21 21 21"
_symmetry_group_IT_number 19
_symmetry_cell_setting 'orthorhombic'
loop_
_space_group_symop_operation_xyz
x,y,z
1/2-x,-y,1/2+z
1/2+x,1/2-y,-z
-x,1/2+y,1/2-z
loop_
_atom_site_type_symbol
_atom_site_label
_atom_site_fract_x
_atom_site_fract_y
_atom_site_fract_z
Si Si1 0.060537 0.126600 0.450301
Si Si2 0.857399 0.116080 0.882722
Si Si3 0.409488 0.583829 0.465650
Si Si4 0.726971 0.593888 0.531149
Si Si5 0.405872 0.960703 0.539399
Si Si6 0.484617 0.187896 0.302347
Si Si7 0.928580 0.976747 0.162839
Si Si8 0.254941 0.614902 0.286174
O O1 0.078571 0.282136 0.354178
O O2 0.048484 0.208266 0.602087
O O3 0.140309 0.006042 0.448592
O O4 0.967490 0.034325 0.438173
O O5 0.794281 0.260612 0.925282
O O6 0.913136 0.194313 0.761227
O O7 0.914241 0.075085 0.016457
O O8 0.808181 0.951912 0.842289
O O9 0.405008 0.764830 0.528616
O O10 0.466539 0.614184 0.328038
O O11 0.314067 0.538305 0.412155
O O12 0.805550 0.492723 0.467842
O O13 0.751886 0.694700 0.671161
O O14 0.442163 0.054579 0.403427
O O15 0.466930 0.004346 0.669157
O O16 0.840960 0.044239 0.231582
#
# Coordination Sequence:
#
# PCOD9314174 Si02
#       8
#     4   4   4   4   4   4   4   4
#     4  11  21  32  55  89 126 151 189 256 313 366
#     4  11  20  39  60  91 122 160 204 256 313 360
#     4  11  18  33  57  90 116 152 197 258 321 351
#     4  10  23  37  57  88 131 162 197 252 313 377
#     4  10  21  36  56  83 125 163 200 250 311 363
#     4  11  20  33  60  92 121 151 201 265 315 363
#     4  10  22  37  56  89 127 161 204 255 300 366
#     4  10  21  37  59  84 122 164 204 250 310 368
#
# _framework density 26.002493000000001
#
# number of rings (size 3 to 8) (size 9 to 14) (size 15 to 20)
#    0.000    1.500    3.750    3.000    1.750    1.000 
#    0.000    0.000    0.000    7.500    0.000    0.000 
#    0.000    0.000    0.000    0.000    0.000    0.000 
#
# Total GULP energy -178826.159609 kJ/mol
# GULP energy per Si atom -5588.317488 kJ/mol
# Density = 2.594331 g / cm^3
# Si number density = 26.002493 Si / 1000 Ang^3
#
#
#
# Elastic Constant Matrix: (Units=GPa)
#
#
# Indices 1 2 3 4 5 6 
#
# 1 191.1366 31.8265 20.9404 0.0000 0.0000 0.0000
# 2 31.8265 55.5969 -4.7790 0.0000 0.0000 0.0000
# 3 20.9404 -4.7790 29.9384 0.0000 0.0000 0.0000
# 4 0.0000 0.0000 0.0000 22.9794 0.0000 0.0000
# 5 0.0000 0.0000 0.0000 0.0000 26.1460 0.0000
# 6 0.0000 0.0000 0.0000 0.0000 0.0000 60.6513
#
#
#
# Elastic Compliance Matrix: (Units=1/GPa)
#
#
# Indices 1 2 3 4 5 6 
#
# 1 0.006496 -0.004167 -0.005209 0.000000 0.000000 0.000000
# 2 -0.004167 0.020909 0.006252 0.000000 0.000000 0.000000
# 3 -0.005209 0.006252 0.038043 0.000000 0.000000 0.000000
# 4 0.000000 0.000000 0.000000 0.043517 0.000000 0.000000
# 5 0.000000 0.000000 0.000000 0.000000 0.038247 0.000000
# 6 0.000000 0.000000 0.000000 0.000000 0.000000 0.016488
#
#
# Mechanical properties :
#
#
# Convention : Reuss Voigt Hill
#
# Bulk Modulus (GPa) = 16.89141 41.40531 29.14836
# Shear Modulus (GPa) = 26.35998 37.20094 31.78046
#
# Velocity S-wave (km/s) = 3.18740 3.78652 3.49980
# Velocity P-wave (km/s) = 4.47841 5.92243 5.25030
#
# Compressibility (1/GPa) = 0.05920170
#
# Stress axis : x y z
#
# Youngs Moduli (GPa) = 153.93320 47.82590 26.28586
#
# Poissons Ratio (x) = 0.19927 0.13692
# Poissons Ratio (y) = 0.64137 -0.16434
# Poissons Ratio (z) = 0.80183 -0.29901
#
# Static dielectric constant tensor:
#      x y z
#    x 2.171690 0.000000 0.000000 
#    y 0.000000 2.033520 0.000000 
#    z 0.000000 0.000000 2.288680 
# 
# From -- ./inp_files/6267.got.cif
#   From: 2010.05.17/outbox.cif.g08.bks.cpg/sg19_4_cif.got.tgz:6267.got - 2010.06.03 22:46:19.
