data_PCOD9314819
_publ_section_title
;
Structure prediction by ZEFSAII (Michael W. Deem and Ramdas Pophale) SiO2 
 PCOD9314819
Probable space group: P 21 21 21
;
_chemical_formula_sum "Si O2"
_cell_formula_units_Z 32
_cell_length_a 9.349156
_cell_length_b 12.824918
_cell_length_c 11.054706
_cell_angle_alpha 90.000000
_cell_angle_beta 90.000000
_cell_angle_gamma 90.000000
_cell_volume 1325.483117
_symmetry_space_group_name_H-M "P 21 21 21"
_symmetry_group_IT_number 19
_symmetry_cell_setting 'orthorhombic'
loop_
_space_group_symop_operation_xyz
x,y,z
1/2-x,-y,1/2+z
1/2+x,1/2-y,-z
-x,1/2+y,1/2-z
loop_
_atom_site_type_symbol
_atom_site_label
_atom_site_fract_x
_atom_site_fract_y
_atom_site_fract_z
Si Si1 0.679123 0.978932 0.053891
Si Si2 0.960382 0.600931 0.128536
Si Si3 0.707677 0.230401 0.494975
Si Si4 0.142514 0.901488 0.145512
Si Si5 0.525666 0.928138 0.494932
Si Si6 0.653249 0.524836 0.221501
Si Si7 0.614637 0.768943 0.668556
Si Si8 0.104370 0.353239 0.761867
O O1 0.809213 0.038572 0.989044
O O2 0.646679 0.036330 0.178470
O O3 0.547312 0.972584 0.961702
O O4 0.727438 0.860613 0.075370
O O5 0.810370 0.553568 0.171762
O O6 0.063291 0.642502 0.235107
O O7 0.912403 0.704961 0.060277
O O8 0.825443 0.313634 0.453425
O O9 0.647354 0.175054 0.374447
O O10 0.043240 0.991194 0.092517
O O11 0.299877 0.950294 0.169341
O O12 0.086538 0.841141 0.265527
O O13 0.438013 0.958226 0.375199
O O14 0.534640 0.809841 0.548104
O O15 0.566722 0.629012 0.259163
O O16 0.788563 0.777491 0.662489
#
# Coordination Sequence:
#
# PCOD9314819 Si02
#       8
#     4   4   4   4   4   4   4   4
#     4  11  23  40  66  95 134 174 225 272 337 403
#     4  12  22  38  68 101 127 174 228 277 334 399
#     4  11  22  40  68  98 131 174 229 276 331 407
#     4  11  22  42  65  98 132 174 225 289 324 398
#     4  11  22  44  68  95 136 183 220 277 351 401
#     4  12  24  40  67  98 139 167 222 291 346 388
#     4  10  22  42  67  92 135 181 227 270 332 413
#     4  10  23  40  61  99 132 169 218 278 335 397
#
# _framework density 24.142140999999999
#
# number of rings (size 3 to 8) (size 9 to 14) (size 15 to 20)
#    0.000    1.000    6.250    1.500    1.750    0.000 
#    0.000    3.750    2.750    0.000    0.000    0.000 
#    0.000    0.000    0.000    0.000    0.000    0.000 
#
# Total GULP energy -178646.947475 kJ/mol
# GULP energy per Si atom -5582.717109 kJ/mol
# Density = 2.408719 g / cm^3
# Si number density = 24.142141 Si / 1000 Ang^3
#
#
#
# Elastic Constant Matrix: (Units=GPa)
#
#
# Indices 1 2 3 4 5 6 
#
# 1 129.8227 10.3138 28.2242 0.0000 0.0000 0.0000
# 2 10.3138 42.1394 8.6024 0.0000 0.0000 0.0000
# 3 28.2242 8.6024 37.5196 0.0000 0.0000 0.0000
# 4 0.0000 0.0000 0.0000 49.1208 0.0000 0.0000
# 5 0.0000 0.0000 0.0000 0.0000 40.0999 0.0000
# 6 0.0000 0.0000 0.0000 0.0000 0.0000 19.9673
#
#
#
# Elastic Compliance Matrix: (Units=1/GPa)
#
#
# Indices 1 2 3 4 5 6 
#
# 1 0.009240 -0.000884 -0.006748 0.000000 0.000000 0.000000
# 2 -0.000884 0.024981 -0.005063 0.000000 0.000000 0.000000
# 3 -0.006748 -0.005063 0.032890 0.000000 0.000000 0.000000
# 4 0.000000 0.000000 0.000000 0.020358 0.000000 0.000000
# 5 0.000000 0.000000 0.000000 0.000000 0.024938 0.000000
# 6 0.000000 0.000000 0.000000 0.000000 0.000000 0.050082
#
#
# Mechanical properties :
#
#
# Convention : Reuss Voigt Hill
#
# Bulk Modulus (GPa) = 23.96869 33.75139 28.86004
# Shear Modulus (GPa) = 24.77888 32.66036 28.71962
#
# Velocity S-wave (km/s) = 3.20718 3.68208 3.45281
# Velocity P-wave (km/s) = 4.86461 5.66459 5.27977
#
# Compressibility (1/GPa) = 0.04172109
#
# Stress axis : x y z
#
# Youngs Moduli (GPa) = 108.22344 40.03104 30.40450
#
# Poissons Ratio (x) = 0.03539 0.20518
# Poissons Ratio (y) = 0.09566 0.15392
# Poissons Ratio (z) = 0.73032 0.20266
#
# Static dielectric constant tensor:
#      x y z
#    x 1.964530 0.000000 0.000000 
#    y 0.000000 1.987250 0.000000 
#    z 0.000000 0.000000 1.993980 
# 
# From -- ./inp_files/4744.got.cif
#   From: 2010.05.17/outbox.cif.g08.bks.cpg/sg19_3_cif.got.tgz:4744.got - 2010.06.03 22:46:19.
