data_PCOD9314135
_publ_section_title
;
Structure prediction by ZEFSAII (Michael W. Deem and Ramdas Pophale) SiO2 
 PCOD9314135
Probable space group: P 21 21 21
;
_chemical_formula_sum "Si O2"
_cell_formula_units_Z 20
_cell_length_a 7.537953
_cell_length_b 14.892196
_cell_length_c 6.896002
_cell_angle_alpha 90.000000
_cell_angle_beta 90.000000
_cell_angle_gamma 90.000000
_cell_volume 774.122245
_symmetry_space_group_name_H-M "P 21 21 21"
_symmetry_group_IT_number 19
_symmetry_cell_setting 'orthorhombic'
loop_
_space_group_symop_operation_xyz
x,y,z
1/2-x,-y,1/2+z
1/2+x,1/2-y,-z
-x,1/2+y,1/2-z
loop_
_atom_site_type_symbol
_atom_site_label
_atom_site_fract_x
_atom_site_fract_y
_atom_site_fract_z
Si Si1 0.289028 0.718565 0.465262
Si Si2 0.721909 0.072097 0.745863
Si Si3 0.008897 0.941231 0.580151
Si Si4 0.280355 0.855767 0.795381
Si Si5 0.643597 0.796697 0.951584
O O1 0.194925 0.640538 0.594784
O O2 0.471271 0.665617 0.421967
O O3 0.329477 0.801203 0.601246
O O4 0.200806 0.733111 0.261055
O O5 0.718875 0.135210 0.556921
O O6 0.852948 0.992027 0.694688
O O7 0.540848 0.040521 0.852138
O O8 0.186831 0.945185 0.708755
O O9 0.457741 0.850479 0.929097
O O10 0.147748 0.793116 0.921093
#
# Coordination Sequence:
#
# PCOD9314135 Si02
#       5
#     4   4   4   4   4
#     4   9  21  39  66  94 136 166 228 273 338 403
#     4   9  22  40  66  97 134 176 224 281 329 419
#     4  10  20  43  68  93 135 178 227 267 350 390
#     4  11  23  40  69 102 129 180 221 290 328 409
#     4  11  22  42  67  98 136 172 228 277 343 389
#
# _framework density 25.835709999999999
#
# number of rings (size 3 to 8) (size 9 to 14) (size 15 to 20)
#    1.200    0.800    0.000    3.600    0.000    3.200 
#    3.600    0.000    0.000    0.000    0.000    0.000 
#    0.000    0.000    0.000    0.000    0.000    0.000 
#
# Total GULP energy -111382.068078 kJ/mol
# GULP energy per Si atom -5569.103404 kJ/mol
# Density = 2.577691 g / cm^3
# Si number density = 25.835710 Si / 1000 Ang^3
#
#
#
# Elastic Constant Matrix: (Units=GPa)
#
#
# Indices 1 2 3 4 5 6 
#
# 1 113.2135 14.8769 44.3446 0.0000 0.0000 0.0000
# 2 14.8769 37.3970 27.3354 0.0000 0.0000 0.0000
# 3 44.3446 27.3354 165.3151 0.0000 0.0000 0.0000
# 4 0.0000 0.0000 0.0000 35.1576 0.0000 0.0000
# 5 0.0000 0.0000 0.0000 0.0000 37.1660 0.0000
# 6 0.0000 0.0000 0.0000 0.0000 0.0000 28.7327
#
#
#
# Elastic Compliance Matrix: (Units=1/GPa)
#
#
# Indices 1 2 3 4 5 6 
#
# 1 0.010041 -0.002304 -0.002313 0.000000 0.000000 0.000000
# 2 -0.002304 0.030945 -0.004499 0.000000 0.000000 0.000000
# 3 -0.002313 -0.004499 0.007413 0.000000 0.000000 0.000000
# 4 0.000000 0.000000 0.000000 0.028443 0.000000 0.000000
# 5 0.000000 0.000000 0.000000 0.000000 0.026906 0.000000
# 6 0.000000 0.000000 0.000000 0.000000 0.000000 0.034804
#
#
# Mechanical properties :
#
#
# Convention : Reuss Voigt Hill
#
# Bulk Modulus (GPa) = 33.14687 54.33771 43.74229
# Shear Modulus (GPa) = 29.96875 35.50251 32.73563
#
# Velocity S-wave (km/s) = 3.40953 3.71099 3.56345
# Velocity P-wave (km/s) = 5.32519 6.28010 5.82225
#
# Compressibility (1/GPa) = 0.03016876
#
# Stress axis : x y z
#
# Youngs Moduli (GPa) = 99.58714 32.31524 134.89324
#
# Poissons Ratio (x) = 0.07446 0.31195
# Poissons Ratio (y) = 0.22947 0.60686
# Poissons Ratio (z) = 0.23030 0.14538
#
# Static dielectric constant tensor:
#      x y z
#    x 2.177950 0.000000 0.000000 
#    y 0.000000 2.091840 0.000000 
#    z 0.000000 0.000000 2.005960 
# 
# From -- ./inp_files/449.got.cif
#   From: 2010.05.17/outbox.cif.g08.bks.cpg/sg19_1_cif.got.tgz:449.got - 2010.06.03 22:46:19.
