data_PCOD9314250
_publ_section_title
;
Structure prediction by ZEFSAII (Michael W. Deem and Ramdas Pophale) SiO2 
 PCOD9314250
Probable space group: P 21 21 21
;
_chemical_formula_sum "Si O2"
_cell_formula_units_Z 20
_cell_length_a 7.869915
_cell_length_b 8.397760
_cell_length_c 12.898113
_cell_angle_alpha 90.000000
_cell_angle_beta 90.000000
_cell_angle_gamma 90.000000
_cell_volume 852.431869
_symmetry_space_group_name_H-M "P 21 21 21"
_symmetry_group_IT_number 19
_symmetry_cell_setting 'orthorhombic'
loop_
_space_group_symop_operation_xyz
x,y,z
1/2-x,-y,1/2+z
1/2+x,1/2-y,-z
-x,1/2+y,1/2-z
loop_
_atom_site_type_symbol
_atom_site_label
_atom_site_fract_x
_atom_site_fract_y
_atom_site_fract_z
Si Si1 0.636245 0.308946 0.116446
Si Si2 0.844735 0.997671 0.968755
Si Si3 0.858431 0.774249 0.166923
Si Si4 0.998723 0.925808 0.375296
Si Si5 0.017252 0.896494 0.771571
O O1 0.509626 0.388436 0.034212
O O2 0.831214 0.334514 0.089926
O O3 0.572482 0.143835 0.164046
O O4 0.602503 0.429797 0.215464
O O5 0.668323 0.087558 0.946798
O O6 0.880305 0.893201 0.864675
O O7 0.844323 0.890014 0.069286
O O8 0.952937 0.612102 0.133309
O O9 0.672314 0.722382 0.206301
O O10 0.950766 0.859067 0.262377
#
# Coordination Sequence:
#
# PCOD9314250 Si02
#       5
#     4   4   4   4   4
#     4   9  20  36  58  89 119 160 201 249 302 351
#     4  10  21  38  62  87 124 156 210 242 297 370
#     4  11  21  39  65  90 123 163 203 248 309 361
#     4  11  22  37  67  89 122 163 202 250 307 358
#     4   9  18  36  58  85 120 160 194 257 295 350
#
# _framework density 23.462284
#
# number of rings (size 3 to 8) (size 9 to 14) (size 15 to 20)
#    1.200    0.800    2.000    2.400    0.000    0.000 
#    3.600    0.000   17.600    0.000    0.000    0.000 
#    0.000    0.000    0.000    0.000    0.000    0.000 
#
# Total GULP energy -111826.769658 kJ/mol
# GULP energy per Si atom -5591.338483 kJ/mol
# Density = 2.340888 g / cm^3
# Si number density = 23.462284 Si / 1000 Ang^3
#
#
#
# Elastic Constant Matrix: (Units=GPa)
#
#
# Indices 1 2 3 4 5 6 
#
# 1 168.3334 16.1267 23.5055 0.0000 0.0000 0.0000
# 2 16.1267 36.4487 8.3128 0.0000 0.0000 0.0000
# 3 23.5055 8.3128 57.1912 0.0000 0.0000 0.0000
# 4 0.0000 0.0000 0.0000 45.1101 0.0000 0.0000
# 5 0.0000 0.0000 0.0000 0.0000 33.0056 0.0000
# 6 0.0000 0.0000 0.0000 0.0000 0.0000 52.6971
#
#
#
# Elastic Compliance Matrix: (Units=1/GPa)
#
#
# Indices 1 2 3 4 5 6 
#
# 1 0.006490 -0.002341 -0.002327 0.000000 0.000000 0.000000
# 2 -0.002341 0.029221 -0.003285 0.000000 0.000000 0.000000
# 3 -0.002327 -0.003285 0.018919 0.000000 0.000000 0.000000
# 4 0.000000 0.000000 0.000000 0.022168 0.000000 0.000000
# 5 0.000000 0.000000 0.000000 0.000000 0.030298 0.000000
# 6 0.000000 0.000000 0.000000 0.000000 0.000000 0.018976
#
#
# Mechanical properties :
#
#
# Convention : Reuss Voigt Hill
#
# Bulk Modulus (GPa) = 25.82401 39.76257 32.79329
# Shear Modulus (GPa) = 32.28188 40.43113 36.35650
#
# Velocity S-wave (km/s) = 3.71334 4.15570 3.94073
# Velocity P-wave (km/s) = 5.42363 6.32540 5.89179
#
# Compressibility (1/GPa) = 0.03872366
#
# Stress axis : x y z
#
# Youngs Moduli (GPa) = 154.08858 34.22232 52.85650
#
# Poissons Ratio (x) = 0.08010 0.12300
# Poissons Ratio (y) = 0.36067 0.17365
# Poissons Ratio (z) = 0.35857 0.11243
#
# Static dielectric constant tensor:
#      x y z
#    x 1.866390 0.000000 0.000000 
#    y 0.000000 1.954130 0.000000 
#    z 0.000000 0.000000 1.836320 
# 
# From -- ./inp_files/3805.got.cif
#   From: 2010.05.17/outbox.cif.g08.bks.cpg/sg19_2_cif.got.tgz:3805.got - 2010.06.03 22:46:19.
