data_PCOD9314314
_publ_section_title
;
Structure prediction by ZEFSAII (Michael W. Deem and Ramdas Pophale) SiO2 
 PCOD9314314
Probable space group: P 21 21 21
;
_chemical_formula_sum "Si O2"
_cell_formula_units_Z 24
_cell_length_a 5.040492
_cell_length_b 14.095108
_cell_length_c 13.426592
_cell_angle_alpha 90.000000
_cell_angle_beta 90.000000
_cell_angle_gamma 90.000000
_cell_volume 953.909403
_symmetry_space_group_name_H-M "P 21 21 21"
_symmetry_group_IT_number 19
_symmetry_cell_setting 'orthorhombic'
loop_
_space_group_symop_operation_xyz
x,y,z
1/2-x,-y,1/2+z
1/2+x,1/2-y,-z
-x,1/2+y,1/2-z
loop_
_atom_site_type_symbol
_atom_site_label
_atom_site_fract_x
_atom_site_fract_y
_atom_site_fract_z
Si Si1 0.919401 0.686978 0.999238
Si Si2 0.373532 0.798341 0.655642
Si Si3 0.501598 0.636133 0.506939
Si Si4 0.476100 0.315612 0.288679
Si Si5 0.515476 0.449290 0.106259
Si Si6 0.805379 0.123251 0.311070
O O1 0.013635 0.637326 0.897190
O O2 0.115337 0.779543 0.003165
O O3 0.987104 0.631271 0.098575
O O4 0.519306 0.733221 0.573453
O O5 0.104353 0.834546 0.602376
O O6 0.298154 0.726521 0.745797
O O7 0.536654 0.882929 0.706923
O O8 0.216839 0.593836 0.535761
O O9 0.718879 0.559816 0.543104
O O10 0.569830 0.382727 0.201354
O O11 0.653560 0.222659 0.302362
O O12 0.400709 0.543794 0.155595
#
# Coordination Sequence:
#
# PCOD9314314 Si02
#       6
#     4   4   4   4   4   4
#     4  10  21  39  64  94 128 180 231 284 347 421
#     4  11  22  44  72  99 135 197 229 295 359 433
#     4  11  25  43  68 101 142 178 240 291 355 416
#     4  10  22  43  68  97 140 180 239 287 356 420
#     4  11  26  43  66 108 142 180 238 299 344 433
#     4  11  24  42  72  99 145 189 237 290 365 427
#
# _framework density 25.159621000000001
#
# number of rings (size 3 to 8) (size 9 to 14) (size 15 to 20)
#    0.000    1.333    3.333    2.000    4.667    1.333 
#    0.000    0.000    0.000    0.000    0.000    0.000 
#    0.000    0.000    0.000    0.000    0.000    0.000 
#
# Total GULP energy -134252.996401 kJ/mol
# GULP energy per Si atom -5593.874850 kJ/mol
# Density = 2.510236 g / cm^3
# Si number density = 25.159621 Si / 1000 Ang^3
#
#
#
# Elastic Constant Matrix: (Units=GPa)
#
#
# Indices 1 2 3 4 5 6 
#
# 1 101.5458 20.3455 44.8227 0.0000 0.0000 0.0000
# 2 20.3455 71.8398 21.8181 0.0000 0.0000 0.0000
# 3 44.8227 21.8181 141.0705 0.0000 0.0000 0.0000
# 4 0.0000 0.0000 0.0000 24.9317 0.0000 0.0000
# 5 0.0000 0.0000 0.0000 0.0000 39.6764 0.0000
# 6 0.0000 0.0000 0.0000 0.0000 0.0000 32.9820
#
#
#
# Elastic Compliance Matrix: (Units=1/GPa)
#
#
# Indices 1 2 3 4 5 6 
#
# 1 0.011810 -0.002314 -0.003394 0.000000 0.000000 0.000000
# 2 -0.002314 0.015059 -0.001594 0.000000 0.000000 0.000000
# 3 -0.003394 -0.001594 0.008414 0.000000 0.000000 0.000000
# 4 0.000000 0.000000 0.000000 0.040110 0.000000 0.000000
# 5 0.000000 0.000000 0.000000 0.000000 0.025204 0.000000
# 6 0.000000 0.000000 0.000000 0.000000 0.000000 0.030320
#
#
# Mechanical properties :
#
#
# Convention : Reuss Voigt Hill
#
# Bulk Modulus (GPa) = 48.35963 54.26985 51.31474
# Shear Modulus (GPa) = 32.80569 34.68268 33.74419
#
# Velocity S-wave (km/s) = 3.61488 3.71685 3.66622
# Velocity P-wave (km/s) = 6.05689 6.32748 6.19367
#
# Compressibility (1/GPa) = 0.02067841
#
# Stress axis : x y z
#
# Youngs Moduli (GPa) = 84.67637 66.40465 118.85365
#
# Poissons Ratio (x) = 0.15364 0.40345
# Poissons Ratio (y) = 0.19591 0.18945
# Poissons Ratio (z) = 0.28743 0.10585
#
# Static dielectric constant tensor:
#      x y z
#    x 2.024780 0.000000 0.000000 
#    y 0.000000 2.001380 0.000000 
#    z 0.000000 0.000000 2.061870 
# 
# From -- ./inp_files/1452.got.cif
#   From: 2010.05.17/outbox.cif.g08.bks.cpg/sg19_1_cif.got.tgz:1452.got - 2010.06.03 22:46:19.
