data_PCOD9314696
_publ_section_title
;
Structure prediction by ZEFSAII (Michael W. Deem and Ramdas Pophale) SiO2 
 PCOD9314696
Probable space group: P 21 21 21
;
_chemical_formula_sum "Si O2"
_cell_formula_units_Z 20
_cell_length_a 9.503576
_cell_length_b 11.653673
_cell_length_c 6.931498
_cell_angle_alpha 90.000000
_cell_angle_beta 90.000000
_cell_angle_gamma 90.000000
_cell_volume 767.674265
_symmetry_space_group_name_H-M "P 21 21 21"
_symmetry_group_IT_number 19
_symmetry_cell_setting 'orthorhombic'
loop_
_space_group_symop_operation_xyz
x,y,z
1/2-x,-y,1/2+z
1/2+x,1/2-y,-z
-x,1/2+y,1/2-z
loop_
_atom_site_type_symbol
_atom_site_label
_atom_site_fract_x
_atom_site_fract_y
_atom_site_fract_z
Si Si1 0.149800 0.864266 0.053716
Si Si2 0.156036 0.338979 0.489330
Si Si3 0.623582 0.376110 0.910367
Si Si4 0.901682 0.004780 0.362711
Si Si5 0.574074 0.675500 0.490159
O O1 0.124443 0.840181 0.283312
O O2 0.005443 0.829457 0.947832
O O3 0.164503 0.998461 0.006714
O O4 0.278628 0.785648 0.000196
O O5 0.265252 0.420485 0.598299
O O6 0.143892 0.403465 0.283688
O O7 0.518337 0.415342 0.739181
O O8 0.524698 0.287336 0.026337
O O9 0.777335 0.321018 0.882670
O O10 0.976918 0.937584 0.537493
#
# Coordination Sequence:
#
# PCOD9314696 Si02
#       5
#     4   4   4   4   4
#     4  10  24  43  67  98 138 173 229 265 346 393
#     4  10  22  46  68  98 137 178 222 281 327 405
#     4  10  22  41  67  99 133 173 223 273 331 400
#     4  10  24  44  69  96 137 175 232 267 338 393
#     4  10  22  40  67  95 141 171 222 278 326 401
#
# _framework density 26.052717000000001
#
# number of rings (size 3 to 8) (size 9 to 14) (size 15 to 20)
#    0.000    2.400    2.000    0.000    8.400    1.600 
#    7.200   12.000    0.000    0.000    0.000    0.000 
#    0.000    0.000    0.000    0.000    0.000    0.000 
#
# Total GULP energy -111842.275271 kJ/mol
# GULP energy per Si atom -5592.113764 kJ/mol
# Density = 2.599342 g / cm^3
# Si number density = 26.052717 Si / 1000 Ang^3
#
#
#
# Elastic Constant Matrix: (Units=GPa)
#
#
# Indices 1 2 3 4 5 6 
#
# 1 201.0120 72.9792 14.6186 0.0000 0.0000 0.0000
# 2 72.9792 146.7331 2.0079 0.0000 0.0000 0.0000
# 3 14.6186 2.0079 38.1754 0.0000 0.0000 0.0000
# 4 0.0000 0.0000 0.0000 20.2719 0.0000 0.0000
# 5 0.0000 0.0000 0.0000 0.0000 33.8696 0.0000
# 6 0.0000 0.0000 0.0000 0.0000 0.0000 66.4512
#
#
#
# Elastic Compliance Matrix: (Units=1/GPa)
#
#
# Indices 1 2 3 4 5 6 
#
# 1 0.006256 -0.003081 -0.002234 0.000000 0.000000 0.000000
# 2 -0.003081 0.008337 0.000741 0.000000 0.000000 0.000000
# 3 -0.002234 0.000741 0.027011 0.000000 0.000000 0.000000
# 4 0.000000 0.000000 0.000000 0.049329 0.000000 0.000000
# 5 0.000000 0.000000 0.000000 0.000000 0.029525 0.000000
# 6 0.000000 0.000000 0.000000 0.000000 0.000000 0.015049
#
#
# Mechanical properties :
#
#
# Convention : Reuss Voigt Hill
#
# Bulk Modulus (GPa) = 30.80904 62.79244 46.80074
# Shear Modulus (GPa) = 32.16001 43.87288 38.01645
#
# Velocity S-wave (km/s) = 3.51724 4.10811 3.82411
# Velocity P-wave (km/s) = 5.32410 6.83056 6.12383
#
# Compressibility (1/GPa) = 0.03245801
#
# Stress axis : x y z
#
# Youngs Moduli (GPa) = 159.85236 119.94407 37.02173
#
# Poissons Ratio (x) = 0.36952 0.08269
# Poissons Ratio (y) = 0.49247 -0.02744
# Poissons Ratio (z) = 0.35703 -0.08891
#
# Static dielectric constant tensor:
#      x y z
#    x 2.030800 0.000000 0.000000 
#    y 0.000000 2.021600 0.000000 
#    z 0.000000 0.000000 2.206680 
# 
# From -- ./inp_files/2628.got.cif
#   From: 2010.05.17/outbox.cif.g08.bks.cpg/sg19_2_cif.got.tgz:2628.got - 2010.06.03 22:46:19.
