data_PCOD9314179
_publ_section_title
;
Structure prediction by ZEFSAII (Michael W. Deem and Ramdas Pophale) SiO2 
 PCOD9314179
Probable space group: P 21 21 21
;
_chemical_formula_sum "Si O2"
_cell_formula_units_Z 24
_cell_length_a 7.712166
_cell_length_b 14.554551
_cell_length_c 8.759131
_cell_angle_alpha 90.000000
_cell_angle_beta 90.000000
_cell_angle_gamma 90.000000
_cell_volume 983.187170
_symmetry_space_group_name_H-M "P 21 21 21"
_symmetry_group_IT_number 19
_symmetry_cell_setting 'orthorhombic'
loop_
_space_group_symop_operation_xyz
x,y,z
1/2-x,-y,1/2+z
1/2+x,1/2-y,-z
-x,1/2+y,1/2-z
loop_
_atom_site_type_symbol
_atom_site_label
_atom_site_fract_x
_atom_site_fract_y
_atom_site_fract_z
Si Si1 0.022955 0.761980 0.435974
Si Si2 0.829296 0.650634 0.044822
Si Si3 0.217354 0.440848 0.427830
Si Si4 0.294127 0.292943 0.662821
Si Si5 0.342165 0.277352 0.234717
Si Si6 0.500001 0.034804 0.873932
O O1 0.153344 0.698309 0.338559
O O2 0.013145 0.732819 0.609665
O O3 0.834845 0.764497 0.360931
O O4 0.079352 0.867399 0.414792
O O5 0.678813 0.693910 0.148715
O O6 0.011874 0.697543 0.091474
O O7 0.865696 0.545383 0.081550
O O8 0.781401 0.693465 0.881449
O O9 0.184682 0.370743 0.571886
O O10 0.333165 0.374685 0.318536
O O11 0.067613 0.468886 0.304839
O O12 0.334451 0.516785 0.512539
#
# Coordination Sequence:
#
# PCOD9314179 Si02
#       6
#     4   4   4   4   4   4
#     4  10  21  36  59  86 116 152 201 244 289 349
#     4   9  19  36  58  84 118 153 196 240 291 349
#     4   9  20  38  58  80 116 155 192 230 296 362
#     4   9  19  38  59  82 115 161 198 236 292 366
#     4   9  20  38  57  83 117 158 195 235 288 363
#     4  10  21  38  59  89 118 149 196 255 296 341
#
# _framework density 24.410406999999999
#
# number of rings (size 3 to 8) (size 9 to 14) (size 15 to 20)
#    0.000    2.667    0.000    1.000    0.000   13.333 
#    0.000   11.667    0.000    0.000    0.000    0.000 
#    0.000    0.000    0.000    0.000    0.000    0.000 
#
# Total GULP energy -133772.201608 kJ/mol
# GULP energy per Si atom -5573.841734 kJ/mol
# Density = 2.435485 g / cm^3
# Si number density = 24.410407 Si / 1000 Ang^3
#
#
#
# Elastic Constant Matrix: (Units=GPa)
#
#
# Indices 1 2 3 4 5 6 
#
# 1 37.8913 9.1582 28.6524 0.0000 0.0000 0.0000
# 2 9.1582 90.8562 28.8023 0.0000 0.0000 0.0000
# 3 28.6524 28.8023 134.7603 0.0000 0.0000 0.0000
# 4 0.0000 0.0000 0.0000 32.1340 0.0000 0.0000
# 5 0.0000 0.0000 0.0000 0.0000 32.4875 0.0000
# 6 0.0000 0.0000 0.0000 0.0000 0.0000 35.8537
#
#
#
# Elastic Compliance Matrix: (Units=1/GPa)
#
#
# Indices 1 2 3 4 5 6 
#
# 1 0.031555 -0.001130 -0.006468 0.000000 0.000000 0.000000
# 2 -0.001130 0.011847 -0.002292 0.000000 0.000000 0.000000
# 3 -0.006468 -0.002292 0.009286 0.000000 0.000000 0.000000
# 4 0.000000 0.000000 0.000000 0.031120 0.000000 0.000000
# 5 0.000000 0.000000 0.000000 0.000000 0.030781 0.000000
# 6 0.000000 0.000000 0.000000 0.000000 0.000000 0.027891
#
#
# Mechanical properties :
#
#
# Convention : Reuss Voigt Hill
#
# Bulk Modulus (GPa) = 30.38766 44.08151 37.23458
# Shear Modulus (GPa) = 28.86368 33.22136 31.04252
#
# Velocity S-wave (km/s) = 3.44238 3.69311 3.56995
# Velocity P-wave (km/s) = 5.31749 6.02355 5.68150
#
# Compressibility (1/GPa) = 0.03290810
#
# Stress axis : x y z
#
# Youngs Moduli (GPa) = 31.69058 84.41072 107.69470
#
# Poissons Ratio (x) = 0.09542 0.69652
# Poissons Ratio (y) = 0.03582 0.24680
# Poissons Ratio (z) = 0.20496 0.19344
#
# Static dielectric constant tensor:
#      x y z
#    x 2.035680 0.000000 0.000000 
#    y 0.000000 1.953090 0.000000 
#    z 0.000000 0.000000 2.050400 
# 
# From -- ./inp_files/2823.got.cif
#   From: 2010.05.17/outbox.cif.g08.bks.cpg/sg19_2_cif.got.tgz:2823.got - 2010.06.03 22:46:19.
