data_PCOD9314240
_publ_section_title
;
Structure prediction by ZEFSAII (Michael W. Deem and Ramdas Pophale) SiO2 
 PCOD9314240
Probable space group: P 21 21 21
;
_chemical_formula_sum "Si O2"
_cell_formula_units_Z 32
_cell_length_a 22.151347
_cell_length_b 10.624470
_cell_length_c 6.514216
_cell_angle_alpha 90.000000
_cell_angle_beta 90.000000
_cell_angle_gamma 90.000000
_cell_volume 1533.096774
_symmetry_space_group_name_H-M "P 21 21 21"
_symmetry_group_IT_number 19
_symmetry_cell_setting 'orthorhombic'
loop_
_space_group_symop_operation_xyz
x,y,z
1/2-x,-y,1/2+z
1/2+x,1/2-y,-z
-x,1/2+y,1/2-z
loop_
_atom_site_type_symbol
_atom_site_label
_atom_site_fract_x
_atom_site_fract_y
_atom_site_fract_z
Si Si1 0.306190 0.383150 0.158001
Si Si2 0.869090 0.703648 0.367501
Si Si3 0.692183 0.127287 0.560345
Si Si4 0.148444 0.945507 0.332841
Si Si5 0.409889 0.209582 0.178928
Si Si6 0.498544 0.352779 0.877738
Si Si7 0.965324 0.363977 0.417189
Si Si8 0.238739 0.214298 0.818619
O O1 0.251542 0.411954 0.310996
O O2 0.332588 0.512155 0.071793
O O3 0.356209 0.296754 0.265658
O O4 0.279214 0.308938 0.960017
O O5 0.859979 0.591396 0.205534
O O6 0.935446 0.688515 0.458096
O O7 0.819424 0.687852 0.542883
O O8 0.854708 0.825555 0.231186
O O9 0.716396 0.228773 0.395658
O O10 0.124012 0.899236 0.551791
O O11 0.216677 0.903289 0.292440
O O12 0.102171 0.879544 0.174928
O O13 0.455300 0.151188 0.341869
O O14 0.446944 0.300484 0.026407
O O15 0.499141 0.004923 0.642024
O O16 0.491682 0.265758 0.674281
#
# Coordination Sequence:
#
# PCOD9314240 Si02
#       8
#     4   4   4   4   4   4   4   4
#     4  10  21  39  60  93 122 160 208 253 318 381
#     4  10  24  38  59  93 125 161 206 266 317 372
#     4  11  21  37  59  88 127 160 201 266 313 383
#     4   9  21  41  61  91 127 157 212 258 306 385
#     4  10  22  41  69  90 118 177 210 253 325 387
#     4  10  24  44  63  95 129 162 220 274 315 376
#     4  10  22  44  67  91 129 172 212 273 317 381
#     4  10  21  38  60  89 121 163 199 249 319 373
#
# _framework density 20.872788
#
# number of rings (size 3 to 8) (size 9 to 14) (size 15 to 20)
#    0.000    2.000    1.250    0.750    3.500    6.000 
#    4.500    0.000    0.000    0.000    0.000    0.000 
#    0.000    0.000    0.000    0.000    0.000    0.000 
#
# Total GULP energy -178540.820576 kJ/mol
# GULP energy per Si atom -5579.400643 kJ/mol
# Density = 2.082528 g / cm^3
# Si number density = 20.872788 Si / 1000 Ang^3
#
#
#
# Elastic Constant Matrix: (Units=GPa)
#
#
# Indices 1 2 3 4 5 6 
#
# 1 41.6612 0.9621 -14.1312 0.0000 0.0000 0.0000
# 2 0.9621 58.7372 7.9316 0.0000 0.0000 0.0000
# 3 -14.1312 7.9316 37.7306 0.0000 0.0000 0.0000
# 4 0.0000 0.0000 0.0000 13.8528 0.0000 0.0000
# 5 0.0000 0.0000 0.0000 0.0000 19.3715 0.0000
# 6 0.0000 0.0000 0.0000 0.0000 0.0000 24.1429
#
#
#
# Elastic Compliance Matrix: (Units=1/GPa)
#
#
# Indices 1 2 3 4 5 6 
#
# 1 0.027703 -0.001909 0.010777 0.000000 0.000000 0.000000
# 2 -0.001909 0.017654 -0.004426 0.000000 0.000000 0.000000
# 3 0.010777 -0.004426 0.031470 0.000000 0.000000 0.000000
# 4 0.000000 0.000000 0.000000 0.072188 0.000000 0.000000
# 5 0.000000 0.000000 0.000000 0.000000 0.051622 0.000000
# 6 0.000000 0.000000 0.000000 0.000000 0.000000 0.041420
#
#
# Mechanical properties :
#
#
# Convention : Reuss Voigt Hill
#
# Bulk Modulus (GPa) = 11.66722 14.18376 12.92549
# Shear Modulus (GPa) = 19.10267 21.03120 20.06694
#
# Velocity S-wave (km/s) = 3.02850 3.17770 3.10400
# Velocity P-wave (km/s) = 4.22267 4.50264 4.36490
#
# Compressibility (1/GPa) = 0.08571021
#
# Stress axis : x y z
#
# Youngs Moduli (GPa) = 36.09762 56.64455 31.77594
#
# Poissons Ratio (x) = 0.10813 -0.34244
# Poissons Ratio (y) = 0.06891 0.14064
# Poissons Ratio (z) = -0.38901 0.25072
#
# Static dielectric constant tensor:
#      x y z
#    x 1.744990 0.000000 0.000000 
#    y 0.000000 1.778080 0.000000 
#    z 0.000000 0.000000 1.745800 
# 
# From -- ./inp_files/2010.got.cif
#   From: 2010.05.17/outbox.cif.g08.bks.cpg/sg19_2_cif.got.tgz:2010.got - 2010.06.03 22:46:19.
