data_PCOD9314198
_publ_section_title
;
Structure prediction by ZEFSAII (Michael W. Deem and Ramdas Pophale) SiO2 
 PCOD9314198
Probable space group: P 21 21 21
;
_chemical_formula_sum "Si O2"
_cell_formula_units_Z 32
_cell_length_a 19.760056
_cell_length_b 4.939734
_cell_length_c 16.659449
_cell_angle_alpha 90.000000
_cell_angle_beta 90.000000
_cell_angle_gamma 90.000000
_cell_volume 1626.119162
_symmetry_space_group_name_H-M "P 21 21 21"
_symmetry_group_IT_number 19
_symmetry_cell_setting 'orthorhombic'
loop_
_space_group_symop_operation_xyz
x,y,z
1/2-x,-y,1/2+z
1/2+x,1/2-y,-z
-x,1/2+y,1/2-z
loop_
_atom_site_type_symbol
_atom_site_label
_atom_site_fract_x
_atom_site_fract_y
_atom_site_fract_z
Si Si1 0.449701 0.850505 0.339947
Si Si2 0.182026 0.922366 0.048659
Si Si3 0.040917 0.141695 0.651347
Si Si4 0.576162 0.634250 0.809295
Si Si5 0.823151 0.174348 0.076461
Si Si6 0.666490 0.317769 0.466941
Si Si7 0.327379 0.589049 0.438647
Si Si8 0.077726 0.375448 0.300566
O O1 0.437337 0.830814 0.244371
O O2 0.512686 0.657964 0.359071
O O3 0.386966 0.715767 0.385663
O O4 0.478111 0.148850 0.360883
O O5 0.129823 0.889878 0.120348
O O6 0.260561 0.882193 0.071779
O O7 0.168096 0.716101 0.973446
O O8 0.174608 0.225561 0.017412
O O9 0.103226 0.171587 0.591733
O O10 0.498156 0.594643 0.835800
O O11 0.589514 0.426482 0.734540
O O12 0.578739 0.938939 0.778059
O O13 0.745024 0.144766 0.103440
O O14 0.870730 0.023497 0.139951
O O15 0.839628 0.475410 0.043652
O O16 0.828538 0.986284 0.998397
#
# Coordination Sequence:
#
# PCOD9314198 Si02
#       8
#     4   4   4   4   4   4   4   4
#     4  10  21  37  56  81 112 145 185 230 275 328
#     4  10  21  37  57  82 112 144 183 228 273 327
#     4  10  21  37  56  81 112 145 185 230 275 328
#     4  10  21  37  56  81 111 143 183 228 273 326
#     4  10  21  37  57  82 112 144 183 228 273 327
#     4  10  21  37  56  82 112 144 184 228 274 327
#     4  10  21  37  56  82 112 144 184 228 274 327
#     4  10  21  37  56  81 111 143 183 228 273 326
#
# _framework density 19.678757000000001
#
# number of rings (size 3 to 8) (size 9 to 14) (size 15 to 20)
#    0.000    2.000    0.000    3.000    0.000    4.000 
#    0.000    3.750    0.000    0.000    0.000    0.000 
#    0.000    0.000    0.000    0.000    0.000    0.000 
#
# Total GULP energy -178389.140765 kJ/mol
# GULP energy per Si atom -5574.660649 kJ/mol
# Density = 1.963397 g / cm^3
# Si number density = 19.678757 Si / 1000 Ang^3
#
#
#
# Elastic Constant Matrix: (Units=GPa)
#
#
# Indices 1 2 3 4 5 6 
#
# 1 94.1649 -17.4364 49.6792 0.0000 0.0000 0.0000
# 2 -17.4364 73.9814 -9.4098 0.0000 0.0000 0.0000
# 3 49.6792 -9.4098 33.5750 0.0000 0.0000 0.0000
# 4 0.0000 0.0000 0.0000 13.4696 0.0000 0.0000
# 5 0.0000 0.0000 0.0000 0.0000 57.2385 0.0000
# 6 0.0000 0.0000 0.0000 0.0000 0.0000 19.4943
#
#
#
# Elastic Compliance Matrix: (Units=1/GPa)
#
#
# Indices 1 2 3 4 5 6 
#
# 1 0.048818 0.002404 -0.071559 0.000000 0.000000 0.000000
# 2 0.002404 0.014135 0.000405 0.000000 0.000000 0.000000
# 3 -0.071559 0.000405 0.135780 0.000000 0.000000 0.000000
# 4 0.000000 0.000000 0.000000 0.074241 0.000000 0.000000
# 5 0.000000 0.000000 0.000000 0.000000 0.017471 0.000000
# 6 0.000000 0.000000 0.000000 0.000000 0.000000 0.051297
#
#
# Mechanical properties :
#
#
# Convention : Reuss Voigt Hill
#
# Bulk Modulus (GPa) = 16.33164 27.48746 21.90955
# Shear Modulus (GPa) = 10.00693 29.96636 19.98665
#
# Velocity S-wave (km/s) = 2.25747 3.90651 3.19038
# Velocity P-wave (km/s) = 3.88742 5.86056 4.97284
#
# Compressibility (1/GPa) = 0.06123084
#
# Stress axis : x y z
#
# Youngs Moduli (GPa) = 20.48434 70.74672 7.36487
#
# Poissons Ratio (x) = -0.17007 0.52702
# Poissons Ratio (y) = -0.04924 -0.00298
# Poissons Ratio (z) = 1.46584 -0.02862
#
# Static dielectric constant tensor:
#      x y z
#    x 1.736350 0.000000 0.000000 
#    y 0.000000 1.675130 0.000000 
#    z 0.000000 0.000000 1.678080 
# 
# From -- ./inp_files/6315.got.cif
#   From: 2010.05.17/outbox.cif.g08.bks.cpg/sg19_4_cif.got.tgz:6315.got - 2010.06.03 22:46:19.
