data_PCOD9314232
_publ_section_title
;
Structure prediction by ZEFSAII (Michael W. Deem and Ramdas Pophale) SiO2 
 PCOD9314232
Probable space group: P 21 21 21
;
_chemical_formula_sum "Si O2"
_cell_formula_units_Z 32
_cell_length_a 13.265009
_cell_length_b 8.106051
_cell_length_c 12.475574
_cell_angle_alpha 90.000000
_cell_angle_beta 90.000000
_cell_angle_gamma 90.000000
_cell_volume 1341.459043
_symmetry_space_group_name_H-M "P 21 21 21"
_symmetry_group_IT_number 19
_symmetry_cell_setting 'orthorhombic'
loop_
_space_group_symop_operation_xyz
x,y,z
1/2-x,-y,1/2+z
1/2+x,1/2-y,-z
-x,1/2+y,1/2-z
loop_
_atom_site_type_symbol
_atom_site_label
_atom_site_fract_x
_atom_site_fract_y
_atom_site_fract_z
Si Si1 0.909770 0.130558 0.638175
Si Si2 0.908940 0.715350 0.018549
Si Si3 0.950856 0.401357 0.335529
Si Si4 0.248988 0.614461 0.393953
Si Si5 0.413924 0.824845 0.492807
Si Si6 0.921029 0.366280 0.088626
Si Si7 0.768248 0.739213 0.834484
Si Si8 0.417305 0.020264 0.271001
O O1 0.890674 0.290467 0.711219
O O2 0.986965 0.188940 0.546326
O O3 0.806080 0.058218 0.592431
O O4 0.978066 0.004889 0.708179
O O5 0.866703 0.534677 0.050789
O O6 0.946666 0.821751 0.118514
O O7 0.832245 0.798222 0.935843
O O8 0.926763 0.567705 0.400528
O O9 0.958840 0.412576 0.207520
O O10 0.848618 0.296240 0.356227
O O11 0.307902 0.739334 0.472528
O O12 0.138771 0.693090 0.405082
O O13 0.272087 0.644642 0.268220
O O14 0.491367 0.674741 0.505707
O O15 0.430866 0.935844 0.387675
O O16 0.828869 0.576221 0.792322
#
# Coordination Sequence:
#
# PCOD9314232 Si02
#       8
#     4   4   4   4   4   4   4   4
#     4  11  20  40  65 102 125 165 223 276 342 393
#     4  11  21  41  68  91 128 178 216 272 332 395
#     4  11  23  42  63  92 134 176 221 264 326 401
#     4  10  22  42  65  96 133 162 220 281 324 401
#     4  11  21  41  64  91 130 174 215 270 332 389
#     4  11  24  42  62  91 134 176 217 271 327 388
#     4   9  22  41  65  98 129 169 215 278 328 391
#     4  10  21  37  70  95 127 168 215 282 339 388
#
# _framework density 23.854624000000001
#
# number of rings (size 3 to 8) (size 9 to 14) (size 15 to 20)
#    0.000    1.500    2.500    3.750    1.750    0.000 
#    2.250    3.750    0.000    0.000    0.000    0.000 
#    0.000    0.000    0.000    0.000    0.000    0.000 
#
# Total GULP energy -178783.081911 kJ/mol
# GULP energy per Si atom -5586.971310 kJ/mol
# Density = 2.380033 g / cm^3
# Si number density = 23.854624 Si / 1000 Ang^3
#
#
#
# Elastic Constant Matrix: (Units=GPa)
#
#
# Indices 1 2 3 4 5 6 
#
# 1 56.1547 9.7316 37.9525 0.0000 0.0000 0.0000
# 2 9.7316 30.9819 26.2182 0.0000 0.0000 0.0000
# 3 37.9525 26.2182 58.1057 0.0000 0.0000 0.0000
# 4 0.0000 0.0000 0.0000 34.1498 0.0000 0.0000
# 5 0.0000 0.0000 0.0000 0.0000 38.8398 0.0000
# 6 0.0000 0.0000 0.0000 0.0000 0.0000 30.3225
#
#
#
# Elastic Compliance Matrix: (Units=1/GPa)
#
#
# Indices 1 2 3 4 5 6 
#
# 1 0.035074 0.013539 -0.029018 0.000000 0.000000 0.000000
# 2 0.013539 0.057441 -0.034762 0.000000 0.000000 0.000000
# 3 -0.029018 -0.034762 0.051849 0.000000 0.000000 0.000000
# 4 0.000000 0.000000 0.000000 0.029283 0.000000 0.000000
# 5 0.000000 0.000000 0.000000 0.000000 0.025747 0.000000
# 6 0.000000 0.000000 0.000000 0.000000 0.000000 0.032979
#
#
# Mechanical properties :
#
#
# Convention : Reuss Voigt Hill
#
# Bulk Modulus (GPa) = 22.78810 32.56076 27.67443
# Shear Modulus (GPa) = 14.38935 25.41843 19.90389
#
# Velocity S-wave (km/s) = 2.45870 3.26783 2.89170
# Velocity P-wave (km/s) = 4.19927 5.28371 4.77239
#
# Compressibility (1/GPa) = 0.04388255
#
# Stress axis : x y z
#
# Youngs Moduli (GPa) = 28.51148 17.40920 19.28696
#
# Poissons Ratio (x) = -0.23571 0.55967
# Poissons Ratio (y) = -0.38603 0.67045
# Poissons Ratio (z) = 0.82735 0.60517
#
# Static dielectric constant tensor:
#      x y z
#    x 1.921940 0.000000 0.000000 
#    y 0.000000 1.954400 0.000000 
#    z 0.000000 0.000000 1.887150 
# 
# From -- ./inp_files/5242.got.cif
#   From: 2010.05.17/outbox.cif.g08.bks.cpg/sg19_3_cif.got.tgz:5242.got - 2010.06.03 22:46:19.
