data_PCOD9314286
_publ_section_title
;
Structure prediction by ZEFSAII (Michael W. Deem and Ramdas Pophale) SiO2 
 PCOD9314286
Probable space group: P 21 21 21
;
_chemical_formula_sum "Si O2"
_cell_formula_units_Z 24
_cell_length_a 4.998028
_cell_length_b 29.202513
_cell_length_c 6.696879
_cell_angle_alpha 90.000000
_cell_angle_beta 90.000000
_cell_angle_gamma 90.000000
_cell_volume 977.442825
_symmetry_space_group_name_H-M "P 21 21 21"
_symmetry_group_IT_number 19
_symmetry_cell_setting 'orthorhombic'
loop_
_space_group_symop_operation_xyz
x,y,z
1/2-x,-y,1/2+z
1/2+x,1/2-y,-z
-x,1/2+y,1/2-z
loop_
_atom_site_type_symbol
_atom_site_label
_atom_site_fract_x
_atom_site_fract_y
_atom_site_fract_z
Si Si1 0.421407 0.808648 0.018848
Si Si2 0.943241 0.028887 0.531876
Si Si3 0.444088 0.055358 0.281983
Si Si4 0.929713 0.360329 0.977516
Si Si5 0.579067 0.218327 0.275085
Si Si6 0.929619 0.111812 0.786362
O O1 0.461226 0.772609 0.200986
O O2 0.492936 0.858588 0.092962
O O3 0.621223 0.793729 0.842290
O O4 0.121705 0.802394 0.942192
O O5 0.649695 0.040530 0.453268
O O6 0.983054 0.059511 0.730032
O O7 0.150025 0.044588 0.362556
O O8 0.990258 0.976726 0.592487
O O9 0.482998 0.107431 0.213819
O O10 0.128777 0.377498 0.149522
O O11 0.628233 0.370462 0.042344
O O12 0.995758 0.307982 0.924111
#
# Coordination Sequence:
#
# PCOD9314286 Si02
#       6
#     4   4   4   4   4   4
#     4  10  21  39  61  85 116 156 198 240 291 346
#     4  12  24  42  64  88 119 154 195 240 291 346
#     4  12  24  42  64  88 119 154 195 240 291 346
#     4  12  24  39  60  89 121 154 195 240 291 346
#     4  10  21  39  61  85 116 156 198 240 291 346
#     4  12  24  39  60  89 121 154 195 240 291 346
#
# _framework density 24.553864000000001
#
# number of rings (size 3 to 8) (size 9 to 14) (size 15 to 20)
#    0.000    0.667    0.000    9.000    0.000    1.333 
#    0.000    0.000    0.000    0.000    0.000    0.000 
#    0.000    0.000    0.000    0.000    0.000    0.000 
#
# Total GULP energy -134517.819402 kJ/mol
# GULP energy per Si atom -5604.909142 kJ/mol
# Density = 2.449798 g / cm^3
# Si number density = 24.553864 Si / 1000 Ang^3
#
#
#
# Elastic Constant Matrix: (Units=GPa)
#
#
# Indices 1 2 3 4 5 6 
#
# 1 42.9739 6.0612 -5.7411 0.0000 0.0000 0.0000
# 2 6.0612 57.5443 -1.1598 0.0000 0.0000 0.0000
# 3 -5.7411 -1.1598 31.6370 0.0000 0.0000 0.0000
# 4 0.0000 0.0000 0.0000 42.9557 0.0000 0.0000
# 5 0.0000 0.0000 0.0000 0.0000 55.3347 0.0000
# 6 0.0000 0.0000 0.0000 0.0000 0.0000 23.6593
#
#
#
# Elastic Compliance Matrix: (Units=1/GPa)
#
#
# Indices 1 2 3 4 5 6 
#
# 1 0.024192 -0.002461 0.004300 0.000000 0.000000 0.000000
# 2 -0.002461 0.017641 0.000200 0.000000 0.000000 0.000000
# 3 0.004300 0.000200 0.032396 0.000000 0.000000 0.000000
# 4 0.000000 0.000000 0.000000 0.023280 0.000000 0.000000
# 5 0.000000 0.000000 0.000000 0.000000 0.018072 0.000000
# 6 0.000000 0.000000 0.000000 0.000000 0.000000 0.042267
#
#
# Mechanical properties :
#
#
# Convention : Reuss Voigt Hill
#
# Bulk Modulus (GPa) = 12.77049 14.49731 13.63390
# Shear Modulus (GPa) = 27.79748 33.25627 30.52687
#
# Velocity S-wave (km/s) = 3.36832 3.68424 3.52982
# Velocity P-wave (km/s) = 4.50996 4.90054 4.70930
#
# Compressibility (1/GPa) = 0.07830555
#
# Stress axis : x y z
#
# Youngs Moduli (GPa) = 41.33674 56.68544 30.86788
#
# Poissons Ratio (x) = 0.13953 -0.13272
# Poissons Ratio (y) = 0.10175 -0.00618
# Poissons Ratio (z) = -0.17774 -0.01134
#
# Static dielectric constant tensor:
#      x y z
#    x 1.862860 0.000000 0.000000 
#    y 0.000000 1.885080 0.000000 
#    z 0.000000 0.000000 1.951080 
# 
# From -- ./inp_files/238.got.cif
#   From: 2010.05.17/outbox.cif.g08.bks.cpg/sg19_1_cif.got.tgz:238.got - 2010.06.03 22:46:19.
