data_PCOD9314717
_publ_section_title
;
Structure prediction by ZEFSAII (Michael W. Deem and Ramdas Pophale) SiO2 
 PCOD9314717
Probable space group: P 21 21 21
;
_chemical_formula_sum "Si O2"
_cell_formula_units_Z 28
_cell_length_a 17.240285
_cell_length_b 9.330071
_cell_length_c 8.633381
_cell_angle_alpha 90.000000
_cell_angle_beta 90.000000
_cell_angle_gamma 90.000000
_cell_volume 1388.705952
_symmetry_space_group_name_H-M "P 21 21 21"
_symmetry_group_IT_number 19
_symmetry_cell_setting 'orthorhombic'
loop_
_space_group_symop_operation_xyz
x,y,z
1/2-x,-y,1/2+z
1/2+x,1/2-y,-z
-x,1/2+y,1/2-z
loop_
_atom_site_type_symbol
_atom_site_label
_atom_site_fract_x
_atom_site_fract_y
_atom_site_fract_z
Si Si1 0.775422 0.725242 0.932006
Si Si2 0.503365 0.872736 0.823533
Si Si3 0.141980 0.529487 0.602290
Si Si4 0.343403 0.268621 0.827390
Si Si5 0.507521 0.583217 0.937310
Si Si6 0.865380 0.282460 0.661588
Si Si7 0.097091 0.979046 0.544026
O O1 0.722602 0.704304 0.780204
O O2 0.843033 0.610137 0.950707
O O3 0.810870 0.882280 0.900342
O O4 0.718474 0.710064 0.079530
O O5 0.593387 0.855871 0.774683
O O6 0.469875 0.712055 0.837069
O O7 0.465905 0.960674 0.681291
O O8 0.483924 0.953230 0.984360
O O9 0.180416 0.626851 0.467114
O O10 0.134401 0.626423 0.755855
O O11 0.055083 0.488004 0.549216
O O12 0.384300 0.137877 0.913566
O O13 0.573410 0.668531 0.030303
O O14 0.889269 0.393467 0.797487
#
# Coordination Sequence:
#
# PCOD9314717 Si02
#       7
#     4   4   4   4   4   4   4
#     4  12  21  40  63  85 124 167 210 246 312 371
#     4  11  20  42  63  87 121 168 209 250 310 375
#     4  10  24  40  63  91 125 161 206 256 310 368
#     4  10  22  41  60  87 124 163 205 251 310 378
#     4  11  23  41  66  91 123 168 207 256 311 369
#     4  11  25  41  61  95 129 159 205 270 306 360
#     4  11  23  39  62  92 124 162 208 259 311 365
#
# _framework density 20.162655999999998
#
# number of rings (size 3 to 8) (size 9 to 14) (size 15 to 20)
#    0.000    1.143    4.286    1.714    2.000    0.000 
#    0.000    1.429    0.000    0.000    0.000    0.000 
#    0.000    0.000    0.000    0.000    0.000    0.000 
#
# Total GULP energy -156035.090429 kJ/mol
# GULP energy per Si atom -5572.681801 kJ/mol
# Density = 2.011676 g / cm^3
# Si number density = 20.162656 Si / 1000 Ang^3
#
#
#
# Elastic Constant Matrix: (Units=GPa)
#
#
# Indices 1 2 3 4 5 6 
#
# 1 39.8403 13.8820 40.3458 0.0000 0.0000 0.0000
# 2 13.8820 108.4714 44.5572 0.0000 0.0000 0.0000
# 3 40.3458 44.5572 90.3736 0.0000 0.0000 0.0000
# 4 0.0000 0.0000 0.0000 33.6921 0.0000 0.0000
# 5 0.0000 0.0000 0.0000 0.0000 25.8948 0.0000
# 6 0.0000 0.0000 0.0000 0.0000 0.0000 29.7517
#
#
#
# Elastic Compliance Matrix: (Units=1/GPa)
#
#
# Indices 1 2 3 4 5 6 
#
# 1 0.046705 0.003245 -0.022450 0.000000 0.000000 0.000000
# 2 0.003245 0.011786 -0.007259 0.000000 0.000000 0.000000
# 3 -0.022450 -0.007259 0.024667 0.000000 0.000000 0.000000
# 4 0.000000 0.000000 0.000000 0.029681 0.000000 0.000000
# 5 0.000000 0.000000 0.000000 0.000000 0.038618 0.000000
# 6 0.000000 0.000000 0.000000 0.000000 0.000000 0.033612
#
#
# Mechanical properties :
#
#
# Convention : Reuss Voigt Hill
#
# Bulk Modulus (GPa) = 33.08237 48.47280 40.77759
# Shear Modulus (GPa) = 20.15537 27.19441 23.67489
#
# Velocity S-wave (km/s) = 3.16514 3.67652 3.43037
# Velocity P-wave (km/s) = 5.45901 6.48964 5.99651
#
# Compressibility (1/GPa) = 0.03022758
#
# Stress axis : x y z
#
# Youngs Moduli (GPa) = 21.41108 84.84860 40.54019
#
# Poissons Ratio (x) = -0.27532 0.91014
# Poissons Ratio (y) = -0.06948 0.29430
# Poissons Ratio (z) = 0.48069 0.61595
#
# Static dielectric constant tensor:
#      x y z
#    x 1.717540 0.000000 0.000000 
#    y 0.000000 1.733270 0.000000 
#    z 0.000000 0.000000 1.763080 
# 
# From -- ./inp_files/2964.got.cif
#   From: 2010.05.17/outbox.cif.g08.bks.cpg/sg19_2_cif.got.tgz:2964.got - 2010.06.03 22:46:19.
