data_PCOD9314602
_publ_section_title
;
Structure prediction by ZEFSAII (Michael W. Deem and Ramdas Pophale) SiO2 
 PCOD9314602
Probable space group: P 21 21 21
;
_chemical_formula_sum "Si O2"
_cell_formula_units_Z 32
_cell_length_a 10.942018
_cell_length_b 23.700742
_cell_length_c 5.356582
_cell_angle_alpha 90.000000
_cell_angle_beta 90.000000
_cell_angle_gamma 90.000000
_cell_volume 1389.143545
_symmetry_space_group_name_H-M "P 21 21 21"
_symmetry_group_IT_number 19
_symmetry_cell_setting 'orthorhombic'
loop_
_space_group_symop_operation_xyz
x,y,z
1/2-x,-y,1/2+z
1/2+x,1/2-y,-z
-x,1/2+y,1/2-z
loop_
_atom_site_type_symbol
_atom_site_label
_atom_site_fract_x
_atom_site_fract_y
_atom_site_fract_z
Si Si1 0.415953 0.491379 0.494738
Si Si2 0.798974 0.270339 0.806343
Si Si3 0.526541 0.647643 0.132967
Si Si4 0.317831 0.849339 0.327333
Si Si5 0.824858 0.066205 0.009183
Si Si6 0.563147 0.820618 0.557000
Si Si7 0.416865 0.084009 0.859299
Si Si8 0.565138 0.261798 0.528713
O O1 0.397194 0.458039 0.234135
O O2 0.310508 0.539845 0.497717
O O3 0.544000 0.521288 0.559222
O O4 0.384281 0.453318 0.731522
O O5 0.843908 0.319383 0.621112
O O6 0.670695 0.246069 0.728227
O O7 0.772686 0.301870 0.063689
O O8 0.904794 0.224954 0.844216
O O9 0.531486 0.619054 0.402774
O O10 0.519776 0.605013 0.899761
O O11 0.440180 0.702044 0.115049
O O12 0.434231 0.853117 0.515852
O O13 0.228125 0.903154 0.320201
O O14 0.385675 0.818613 0.101408
O O15 0.831708 0.133336 0.028128
O O16 0.549276 0.783773 0.806749
#
# Coordination Sequence:
#
# PCOD9314602 Si02
#       8
#     4   4   4   4   4   4   4   4
#     4  10  23  47  68  94 128 160 225 289 321 384
#     4  10  22  38  57  92 137 175 212 258 314 396
#     4  11  22  37  60  93 131 172 215 251 318 387
#     4  10  22  39  59  93 136 170 215 263 316 397
#     4  10  24  45  68  96 125 167 219 278 336 381
#     4  11  24  40  64  93 135 180 212 268 334 389
#     4  11  23  42  65  93 125 177 216 268 330 379
#     4  11  22  38  59  94 139 171 218 267 311 399
#
# _framework density 23.035775999999998
#
# number of rings (size 3 to 8) (size 9 to 14) (size 15 to 20)
#    0.000    1.500    2.500    2.250    5.250    0.000 
#    0.000    1.250    0.000    0.000    0.000    0.000 
#    0.000    0.000    0.000    0.000    0.000    0.000 
#
# Total GULP energy -178265.836469 kJ/mol
# GULP energy per Si atom -5570.807390 kJ/mol
# Density = 2.298335 g / cm^3
# Si number density = 23.035776 Si / 1000 Ang^3
#
#
#
# Elastic Constant Matrix: (Units=GPa)
#
#
# Indices 1 2 3 4 5 6 
#
# 1 10.4972 3.7234 3.6926 0.0000 0.0000 0.0000
# 2 3.7234 15.3401 2.3674 0.0000 0.0000 0.0000
# 3 3.6926 2.3674 111.0514 0.0000 0.0000 0.0000
# 4 0.0000 0.0000 0.0000 22.8132 0.0000 0.0000
# 5 0.0000 0.0000 0.0000 0.0000 18.1039 0.0000
# 6 0.0000 0.0000 0.0000 0.0000 0.0000 26.7815
#
#
#
# Elastic Compliance Matrix: (Units=1/GPa)
#
#
# Indices 1 2 3 4 5 6 
#
# 1 0.105201 -0.025077 -0.002963 0.000000 0.000000 0.000000
# 2 -0.025077 0.071382 -0.000688 0.000000 0.000000 0.000000
# 3 -0.002963 -0.000688 0.009118 0.000000 0.000000 0.000000
# 4 0.000000 0.000000 0.000000 0.043834 0.000000 0.000000
# 5 0.000000 0.000000 0.000000 0.000000 0.055237 0.000000
# 6 0.000000 0.000000 0.000000 0.000000 0.000000 0.037339
#
#
# Mechanical properties :
#
#
# Convention : Reuss Voigt Hill
#
# Bulk Modulus (GPa) = 7.79766 17.38393 12.59079
# Shear Modulus (GPa) = 11.83947 22.01341 16.92644
#
# Velocity S-wave (km/s) = 2.26953 3.09466 2.71364
# Velocity P-wave (km/s) = 3.20313 4.50911 3.91102
#
# Compressibility (1/GPa) = 0.12824353
#
# Stress axis : x y z
#
# Youngs Moduli (GPa) = 9.50559 14.00921 109.67273
#
# Poissons Ratio (x) = 0.35131 0.32501
# Poissons Ratio (y) = 0.23838 0.07544
# Poissons Ratio (z) = 0.02817 0.00964
#
# Static dielectric constant tensor:
#      x y z
#    x 1.966900 0.000000 0.000000 
#    y 0.000000 1.924160 0.000000 
#    z 0.000000 0.000000 2.066830 
# 
# From -- ./inp_files/1200.got.cif
#   From: 2010.05.17/outbox.cif.g08.bks.cpg/sg19_1_cif.got.tgz:1200.got - 2010.06.03 22:46:19.
