data_PCOD9314141
_publ_section_title
;
Structure prediction by ZEFSAII (Michael W. Deem and Ramdas Pophale) SiO2 
 PCOD9314141
Probable space group: P 21 21 21
;
_chemical_formula_sum "Si O2"
_cell_formula_units_Z 32
_cell_length_a 10.326134
_cell_length_b 9.611023
_cell_length_c 13.139828
_cell_angle_alpha 90.000000
_cell_angle_beta 90.000000
_cell_angle_gamma 90.000000
_cell_volume 1304.058437
_symmetry_space_group_name_H-M "P 21 21 21"
_symmetry_group_IT_number 19
_symmetry_cell_setting 'orthorhombic'
loop_
_space_group_symop_operation_xyz
x,y,z
1/2-x,-y,1/2+z
1/2+x,1/2-y,-z
-x,1/2+y,1/2-z
loop_
_atom_site_type_symbol
_atom_site_label
_atom_site_fract_x
_atom_site_fract_y
_atom_site_fract_z
Si Si1 0.138381 0.613638 0.791739
Si Si2 0.591194 0.917503 0.501225
Si Si3 0.607230 0.392384 0.180504
Si Si4 0.275799 0.212791 0.119506
Si Si5 0.148139 0.992413 0.433543
Si Si6 0.992808 0.268485 0.177280
Si Si7 0.696175 0.196633 0.520308
Si Si8 0.772335 0.158884 0.287430
O O1 0.139585 0.749847 0.718467
O O2 0.186644 0.659206 0.902278
O O3 0.241808 0.498157 0.751372
O O4 0.994253 0.556569 0.767048
O O5 0.475872 0.881471 0.423708
O O6 0.717464 0.857419 0.444861
O O7 0.587401 0.826140 0.599824
O O8 0.590398 0.075704 0.532852
O O9 0.730249 0.481011 0.144073
O O10 0.672400 0.252671 0.221908
O O11 0.134112 0.205724 0.166839
O O12 0.319111 0.095528 0.038215
O O13 0.030224 0.920989 0.370919
O O14 0.138506 0.152353 0.461356
O O15 0.913433 0.231743 0.277276
O O16 0.736191 0.176453 0.404319
#
# Coordination Sequence:
#
# PCOD9314141 Si02
#       8
#     4   4   4   4   4   4   4   4
#     4  11  25  45  72 103 143 189 245 303 370 437
#     4  10  20  43  73  99 136 184 239 284 365 431
#     4  10  22  45  74  96 143 190 234 294 366 437
#     4  10  21  45  71  97 138 191 227 285 369 443
#     4  10  24  43  71 107 142 182 240 301 366 439
#     4  10  21  45  69  97 137 191 225 287 369 448
#     4  12  25  46  64 109 146 178 246 311 355 432
#     4  11  24  46  70 104 139 189 244 297 368 445
#
# _framework density 24.538775999999999
#
# number of rings (size 3 to 8) (size 9 to 14) (size 15 to 20)
#    0.000    1.500    5.000    0.000    1.750    2.000 
#   18.000    0.000    0.000    0.000    0.000    0.000 
#    0.000    0.000    0.000    0.000    0.000    0.000 
#
# Total GULP energy -178626.963665 kJ/mol
# GULP energy per Si atom -5582.092615 kJ/mol
# Density = 2.448292 g / cm^3
# Si number density = 24.538776 Si / 1000 Ang^3
#
#
#
# Elastic Constant Matrix: (Units=GPa)
#
#
# Indices 1 2 3 4 5 6 
#
# 1 50.4971 -15.4440 31.6791 0.0000 0.0000 0.0000
# 2 -15.4440 130.9994 77.9111 0.0000 0.0000 0.0000
# 3 31.6791 77.9111 1.7349 0.0000 0.0000 0.0000
# 4 0.0000 0.0000 0.0000 32.8379 0.0000 0.0000
# 5 0.0000 0.0000 0.0000 0.0000 30.0343 0.0000
# 6 0.0000 0.0000 0.0000 0.0000 0.0000 9.9656
#
#
#
# Elastic Compliance Matrix: (Units=1/GPa)
#
#
# Indices 1 2 3 4 5 6 
#
# 1 0.011612 -0.004959 0.010639 0.000000 0.000000 0.000000
# 2 -0.004959 0.001820 0.008791 0.000000 0.000000 0.000000
# 3 0.010639 0.008791 -0.012673 0.000000 0.000000 0.000000
# 4 0.000000 0.000000 0.000000 0.030453 0.000000 0.000000
# 5 0.000000 0.000000 0.000000 0.000000 0.033295 0.000000
# 6 0.000000 0.000000 0.000000 0.000000 0.000000 0.100345
#
#
# Mechanical properties :
#
#
# Convention : Reuss Voigt Hill
#
# Bulk Modulus (GPa) = 33.66585 41.28042 37.47314
# Shear Modulus (GPa) = 34.29127 20.50658 27.39892
#
# Velocity S-wave (km/s) = 3.74228 2.89395 3.34512
# Velocity P-wave (km/s) = 5.69404 5.29393 5.49762
#
# Compressibility (1/GPa) = 0.02970369
#
# Stress axis : x y z
#
# Youngs Moduli (GPa) = 86.11608 549.33167 -78.90833
#
# Poissons Ratio (x) = 2.72387 0.83951
# Poissons Ratio (y) = 0.42701 0.69372
# Poissons Ratio (z) = -0.91620 -4.82941
#
# Static dielectric constant tensor:
#      x y z
#    x 2.129150 0.000000 0.000000 
#    y 0.000000 2.001660 0.000000 
#    z 0.000000 0.000000 1.993610 
# 
# From -- ./inp_files/6160.got.cif
#   From: 2010.05.17/outbox.cif.g08.bks.cpg/sg19_4_cif.got.tgz:6160.got - 2010.06.03 22:46:19.
