data_PCOD9314605
_publ_section_title
;
Structure prediction by ZEFSAII (Michael W. Deem and Ramdas Pophale) SiO2 
 PCOD9314605
Probable space group: P 21 21 21
;
_chemical_formula_sum "Si O2"
_cell_formula_units_Z 20
_cell_length_a 5.265044
_cell_length_b 7.096868
_cell_length_c 22.985988
_cell_angle_alpha 90.000000
_cell_angle_beta 90.000000
_cell_angle_gamma 90.000000
_cell_volume 858.878850
_symmetry_space_group_name_H-M "P 21 21 21"
_symmetry_group_IT_number 19
_symmetry_cell_setting 'orthorhombic'
loop_
_space_group_symop_operation_xyz
x,y,z
1/2-x,-y,1/2+z
1/2+x,1/2-y,-z
-x,1/2+y,1/2-z
loop_
_atom_site_type_symbol
_atom_site_label
_atom_site_fract_x
_atom_site_fract_y
_atom_site_fract_z
Si Si1 0.002704 0.069775 0.673148
Si Si2 0.820197 0.748180 0.365043
Si Si3 0.195044 0.765618 0.276115
Si Si4 0.833882 0.293928 0.034935
Si Si5 0.590740 0.539502 0.122870
O O1 0.221192 0.162753 0.713693
O O2 0.886319 0.244948 0.639658
O O3 0.123617 0.919886 0.629403
O O4 0.819883 0.938297 0.711993
O O5 0.905356 0.751389 0.297466
O O6 0.053667 0.696888 0.406784
O O7 0.691025 0.946253 0.381775
O O8 0.298718 0.919363 0.322666
O O9 0.733951 0.488415 0.063228
O O10 0.584480 0.203874 0.005507
#
# Coordination Sequence:
#
# PCOD9314605 Si02
#       5
#     4   4   4   4   4
#     4  11  22  39  64 102 146 186 230 275 346 420
#     4  10  24  39  68 100 136 180 237 287 338 424
#     4  10  22  38  60  96 147 187 223 271 343 416
#     4  11  22  46  80  96 133 187 235 298 367 400
#     4  10  22  42  68 100 136 184 233 283 340 420
#
# _framework density 23.286169999999998
#
# number of rings (size 3 to 8) (size 9 to 14) (size 15 to 20)
#    0.000    1.600    4.000    0.000    2.800    3.200 
#    0.000    0.000   17.600    0.000    0.000    0.000 
#    0.000    0.000    0.000    0.000    0.000    0.000 
#
# Total GULP energy -111615.504721 kJ/mol
# GULP energy per Si atom -5580.775236 kJ/mol
# Density = 2.323317 g / cm^3
# Si number density = 23.286170 Si / 1000 Ang^3
#
#
#
# Elastic Constant Matrix: (Units=GPa)
#
#
# Indices 1 2 3 4 5 6 
#
# 1 88.3333 29.0732 11.9801 0.0000 0.0000 0.0000
# 2 29.0732 117.9458 -2.8067 0.0000 0.0000 0.0000
# 3 11.9801 -2.8067 51.0497 0.0000 0.0000 0.0000
# 4 0.0000 0.0000 0.0000 23.8570 0.0000 0.0000
# 5 0.0000 0.0000 0.0000 0.0000 50.5881 0.0000
# 6 0.0000 0.0000 0.0000 0.0000 0.0000 14.6074
#
#
#
# Elastic Compliance Matrix: (Units=1/GPa)
#
#
# Indices 1 2 3 4 5 6 
#
# 1 0.012818 -0.003235 -0.003186 0.000000 0.000000 0.000000
# 2 -0.003235 0.009306 0.001271 0.000000 0.000000 0.000000
# 3 -0.003186 0.001271 0.020406 0.000000 0.000000 0.000000
# 4 0.000000 0.000000 0.000000 0.041916 0.000000 0.000000
# 5 0.000000 0.000000 0.000000 0.000000 0.019767 0.000000
# 6 0.000000 0.000000 0.000000 0.000000 0.000000 0.068458
#
#
# Mechanical properties :
#
#
# Convention : Reuss Voigt Hill
#
# Bulk Modulus (GPa) = 31.02737 37.09133 34.05935
# Shear Modulus (GPa) = 25.81095 32.41598 29.11347
#
# Velocity S-wave (km/s) = 3.33291 3.73509 3.53972
# Velocity P-wave (km/s) = 5.30701 5.87914 5.60039
#
# Compressibility (1/GPa) = 0.03222961
#
# Stress axis : x y z
#
# Youngs Moduli (GPa) = 78.01721 107.45509 49.00449
#
# Poissons Ratio (x) = 0.34765 0.15612
# Poissons Ratio (y) = 0.25241 -0.06228
# Poissons Ratio (z) = 0.24855 -0.13657
#
# Static dielectric constant tensor:
#      x y z
#    x 2.054870 0.000000 0.000000 
#    y 0.000000 1.829560 0.000000 
#    z 0.000000 0.000000 1.944660 
# 
# From -- ./inp_files/155.got.cif
#   From: 2010.05.17/outbox.cif.g08.bks.cpg/sg19_1_cif.got.tgz:155.got - 2010.06.03 22:46:19.
