data_PCOD9314065
_publ_section_title
;
Structure prediction by ZEFSAII (Michael W. Deem and Ramdas Pophale) SiO2 
 PCOD9314065
Probable space group: P 21 21 21
;
_chemical_formula_sum "Si O2"
_cell_formula_units_Z 28
_cell_length_a 17.567896
_cell_length_b 5.027577
_cell_length_c 12.669426
_cell_angle_alpha 90.000000
_cell_angle_beta 90.000000
_cell_angle_gamma 90.000000
_cell_volume 1119.013747
_symmetry_space_group_name_H-M "P 21 21 21"
_symmetry_group_IT_number 19
_symmetry_cell_setting 'orthorhombic'
loop_
_space_group_symop_operation_xyz
x,y,z
1/2-x,-y,1/2+z
1/2+x,1/2-y,-z
-x,1/2+y,1/2-z
loop_
_atom_site_type_symbol
_atom_site_label
_atom_site_fract_x
_atom_site_fract_y
_atom_site_fract_z
Si Si1 0.694302 0.128155 0.421396
Si Si2 0.161691 0.586393 0.184965
Si Si3 0.109996 0.401307 0.956642
Si Si4 0.162917 0.773058 0.393902
Si Si5 0.297491 0.102704 0.412729
Si Si6 0.045740 0.151473 0.505606
Si Si7 0.974343 0.446643 0.316591
O O1 0.747530 0.057931 0.324692
O O2 0.748656 0.342122 0.480460
O O3 0.608989 0.236730 0.413664
O O4 0.689264 0.883208 0.502256
O O5 0.145283 0.543184 0.308582
O O6 0.114727 0.866255 0.175678
O O7 0.128965 0.435979 0.082191
O O8 0.135600 0.110312 0.924233
O O9 0.022847 0.486235 0.944097
O O10 0.162424 0.615707 0.894882
O O11 0.230746 0.958080 0.347624
O O12 0.093657 0.959053 0.428072
O O13 0.009126 0.381613 0.431866
O O14 0.990045 0.729662 0.264882
#
# Coordination Sequence:
#
# PCOD9314065 Si02
#       7
#     4   4   4   4   4   4   4
#     4  10  22  41  58  93 130 171 210 259 315 386
#     4  10  21  38  64  89 131 165 208 253 326 378
#     4  10  22  40  62  92 122 169 204 261 318 380
#     4  11  20  41  60  97 127 170 209 268 313 390
#     4  10  20  41  60  87 125 164 212 248 314 379
#     4  10  23  35  64  90 130 159 212 262 316 376
#     4  11  22  38  58  96 129 158 199 257 324 383
#
# _framework density 25.022030999999998
#
# number of rings (size 3 to 8) (size 9 to 14) (size 15 to 20)
#    0.000    1.714    4.286    0.857    2.000    5.714 
#   10.286    0.000    0.000    1.714    0.000    0.000 
#    0.000    0.000    0.000    0.000    0.000    0.000 
#
# Total GULP energy -156397.736541 kJ/mol
# GULP energy per Si atom -5585.633448 kJ/mol
# Density = 2.496508 g / cm^3
# Si number density = 25.022031 Si / 1000 Ang^3
#
#
#
# Elastic Constant Matrix: (Units=GPa)
#
#
# Indices 1 2 3 4 5 6 
#
# 1 172.3142 17.8163 15.3538 0.0000 0.0000 0.0000
# 2 17.8163 105.0416 7.6163 0.0000 0.0000 0.0000
# 3 15.3538 7.6163 24.1914 0.0000 0.0000 0.0000
# 4 0.0000 0.0000 0.0000 25.2788 0.0000 0.0000
# 5 0.0000 0.0000 0.0000 0.0000 39.5249 0.0000
# 6 0.0000 0.0000 0.0000 0.0000 0.0000 45.7948
#
#
#
# Elastic Compliance Matrix: (Units=1/GPa)
#
#
# Indices 1 2 3 4 5 6 
#
# 1 0.006214 -0.000786 -0.003696 0.000000 0.000000 0.000000
# 2 -0.000786 0.009842 -0.002600 0.000000 0.000000 0.000000
# 3 -0.003696 -0.002600 0.044501 0.000000 0.000000 0.000000
# 4 0.000000 0.000000 0.000000 0.039559 0.000000 0.000000
# 5 0.000000 0.000000 0.000000 0.000000 0.025301 0.000000
# 6 0.000000 0.000000 0.000000 0.000000 0.000000 0.021837
#
#
# Mechanical properties :
#
#
# Convention : Reuss Voigt Hill
#
# Bulk Modulus (GPa) = 21.55492 42.56887 32.06189
# Shear Modulus (GPa) = 28.26748 39.50376 33.88562
#
# Velocity S-wave (km/s) = 3.36475 3.97767 3.68398
# Velocity P-wave (km/s) = 4.87119 6.17619 5.56209
#
# Compressibility (1/GPa) = 0.04639312
#
# Stress axis : x y z
#
# Youngs Moduli (GPa) = 160.92745 101.60699 22.47116
#
# Poissons Ratio (x) = 0.07986 0.08306
# Poissons Ratio (y) = 0.12648 0.05842
# Poissons Ratio (z) = 0.59486 0.26415
#
# Static dielectric constant tensor:
#      x y z
#    x 2.127950 0.000000 0.000000 
#    y 0.000000 2.070060 0.000000 
#    z 0.000000 0.000000 2.044210 
# 
# From -- ./inp_files/5359.got.cif
#   From: 2010.05.17/outbox.cif.g08.bks.cpg/sg19_3_cif.got.tgz:5359.got - 2010.06.03 22:46:19.
