data_PCOD9314319
_publ_section_title
;
Structure prediction by ZEFSAII (Michael W. Deem and Ramdas Pophale) SiO2 
 PCOD9314319
Probable space group: P 21 21 21
;
_chemical_formula_sum "Si O2"
_cell_formula_units_Z 32
_cell_length_a 5.178303
_cell_length_b 13.799972
_cell_length_c 17.286111
_cell_angle_alpha 90.000000
_cell_angle_beta 90.000000
_cell_angle_gamma 90.000000
_cell_volume 1235.273036
_symmetry_space_group_name_H-M "P 21 21 21"
_symmetry_group_IT_number 19
_symmetry_cell_setting 'orthorhombic'
loop_
_space_group_symop_operation_xyz
x,y,z
1/2-x,-y,1/2+z
1/2+x,1/2-y,-z
-x,1/2+y,1/2-z
loop_
_atom_site_type_symbol
_atom_site_label
_atom_site_fract_x
_atom_site_fract_y
_atom_site_fract_z
Si Si1 0.882694 0.549690 0.600186
Si Si2 0.100307 0.780308 0.378314
Si Si3 0.798684 0.620996 0.016999
Si Si4 0.337146 0.891604 0.700518
Si Si5 0.382697 0.549690 0.899813
Si Si6 0.899693 0.219691 0.621685
Si Si7 0.298681 0.620996 0.483002
Si Si8 0.837146 0.891603 0.799483
O O1 0.763191 0.630839 0.656860
O O2 0.668080 0.479891 0.561995
O O3 0.081624 0.475343 0.640306
O O4 0.031831 0.603627 0.530414
O O5 0.893188 0.716956 0.331745
O O6 0.282113 0.698274 0.414223
O O7 0.977809 0.832472 0.452713
O O8 0.782113 0.698274 0.085778
O O9 0.531837 0.603627 0.969585
O O10 0.977815 0.667528 0.952715
O O11 0.050641 0.902751 0.731946
O O12 0.550641 0.902753 0.768056
O O13 0.418373 0.975344 0.640307
O O14 0.263190 0.630839 0.843141
O O15 0.168084 0.479890 0.938005
O O16 0.106816 0.283044 0.668254
#
# Coordination Sequence:
#
# PCOD9314319 Si02
#       8
#     4   4   4   4   4   4   4   4
#     4  10  23  41  67  97 134 176 212 289 339 404
#     4  11  22  40  72  96 137 172 220 288 341 406
#     4  10  21  39  65 106 129 161 224 278 360 400
#     4  11  29  48  65  97 138 186 237 270 320 407
#     4  10  23  41  67  97 134 176 212 289 339 404
#     4  11  22  40  72  96 137 172 220 288 341 406
#     4  10  21  39  65 106 129 161 224 278 360 400
#     4  11  29  48  65  97 138 186 237 270 320 407
#
# _framework density 25.905203
#
# number of rings (size 3 to 8) (size 9 to 14) (size 15 to 20)
#    0.000    1.500    2.500    0.750    7.000    2.000 
#    0.000    0.000    0.000    0.000    0.000    0.000 
#    0.000    0.000    0.000    0.000    0.000    0.000 
#
# Total GULP energy -178961.396430 kJ/mol
# GULP energy per Si atom -5592.543638 kJ/mol
# Density = 2.584624 g / cm^3
# Si number density = 25.905203 Si / 1000 Ang^3
#
#
#
# Elastic Constant Matrix: (Units=GPa)
#
#
# Indices 1 2 3 4 5 6 
#
# 1 56.3996 25.6415 27.1256 0.0000 0.0000 0.0000
# 2 25.6415 162.5014 15.8733 0.0000 0.0000 0.0000
# 3 27.1256 15.8733 60.8608 0.0000 0.0000 0.0000
# 4 0.0000 0.0000 0.0000 31.1538 0.0000 0.0000
# 5 0.0000 0.0000 0.0000 0.0000 57.2440 0.0000
# 6 0.0000 0.0000 0.0000 0.0000 0.0000 12.9531
#
#
#
# Elastic Compliance Matrix: (Units=1/GPa)
#
#
# Indices 1 2 3 4 5 6 
#
# 1 0.023734 -0.002783 -0.009853 0.000000 0.000000 0.000000
# 2 -0.002783 0.006641 -0.000492 0.000000 0.000000 0.000000
# 3 -0.009853 -0.000492 0.020951 0.000000 0.000000 0.000000
# 4 0.000000 0.000000 0.000000 0.032099 0.000000 0.000000
# 5 0.000000 0.000000 0.000000 0.000000 0.017469 0.000000
# 6 0.000000 0.000000 0.000000 0.000000 0.000000 0.077202
#
#
# Mechanical properties :
#
#
# Convention : Reuss Voigt Hill
#
# Bulk Modulus (GPa) = 39.88577 46.33806 43.11192
# Shear Modulus (GPa) = 23.50652 34.34494 28.92573
#
# Velocity S-wave (km/s) = 3.01558 3.64509 3.34518
# Velocity P-wave (km/s) = 5.24931 5.97009 5.62127
#
# Compressibility (1/GPa) = 0.02507160
#
# Stress axis : x y z
#
# Youngs Moduli (GPa) = 42.13300 150.58160 47.73152
#
# Poissons Ratio (x) = 0.41902 0.47028
# Poissons Ratio (y) = 0.11724 0.02347
# Poissons Ratio (z) = 0.41512 0.07406
#
# Static dielectric constant tensor:
#      x y z
#    x 2.094340 0.000000 0.000000 
#    y 0.000000 2.094420 0.000000 
#    z 0.000000 0.000000 2.088850 
# 
# From -- ./inp_files/6488.got.cif
#   From: 2010.05.17/outbox.cif.g08.bks.cpg/sg19_4_cif.got.tgz:6488.got - 2010.06.03 22:46:19.
