data_PCOD9314946
_publ_section_title
;
Structure prediction by ZEFSAII (Michael W. Deem and Ramdas Pophale) SiO2 
 PCOD9314946
Probable space group: P 21 21 21
;
_chemical_formula_sum "Si O2"
_cell_formula_units_Z 28
_cell_length_a 5.193283
_cell_length_b 11.898578
_cell_length_c 16.393336
_cell_angle_alpha 90.000000
_cell_angle_beta 90.000000
_cell_angle_gamma 90.000000
_cell_volume 1012.988212
_symmetry_space_group_name_H-M "P 21 21 21"
_symmetry_group_IT_number 19
_symmetry_cell_setting 'orthorhombic'
loop_
_space_group_symop_operation_xyz
x,y,z
1/2-x,-y,1/2+z
1/2+x,1/2-y,-z
-x,1/2+y,1/2-z
loop_
_atom_site_type_symbol
_atom_site_label
_atom_site_fract_x
_atom_site_fract_y
_atom_site_fract_z
Si Si1 0.706643 0.411487 0.667878
Si Si2 0.055045 0.011094 0.610072
Si Si3 0.234282 0.300380 0.040164
Si Si4 0.982075 0.488089 0.520540
Si Si5 0.536706 0.206563 0.190121
Si Si6 0.322860 0.693007 0.915915
Si Si7 0.594346 0.606322 0.755878
O O1 0.874818 0.492138 0.610916
O O2 0.880443 0.338008 0.730485
O O3 0.607310 0.319854 0.603734
O O4 0.500431 0.498251 0.704608
O O5 0.947874 0.128767 0.576215
O O6 0.281364 0.971409 0.548755
O O7 0.169644 0.048343 0.696770
O O8 0.887144 0.903273 0.637169
O O9 0.268139 0.433221 0.023223
O O10 0.333971 0.272104 0.131492
O O11 0.952194 0.257219 0.017769
O O12 0.032033 0.360559 0.492570
O O13 0.778579 0.284874 0.213346
O O14 0.411425 0.636893 0.829903
#
# Coordination Sequence:
#
# PCOD9314946 Si02
#       7
#     4   4   4   4   4   4   4
#     4  11  25  45  69 104 145 190 249 318 382 469
#     4  10  22  45  65  97 142 188 242 310 376 456
#     4  12  26  49  78 114 155 207 260 326 393 466
#     4  11  25  45  69 108 145 199 257 309 392 474
#     4  11  22  45  73 102 148 186 256 317 385 453
#     4  11  25  42  71  96 145 196 242 313 383 462
#     4  10  23  43  65 103 136 180 250 307 385 452
#
# _framework density 27.640989999999999
#
# number of rings (size 3 to 8) (size 9 to 14) (size 15 to 20)
#    0.000    1.143    4.286    0.857    4.000    1.143 
#    0.000    0.000    0.000    0.000    0.000    0.000 
#    0.000    0.000    0.000    0.000    0.000    0.000 
#
# Total GULP energy -156593.288403 kJ/mol
# GULP energy per Si atom -5592.617443 kJ/mol
# Density = 2.757808 g / cm^3
# Si number density = 27.640990 Si / 1000 Ang^3
#
#
#
# Elastic Constant Matrix: (Units=GPa)
#
#
# Indices 1 2 3 4 5 6 
#
# 1 46.3755 8.0830 4.0360 0.0000 0.0000 0.0000
# 2 8.0830 144.7933 17.5853 0.0000 0.0000 0.0000
# 3 4.0360 17.5853 119.3219 0.0000 0.0000 0.0000
# 4 0.0000 0.0000 0.0000 49.1698 0.0000 0.0000
# 5 0.0000 0.0000 0.0000 0.0000 40.7184 0.0000
# 6 0.0000 0.0000 0.0000 0.0000 0.0000 33.3326
#
#
#
# Elastic Compliance Matrix: (Units=1/GPa)
#
#
# Indices 1 2 3 4 5 6 
#
# 1 0.021813 -0.001149 -0.000569 0.000000 0.000000 0.000000
# 2 -0.001149 0.007093 -0.001006 0.000000 0.000000 0.000000
# 3 -0.000569 -0.001006 0.008548 0.000000 0.000000 0.000000
# 4 0.000000 0.000000 0.000000 0.020338 0.000000 0.000000
# 5 0.000000 0.000000 0.000000 0.000000 0.024559 0.000000
# 6 0.000000 0.000000 0.000000 0.000000 0.000000 0.030001
#
#
# Mechanical properties :
#
#
# Convention : Reuss Voigt Hill
#
# Bulk Modulus (GPa) = 31.24361 41.09994 36.17178
# Shear Modulus (GPa) = 38.92043 43.36324 41.14183
#
# Velocity S-wave (km/s) = 3.75650 3.96511 3.86221
# Velocity P-wave (km/s) = 5.49026 5.98868 5.74487
#
# Compressibility (1/GPa) = 0.03200655
#
# Stress axis : x y z
#
# Youngs Moduli (GPa) = 45.84463 140.98891 116.98300
#
# Poissons Ratio (x) = 0.16195 0.06651
# Poissons Ratio (y) = 0.05266 0.11774
# Poissons Ratio (z) = 0.02606 0.14190
#
# Static dielectric constant tensor:
#      x y z
#    x 2.168630 0.000000 0.000000 
#    y 0.000000 2.270010 0.000000 
#    z 0.000000 0.000000 2.211280 
# 
# From -- ./inp_files/5351.got.cif
#   From: 2010.05.17/outbox.cif.g08.bks.cpg/sg19_3_cif.got.tgz:5351.got - 2010.06.03 22:46:19.
