data_PCOD9314151
_publ_section_title
;
Structure prediction by ZEFSAII (Michael W. Deem and Ramdas Pophale) SiO2 
 PCOD9314151
Probable space group: P 21 21 21
;
_chemical_formula_sum "Si O2"
_cell_formula_units_Z 28
_cell_length_a 7.325831
_cell_length_b 9.043166
_cell_length_c 16.516572
_cell_angle_alpha 90.000000
_cell_angle_beta 90.000000
_cell_angle_gamma 90.000000
_cell_volume 1094.201520
_symmetry_space_group_name_H-M "P 21 21 21"
_symmetry_group_IT_number 19
_symmetry_cell_setting 'orthorhombic'
loop_
_space_group_symop_operation_xyz
x,y,z
1/2-x,-y,1/2+z
1/2+x,1/2-y,-z
-x,1/2+y,1/2-z
loop_
_atom_site_type_symbol
_atom_site_label
_atom_site_fract_x
_atom_site_fract_y
_atom_site_fract_z
Si Si1 0.866444 0.510271 0.678873
Si Si2 0.164345 0.877417 0.080374
Si Si3 0.169223 0.464410 0.014665
Si Si4 0.557734 0.711453 0.755603
Si Si5 0.082965 0.719146 0.910965
Si Si6 0.268327 0.511003 0.698063
Si Si7 0.251950 0.136281 0.986566
O O1 0.707402 0.590415 0.727244
O O2 0.849595 0.336693 0.655702
O O3 0.862738 0.597440 0.593327
O O4 0.059329 0.527495 0.722902
O O5 0.033810 0.822241 0.150058
O O6 0.371809 0.826745 0.101480
O O7 0.101739 0.807794 0.995725
O O8 0.169111 0.052014 0.063635
O O9 0.231889 0.526001 0.101702
O O10 0.952601 0.433309 0.025184
O O11 0.188106 0.570348 0.937195
O O12 0.263371 0.309120 0.998826
O O13 0.378808 0.662658 0.708040
O O14 0.635001 0.877534 0.753275
#
# Coordination Sequence:
#
# PCOD9314151 Si02
#       7
#     4   4   4   4   4   4   4
#     4  11  24  49  74 110 149 196 254 313 374 458
#     4  10  22  43  71 106 143 191 245 307 367 443
#     4  11  21  44  72 110 149 198 250 315 376 442
#     4  12  27  49  73 112 156 199 250 304 398 451
#     4  10  20  44  74 100 140 193 257 299 364 447
#     4  12  27  50  73 106 156 198 248 315 380 463
#     4  10  23  41  75 110 151 189 254 311 365 444
#
# _framework density 25.589437
#
# number of rings (size 3 to 8) (size 9 to 14) (size 15 to 20)
#    0.000    1.143    4.286    0.857    2.000    2.286 
#    7.714    0.000    0.000    0.000    0.000    0.000 
#    0.000    0.000    0.000    0.000    0.000    0.000 
#
# Total GULP energy -156880.276929 kJ/mol
# GULP energy per Si atom -5602.867033 kJ/mol
# Density = 2.553119 g / cm^3
# Si number density = 25.589437 Si / 1000 Ang^3
#
#
#
# Elastic Constant Matrix: (Units=GPa)
#
#
# Indices 1 2 3 4 5 6 
#
# 1 93.8915 33.6893 13.4537 0.0000 0.0000 0.0000
# 2 33.6893 149.9727 24.2540 0.0000 0.0000 0.0000
# 3 13.4537 24.2540 35.4753 0.0000 0.0000 0.0000
# 4 0.0000 0.0000 0.0000 42.1517 0.0000 0.0000
# 5 0.0000 0.0000 0.0000 0.0000 38.4529 0.0000
# 6 0.0000 0.0000 0.0000 0.0000 0.0000 31.4778
#
#
#
# Elastic Compliance Matrix: (Units=1/GPa)
#
#
# Indices 1 2 3 4 5 6 
#
# 1 0.011863 -0.002178 -0.003010 0.000000 0.000000 0.000000
# 2 -0.002178 0.007897 -0.004573 0.000000 0.000000 0.000000
# 3 -0.003010 -0.004573 0.032456 0.000000 0.000000 0.000000
# 4 0.000000 0.000000 0.000000 0.023724 0.000000 0.000000
# 5 0.000000 0.000000 0.000000 0.000000 0.026006 0.000000
# 6 0.000000 0.000000 0.000000 0.000000 0.000000 0.031768
#
#
# Mechanical properties :
#
#
# Convention : Reuss Voigt Hill
#
# Bulk Modulus (GPa) = 30.58591 46.90371 38.74481
# Shear Modulus (GPa) = 30.46277 36.27931 33.37104
#
# Velocity S-wave (km/s) = 3.45402 3.76938 3.61514
# Velocity P-wave (km/s) = 5.28068 6.10847 5.70960
#
# Compressibility (1/GPa) = 0.03269479
#
# Stress axis : x y z
#
# Youngs Moduli (GPa) = 84.29257 126.63511 30.81053
#
# Poissons Ratio (x) = 0.27584 0.09274
# Poissons Ratio (y) = 0.18361 0.14089
# Poissons Ratio (z) = 0.25371 0.57908
#
# Static dielectric constant tensor:
#      x y z
#    x 2.051080 0.000000 0.000000 
#    y 0.000000 2.015130 0.000000 
#    z 0.000000 0.000000 1.988170 
# 
# From -- ./inp_files/6615.got.cif
#   From: 2010.05.17/outbox.cif.g08.bks.cpg/sg19_4_cif.got.tgz:6615.got - 2010.06.03 22:46:19.
