data_PCOD9314791
_publ_section_title
;
Structure prediction by ZEFSAII (Michael W. Deem and Ramdas Pophale) SiO2 
 PCOD9314791
Probable space group: P 21 21 21
;
_chemical_formula_sum "Si O2"
_cell_formula_units_Z 24
_cell_length_a 6.022136
_cell_length_b 13.293463
_cell_length_c 14.382187
_cell_angle_alpha 90.000000
_cell_angle_beta 90.000000
_cell_angle_gamma 90.000000
_cell_volume 1151.366586
_symmetry_space_group_name_H-M "P 21 21 21"
_symmetry_group_IT_number 19
_symmetry_cell_setting 'orthorhombic'
loop_
_space_group_symop_operation_xyz
x,y,z
1/2-x,-y,1/2+z
1/2+x,1/2-y,-z
-x,1/2+y,1/2-z
loop_
_atom_site_type_symbol
_atom_site_label
_atom_site_fract_x
_atom_site_fract_y
_atom_site_fract_z
Si Si1 0.745370 0.283653 0.597068
Si Si2 0.236426 0.521546 0.658107
Si Si3 0.404032 0.405897 0.496280
Si Si4 0.886631 0.831334 0.754820
Si Si5 0.101762 0.011078 0.690669
Si Si6 0.556115 0.661601 0.758203
O O1 0.628803 0.381747 0.554063
O O2 0.792932 0.203117 0.516220
O O3 0.584531 0.227551 0.669647
O O4 0.969875 0.305170 0.653813
O O5 0.256750 0.485043 0.552988
O O6 0.289084 0.418601 0.716350
O O7 0.398375 0.612552 0.681311
O O8 0.001499 0.541687 0.708215
O O9 0.459920 0.443952 0.393522
O O10 0.750850 0.735267 0.722836
O O11 0.062730 0.890915 0.689862
O O12 0.335782 0.066136 0.688551
#
# Coordination Sequence:
#
# PCOD9314791 Si02
#       6
#     4   4   4   4   4   4
#     4  12  21  38  65 100 131 162 225 282 327 378
#     4  10  23  39  62  96 131 172 216 266 331 385
#     4  12  21  38  65 101 127 170 223 273 325 386
#     4  10  22  42  63  96 135 172 213 271 336 381
#     4  10  23  40  60  98 135 169 212 271 332 387
#     4  12  20  43  67  91 133 177 211 273 337 383
#
# _framework density 20.844795000000001
#
# number of rings (size 3 to 8) (size 9 to 14) (size 15 to 20)
#    1.000    0.000    5.000    3.000    0.000    0.000 
#    0.000    0.000    7.333    0.000    0.000    0.000 
#    0.000    0.000    0.000    0.000    0.000    0.000 
#
# Total GULP energy -133687.487803 kJ/mol
# GULP energy per Si atom -5570.311992 kJ/mol
# Density = 2.079735 g / cm^3
# Si number density = 20.844795 Si / 1000 Ang^3
#
#
#
# Elastic Constant Matrix: (Units=GPa)
#
#
# Indices 1 2 3 4 5 6 
#
# 1 41.7376 27.0638 5.2867 0.0000 0.0000 0.0000
# 2 27.0638 86.0243 7.8384 0.0000 0.0000 0.0000
# 3 5.2867 7.8384 41.5663 0.0000 0.0000 0.0000
# 4 0.0000 0.0000 0.0000 43.1939 0.0000 0.0000
# 5 0.0000 0.0000 0.0000 0.0000 18.8545 0.0000
# 6 0.0000 0.0000 0.0000 0.0000 0.0000 38.9826
#
#
#
# Elastic Compliance Matrix: (Units=1/GPa)
#
#
# Indices 1 2 3 4 5 6 
#
# 1 0.030277 -0.009335 -0.002091 0.000000 0.000000 0.000000
# 2 -0.009335 0.014706 -0.001586 0.000000 0.000000 0.000000
# 3 -0.002091 -0.001586 0.024623 0.000000 0.000000 0.000000
# 4 0.000000 0.000000 0.000000 0.023151 0.000000 0.000000
# 5 0.000000 0.000000 0.000000 0.000000 0.053038 0.000000
# 6 0.000000 0.000000 0.000000 0.000000 0.000000 0.025652
#
#
# Mechanical properties :
#
#
# Convention : Reuss Voigt Hill
#
# Bulk Modulus (GPa) = 22.94459 27.74511 25.34485
# Shear Modulus (GPa) = 23.58517 28.81550 26.20034
#
# Velocity S-wave (km/s) = 3.36738 3.72208 3.54916
# Velocity P-wave (km/s) = 5.11373 5.64013 5.38336
#
# Compressibility (1/GPa) = 0.04358327
#
# Stress axis : x y z
#
# Youngs Moduli (GPa) = 33.02844 67.99985 40.61256
#
# Poissons Ratio (x) = 0.63477 0.08490
# Poissons Ratio (y) = 0.30831 0.06441
# Poissons Ratio (z) = 0.06905 0.10784
#
# Static dielectric constant tensor:
#      x y z
#    x 1.840140 0.000000 0.000000 
#    y 0.000000 1.791810 0.000000 
#    z 0.000000 0.000000 1.751040 
# 
# From -- ./inp_files/5680.got.cif
#   From: 2010.05.17/outbox.cif.g08.bks.cpg/sg19_3_cif.got.tgz:5680.got - 2010.06.03 22:46:19.
