data_PCOD9314417
_publ_section_title
;
Structure prediction by ZEFSAII (Michael W. Deem and Ramdas Pophale) SiO2 
 PCOD9314417
Probable space group: P 21 21 21
;
_chemical_formula_sum "Si O2"
_cell_formula_units_Z 32
_cell_length_a 11.965112
_cell_length_b 9.087165
_cell_length_c 13.552673
_cell_angle_alpha 90.000000
_cell_angle_beta 90.000000
_cell_angle_gamma 90.000000
_cell_volume 1473.567864
_symmetry_space_group_name_H-M "P 21 21 21"
_symmetry_group_IT_number 19
_symmetry_cell_setting 'orthorhombic'
loop_
_space_group_symop_operation_xyz
x,y,z
1/2-x,-y,1/2+z
1/2+x,1/2-y,-z
-x,1/2+y,1/2-z
loop_
_atom_site_type_symbol
_atom_site_label
_atom_site_fract_x
_atom_site_fract_y
_atom_site_fract_z
Si Si1 0.406256 0.465913 0.856645
Si Si2 0.760565 0.057455 0.964642
Si Si3 0.745298 0.624768 0.384223
Si Si4 0.942475 0.723021 0.240351
Si Si5 0.549051 0.422670 0.329673
Si Si6 0.899937 0.429848 0.503235
Si Si7 0.956109 0.110945 0.453540
Si Si8 0.433673 0.593763 0.176163
O O1 0.443461 0.318482 0.799484
O O2 0.416976 0.607267 0.785049
O O3 0.500108 0.497719 0.939548
O O4 0.293560 0.460945 0.920451
O O5 0.791362 0.220867 0.930302
O O6 0.631189 0.021493 0.945156
O O7 0.833666 0.949315 0.896544
O O8 0.842978 0.658481 0.305723
O O9 0.648235 0.539406 0.328284
O O10 0.793395 0.524738 0.473473
O O11 0.960622 0.638379 0.136830
O O12 0.520414 0.404143 0.444370
O O13 0.445834 0.485537 0.267797
O O14 0.579316 0.261501 0.290884
O O15 0.886255 0.263237 0.464749
O O16 0.950750 0.423040 0.612814
#
# Coordination Sequence:
#
# PCOD9314417 Si02
#       8
#     4   4   4   4   4   4   4   4
#     4   9  20  38  62  89 121 159 208 260 308 371
#     4  11  23  39  62  93 127 161 205 262 318 374
#     4  11  23  38  62  94 123 160 208 257 315 377
#     4  10  21  41  64  89 123 168 213 256 312 383
#     4  11  24  40  62  91 123 162 207 258 315 373
#     4   8  19  40  60  81 115 159 203 250 301 368
#     4  10  22  40  62  88 122 163 209 258 312 375
#     4  10  22  42  62  85 122 162 203 253 311 375
#
# _framework density 21.716000000000001
#
# number of rings (size 3 to 8) (size 9 to 14) (size 15 to 20)
#    0.000    2.000    0.000    3.000    0.000   10.000 
#    0.000    2.500    0.000    0.000    0.000    0.000 
#    0.000    0.000    0.000    0.000    0.000    0.000 
#
# Total GULP energy -178727.237979 kJ/mol
# GULP energy per Si atom -5585.226187 kJ/mol
# Density = 2.166657 g / cm^3
# Si number density = 21.716000 Si / 1000 Ang^3
#
#
#
# Elastic Constant Matrix: (Units=GPa)
#
#
# Indices 1 2 3 4 5 6 
#
# 1 34.9248 11.9973 7.9013 0.0000 0.0000 0.0000
# 2 11.9973 103.2156 24.9216 0.0000 0.0000 0.0000
# 3 7.9013 24.9216 69.3511 0.0000 0.0000 0.0000
# 4 0.0000 0.0000 0.0000 21.0710 0.0000 0.0000
# 5 0.0000 0.0000 0.0000 0.0000 20.5105 0.0000
# 6 0.0000 0.0000 0.0000 0.0000 0.0000 25.6643
#
#
#
# Elastic Compliance Matrix: (Units=1/GPa)
#
#
# Indices 1 2 3 4 5 6 
#
# 1 0.030180 -0.002932 -0.002385 0.000000 0.000000 0.000000
# 2 -0.002932 0.010894 -0.003581 0.000000 0.000000 0.000000
# 3 -0.002385 -0.003581 0.015978 0.000000 0.000000 0.000000
# 4 0.000000 0.000000 0.000000 0.047459 0.000000 0.000000
# 5 0.000000 0.000000 0.000000 0.000000 0.048756 0.000000
# 6 0.000000 0.000000 0.000000 0.000000 0.000000 0.038965
#
#
# Mechanical properties :
#
#
# Convention : Reuss Voigt Hill
#
# Bulk Modulus (GPa) = 25.47367 33.01466 29.24417
# Shear Modulus (GPa) = 22.41039 24.29390 23.35214
#
# Velocity S-wave (km/s) = 3.21592 3.34834 3.28280
# Velocity P-wave (km/s) = 5.05424 5.49404 5.27872
#
# Compressibility (1/GPa) = 0.03925622
#
# Stress axis : x y z
#
# Youngs Moduli (GPa) = 33.13480 91.79498 62.58674
#
# Poissons Ratio (x) = 0.26916 0.14925
# Poissons Ratio (y) = 0.09716 0.22410
# Poissons Ratio (z) = 0.07902 0.32869
#
# Static dielectric constant tensor:
#      x y z
#    x 1.796310 0.000000 0.000000 
#    y 0.000000 1.801990 0.000000 
#    z 0.000000 0.000000 1.806580 
# 
# From -- ./inp_files/6171.got.cif
#   From: 2010.05.17/outbox.cif.g08.bks.cpg/sg19_4_cif.got.tgz:6171.got - 2010.06.03 22:46:19.
