data_PCOD9314550
_publ_section_title
;
Structure prediction by ZEFSAII (Michael W. Deem and Ramdas Pophale) SiO2 
 PCOD9314550
Probable space group: P 21 21 21
;
_chemical_formula_sum "Si O2"
_cell_formula_units_Z 28
_cell_length_a 8.335053
_cell_length_b 11.569682
_cell_length_c 11.565400
_cell_angle_alpha 90.000000
_cell_angle_beta 90.000000
_cell_angle_gamma 90.000000
_cell_volume 1115.296774
_symmetry_space_group_name_H-M "P 21 21 21"
_symmetry_group_IT_number 19
_symmetry_cell_setting 'orthorhombic'
loop_
_space_group_symop_operation_xyz
x,y,z
1/2-x,-y,1/2+z
1/2+x,1/2-y,-z
-x,1/2+y,1/2-z
loop_
_atom_site_type_symbol
_atom_site_label
_atom_site_fract_x
_atom_site_fract_y
_atom_site_fract_z
Si Si1 0.622996 0.310823 0.397969
Si Si2 0.939658 0.214301 0.269211
Si Si3 0.533343 0.900882 0.321688
Si Si4 0.351080 0.493678 0.584784
Si Si5 0.104899 0.379885 0.422676
Si Si6 0.317343 0.986739 0.497295
Si Si7 0.071764 0.793859 0.487719
O O1 0.776580 0.263218 0.327907
O O2 0.501480 0.357640 0.304447
O O3 0.690167 0.413761 0.476762
O O4 0.551830 0.211021 0.477309
O O5 0.953239 0.089787 0.330952
O O6 0.082179 0.302098 0.308742
O O7 0.913134 0.224627 0.132720
O O8 0.385999 0.979761 0.367394
O O9 0.535445 0.792684 0.409038
O O10 0.697131 0.969064 0.339416
O O11 0.270141 0.428598 0.474590
O O12 0.972421 0.480910 0.425841
O O13 0.942620 0.894303 0.461683
O O14 0.231895 0.865255 0.520298
#
# Coordination Sequence:
#
# PCOD9314550 Si02
#       7
#     4   4   4   4   4   4   4
#     4  10  21  44  70  98 137 183 232 291 342 419
#     4  10  22  44  68  99 144 179 233 285 352 421
#     4  11  24  46  66 104 137 181 239 287 349 420
#     4  10  24  43  67 101 136 187 225 291 356 406
#     4   9  21  45  67 101 133 181 235 285 344 429
#     4  10  22  42  69  96 138 177 227 286 354 404
#     4  12  24  44  69 105 139 182 233 295 345 421
#
# _framework density 25.105428
#
# number of rings (size 3 to 8) (size 9 to 14) (size 15 to 20)
#    0.000    1.714    1.429    1.714    0.000    6.857 
#   20.571    0.000    0.000    0.000    0.000    0.000 
#    0.000    0.000    0.000    0.000    0.000    0.000 
#
# Total GULP energy -156837.769710 kJ/mol
# GULP energy per Si atom -5601.348918 kJ/mol
# Density = 2.504829 g / cm^3
# Si number density = 25.105428 Si / 1000 Ang^3
#
#
#
# Elastic Constant Matrix: (Units=GPa)
#
#
# Indices 1 2 3 4 5 6 
#
# 1 68.6676 48.1696 61.0699 0.0000 0.0000 0.0000
# 2 48.1696 138.3854 67.8844 0.0000 0.0000 0.0000
# 3 61.0699 67.8844 121.8274 0.0000 0.0000 0.0000
# 4 0.0000 0.0000 0.0000 24.7569 0.0000 0.0000
# 5 0.0000 0.0000 0.0000 0.0000 35.5511 0.0000
# 6 0.0000 0.0000 0.0000 0.0000 0.0000 44.7196
#
#
#
# Elastic Compliance Matrix: (Units=1/GPa)
#
#
# Indices 1 2 3 4 5 6 
#
# 1 0.027727 -0.003899 -0.011726 0.000000 0.000000 0.000000
# 2 -0.003899 0.010493 -0.003892 0.000000 0.000000 0.000000
# 3 -0.011726 -0.003892 0.016255 0.000000 0.000000 0.000000
# 4 0.000000 0.000000 0.000000 0.040393 0.000000 0.000000
# 5 0.000000 0.000000 0.000000 0.000000 0.028129 0.000000
# 6 0.000000 0.000000 0.000000 0.000000 0.000000 0.022362
#
#
# Mechanical properties :
#
#
# Convention : Reuss Voigt Hill
#
# Bulk Modulus (GPa) = 64.76777 75.90315 70.33546
# Shear Modulus (GPa) = 26.37969 31.12263 28.75116
#
# Velocity S-wave (km/s) = 3.24505 3.52472 3.38778
# Velocity P-wave (km/s) = 6.31623 6.84575 6.58632
#
# Compressibility (1/GPa) = 0.01543978
#
# Stress axis : x y z
#
# Youngs Moduli (GPa) = 36.06602 95.30464 61.51787
#
# Poissons Ratio (x) = 0.37158 0.72139
# Poissons Ratio (y) = 0.14062 0.23944
# Poissons Ratio (z) = 0.42293 0.37095
#
# Static dielectric constant tensor:
#      x y z
#    x 2.027830 0.000000 0.000000 
#    y 0.000000 1.987070 0.000000 
#    z 0.000000 0.000000 1.925700 
# 
# From -- ./inp_files/4643.got.cif
#   From: 2010.05.17/outbox.cif.g08.bks.cpg/sg19_3_cif.got.tgz:4643.got - 2010.06.03 22:46:19.
