data_PCOD9314800
_publ_section_title
;
Structure prediction by ZEFSAII (Michael W. Deem and Ramdas Pophale) SiO2 
 PCOD9314800
Probable space group: P 21 21 21
;
_chemical_formula_sum "Si O2"
_cell_formula_units_Z 20
_cell_length_a 28.603150
_cell_length_b 4.960589
_cell_length_c 5.467109
_cell_angle_alpha 90.000000
_cell_angle_beta 90.000000
_cell_angle_gamma 90.000000
_cell_volume 775.719738
_symmetry_space_group_name_H-M "P 21 21 21"
_symmetry_group_IT_number 19
_symmetry_cell_setting 'orthorhombic'
loop_
_space_group_symop_operation_xyz
x,y,z
1/2-x,-y,1/2+z
1/2+x,1/2-y,-z
-x,1/2+y,1/2-z
loop_
_atom_site_type_symbol
_atom_site_label
_atom_site_fract_x
_atom_site_fract_y
_atom_site_fract_z
Si Si1 0.011429 0.959498 0.899793
Si Si2 0.338731 0.034067 0.783115
Si Si3 0.108273 0.255912 0.929236
Si Si4 0.222251 0.463262 0.405401
Si Si5 0.582977 0.177145 0.585769
O O1 0.987105 0.234137 0.809351
O O2 0.063507 0.056860 0.947214
O O3 0.973145 0.830365 0.082048
O O4 0.316481 0.318854 0.827326
O O5 0.346830 0.921030 0.504773
O O6 0.302354 0.825833 0.903900
O O7 0.389665 0.965894 0.898425
O O8 0.099294 0.452399 0.160376
O O9 0.103248 0.410434 0.676023
O O10 0.241778 0.525932 0.675959
#
# Coordination Sequence:
#
# PCOD9314800 Si02
#       5
#     4   4   4   4   4
#     4  10  22  42  64  98 138 186 226 266 322 376
#     4  10  26  46  71 102 132 174 221 276 336 396
#     4   9  22  41  66  96 136 176 220 271 315 391
#     4  12  28  46  75  98 134 168 219 280 350 410
#     4   9  22  41  66  96 136 176 220 271 315 391
#
# _framework density 25.782506999999999
#
# number of rings (size 3 to 8) (size 9 to 14) (size 15 to 20)
#    1.200    0.800    0.000    1.200    5.600   12.800 
#    3.600    0.000    0.000    0.000    0.000    0.000 
#    0.000    0.000    0.000    0.000    0.000    0.000 
#
# Total GULP energy -111506.837093 kJ/mol
# GULP energy per Si atom -5575.341855 kJ/mol
# Density = 2.572383 g / cm^3
# Si number density = 25.782507 Si / 1000 Ang^3
#
#
#
# Elastic Constant Matrix: (Units=GPa)
#
#
# Indices 1 2 3 4 5 6 
#
# 1 73.7502 25.0052 -1.9243 0.0000 0.0000 0.0000
# 2 25.0052 75.0078 1.1006 0.0000 0.0000 0.0000
# 3 -1.9243 1.1006 144.7987 0.0000 0.0000 0.0000
# 4 0.0000 0.0000 0.0000 19.5314 0.0000 0.0000
# 5 0.0000 0.0000 0.0000 0.0000 42.0968 0.0000
# 6 0.0000 0.0000 0.0000 0.0000 0.0000 46.1488
#
#
#
# Elastic Compliance Matrix: (Units=1/GPa)
#
#
# Indices 1 2 3 4 5 6 
#
# 1 0.015296 -0.005103 0.000242 0.000000 0.000000 0.000000
# 2 -0.005103 0.015036 -0.000182 0.000000 0.000000 0.000000
# 3 0.000242 -0.000182 0.006911 0.000000 0.000000 0.000000
# 4 0.000000 0.000000 0.000000 0.051200 0.000000 0.000000
# 5 0.000000 0.000000 0.000000 0.000000 0.023755 0.000000
# 6 0.000000 0.000000 0.000000 0.000000 0.000000 0.021669
#
#
# Mechanical properties :
#
#
# Convention : Reuss Voigt Hill
#
# Bulk Modulus (GPa) = 36.82332 37.99110 37.40721
# Shear Modulus (GPa) = 32.67907 39.51374 36.09640
#
# Velocity S-wave (km/s) = 3.56404 3.91906 3.74576
# Velocity P-wave (km/s) = 5.59016 5.93683 5.76610
#
# Compressibility (1/GPa) = 0.02715671
#
# Stress axis : x y z
#
# Youngs Moduli (GPa) = 65.37803 66.50845 144.70233
#
# Poissons Ratio (x) = 0.33937 -0.03503
# Poissons Ratio (y) = 0.33360 0.02635
# Poissons Ratio (z) = -0.01583 0.01211
#
# Static dielectric constant tensor:
#      x y z
#    x 2.063310 0.000000 0.000000 
#    y 0.000000 1.998120 0.000000 
#    z 0.000000 0.000000 2.212120 
# 
# From -- ./inp_files/2282.got.cif
#   From: 2010.05.17/outbox.cif.g08.bks.cpg/sg19_2_cif.got.tgz:2282.got - 2010.06.03 22:46:19.
