data_PCOD9314049
_publ_section_title
;
Structure prediction by ZEFSAII (Michael W. Deem and Ramdas Pophale) SiO2 
 PCOD9314049
Probable space group: P 21 21 21
;
_chemical_formula_sum "Si O2"
_cell_formula_units_Z 32
_cell_length_a 8.483012
_cell_length_b 14.801211
_cell_length_c 11.646860
_cell_angle_alpha 90.000000
_cell_angle_beta 90.000000
_cell_angle_gamma 90.000000
_cell_volume 1462.366354
_symmetry_space_group_name_H-M "P 21 21 21"
_symmetry_group_IT_number 19
_symmetry_cell_setting 'orthorhombic'
loop_
_space_group_symop_operation_xyz
x,y,z
1/2-x,-y,1/2+z
1/2+x,1/2-y,-z
-x,1/2+y,1/2-z
loop_
_atom_site_type_symbol
_atom_site_label
_atom_site_fract_x
_atom_site_fract_y
_atom_site_fract_z
Si Si1 0.724887 0.919130 0.571773
Si Si2 0.015113 0.179052 0.219774
Si Si3 0.519355 0.434876 0.105291
Si Si4 0.359580 0.307274 0.535630
Si Si5 0.862940 0.363282 0.825849
Si Si6 0.497586 0.452987 0.371050
Si Si7 0.447323 0.744519 0.486711
Si Si8 0.003452 0.861586 0.915608
O O1 0.582716 0.899818 0.657402
O O2 0.658244 0.936474 0.444881
O O3 0.826920 0.829111 0.558793
O O4 0.828478 0.998398 0.621327
O O5 0.194173 0.147558 0.232487
O O6 0.928264 0.202172 0.336495
O O7 0.021571 0.257162 0.122485
O O8 0.527044 0.420658 0.241400
O O9 0.595508 0.347313 0.046273
O O10 0.568339 0.536000 0.068951
O O11 0.475647 0.374914 0.464433
O O12 0.381973 0.211282 0.473435
O O13 0.177161 0.342066 0.542321
O O14 0.885268 0.461206 0.885376
O O15 0.896022 0.284072 0.916440
O O16 0.988862 0.352529 0.722608
#
# Coordination Sequence:
#
# PCOD9314049 Si02
#       8
#     4   4   4   4   4   4   4   4
#     4  10  21  40  70  98 128 172 229 271 332 409
#     4  11  22  39  65 101 136 169 222 281 329 398
#     4  10  20  40  67  95 127 175 218 274 341 385
#     4  12  24  43  66 100 134 184 224 275 345 397
#     4  10  22  44  67 101 136 171 226 279 330 401
#     4  10  22  41  67  95 131 181 220 276 331 407
#     4  10  21  40  69  96 127 177 223 272 329 397
#     4  11  24  43  69  94 135 179 226 278 331 412
#
# _framework density 21.882342000000001
#
# number of rings (size 3 to 8) (size 9 to 14) (size 15 to 20)
#    0.000    1.500    1.250    5.250    0.000    1.000 
#   13.500    1.250    0.000    0.000    0.000    0.000 
#    0.000    0.000    0.000    0.000    0.000    0.000 
#
# Total GULP energy -178539.255734 kJ/mol
# GULP energy per Si atom -5579.351742 kJ/mol
# Density = 2.183254 g / cm^3
# Si number density = 21.882342 Si / 1000 Ang^3
#
#
#
# Elastic Constant Matrix: (Units=GPa)
#
#
# Indices 1 2 3 4 5 6 
#
# 1 47.1918 9.1522 1.7587 0.0000 0.0000 0.0000
# 2 9.1522 112.8331 53.6208 0.0000 0.0000 0.0000
# 3 1.7587 53.6208 101.8306 0.0000 0.0000 0.0000
# 4 0.0000 0.0000 0.0000 28.9027 0.0000 0.0000
# 5 0.0000 0.0000 0.0000 0.0000 28.0565 0.0000
# 6 0.0000 0.0000 0.0000 0.0000 0.0000 29.4290
#
#
#
# Elastic Compliance Matrix: (Units=1/GPa)
#
#
# Indices 1 2 3 4 5 6 
#
# 1 0.021570 -0.002097 0.000732 0.000000 0.000000 0.000000
# 2 -0.002097 0.012025 -0.006296 0.000000 0.000000 0.000000
# 3 0.000732 -0.006296 0.013123 0.000000 0.000000 0.000000
# 4 0.000000 0.000000 0.000000 0.034599 0.000000 0.000000
# 5 0.000000 0.000000 0.000000 0.000000 0.035642 0.000000
# 6 0.000000 0.000000 0.000000 0.000000 0.000000 0.033980
#
#
# Mechanical properties :
#
#
# Convention : Reuss Voigt Hill
#
# Bulk Modulus (GPa) = 31.85245 43.43543 37.64394
# Shear Modulus (GPa) = 28.29254 30.43256 29.36255
#
# Velocity S-wave (km/s) = 3.59965 3.73330 3.66708
# Velocity P-wave (km/s) = 5.64486 6.20291 5.93045
#
# Compressibility (1/GPa) = 0.03139476
#
# Stress axis : x y z
#
# Youngs Moduli (GPa) = 46.36150 83.16318 76.20430
#
# Poissons Ratio (x) = 0.17442 -0.05577
# Poissons Ratio (y) = 0.09724 0.47975
# Poissons Ratio (z) = -0.03393 0.52356
#
# Static dielectric constant tensor:
#      x y z
#    x 1.867230 0.000000 0.000000 
#    y 0.000000 1.821400 0.000000 
#    z 0.000000 0.000000 1.805470 
# 
# From -- ./inp_files/4727.got.cif
#   From: 2010.05.17/outbox.cif.g08.bks.cpg/sg19_3_cif.got.tgz:4727.got - 2010.06.03 22:46:19.
