data_PCOD9314983
_publ_section_title
;
Structure prediction by ZEFSAII (Michael W. Deem and Ramdas Pophale) SiO2 
 PCOD9314983
Probable space group: P 21 21 21
;
_chemical_formula_sum "Si O2"
_cell_formula_units_Z 32
_cell_length_a 11.995347
_cell_length_b 10.392319
_cell_length_c 10.464030
_cell_angle_alpha 90.000000
_cell_angle_beta 90.000000
_cell_angle_gamma 90.000000
_cell_volume 1304.440460
_symmetry_space_group_name_H-M "P 21 21 21"
_symmetry_group_IT_number 19
_symmetry_cell_setting 'orthorhombic'
loop_
_space_group_symop_operation_xyz
x,y,z
1/2-x,-y,1/2+z
1/2+x,1/2-y,-z
-x,1/2+y,1/2-z
loop_
_atom_site_type_symbol
_atom_site_label
_atom_site_fract_x
_atom_site_fract_y
_atom_site_fract_z
Si Si1 0.685123 0.891822 0.697298
Si Si2 0.285592 0.664571 0.754058
Si Si3 0.066693 0.318659 0.816839
Si Si4 0.077239 0.668154 0.055626
Si Si5 0.946853 0.088101 0.731135
Si Si6 0.346438 0.038637 0.588233
Si Si7 0.025700 0.224547 0.075348
Si Si8 0.671431 0.427980 0.629324
O O1 0.804388 0.841456 0.657313
O O2 0.671744 0.886583 0.850435
O O3 0.587625 0.803283 0.646984
O O4 0.674334 0.041933 0.664411
O O5 0.166056 0.626080 0.694289
O O6 0.383198 0.699164 0.656525
O O7 0.268056 0.794974 0.831695
O O8 0.023402 0.441926 0.741599
O O9 0.046577 0.185381 0.748445
O O10 0.003559 0.305260 0.949499
O O11 0.956700 0.616040 0.104445
O O12 0.088774 0.608492 0.915686
O O13 0.093693 0.823305 0.063918
O O14 0.421875 0.916116 0.547911
O O15 0.235733 0.028276 0.498793
O O16 0.325556 0.016354 0.741789
#
# Coordination Sequence:
#
# PCOD9314983 Si02
#       8
#     4   4   4   4   4   4   4   4
#     4  11  25  48  77 111 149 199 266 309 398 477
#     4  10  22  49  70 107 147 201 252 322 391 471
#     4  11  29  49  76 115 153 207 255 330 400 473
#     4  12  25  45  73 109 149 210 256 329 390 487
#     4  11  27  48  75 109 158 200 261 327 398 475
#     4  11  26  46  76 114 156 202 276 330 405 474
#     4  11  25  47  79 109 150 202 254 325 393 481
#     4  11  25  46  78 110 156 205 268 330 401 484
#
# _framework density 24.531590999999999
#
# number of rings (size 3 to 8) (size 9 to 14) (size 15 to 20)
#    0.000    1.000    3.750    1.500    7.000    3.000 
#    2.250    0.000    0.000    0.000    0.000    0.000 
#    0.000    0.000    0.000    0.000    0.000    0.000 
#
# Total GULP energy -179096.746307 kJ/mol
# GULP energy per Si atom -5596.773322 kJ/mol
# Density = 2.447576 g / cm^3
# Si number density = 24.531591 Si / 1000 Ang^3
#
#
#
# Elastic Constant Matrix: (Units=GPa)
#
#
# Indices 1 2 3 4 5 6 
#
# 1 60.9299 70.5011 35.5148 0.0000 0.0000 0.0000
# 2 70.5011 116.0203 12.4080 0.0000 0.0000 0.0000
# 3 35.5148 12.4080 75.6285 0.0000 0.0000 0.0000
# 4 0.0000 0.0000 0.0000 10.6052 0.0000 0.0000
# 5 0.0000 0.0000 0.0000 0.0000 27.9339 0.0000
# 6 0.0000 0.0000 0.0000 0.0000 0.0000 38.0969
#
#
#
# Elastic Compliance Matrix: (Units=1/GPa)
#
#
# Indices 1 2 3 4 5 6 
#
# 1 0.132338 -0.075088 -0.049826 0.000000 0.000000 0.000000
# 2 -0.075088 0.051378 0.026832 0.000000 0.000000 0.000000
# 3 -0.049826 0.026832 0.032218 0.000000 0.000000 0.000000
# 4 0.000000 0.000000 0.000000 0.094293 0.000000 0.000000
# 5 0.000000 0.000000 0.000000 0.000000 0.035799 0.000000
# 6 0.000000 0.000000 0.000000 0.000000 0.000000 0.026249
#
#
# Mechanical properties :
#
#
# Convention : Reuss Voigt Hill
#
# Bulk Modulus (GPa) = 50.58284 54.38072 52.48178
# Shear Modulus (GPa) = 8.69520 24.27087 16.48304
#
# Velocity S-wave (km/s) = 1.88472 3.14884 2.59494
# Velocity P-wave (km/s) = 5.03989 5.95282 5.51527
#
# Compressibility (1/GPa) = 0.01976955
#
# Stress axis : x y z
#
# Youngs Moduli (GPa) = 7.55639 19.46364 31.03810
#
# Poissons Ratio (x) = 1.46149 1.54651
# Poissons Ratio (y) = 0.56740 -0.83281
# Poissons Ratio (z) = 0.37651 -0.52224
#
# Static dielectric constant tensor:
#      x y z
#    x 1.922640 0.000000 0.000000 
#    y 0.000000 2.000770 0.000000 
#    z 0.000000 0.000000 2.004830 
# 
# From -- ./inp_files/3716.got.cif
#   From: 2010.05.17/outbox.cif.g08.bks.cpg/sg19_2_cif.got.tgz:3716.got - 2010.06.03 22:46:19.
