data_PCOD9314764
_publ_section_title
;
Structure prediction by ZEFSAII (Michael W. Deem and Ramdas Pophale) SiO2 
 PCOD9314764
Probable space group: P 21 21 21
;
_chemical_formula_sum "Si O2"
_cell_formula_units_Z 32
_cell_length_a 11.056160
_cell_length_b 6.716334
_cell_length_c 19.402631
_cell_angle_alpha 90.000000
_cell_angle_beta 90.000000
_cell_angle_gamma 90.000000
_cell_volume 1440.778518
_symmetry_space_group_name_H-M "P 21 21 21"
_symmetry_group_IT_number 19
_symmetry_cell_setting 'orthorhombic'
loop_
_space_group_symop_operation_xyz
x,y,z
1/2-x,-y,1/2+z
1/2+x,1/2-y,-z
-x,1/2+y,1/2-z
loop_
_atom_site_type_symbol
_atom_site_label
_atom_site_fract_x
_atom_site_fract_y
_atom_site_fract_z
Si Si1 0.623533 0.468897 0.903130
Si Si2 0.378306 0.814030 0.811638
Si Si3 0.519381 0.557489 0.381503
Si Si4 0.079525 0.622970 0.505787
Si Si5 0.235460 0.526764 0.380721
Si Si6 0.691906 0.184876 0.385378
Si Si7 0.564387 0.757055 0.698117
Si Si8 0.703722 0.786022 0.313715
O O1 0.549772 0.444341 0.973701
O O2 0.685784 0.686078 0.898451
O O3 0.524082 0.390741 0.848325
O O4 0.728779 0.315221 0.880164
O O5 0.330677 0.687431 0.875717
O O6 0.498011 0.739502 0.770960
O O7 0.272405 0.794364 0.753699
O O8 0.412661 0.037445 0.829748
O O9 0.377735 0.517359 0.382363
O O10 0.591852 0.353062 0.371652
O O11 0.567597 0.705090 0.321189
O O12 0.552018 0.677114 0.451645
O O13 0.176315 0.646192 0.444018
O O14 0.138681 0.450275 0.552755
O O15 0.190786 0.632679 0.310467
O O16 0.710984 0.020630 0.326195
#
# Coordination Sequence:
#
# PCOD9314764 Si02
#       8
#     4   4   4   4   4   4   4   4
#     4   9  21  39  66  97 129 174 221 282 339 407
#     4  11  22  42  70  98 135 176 228 286 349 407
#     4  10  24  44  63  97 138 176 232 275 351 417
#     4  10  24  39  66  97 139 176 226 291 339 407
#     4  11  25  42  67 105 134 180 232 288 341 416
#     4  10  22  41  69  95 131 182 227 277 349 418
#     4  10  22  42  67  98 133 168 224 281 340 405
#     4   9  22  43  64  95 133 182 224 284 346 419
#
# _framework density 22.210213
#
# number of rings (size 3 to 8) (size 9 to 14) (size 15 to 20)
#    0.000    2.000    1.250    0.000    7.000   11.000 
#    4.500    0.000    0.000    0.000    0.000    0.000 
#    0.000    0.000    0.000    0.000    0.000    0.000 
#
# Total GULP energy -178430.174481 kJ/mol
# GULP energy per Si atom -5575.942953 kJ/mol
# Density = 2.215966 g / cm^3
# Si number density = 22.210213 Si / 1000 Ang^3
#
#
#
# Elastic Constant Matrix: (Units=GPa)
#
#
# Indices 1 2 3 4 5 6 
#
# 1 99.6503 37.3873 33.4063 0.0000 0.0000 0.0000
# 2 37.3873 137.2932 24.5372 0.0000 0.0000 0.0000
# 3 33.4063 24.5372 52.3714 0.0000 0.0000 0.0000
# 4 0.0000 0.0000 0.0000 22.5167 0.0000 0.0000
# 5 0.0000 0.0000 0.0000 0.0000 14.5942 0.0000
# 6 0.0000 0.0000 0.0000 0.0000 0.0000 32.4605
#
#
#
# Elastic Compliance Matrix: (Units=1/GPa)
#
#
# Indices 1 2 3 4 5 6 
#
# 1 0.013407 -0.002317 -0.007467 0.000000 0.000000 0.000000
# 2 -0.002317 0.008350 -0.002434 0.000000 0.000000 0.000000
# 3 -0.007467 -0.002434 0.024998 0.000000 0.000000 0.000000
# 4 0.000000 0.000000 0.000000 0.044411 0.000000 0.000000
# 5 0.000000 0.000000 0.000000 0.000000 0.068520 0.000000
# 6 0.000000 0.000000 0.000000 0.000000 0.000000 0.030807
#
#
# Mechanical properties :
#
#
# Convention : Reuss Voigt Hill
#
# Bulk Modulus (GPa) = 44.80415 53.33072 49.06744
# Shear Modulus (GPa) = 22.48522 26.84657 24.66589
#
# Velocity S-wave (km/s) = 3.18525 3.48048 3.33613
# Velocity P-wave (km/s) = 5.80898 6.34157 6.08111
#
# Compressibility (1/GPa) = 0.02231936
#
# Stress axis : x y z
#
# Youngs Moduli (GPa) = 74.58571 119.76646 40.00351
#
# Poissons Ratio (x) = 0.27745 0.29870
# Poissons Ratio (y) = 0.17278 0.09738
# Poissons Ratio (z) = 0.55692 0.29155
#
# Static dielectric constant tensor:
#      x y z
#    x 1.877800 0.000000 0.000000 
#    y 0.000000 1.855760 0.000000 
#    z 0.000000 0.000000 1.917860 
# 
# From -- ./inp_files/7188.got.cif
#   From: 2010.05.17/outbox.cif.g08.bks.cpg/sg19_4_cif.got.tgz:7188.got - 2010.06.03 22:46:19.
