data_PCOD9314673
_publ_section_title
;
Structure prediction by ZEFSAII (Michael W. Deem and Ramdas Pophale) SiO2 
 PCOD9314673
Probable space group: P 21 21 21
;
_chemical_formula_sum "Si O2"
_cell_formula_units_Z 24
_cell_length_a 4.926120
_cell_length_b 22.500219
_cell_length_c 9.485225
_cell_angle_alpha 90.000000
_cell_angle_beta 90.000000
_cell_angle_gamma 90.000000
_cell_volume 1051.330756
_symmetry_space_group_name_H-M "P 21 21 21"
_symmetry_group_IT_number 19
_symmetry_cell_setting 'orthorhombic'
loop_
_space_group_symop_operation_xyz
x,y,z
1/2-x,-y,1/2+z
1/2+x,1/2-y,-z
-x,1/2+y,1/2-z
loop_
_atom_site_type_symbol
_atom_site_label
_atom_site_fract_x
_atom_site_fract_y
_atom_site_fract_z
Si Si1 0.630235 0.669647 0.997820
Si Si2 0.523580 0.019938 0.878640
Si Si3 0.629163 0.789811 0.837429
Si Si4 0.390636 0.787838 0.531025
Si Si5 0.264877 0.565336 0.898547
Si Si6 0.994832 0.594416 0.629632
O O1 0.932390 0.673939 0.057253
O O2 0.433010 0.691152 0.125276
O O3 0.597987 0.720227 0.877844
O O4 0.506418 0.607759 0.947654
O O5 0.612580 0.017211 0.713999
O O6 0.214251 0.040052 0.887731
O O7 0.714782 0.074467 0.932071
O O8 0.609820 0.964928 0.973047
O O9 0.525497 0.800565 0.681397
O O10 0.598684 0.742354 0.456329
O O11 0.379355 0.847195 0.439567
O O12 0.062154 0.601458 0.795078
#
# Coordination Sequence:
#
# PCOD9314673 Si02
#       6
#     4   4   4   4   4   4
#     4  10  22  40  64  91 130 171 213 271 325 393
#     4  10  25  42  67  95 128 172 226 271 332 385
#     4  10  23  39  61  98 130 167 220 262 330 399
#     4  12  24  41  69  98 136 176 215 273 332 407
#     4  10  25  43  71  93 132 179 221 280 330 391
#     4  10  25  41  64  99 130 171 217 271 335 385
#
# _framework density 22.828212000000001
#
# number of rings (size 3 to 8) (size 9 to 14) (size 15 to 20)
#    1.000    0.667    0.000    3.000    7.000    4.000 
#    0.000    0.000    0.000    0.000    0.000    0.000 
#    0.000    0.000    0.000    0.000    0.000    0.000 
#
# Total GULP energy -134176.567211 kJ/mol
# GULP energy per Si atom -5590.690300 kJ/mol
# Density = 2.277625 g / cm^3
# Si number density = 22.828212 Si / 1000 Ang^3
#
#
#
# Elastic Constant Matrix: (Units=GPa)
#
#
# Indices 1 2 3 4 5 6 
#
# 1 76.4804 -7.4109 -14.8445 0.0000 0.0000 0.0000
# 2 -7.4109 58.6754 24.8454 0.0000 0.0000 0.0000
# 3 -14.8445 24.8454 95.6100 0.0000 0.0000 0.0000
# 4 0.0000 0.0000 0.0000 31.1536 0.0000 0.0000
# 5 0.0000 0.0000 0.0000 0.0000 18.6918 0.0000
# 6 0.0000 0.0000 0.0000 0.0000 0.0000 16.5956
#
#
#
# Elastic Compliance Matrix: (Units=1/GPa)
#
#
# Indices 1 2 3 4 5 6 
#
# 1 0.013526 0.000920 0.001861 0.000000 0.000000 0.000000
# 2 0.000920 0.019213 -0.004850 0.000000 0.000000 0.000000
# 3 0.001861 -0.004850 0.012008 0.000000 0.000000 0.000000
# 4 0.000000 0.000000 0.000000 0.032099 0.000000 0.000000
# 5 0.000000 0.000000 0.000000 0.000000 0.053499 0.000000
# 6 0.000000 0.000000 0.000000 0.000000 0.000000 0.060257
#
#
# Mechanical properties :
#
#
# Convention : Reuss Voigt Hill
#
# Bulk Modulus (GPa) = 24.62474 26.21621 25.42048
# Shear Modulus (GPa) = 24.00665 28.49992 26.25328
#
# Velocity S-wave (km/s) = 3.24639 3.53718 3.39490
# Velocity P-wave (km/s) = 4.98623 5.30954 5.15042
#
# Compressibility (1/GPa) = 0.04060957
#
# Stress axis : x y z
#
# Youngs Moduli (GPa) = 73.93384 52.04886 83.27555
#
# Poissons Ratio (x) = -0.04791 -0.15496
# Poissons Ratio (y) = -0.06805 0.40387
# Poissons Ratio (z) = -0.13758 0.25242
#
# Static dielectric constant tensor:
#      x y z
#    x 1.828610 0.000000 0.000000 
#    y 0.000000 1.858680 0.000000 
#    z 0.000000 0.000000 1.866720 
# 
# From -- ./inp_files/2410.got.cif
#   From: 2010.05.17/outbox.cif.g08.bks.cpg/sg19_2_cif.got.tgz:2410.got - 2010.06.03 22:46:19.
