data_PCOD9314237
_publ_section_title
;
Structure prediction by ZEFSAII (Michael W. Deem and Ramdas Pophale) SiO2 
 PCOD9314237
Probable space group: P 21 21 21
;
_chemical_formula_sum "Si O2"
_cell_formula_units_Z 28
_cell_length_a 13.211165
_cell_length_b 11.777253
_cell_length_c 7.983381
_cell_angle_alpha 90.000000
_cell_angle_beta 90.000000
_cell_angle_gamma 90.000000
_cell_volume 1242.144090
_symmetry_space_group_name_H-M "P 21 21 21"
_symmetry_group_IT_number 19
_symmetry_cell_setting 'orthorhombic'
loop_
_space_group_symop_operation_xyz
x,y,z
1/2-x,-y,1/2+z
1/2+x,1/2-y,-z
-x,1/2+y,1/2-z
loop_
_atom_site_type_symbol
_atom_site_label
_atom_site_fract_x
_atom_site_fract_y
_atom_site_fract_z
Si Si1 0.662181 0.858051 0.000168
Si Si2 0.450478 0.006665 0.456552
Si Si3 0.752704 0.225702 0.045990
Si Si4 0.329857 0.162804 0.252863
Si Si5 0.069769 0.804868 0.221477
Si Si6 0.668711 0.994608 0.341397
Si Si7 0.031214 0.261534 0.945828
O O1 0.702879 0.744908 0.094800
O O2 0.649812 0.943890 0.156026
O O3 0.565098 0.804291 0.904283
O O4 0.737748 0.920328 0.872144
O O5 0.362861 0.042253 0.325681
O O6 0.427972 0.078366 0.621942
O O7 0.563268 0.046262 0.403192
O O8 0.462817 0.873306 0.465188
O O9 0.750667 0.319103 0.895325
O O10 0.801067 0.114068 0.959191
O O11 0.825964 0.278806 0.182742
O O12 0.641378 0.200516 0.111438
O O13 0.437037 0.207237 0.172734
O O14 0.988098 0.810056 0.368467
#
# Coordination Sequence:
#
# PCOD9314237 Si02
#       7
#     4   4   4   4   4   4   4
#     4  10  21  38  59  96 131 158 215 275 321 380
#     4  11  23  42  64  91 134 173 216 261 342 388
#     4  10  22  42  63  95 132 163 222 268 319 396
#     4   9  22  42  59  92 131 166 216 274 315 392
#     4  10  23  42  62  99 135 166 218 274 323 393
#     4  11  22  38  69  97 123 172 223 277 327 378
#     4  11  23  42  66  94 134 172 216 271 329 381
#
# _framework density 22.541668999999999
#
# number of rings (size 3 to 8) (size 9 to 14) (size 15 to 20)
#    0.000    1.714    4.286    0.857    8.000    1.143 
#    2.571    0.000    0.000    0.000    0.000    0.000 
#    0.000    0.000    0.000    0.000    0.000    0.000 
#
# Total GULP energy -156260.120582 kJ/mol
# GULP energy per Si atom -5580.718592 kJ/mol
# Density = 2.249036 g / cm^3
# Si number density = 22.541669 Si / 1000 Ang^3
#
#
#
# Elastic Constant Matrix: (Units=GPa)
#
#
# Indices 1 2 3 4 5 6 
#
# 1 56.5814 -15.2722 -4.1144 0.0000 0.0000 0.0000
# 2 -15.2722 53.2513 16.6440 0.0000 0.0000 0.0000
# 3 -4.1144 16.6440 78.8781 0.0000 0.0000 0.0000
# 4 0.0000 0.0000 0.0000 25.3193 0.0000 0.0000
# 5 0.0000 0.0000 0.0000 0.0000 32.3230 0.0000
# 6 0.0000 0.0000 0.0000 0.0000 0.0000 34.2116
#
#
#
# Elastic Compliance Matrix: (Units=1/GPa)
#
#
# Indices 1 2 3 4 5 6 
#
# 1 0.019159 0.005548 -0.000171 0.000000 0.000000 0.000000
# 2 0.005548 0.021712 -0.004292 0.000000 0.000000 0.000000
# 3 -0.000171 -0.004292 0.013574 0.000000 0.000000 0.000000
# 4 0.000000 0.000000 0.000000 0.039496 0.000000 0.000000
# 5 0.000000 0.000000 0.000000 0.000000 0.030938 0.000000
# 6 0.000000 0.000000 0.000000 0.000000 0.000000 0.029230
#
#
# Mechanical properties :
#
#
# Convention : Reuss Voigt Hill
#
# Bulk Modulus (GPa) = 17.66330 20.35839 19.01085
# Shear Modulus (GPa) = 29.27235 31.13434 30.20335
#
# Velocity S-wave (km/s) = 3.60750 3.72047 3.66442
# Velocity P-wave (km/s) = 5.02045 5.24470 5.13380
#
# Compressibility (1/GPa) = 0.05661455
#
# Stress axis : x y z
#
# Youngs Moduli (GPa) = 52.19554 46.05844 73.66759
#
# Poissons Ratio (x) = -0.25554 0.01262
# Poissons Ratio (y) = -0.28959 0.31618
# Poissons Ratio (z) = 0.00894 0.19768
#
# Static dielectric constant tensor:
#      x y z
#    x 1.840080 0.000000 0.000000 
#    y 0.000000 1.861720 0.000000 
#    z 0.000000 0.000000 1.911380 
# 
# From -- ./inp_files/3912.got.cif
#   From: 2010.05.17/outbox.cif.g08.bks.cpg/sg19_2_cif.got.tgz:3912.got - 2010.06.03 22:46:19.
