data_PCOD9314949
_publ_section_title
;
Structure prediction by ZEFSAII (Michael W. Deem and Ramdas Pophale) SiO2 
 PCOD9314949
Probable space group: P 21 21 21
;
_chemical_formula_sum "Si O2"
_cell_formula_units_Z 32
_cell_length_a 16.474275
_cell_length_b 5.432081
_cell_length_c 13.645863
_cell_angle_alpha 90.000000
_cell_angle_beta 90.000000
_cell_angle_gamma 90.000000
_cell_volume 1221.162770
_symmetry_space_group_name_H-M "P 21 21 21"
_symmetry_group_IT_number 19
_symmetry_cell_setting 'orthorhombic'
loop_
_space_group_symop_operation_xyz
x,y,z
1/2-x,-y,1/2+z
1/2+x,1/2-y,-z
-x,1/2+y,1/2-z
loop_
_atom_site_type_symbol
_atom_site_label
_atom_site_fract_x
_atom_site_fract_y
_atom_site_fract_z
Si Si1 0.986654 0.786498 0.810417
Si Si2 0.062354 0.065169 0.986108
Si Si3 0.944801 0.248104 0.324140
Si Si4 0.316479 0.530209 0.173451
Si Si5 0.252506 0.573279 0.873829
Si Si6 0.122054 0.757814 0.507808
Si Si7 0.881287 0.572500 0.165292
Si Si8 0.659526 0.997856 0.957024
O O1 0.893143 0.793149 0.846262
O O2 0.992752 0.019362 0.734382
O O3 0.044675 0.870188 0.899160
O O4 0.136500 0.257699 0.980547
O O5 0.972590 0.187928 0.991412
O O6 0.075616 0.940086 0.090891
O O7 0.897556 0.327133 0.227764
O O8 0.916849 0.010252 0.383616
O O9 0.040421 0.235734 0.309296
O O10 0.297694 0.552951 0.287677
O O11 0.231114 0.556911 0.119619
O O12 0.346998 0.278424 0.118735
O O13 0.318219 0.415834 0.939169
O O14 0.300159 0.783088 0.814239
O O15 0.191060 0.675531 0.955226
O O16 0.123825 0.012857 0.449710
#
# Coordination Sequence:
#
# PCOD9314949 Si02
#       8
#     4   4   4   4   4   4   4   4
#     4  11  27  51  80 109 149 210 264 312 376 472
#     4  11  23  44  75 101 142 193 255 310 381 460
#     4  12  26  41  75 107 142 193 251 312 380 473
#     4  10  24  46  68 105 146 190 250 314 385 445
#     4  11  24  44  66 101 145 185 242 310 381 454
#     4  10  22  45  67  97 139 195 239 307 367 456
#     4  12  25  41  72 102 141 188 246 302 383 458
#     4  11  25  46  71 106 152 188 251 323 383 454
#
# _framework density 26.204533999999999
#
# number of rings (size 3 to 8) (size 9 to 14) (size 15 to 20)
#    0.000    1.000    2.500    3.000    5.250    3.000 
#    6.750    0.000    0.000    0.000    0.000    0.000 
#    0.000    0.000    0.000    0.000    0.000    0.000 
#
# Total GULP energy -178590.429678 kJ/mol
# GULP energy per Si atom -5580.950927 kJ/mol
# Density = 2.614489 g / cm^3
# Si number density = 26.204534 Si / 1000 Ang^3
#
#
#
# Elastic Constant Matrix: (Units=GPa)
#
#
# Indices 1 2 3 4 5 6 
#
# 1 107.3855 17.9954 46.2752 0.0000 0.0000 0.0000
# 2 17.9954 51.2510 30.1524 0.0000 0.0000 0.0000
# 3 46.2752 30.1524 134.5190 0.0000 0.0000 0.0000
# 4 0.0000 0.0000 0.0000 47.6367 0.0000 0.0000
# 5 0.0000 0.0000 0.0000 0.0000 34.6888 0.0000
# 6 0.0000 0.0000 0.0000 0.0000 0.0000 51.8442
#
#
#
# Elastic Compliance Matrix: (Units=1/GPa)
#
#
# Indices 1 2 3 4 5 6 
#
# 1 0.011091 -0.001900 -0.003390 0.000000 0.000000 0.000000
# 2 -0.001900 0.022801 -0.004457 0.000000 0.000000 0.000000
# 3 -0.003390 -0.004457 0.009599 0.000000 0.000000 0.000000
# 4 0.000000 0.000000 0.000000 0.020992 0.000000 0.000000
# 5 0.000000 0.000000 0.000000 0.000000 0.028828 0.000000
# 6 0.000000 0.000000 0.000000 0.000000 0.000000 0.019289
#
#
# Mechanical properties :
#
#
# Convention : Reuss Voigt Hill
#
# Bulk Modulus (GPa) = 41.67079 53.55575 47.61327
# Shear Modulus (GPa) = 35.69046 40.08276 37.88661
#
# Velocity S-wave (km/s) = 3.69453 3.91527 3.80650
# Velocity P-wave (km/s) = 5.84260 6.39696 6.12605
#
# Compressibility (1/GPa) = 0.02399763
#
# Stress axis : x y z
#
# Youngs Moduli (GPa) = 90.16054 43.85707 104.17755
#
# Poissons Ratio (x) = 0.08334 0.35311
# Poissons Ratio (y) = 0.17133 0.46434
# Poissons Ratio (z) = 0.30560 0.19548
#
# Static dielectric constant tensor:
#      x y z
#    x 2.123440 0.000000 0.000000 
#    y 0.000000 2.307760 0.000000 
#    z 0.000000 0.000000 1.828600 
# 
# From -- ./inp_files/6326.got.cif
#   From: 2010.05.17/outbox.cif.g08.bks.cpg/sg19_4_cif.got.tgz:6326.got - 2010.06.03 22:46:19.
