data_PCOD9314888
_publ_section_title
;
Structure prediction by ZEFSAII (Michael W. Deem and Ramdas Pophale) SiO2 
 PCOD9314888
Probable space group: P 21 21 21
;
_chemical_formula_sum "Si O2"
_cell_formula_units_Z 28
_cell_length_a 18.102393
_cell_length_b 10.914745
_cell_length_c 5.323767
_cell_angle_alpha 90.000000
_cell_angle_beta 90.000000
_cell_angle_gamma 90.000000
_cell_volume 1051.885874
_symmetry_space_group_name_H-M "P 21 21 21"
_symmetry_group_IT_number 19
_symmetry_cell_setting 'orthorhombic'
loop_
_space_group_symop_operation_xyz
x,y,z
1/2-x,-y,1/2+z
1/2+x,1/2-y,-z
-x,1/2+y,1/2-z
loop_
_atom_site_type_symbol
_atom_site_label
_atom_site_fract_x
_atom_site_fract_y
_atom_site_fract_z
Si Si1 0.203784 0.493289 0.798713
Si Si2 0.491325 0.866730 0.316276
Si Si3 0.603161 0.839776 0.941764
Si Si4 0.911338 0.344326 0.070817
Si Si5 0.141529 0.256872 0.057807
Si Si6 0.768414 0.425232 0.808229
Si Si7 0.953587 0.939760 0.150227
O O1 0.238789 0.489179 0.526429
O O2 0.151700 0.611585 0.829360
O O3 0.162329 0.367282 0.868005
O O4 0.519602 0.828299 0.042247
O O5 0.537924 0.765771 0.471733
O O6 0.408629 0.839550 0.402712
O O7 0.518049 0.005052 0.384940
O O8 0.631175 0.720128 0.803334
O O9 0.599553 0.954384 0.756223
O O10 0.853493 0.393608 0.872294
O O11 0.970675 0.436244 0.188184
O O12 0.093558 0.319486 0.281925
O O13 0.214424 0.191730 0.161329
O O14 0.744595 0.514885 0.037721
#
# Coordination Sequence:
#
# PCOD9314888 Si02
#       7
#     4   4   4   4   4   4   4
#     4  11  26  45  72 105 145 186 243 296 360 440
#     4  10  22  43  70 102 139 182 243 295 362 430
#     4  10  23  39  68 101 133 185 235 295 357 429
#     4  10  23  42  68  98 141 185 231 298 357 424
#     4  10  24  46  70 107 142 197 236 308 366 430
#     4  12  29  48  72 104 143 194 244 295 362 438
#     4   9  21  43  66 103 137 181 238 299 356 433
#
# _framework density 26.618859
#
# number of rings (size 3 to 8) (size 9 to 14) (size 15 to 20)
#    0.000    1.714    0.000    1.714   12.000    4.571 
#    7.714    0.000    0.000    0.000    0.000    0.000 
#    0.000    0.000    0.000    0.000    0.000    0.000 
#
# Total GULP energy -156758.218057 kJ/mol
# GULP energy per Si atom -5598.507788 kJ/mol
# Density = 2.655827 g / cm^3
# Si number density = 26.618859 Si / 1000 Ang^3
#
#
#
# Elastic Constant Matrix: (Units=GPa)
#
#
# Indices 1 2 3 4 5 6 
#
# 1 115.4502 36.1188 21.1868 0.0000 0.0000 0.0000
# 2 36.1188 78.9921 30.5430 0.0000 0.0000 0.0000
# 3 21.1868 30.5430 90.1317 0.0000 0.0000 0.0000
# 4 0.0000 0.0000 0.0000 36.5835 0.0000 0.0000
# 5 0.0000 0.0000 0.0000 0.0000 54.4885 0.0000
# 6 0.0000 0.0000 0.0000 0.0000 0.0000 52.1043
#
#
#
# Elastic Compliance Matrix: (Units=1/GPa)
#
#
# Indices 1 2 3 4 5 6 
#
# 1 0.010176 -0.004290 -0.000938 0.000000 0.000000 0.000000
# 2 -0.004290 0.016377 -0.004541 0.000000 0.000000 0.000000
# 3 -0.000938 -0.004541 0.012854 0.000000 0.000000 0.000000
# 4 0.000000 0.000000 0.000000 0.027335 0.000000 0.000000
# 5 0.000000 0.000000 0.000000 0.000000 0.018353 0.000000
# 6 0.000000 0.000000 0.000000 0.000000 0.000000 0.019192
#
#
# Mechanical properties :
#
#
# Convention : Reuss Voigt Hill
#
# Bulk Modulus (GPa) = 50.33177 51.14125 50.73651
# Shear Modulus (GPa) = 38.32912 41.75029 40.03971
#
# Velocity S-wave (km/s) = 3.79875 3.96466 3.88259
# Velocity P-wave (km/s) = 6.17981 6.34131 6.26108
#
# Compressibility (1/GPa) = 0.01986817
#
# Stress axis : x y z
#
# Youngs Moduli (GPa) = 98.26922 61.06092 77.79485
#
# Poissons Ratio (x) = 0.26196 0.07299
# Poissons Ratio (y) = 0.42160 0.35329
# Poissons Ratio (z) = 0.09220 0.27729
#
# Static dielectric constant tensor:
#      x y z
#    x 2.104290 0.000000 0.000000 
#    y 0.000000 2.080610 0.000000 
#    z 0.000000 0.000000 2.153550 
# 
# From -- ./inp_files/1753.got.cif
#   From: 2010.05.17/outbox.cif.g08.bks.cpg/sg19_1_cif.got.tgz:1753.got - 2010.06.03 22:46:19.
