data_PCOD9314038
_publ_section_title
;
Structure prediction by ZEFSAII (Michael W. Deem and Ramdas Pophale) SiO2 
 PCOD9314038
Probable space group: P 21 21 21
;
_chemical_formula_sum "Si O2"
_cell_formula_units_Z 24
_cell_length_a 6.992936
_cell_length_b 16.942911
_cell_length_c 7.280833
_cell_angle_alpha 90.000000
_cell_angle_beta 90.000000
_cell_angle_gamma 90.000000
_cell_volume 862.638134
_symmetry_space_group_name_H-M "P 21 21 21"
_symmetry_group_IT_number 19
_symmetry_cell_setting 'orthorhombic'
loop_
_space_group_symop_operation_xyz
x,y,z
1/2-x,-y,1/2+z
1/2+x,1/2-y,-z
-x,1/2+y,1/2-z
loop_
_atom_site_type_symbol
_atom_site_label
_atom_site_fract_x
_atom_site_fract_y
_atom_site_fract_z
Si Si1 0.242101 0.204962 0.834217
Si Si2 0.733691 0.599946 0.360239
Si Si3 0.156689 0.073504 0.592015
Si Si4 0.610198 0.095598 0.541749
Si Si5 0.376155 0.436831 0.758140
Si Si6 0.363137 0.745406 0.723368
O O1 0.109388 0.154941 0.698761
O O2 0.409640 0.254483 0.740123
O O3 0.345924 0.131661 0.945599
O O4 0.157938 0.256546 0.000576
O O5 0.660052 0.513342 0.313595
O O6 0.733050 0.678528 0.234083
O O7 0.966323 0.596459 0.400918
O O8 0.382166 0.085694 0.550592
O O9 0.021312 0.060731 0.417057
O O10 0.688775 0.099560 0.334394
O O11 0.680680 0.170190 0.656854
O O12 0.685200 0.018470 0.649531
#
# Coordination Sequence:
#
# PCOD9314038 Si02
#       6
#     4   4   4   4   4   4
#     4   9  20  37  65  88 125 169 214 267 325 394
#     4   9  20  38  61  88 127 164 213 262 317 385
#     4  10  20  40  65  94 125 169 219 264 322 385
#     4  10  24  43  63  97 130 168 223 265 327 387
#     4  11  24  40  67  94 131 173 213 270 320 391
#     4   9  20  38  61  93 122 163 214 268 325 386
#
# _framework density 27.821629000000001
#
# number of rings (size 3 to 8) (size 9 to 14) (size 15 to 20)
#    1.000    1.333    0.000    3.000    2.333    8.000 
#    6.000    1.667    0.000    0.000    0.000    0.000 
#    0.000    0.000    0.000    0.000    0.000    0.000 
#
# Total GULP energy -133843.486458 kJ/mol
# GULP energy per Si atom -5576.811936 kJ/mol
# Density = 2.775831 g / cm^3
# Si number density = 27.821629 Si / 1000 Ang^3
#
#
#
# Elastic Constant Matrix: (Units=GPa)
#
#
# Indices 1 2 3 4 5 6 
#
# 1 109.0541 12.6514 19.5581 0.0000 0.0000 0.0000
# 2 12.6514 44.6196 10.6351 0.0000 0.0000 0.0000
# 3 19.5581 10.6351 87.7908 0.0000 0.0000 0.0000
# 4 0.0000 0.0000 0.0000 59.6318 0.0000 0.0000
# 5 0.0000 0.0000 0.0000 0.0000 51.4192 0.0000
# 6 0.0000 0.0000 0.0000 0.0000 0.0000 29.1441
#
#
#
# Elastic Compliance Matrix: (Units=1/GPa)
#
#
# Indices 1 2 3 4 5 6 
#
# 1 0.009779 -0.002321 -0.001898 0.000000 0.000000 0.000000
# 2 -0.002321 0.023629 -0.002345 0.000000 0.000000 0.000000
# 3 -0.001898 -0.002345 0.012098 0.000000 0.000000 0.000000
# 4 0.000000 0.000000 0.000000 0.016770 0.000000 0.000000
# 5 0.000000 0.000000 0.000000 0.000000 0.019448 0.000000
# 6 0.000000 0.000000 0.000000 0.000000 0.000000 0.034312
#
#
# Mechanical properties :
#
#
# Convention : Reuss Voigt Hill
#
# Bulk Modulus (GPa) = 30.88464 36.35040 33.61752
# Shear Modulus (GPa) = 35.72571 41.28034 38.50303
#
# Velocity S-wave (km/s) = 3.58732 3.85613 3.72415
# Velocity P-wave (km/s) = 5.31823 5.73761 5.53189
#
# Compressibility (1/GPa) = 0.03237855
#
# Stress axis : x y z
#
# Youngs Moduli (GPa) = 102.25711 42.32145 82.66120
#
# Poissons Ratio (x) = 0.09821 0.15685
# Poissons Ratio (y) = 0.23729 0.19388
# Poissons Ratio (z) = 0.19404 0.09926
#
# Static dielectric constant tensor:
#      x y z
#    x 2.221270 0.000000 0.000000 
#    y 0.000000 2.218900 0.000000 
#    z 0.000000 0.000000 2.224620 
# 
# From -- ./inp_files/3050.got.cif
#   From: 2010.05.17/outbox.cif.g08.bks.cpg/sg19_2_cif.got.tgz:3050.got - 2010.06.03 22:46:19.
