data_PCOD9314517
_publ_section_title
;
Structure prediction by ZEFSAII (Michael W. Deem and Ramdas Pophale) SiO2 
 PCOD9314517
Probable space group: P 21 21 21
;
_chemical_formula_sum "Si O2"
_cell_formula_units_Z 32
_cell_length_a 11.638448
_cell_length_b 11.962485
_cell_length_c 11.069013
_cell_angle_alpha 90.000000
_cell_angle_beta 90.000000
_cell_angle_gamma 90.000000
_cell_volume 1541.080674
_symmetry_space_group_name_H-M "P 21 21 21"
_symmetry_group_IT_number 19
_symmetry_cell_setting 'orthorhombic'
loop_
_space_group_symop_operation_xyz
x,y,z
1/2-x,-y,1/2+z
1/2+x,1/2-y,-z
-x,1/2+y,1/2-z
loop_
_atom_site_type_symbol
_atom_site_label
_atom_site_fract_x
_atom_site_fract_y
_atom_site_fract_z
Si Si1 0.099563 0.808323 0.752917
Si Si2 0.073203 0.475744 0.069838
Si Si3 0.187495 0.926303 0.440587
Si Si4 0.159668 0.288984 0.668383
Si Si5 0.716323 0.849477 0.070440
Si Si6 0.295125 0.316684 0.027464
Si Si7 0.777789 0.531585 0.817869
Si Si8 0.663493 0.949490 0.692003
O O1 0.171147 0.761227 0.866250
O O2 0.134585 0.722824 0.644964
O O3 0.967240 0.811659 0.786220
O O4 0.136350 0.931888 0.716150
O O5 0.177964 0.386061 0.055441
O O6 0.070761 0.520391 0.207458
O O7 0.949615 0.429686 0.034035
O O8 0.111323 0.581847 0.989655
O O9 0.231085 0.799800 0.459418
O O10 0.198933 0.965279 0.302142
O O11 0.253672 0.998327 0.543558
O O12 0.189761 0.324761 0.531942
O O13 0.176579 0.156780 0.676185
O O14 0.248866 0.361633 0.747158
O O15 0.771138 0.935719 0.164188
O O16 0.368235 0.394302 0.935977
#
# Coordination Sequence:
#
# PCOD9314517 Si02
#       8
#     4   4   4   4   4   4   4   4
#     4  11  24  41  69 102 137 175 228 285 349 402
#     4  10  22  43  70  93 140 181 224 285 347 405
#     4  11  24  45  65  97 141 183 220 290 351 404
#     4  11  24  42  68  95 135 183 219 284 346 405
#     4  10  22  42  66 100 134 172 234 274 330 429
#     4  10  22  40  66 101 133 171 230 283 332 418
#     4  11  25  44  65  97 142 174 232 280 345 418
#     4  10  21  43  65  99 134 175 235 281 320 431
#
# _framework density 20.76465
#
# number of rings (size 3 to 8) (size 9 to 14) (size 15 to 20)
#    0.000    1.500    2.500    1.500    8.750    0.000 
#   11.250    0.000    0.000    0.000    0.000    0.000 
#    0.000    0.000    0.000    0.000    0.000    0.000 
#
# Total GULP energy -178516.259353 kJ/mol
# GULP energy per Si atom -5578.633105 kJ/mol
# Density = 2.071739 g / cm^3
# Si number density = 20.764650 Si / 1000 Ang^3
#
#
#
# Elastic Constant Matrix: (Units=GPa)
#
#
# Indices 1 2 3 4 5 6 
#
# 1 37.1596 28.0882 37.0141 0.0000 0.0000 0.0000
# 2 28.0882 126.9882 34.4112 0.0000 0.0000 0.0000
# 3 37.0141 34.4112 102.6871 0.0000 0.0000 0.0000
# 4 0.0000 0.0000 0.0000 41.3356 0.0000 0.0000
# 5 0.0000 0.0000 0.0000 0.0000 8.4191 0.0000
# 6 0.0000 0.0000 0.0000 0.0000 0.0000 3.5501
#
#
#
# Elastic Compliance Matrix: (Units=1/GPa)
#
#
# Indices 1 2 3 4 5 6 
#
# 1 0.046111 -0.006264 -0.014522 0.000000 0.000000 0.000000
# 2 -0.006264 0.009512 -0.000930 0.000000 0.000000 0.000000
# 3 -0.014522 -0.000930 0.015284 0.000000 0.000000 0.000000
# 4 0.000000 0.000000 0.000000 0.024192 0.000000 0.000000
# 5 0.000000 0.000000 0.000000 0.000000 0.118777 0.000000
# 6 0.000000 0.000000 0.000000 0.000000 0.000000 0.281682
#
#
# Mechanical properties :
#
#
# Convention : Reuss Voigt Hill
#
# Bulk Modulus (GPa) = 36.39500 51.76244 44.07872
# Shear Modulus (GPa) = 9.12163 21.81573 15.46868
#
# Velocity S-wave (km/s) = 2.09819 3.24484 2.73234
# Velocity P-wave (km/s) = 4.84100 6.24667 5.58821
#
# Compressibility (1/GPa) = 0.02747630
#
# Stress axis : x y z
#
# Youngs Moduli (GPa) = 21.68695 105.12810 65.42666
#
# Poissons Ratio (x) = 0.65853 0.95011
# Poissons Ratio (y) = 0.13585 0.06083
# Poissons Ratio (z) = 0.31493 0.09774
#
# Static dielectric constant tensor:
#      x y z
#    x 1.713260 0.000000 0.000000 
#    y 0.000000 1.712550 0.000000 
#    z 0.000000 0.000000 1.835350 
# 
# From -- ./inp_files/5025.got.cif
#   From: 2010.05.17/outbox.cif.g08.bks.cpg/sg19_3_cif.got.tgz:5025.got - 2010.06.03 22:46:19.
