data_PCOD9314805
_publ_section_title
;
Structure prediction by ZEFSAII (Michael W. Deem and Ramdas Pophale) SiO2 
 PCOD9314805
Probable space group: P 21 21 21
;
_chemical_formula_sum "Si O2"
_cell_formula_units_Z 32
_cell_length_a 12.446959
_cell_length_b 12.282515
_cell_length_c 10.148636
_cell_angle_alpha 90.000000
_cell_angle_beta 90.000000
_cell_angle_gamma 90.000000
_cell_volume 1551.523072
_symmetry_space_group_name_H-M "P 21 21 21"
_symmetry_group_IT_number 19
_symmetry_cell_setting 'orthorhombic'
loop_
_space_group_symop_operation_xyz
x,y,z
1/2-x,-y,1/2+z
1/2+x,1/2-y,-z
-x,1/2+y,1/2-z
loop_
_atom_site_type_symbol
_atom_site_label
_atom_site_fract_x
_atom_site_fract_y
_atom_site_fract_z
Si Si1 0.232920 0.937040 0.642496
Si Si2 0.621324 0.996523 0.550315
Si Si3 0.260115 0.110132 0.424518
Si Si4 0.009004 0.344356 0.861106
Si Si5 0.183350 0.513146 0.754090
Si Si6 0.070059 0.718713 0.866096
Si Si7 0.551115 0.306336 0.899726
Si Si8 0.057512 0.257018 0.396099
O O1 0.252133 0.964287 0.795587
O O2 0.327718 0.853540 0.603876
O O3 0.114146 0.886123 0.627270
O O4 0.245452 0.042139 0.554096
O O5 0.706972 0.982537 0.669840
O O6 0.531340 0.902182 0.558619
O O7 0.678713 0.992507 0.405573
O O8 0.567427 0.115455 0.569601
O O9 0.372572 0.169399 0.407304
O O10 0.174641 0.206011 0.414310
O O11 0.087886 0.437481 0.810078
O O12 0.011335 0.249964 0.749896
O O13 0.043704 0.291813 0.997806
O O14 0.152103 0.633615 0.804183
O O15 0.013466 0.687126 0.001274
O O16 0.523379 0.264060 0.753521
#
# Coordination Sequence:
#
# PCOD9314805 Si02
#       8
#     4   4   4   4   4   4   4   4
#     4  10  24  42  67  98 135 182 237 284 343 412
#     4  12  27  47  73 106 144 189 236 302 364 433
#     4  10  22  42  65  96 131 179 219 293 332 407
#     4  11  25  44  71 100 137 193 233 287 359 425
#     4  12  27  45  73 104 143 189 241 296 367 434
#     4  11  22  43  69  95 139 180 233 286 349 417
#     4  11  27  44  72 102 144 187 234 298 354 424
#     4  11  24  43  68 103 139 179 235 286 354 416
#
# _framework density 20.624894999999999
#
# number of rings (size 3 to 8) (size 9 to 14) (size 15 to 20)
#    0.000    1.000    3.750    1.500    7.000    4.000 
#    0.000    0.000    0.000    0.000    0.000    0.000 
#    0.000    0.000    0.000    0.000    0.000    0.000 
#
# Total GULP energy -178745.664222 kJ/mol
# GULP energy per Si atom -5585.802007 kJ/mol
# Density = 2.057795 g / cm^3
# Si number density = 20.624895 Si / 1000 Ang^3
#
#
#
# Elastic Constant Matrix: (Units=GPa)
#
#
# Indices 1 2 3 4 5 6 
#
# 1 55.0151 -0.4446 9.9523 0.0000 0.0000 0.0000
# 2 -0.4446 60.5180 26.2553 0.0000 0.0000 0.0000
# 3 9.9523 26.2553 104.2605 0.0000 0.0000 0.0000
# 4 0.0000 0.0000 0.0000 31.4902 0.0000 0.0000
# 5 0.0000 0.0000 0.0000 0.0000 32.7953 0.0000
# 6 0.0000 0.0000 0.0000 0.0000 0.0000 19.9345
#
#
#
# Elastic Compliance Matrix: (Units=1/GPa)
#
#
# Indices 1 2 3 4 5 6 
#
# 1 0.018552 0.001016 -0.002027 0.000000 0.000000 0.000000
# 2 0.001016 0.018606 -0.004782 0.000000 0.000000 0.000000
# 3 -0.002027 -0.004782 0.010989 0.000000 0.000000 0.000000
# 4 0.000000 0.000000 0.000000 0.031756 0.000000 0.000000
# 5 0.000000 0.000000 0.000000 0.000000 0.030492 0.000000
# 6 0.000000 0.000000 0.000000 0.000000 0.000000 0.050164
#
#
# Mechanical properties :
#
#
# Convention : Reuss Voigt Hill
#
# Bulk Modulus (GPa) = 27.35229 32.36885 29.86057
# Shear Modulus (GPa) = 27.12481 29.11272 28.11877
#
# Velocity S-wave (km/s) = 3.63043 3.76111 3.69635
# Velocity P-wave (km/s) = 5.55553 5.88128 5.72073
#
# Compressibility (1/GPa) = 0.03656000
#
# Stress axis : x y z
#
# Youngs Moduli (GPa) = 53.90362 53.74528 90.99895
#
# Poissons Ratio (x) = -0.05458 0.18442
# Poissons Ratio (y) = -0.05474 0.43520
# Poissons Ratio (z) = 0.10924 0.25703
#
# Static dielectric constant tensor:
#      x y z
#    x 1.751270 0.000000 0.000000 
#    y 0.000000 1.723710 0.000000 
#    z 0.000000 0.000000 1.758930 
# 
# From -- ./inp_files/3952.got.cif
#   From: 2010.05.17/outbox.cif.g08.bks.cpg/sg19_2_cif.got.tgz:3952.got - 2010.06.03 22:46:19.
