data_PCOD9314479
_publ_section_title
;
Structure prediction by ZEFSAII (Michael W. Deem and Ramdas Pophale) SiO2 
 PCOD9314479
Probable space group: P 21 21 21
;
_chemical_formula_sum "Si O2"
_cell_formula_units_Z 28
_cell_length_a 7.365839
_cell_length_b 8.793881
_cell_length_c 17.461428
_cell_angle_alpha 90.000000
_cell_angle_beta 90.000000
_cell_angle_gamma 90.000000
_cell_volume 1131.051979
_symmetry_space_group_name_H-M "P 21 21 21"
_symmetry_group_IT_number 19
_symmetry_cell_setting 'orthorhombic'
loop_
_space_group_symop_operation_xyz
x,y,z
1/2-x,-y,1/2+z
1/2+x,1/2-y,-z
-x,1/2+y,1/2-z
loop_
_atom_site_type_symbol
_atom_site_label
_atom_site_fract_x
_atom_site_fract_y
_atom_site_fract_z
Si Si1 0.573058 0.781065 0.901957
Si Si2 0.367243 0.304975 0.772229
Si Si3 0.660516 0.579895 0.594192
Si Si4 0.808249 0.759634 0.476589
Si Si5 0.721559 0.080613 0.540293
Si Si6 0.291379 0.165266 0.189065
Si Si7 0.909192 0.078069 0.693047
O O1 0.648304 0.769863 0.817128
O O2 0.473496 0.630291 0.929342
O O3 0.412599 0.909628 0.899662
O O4 0.722132 0.836095 0.962167
O O5 0.311049 0.163663 0.825589
O O6 0.578826 0.340932 0.789623
O O7 0.246021 0.451673 0.789741
O O8 0.819111 0.617185 0.534352
O O9 0.494375 0.670774 0.554790
O O10 0.698739 0.717306 0.399719
O O11 0.734304 0.902187 0.525147
O O12 0.866528 0.126156 0.606005
O O13 0.402697 0.010926 0.197266
O O14 0.381876 0.287928 0.246281
#
# Coordination Sequence:
#
# PCOD9314479 Si02
#       7
#     4   4   4   4   4   4   4
#     4  11  25  44  69 102 143 182 241 300 368 428
#     4  11  23  47  73 102 143 193 239 297 363 443
#     4  10  22  40  69  96 134 183 235 289 355 431
#     4  10  21  42  65  98 134 183 232 287 358 429
#     4  11  24  46  68 103 148 184 242 305 363 440
#     4  11  26  45  74 106 145 189 246 302 362 444
#     4  12  25  48  72 109 147 190 247 300 371 433
#
# _framework density 24.755713
#
# number of rings (size 3 to 8) (size 9 to 14) (size 15 to 20)
#    0.000    1.143    2.857    4.286    0.000    5.714 
#    2.571    0.000    0.000    0.000    0.000    0.000 
#    0.000    0.000    0.000    0.000    0.000    0.000 
#
# Total GULP energy -157008.995390 kJ/mol
# GULP energy per Si atom -5607.464121 kJ/mol
# Density = 2.469937 g / cm^3
# Si number density = 24.755713 Si / 1000 Ang^3
#
#
#
# Elastic Constant Matrix: (Units=GPa)
#
#
# Indices 1 2 3 4 5 6 
#
# 1 55.9080 20.5093 20.3081 0.0000 0.0000 0.0000
# 2 20.5093 45.2499 38.9253 0.0000 0.0000 0.0000
# 3 20.3081 38.9253 195.5215 0.0000 0.0000 0.0000
# 4 0.0000 0.0000 0.0000 35.5684 0.0000 0.0000
# 5 0.0000 0.0000 0.0000 0.0000 37.1259 0.0000
# 6 0.0000 0.0000 0.0000 0.0000 0.0000 53.3527
#
#
#
# Elastic Compliance Matrix: (Units=1/GPa)
#
#
# Indices 1 2 3 4 5 6 
#
# 1 0.021474 -0.009429 -0.000353 0.000000 0.000000 0.000000
# 2 -0.009429 0.030807 -0.005154 0.000000 0.000000 0.000000
# 3 -0.000353 -0.005154 0.006177 0.000000 0.000000 0.000000
# 4 0.000000 0.000000 0.000000 0.028115 0.000000 0.000000
# 5 0.000000 0.000000 0.000000 0.000000 0.026935 0.000000
# 6 0.000000 0.000000 0.000000 0.000000 0.000000 0.018743
#
#
# Mechanical properties :
#
#
# Convention : Reuss Voigt Hill
#
# Bulk Modulus (GPa) = 34.98266 50.68495 42.83381
# Shear Modulus (GPa) = 29.12878 39.67185 34.40032
#
# Velocity S-wave (km/s) = 3.43395 4.00751 3.73177
# Velocity P-wave (km/s) = 5.46668 6.47549 5.99235
#
# Compressibility (1/GPa) = 0.02858559
#
# Stress axis : x y z
#
# Youngs Moduli (GPa) = 46.56840 32.46063 161.88450
#
# Poissons Ratio (x) = 0.30607 0.05718
# Poissons Ratio (y) = 0.43909 0.83431
# Poissons Ratio (z) = 0.01645 0.16729
#
# Static dielectric constant tensor:
#      x y z
#    x 2.046350 0.000000 0.000000 
#    y 0.000000 1.905630 0.000000 
#    z 0.000000 0.000000 1.962700 
# 
# From -- ./inp_files/4191.got.cif
#   From: 2010.05.17/outbox.cif.g08.bks.cpg/sg19_3_cif.got.tgz:4191.got - 2010.06.03 22:46:19.
