data_PCOD9314497
_publ_section_title
;
Structure prediction by ZEFSAII (Michael W. Deem and Ramdas Pophale) SiO2 
 PCOD9314497
Probable space group: P 21 21 21
;
_chemical_formula_sum "Si O2"
_cell_formula_units_Z 32
_cell_length_a 7.793558
_cell_length_b 20.074657
_cell_length_c 9.343616
_cell_angle_alpha 90.000000
_cell_angle_beta 90.000000
_cell_angle_gamma 90.000000
_cell_volume 1461.836788
_symmetry_space_group_name_H-M "P 21 21 21"
_symmetry_group_IT_number 19
_symmetry_cell_setting 'orthorhombic'
loop_
_space_group_symop_operation_xyz
x,y,z
1/2-x,-y,1/2+z
1/2+x,1/2-y,-z
-x,1/2+y,1/2-z
loop_
_atom_site_type_symbol
_atom_site_label
_atom_site_fract_x
_atom_site_fract_y
_atom_site_fract_z
Si Si1 0.732150 0.790108 0.258868
Si Si2 0.587706 0.053392 0.215750
Si Si3 0.202230 0.861423 0.797829
Si Si4 0.532713 0.647617 0.892381
Si Si5 0.286943 0.688670 0.428866
Si Si6 0.822931 0.979818 0.034947
Si Si7 0.643772 0.333614 0.187493
Si Si8 0.465636 0.886328 0.593844
O O1 0.686738 0.711732 0.276285
O O2 0.826679 0.814666 0.403312
O O3 0.552312 0.831921 0.246477
O O4 0.879603 0.799112 0.138349
O O5 0.391586 0.071015 0.244018
O O6 0.644191 0.125831 0.157805
O O7 0.676381 0.035804 0.366579
O O8 0.639032 0.996748 0.103660
O O9 0.394193 0.880932 0.753671
O O10 0.120162 0.848091 0.951663
O O11 0.424507 0.579303 0.888032
O O12 0.696469 0.649637 0.788699
O O13 0.331961 0.757679 0.360075
O O14 0.083413 0.678510 0.424811
O O15 0.928191 0.047283 0.065207
O O16 0.657375 0.378590 0.043878
#
# Coordination Sequence:
#
# PCOD9314497 Si02
#       8
#     4   4   4   4   4   4   4   4
#     4  11  24  42  70 106 143 180 239 294 363 447
#     4  10  23  43  70  95 140 186 238 291 360 422
#     4  11  23  44  66 105 140 181 236 298 357 429
#     4  11  28  42  66 103 146 184 230 295 366 420
#     4  10  21  42  70 106 132 181 235 298 366 426
#     4  10  25  47  63 103 138 188 245 286 354 442
#     4  11  23  42  73 103 135 185 235 297 364 418
#     4  10  23  42  70  97 140 183 248 287 346 438
#
# _framework density 21.890267000000001
#
# number of rings (size 3 to 8) (size 9 to 14) (size 15 to 20)
#    0.000    1.500    2.500    0.750   10.500    2.000 
#    9.000    1.250    0.000    0.000    0.000    0.000 
#    0.000    0.000    0.000    0.000    0.000    0.000 
#
# Total GULP energy -178255.534157 kJ/mol
# GULP energy per Si atom -5570.485442 kJ/mol
# Density = 2.184044 g / cm^3
# Si number density = 21.890267 Si / 1000 Ang^3
#
#
#
# Elastic Constant Matrix: (Units=GPa)
#
#
# Indices 1 2 3 4 5 6 
#
# 1 43.0705 -1.8611 25.7677 0.0000 0.0000 0.0000
# 2 -1.8611 47.3130 5.3442 0.0000 0.0000 0.0000
# 3 25.7677 5.3442 36.4830 0.0000 0.0000 0.0000
# 4 0.0000 0.0000 0.0000 32.1128 0.0000 0.0000
# 5 0.0000 0.0000 0.0000 0.0000 31.0756 0.0000
# 6 0.0000 0.0000 0.0000 0.0000 0.0000 31.2520
#
#
#
# Elastic Compliance Matrix: (Units=1/GPa)
#
#
# Indices 1 2 3 4 5 6 
#
# 1 0.041342 0.005007 -0.029933 0.000000 0.000000 0.000000
# 2 0.005007 0.022098 -0.006774 0.000000 0.000000 0.000000
# 3 -0.029933 -0.006774 0.049544 0.000000 0.000000 0.000000
# 4 0.000000 0.000000 0.000000 0.031140 0.000000 0.000000
# 5 0.000000 0.000000 0.000000 0.000000 0.032180 0.000000
# 6 0.000000 0.000000 0.000000 0.000000 0.000000 0.031998
#
#
# Mechanical properties :
#
#
# Convention : Reuss Voigt Hill
#
# Bulk Modulus (GPa) = 20.16741 20.59645 20.38193
# Shear Modulus (GPa) = 17.34729 25.39581 21.37155
#
# Velocity S-wave (km/s) = 2.81813 3.40978 3.12798
# Velocity P-wave (km/s) = 4.45220 4.99315 4.73041
#
# Compressibility (1/GPa) = 0.04958495
#
# Stress axis : x y z
#
# Youngs Moduli (GPa) = 24.18830 45.25310 20.18409
#
# Poissons Ratio (x) = -0.22660 0.60418
# Poissons Ratio (y) = -0.12112 0.13672
# Poissons Ratio (z) = 0.72404 0.30653
#
# Static dielectric constant tensor:
#      x y z
#    x 1.964070 0.000000 0.000000 
#    y 0.000000 1.777180 0.000000 
#    z 0.000000 0.000000 1.902040 
# 
# From -- ./inp_files/3187.got.cif
#   From: 2010.05.17/outbox.cif.g08.bks.cpg/sg19_2_cif.got.tgz:3187.got - 2010.06.03 22:46:19.
