data_PCOD9314071
_publ_section_title
;
Structure prediction by ZEFSAII (Michael W. Deem and Ramdas Pophale) SiO2 
 PCOD9314071
Probable space group: P 21 21 21
;
_chemical_formula_sum "Si O2"
_cell_formula_units_Z 32
_cell_length_a 9.184157
_cell_length_b 11.073108
_cell_length_c 14.010096
_cell_angle_alpha 90.000000
_cell_angle_beta 90.000000
_cell_angle_gamma 90.000000
_cell_volume 1424.787007
_symmetry_space_group_name_H-M "P 21 21 21"
_symmetry_group_IT_number 19
_symmetry_cell_setting 'orthorhombic'
loop_
_space_group_symop_operation_xyz
x,y,z
1/2-x,-y,1/2+z
1/2+x,1/2-y,-z
-x,1/2+y,1/2-z
loop_
_atom_site_type_symbol
_atom_site_label
_atom_site_fract_x
_atom_site_fract_y
_atom_site_fract_z
Si Si1 0.519780 0.242253 0.253671
Si Si2 0.756559 0.574764 0.231367
Si Si3 0.896300 0.569228 0.021193
Si Si4 0.794077 0.810080 0.581616
Si Si5 0.995455 0.824840 0.416471
Si Si6 0.724651 0.671346 0.850919
Si Si7 0.651566 0.908925 0.115507
Si Si8 0.916677 0.796513 0.220800
O O1 0.403116 0.135374 0.262849
O O2 0.589256 0.256273 0.149928
O O3 0.660561 0.226592 0.320426
O O4 0.445642 0.363562 0.295048
O O5 0.826200 0.577619 0.125797
O O6 0.761096 0.445299 0.280430
O O7 0.860731 0.677242 0.276233
O O8 0.931180 0.427115 0.016366
O O9 0.772699 0.620205 0.951968
O O10 0.049833 0.621944 0.976990
O O11 0.629229 0.767116 0.598169
O O12 0.852565 0.787694 0.475164
O O13 0.809774 0.950889 0.608501
O O14 0.948404 0.879601 0.313509
O O15 0.564831 0.720374 0.835626
O O16 0.800876 0.841698 0.142943
#
# Coordination Sequence:
#
# PCOD9314071 Si02
#       8
#     4   4   4   4   4   4   4   4
#     4  10  20  41  64  93 127 176 221 272 339 399
#     4  11  23  41  69  92 135 185 216 283 347 394
#     4  10  22  44  65  92 133 178 225 276 335 412
#     4  11  23  39  66  97 134 175 225 282 336 401
#     4  11  24  39  64 101 130 175 226 280 339 408
#     4  11  23  42  67  97 136 171 231 283 333 404
#     4   9  23  40  63  90 135 169 220 278 331 407
#     4  11  24  40  66  98 136 177 222 278 346 407
#
# _framework density 22.459499000000001
#
# number of rings (size 3 to 8) (size 9 to 14) (size 15 to 20)
#    0.000    1.500    2.500    2.250    7.000    3.000 
#    0.000    0.000   11.000    0.000    0.000    0.000 
#    0.000    0.000    0.000    0.000    0.000    0.000 
#
# Total GULP energy -178322.927305 kJ/mol
# GULP energy per Si atom -5572.591478 kJ/mol
# Density = 2.240838 g / cm^3
# Si number density = 22.459499 Si / 1000 Ang^3
#
#
#
# Elastic Constant Matrix: (Units=GPa)
#
#
# Indices 1 2 3 4 5 6 
#
# 1 143.5185 20.8775 3.8522 0.0000 0.0000 0.0000
# 2 20.8775 54.2840 -0.1924 0.0000 0.0000 0.0000
# 3 3.8522 -0.1924 85.4982 0.0000 0.0000 0.0000
# 4 0.0000 0.0000 0.0000 28.8881 0.0000 0.0000
# 5 0.0000 0.0000 0.0000 0.0000 32.1983 0.0000
# 6 0.0000 0.0000 0.0000 0.0000 0.0000 19.6458
#
#
#
# Elastic Compliance Matrix: (Units=1/GPa)
#
#
# Indices 1 2 3 4 5 6 
#
# 1 0.007391 -0.002844 -0.000339 0.000000 0.000000 0.000000
# 2 -0.002844 0.019516 0.000172 0.000000 0.000000 0.000000
# 3 -0.000339 0.000172 0.011712 0.000000 0.000000 0.000000
# 4 0.000000 0.000000 0.000000 0.034616 0.000000 0.000000
# 5 0.000000 0.000000 0.000000 0.000000 0.031058 0.000000
# 6 0.000000 0.000000 0.000000 0.000000 0.000000 0.050902
#
#
# Mechanical properties :
#
#
# Convention : Reuss Voigt Hill
#
# Bulk Modulus (GPa) = 30.67827 36.93059 33.80443
# Shear Modulus (GPa) = 29.05608 33.39731 31.22670
#
# Velocity S-wave (km/s) = 3.60072 3.86035 3.73279
# Velocity P-wave (km/s) = 5.56560 6.02898 5.80192
#
# Compressibility (1/GPa) = 0.03259636
#
# Stress axis : x y z
#
# Youngs Moduli (GPa) = 135.30872 51.24032 85.38370
#
# Poissons Ratio (x) = 0.14571 0.02898
# Poissons Ratio (y) = 0.38476 -0.01469
# Poissons Ratio (z) = 0.04592 -0.00881
#
# Static dielectric constant tensor:
#      x y z
#    x 1.861960 0.000000 0.000000 
#    y 0.000000 1.919410 0.000000 
#    z 0.000000 0.000000 1.908270 
# 
# From -- ./inp_files/5216.got.cif
#   From: 2010.05.17/outbox.cif.g08.bks.cpg/sg19_3_cif.got.tgz:5216.got - 2010.06.03 22:46:19.
