data_PCOD9314444
_publ_section_title
;
Structure prediction by ZEFSAII (Michael W. Deem and Ramdas Pophale) SiO2 
 PCOD9314444
Probable space group: P 21 21 21
;
_chemical_formula_sum "Si O2"
_cell_formula_units_Z 24
_cell_length_a 13.808991
_cell_length_b 14.362272
_cell_length_c 5.379919
_cell_angle_alpha 90.000000
_cell_angle_beta 90.000000
_cell_angle_gamma 90.000000
_cell_volume 1066.991184
_symmetry_space_group_name_H-M "P 21 21 21"
_symmetry_group_IT_number 19
_symmetry_cell_setting 'orthorhombic'
loop_
_space_group_symop_operation_xyz
x,y,z
1/2-x,-y,1/2+z
1/2+x,1/2-y,-z
-x,1/2+y,1/2-z
loop_
_atom_site_type_symbol
_atom_site_label
_atom_site_fract_x
_atom_site_fract_y
_atom_site_fract_z
Si Si1 0.559371 0.950950 0.392673
Si Si2 0.229590 0.886986 0.493995
Si Si3 0.231370 0.688751 0.708484
Si Si4 0.153591 0.355620 0.714954
Si Si5 0.398948 0.977334 0.747684
Si Si6 0.606040 0.334122 0.368959
O O1 0.638298 0.869919 0.378866
O O2 0.506642 0.984973 0.644193
O O3 0.467807 0.905337 0.256207
O O4 0.609498 0.042386 0.287866
O O5 0.212840 0.799654 0.677704
O O6 0.303618 0.969931 0.573440
O O7 0.289020 0.844269 0.260073
O O8 0.130097 0.938679 0.427902
O O9 0.307650 0.662804 0.492131
O O10 0.269521 0.658012 0.983181
O O11 0.077849 0.272736 0.657166
O O12 0.393390 0.872496 0.855162
#
# Coordination Sequence:
#
# PCOD9314444 Si02
#       6
#     4   4   4   4   4   4
#     4  11  27  41  69 104 133 181 232 295 341 417
#     4  10  21  41  67  94 130 187 222 284 348 417
#     4  11  25  46  72  97 139 190 231 276 356 430
#     4  11  25  48  70  96 142 185 226 283 348 422
#     4  11  21  40  66  98 135 174 233 285 348 412
#     4  10  23  42  66  97 137 169 236 281 345 410
#
# _framework density 22.493158999999999
#
# number of rings (size 3 to 8) (size 9 to 14) (size 15 to 20)
#    0.000    1.333    3.333    1.000    4.667    2.667 
#    3.000    0.000    0.000    0.000    0.000    0.000 
#    0.000    0.000    0.000    0.000    0.000    0.000 
#
# Total GULP energy -133724.332110 kJ/mol
# GULP energy per Si atom -5571.847171 kJ/mol
# Density = 2.244196 g / cm^3
# Si number density = 22.493159 Si / 1000 Ang^3
#
#
#
# Elastic Constant Matrix: (Units=GPa)
#
#
# Indices 1 2 3 4 5 6 
#
# 1 43.1602 40.0630 2.5871 0.0000 0.0000 0.0000
# 2 40.0630 128.5718 -4.5996 0.0000 0.0000 0.0000
# 3 2.5871 -4.5996 40.4947 0.0000 0.0000 0.0000
# 4 0.0000 0.0000 0.0000 24.7848 0.0000 0.0000
# 5 0.0000 0.0000 0.0000 0.0000 23.3151 0.0000
# 6 0.0000 0.0000 0.0000 0.0000 0.0000 15.8364
#
#
#
# Elastic Compliance Matrix: (Units=1/GPa)
#
#
# Indices 1 2 3 4 5 6 
#
# 1 0.033030 -0.010410 -0.003293 0.000000 0.000000 0.000000
# 2 -0.010410 0.011090 0.001925 0.000000 0.000000 0.000000
# 3 -0.003293 0.001925 0.025124 0.000000 0.000000 0.000000
# 4 0.000000 0.000000 0.000000 0.040347 0.000000 0.000000
# 5 0.000000 0.000000 0.000000 0.000000 0.042891 0.000000
# 6 0.000000 0.000000 0.000000 0.000000 0.000000 0.063146
#
#
# Mechanical properties :
#
#
# Convention : Reuss Voigt Hill
#
# Bulk Modulus (GPa) = 21.88749 32.03642 26.96195
# Shear Modulus (GPa) = 19.65316 24.39900 22.02608
#
# Velocity S-wave (km/s) = 2.95912 3.29710 3.13267
# Velocity P-wave (km/s) = 4.62893 5.36359 5.00975
#
# Compressibility (1/GPa) = 0.04568821
#
# Stress axis : x y z
#
# Youngs Moduli (GPa) = 30.27581 90.16871 39.80325
#
# Poissons Ratio (x) = 0.93864 0.13106
# Poissons Ratio (y) = 0.31517 -0.07661
# Poissons Ratio (z) = 0.09969 -0.17355
#
# Static dielectric constant tensor:
#      x y z
#    x 1.875080 0.000000 0.000000 
#    y 0.000000 1.848590 0.000000 
#    z 0.000000 0.000000 2.261580 
# 
# From -- ./inp_files/931.got.cif
#   From: 2010.05.17/outbox.cif.g08.bks.cpg/sg19_1_cif.got.tgz:931.got - 2010.06.03 22:46:19.
