data_PCOD9314706
_publ_section_title
;
Structure prediction by ZEFSAII (Michael W. Deem and Ramdas Pophale) SiO2 
 PCOD9314706
Probable space group: P 21 21 21
;
_chemical_formula_sum "Si O2"
_cell_formula_units_Z 32
_cell_length_a 9.032902
_cell_length_b 30.256840
_cell_length_c 5.469218
_cell_angle_alpha 90.000000
_cell_angle_beta 90.000000
_cell_angle_gamma 90.000000
_cell_volume 1494.775950
_symmetry_space_group_name_H-M "P 21 21 21"
_symmetry_group_IT_number 19
_symmetry_cell_setting 'orthorhombic'
loop_
_space_group_symop_operation_xyz
x,y,z
1/2-x,-y,1/2+z
1/2+x,1/2-y,-z
-x,1/2+y,1/2-z
loop_
_atom_site_type_symbol
_atom_site_label
_atom_site_fract_x
_atom_site_fract_y
_atom_site_fract_z
Si Si1 0.852058 0.164540 0.692350
Si Si2 0.234680 0.473227 0.779346
Si Si3 0.083597 0.946088 0.897692
Si Si4 0.315273 0.290949 0.817235
Si Si5 0.786783 0.619796 0.349272
Si Si6 0.204100 0.041726 0.766202
Si Si7 0.620876 0.293446 0.059615
Si Si8 0.536536 0.912837 0.940116
O O1 0.790344 0.187497 0.447822
O O2 0.864491 0.112577 0.637841
O O3 0.777931 0.176833 0.951351
O O4 0.017762 0.183893 0.734802
O O5 0.233261 0.493150 0.051477
O O6 0.364315 0.437892 0.753497
O O7 0.079467 0.452124 0.699293
O O8 0.126239 0.949840 0.182838
O O9 0.172690 0.990505 0.814366
O O10 0.153394 0.900145 0.807986
O O11 0.490965 0.280556 0.864351
O O12 0.215607 0.247719 0.852313
O O13 0.820515 0.578753 0.529416
O O14 0.770971 0.667403 0.468229
O O15 0.936375 0.623429 0.192387
O O16 0.081875 0.054976 0.564234
#
# Coordination Sequence:
#
# PCOD9314706 Si02
#       8
#     4   4   4   4   4   4   4   4
#     4  10  22  40  69  97 127 167 221 254 341 396
#     4  12  28  43  64  95 137 179 227 275 334 387
#     4  11  24  37  62  94 132 175 228 272 325 383
#     4  10  23  40  70  95 129 165 210 270 331 398
#     4  11  22  41  68  95 131 173 228 274 324 393
#     4  11  20  38  64  92 124 178 222 269 320 385
#     4  10  23  43  69  99 134 166 224 266 338 400
#     4  11  22  42  68  91 130 179 222 274 323 398
#
# _framework density 21.407888
#
# number of rings (size 3 to 8) (size 9 to 14) (size 15 to 20)
#    0.750    0.500    5.000    0.750    5.250    0.000 
#    2.250    1.250    0.000    0.000    0.000    0.000 
#    0.000    0.000    0.000    0.000    0.000    0.000 
#
# Total GULP energy -178356.242335 kJ/mol
# GULP energy per Si atom -5573.632573 kJ/mol
# Density = 2.135916 g / cm^3
# Si number density = 21.407888 Si / 1000 Ang^3
#
#
#
# Elastic Constant Matrix: (Units=GPa)
#
#
# Indices 1 2 3 4 5 6 
#
# 1 29.8117 -15.8727 -12.5720 0.0000 0.0000 0.0000
# 2 -15.8727 32.4194 1.2721 0.0000 0.0000 0.0000
# 3 -12.5720 1.2721 56.9005 0.0000 0.0000 0.0000
# 4 0.0000 0.0000 0.0000 27.2238 0.0000 0.0000
# 5 0.0000 0.0000 0.0000 0.0000 3.6623 0.0000
# 6 0.0000 0.0000 0.0000 0.0000 0.0000 22.7708
#
#
#
# Elastic Compliance Matrix: (Units=1/GPa)
#
#
# Indices 1 2 3 4 5 6 
#
# 1 0.051207 0.024649 0.010763 0.000000 0.000000 0.000000
# 2 0.024649 0.042738 0.004491 0.000000 0.000000 0.000000
# 3 0.010763 0.004491 0.019852 0.000000 0.000000 0.000000
# 4 0.000000 0.000000 0.000000 0.036733 0.000000 0.000000
# 5 0.000000 0.000000 0.000000 0.000000 0.273049 0.000000
# 6 0.000000 0.000000 0.000000 0.000000 0.000000 0.043916
#
#
# Mechanical properties :
#
#
# Convention : Reuss Voigt Hill
#
# Bulk Modulus (GPa) = 5.16526 7.19848 6.18187
# Shear Modulus (GPa) = 11.05649 20.48502 15.77075
#
# Velocity S-wave (km/s) = 2.27506 3.09672 2.71713
# Velocity P-wave (km/s) = 3.05274 4.01946 3.56898
#
# Compressibility (1/GPa) = 0.19360091
#
# Stress axis : x y z
#
# Youngs Moduli (GPa) = 19.52872 23.39856 50.37228
#
# Poissons Ratio (x) = -0.57675 -0.54215
# Poissons Ratio (y) = -0.48136 -0.22620
# Poissons Ratio (z) = -0.21019 -0.10507
#
# Static dielectric constant tensor:
#      x y z
#    x 1.744950 0.000000 0.000000 
#    y 0.000000 1.754800 0.000000 
#    z 0.000000 0.000000 1.915190 
# 
# From -- ./inp_files/723.got.cif
#   From: 2010.05.17/outbox.cif.g08.bks.cpg/sg19_1_cif.got.tgz:723.got - 2010.06.03 22:46:19.
