data_PCOD9314295
_publ_section_title
;
Structure prediction by ZEFSAII (Michael W. Deem and Ramdas Pophale) SiO2 
 PCOD9314295
Probable space group: P 21 21 21
;
_chemical_formula_sum "Si O2"
_cell_formula_units_Z 28
_cell_length_a 5.094016
_cell_length_b 13.483703
_cell_length_c 18.540150
_cell_angle_alpha 90.000000
_cell_angle_beta 90.000000
_cell_angle_gamma 90.000000
_cell_volume 1273.452429
_symmetry_space_group_name_H-M "P 21 21 21"
_symmetry_group_IT_number 19
_symmetry_cell_setting 'orthorhombic'
loop_
_space_group_symop_operation_xyz
x,y,z
1/2-x,-y,1/2+z
1/2+x,1/2-y,-z
-x,1/2+y,1/2-z
loop_
_atom_site_type_symbol
_atom_site_label
_atom_site_fract_x
_atom_site_fract_y
_atom_site_fract_z
Si Si1 0.354322 0.784862 0.377567
Si Si2 0.041186 0.960685 0.183202
Si Si3 0.988178 0.348976 0.565783
Si Si4 0.316775 0.043934 0.960565
Si Si5 0.634879 0.111815 0.832557
Si Si6 0.029970 0.445118 0.883362
Si Si7 0.012525 0.764396 0.097488
O O1 0.318032 0.847528 0.452006
O O2 0.575253 0.845009 0.333939
O O3 0.436083 0.672745 0.387099
O O4 0.076135 0.797758 0.337513
O O5 0.935265 0.953532 0.264007
O O6 0.081346 0.849082 0.154224
O O7 0.810280 0.007841 0.134820
O O8 0.309890 0.020746 0.173575
O O9 0.881993 0.460235 0.566408
O O10 0.775050 0.281124 0.607010
O O11 0.982520 0.314438 0.482000
O O12 0.272574 0.322476 0.595806
O O13 0.558523 0.053319 0.905242
O O14 0.420108 0.019967 0.039403
#
# Coordination Sequence:
#
# PCOD9314295 Si02
#       7
#     4   4   4   4   4   4   4
#     4  10  25  46  68 102 140 177 235 285 353 419
#     4  12  25  47  67 104 142 185 232 295 353 421
#     4  10  21  39  62  96 123 173 223 280 339 391
#     4  10  26  42  72  99 141 178 233 294 345 409
#     4  10  25  46  67  94 151 177 224 292 352 414
#     4  12  26  42  79 101 138 186 241 285 352 422
#     4  10  22  38  63  90 133 168 226 279 332 402
#
# _framework density 21.987473000000001
#
# number of rings (size 3 to 8) (size 9 to 14) (size 15 to 20)
#    0.857    0.571    1.429    2.571   10.000    0.000 
#    7.714    0.000    0.000    0.000    0.000    0.000 
#    0.000    0.000    0.000    0.000    0.000    0.000 
#
# Total GULP energy -156510.842694 kJ/mol
# GULP energy per Si atom -5589.672953 kJ/mol
# Density = 2.193743 g / cm^3
# Si number density = 21.987473 Si / 1000 Ang^3
#
#
#
# Elastic Constant Matrix: (Units=GPa)
#
#
# Indices 1 2 3 4 5 6 
#
# 1 70.1307 5.2163 -7.4813 0.0000 0.0000 0.0000
# 2 5.2163 76.2499 -3.5522 0.0000 0.0000 0.0000
# 3 -7.4813 -3.5522 18.7049 0.0000 0.0000 0.0000
# 4 0.0000 0.0000 0.0000 2.7895 0.0000 0.0000
# 5 0.0000 0.0000 0.0000 0.0000 12.8901 0.0000
# 6 0.0000 0.0000 0.0000 0.0000 0.0000 34.4890
#
#
#
# Elastic Compliance Matrix: (Units=1/GPa)
#
#
# Indices 1 2 3 4 5 6 
#
# 1 0.014937 -0.000750 0.005832 0.000000 0.000000 0.000000
# 2 -0.000750 0.013270 0.002220 0.000000 0.000000 0.000000
# 3 0.005832 0.002220 0.056216 0.000000 0.000000 0.000000
# 4 0.000000 0.000000 0.000000 0.358489 0.000000 0.000000
# 5 0.000000 0.000000 0.000000 0.000000 0.077579 0.000000
# 6 0.000000 0.000000 0.000000 0.000000 0.000000 0.028995
#
#
# Mechanical properties :
#
#
# Convention : Reuss Voigt Hill
#
# Bulk Modulus (GPa) = 10.09838 17.05012 13.57425
# Shear Modulus (GPa) = 8.80451 21.42723 15.11587
#
# Velocity S-wave (km/s) = 2.00325 3.12512 2.62482
# Velocity P-wave (km/s) = 3.15491 4.55995 3.92088
#
# Compressibility (1/GPa) = 0.09902581
#
# Stress axis : x y z
#
# Youngs Moduli (GPa) = 66.94788 75.36072 17.78849
#
# Poissons Ratio (x) = 0.05653 -0.10374
# Poissons Ratio (y) = 0.05022 -0.03949
# Poissons Ratio (z) = -0.39043 -0.16730
#
# Static dielectric constant tensor:
#      x y z
#    x 1.795600 0.000000 0.000000 
#    y 0.000000 1.836330 0.000000 
#    z 0.000000 0.000000 1.804470 
# 
# From -- ./inp_files/6422.got.cif
#   From: 2010.05.17/outbox.cif.g08.bks.cpg/sg19_4_cif.got.tgz:6422.got - 2010.06.03 22:46:19.
