data_PCOD9314423
_publ_section_title
;
Structure prediction by ZEFSAII (Michael W. Deem and Ramdas Pophale) SiO2 
 PCOD9314423
Probable space group: P 21 21 21
;
_chemical_formula_sum "Si O2"
_cell_formula_units_Z 28
_cell_length_a 8.662277
_cell_length_b 16.271483
_cell_length_c 7.151092
_cell_angle_alpha 90.000000
_cell_angle_beta 90.000000
_cell_angle_gamma 90.000000
_cell_volume 1007.932780
_symmetry_space_group_name_H-M "P 21 21 21"
_symmetry_group_IT_number 19
_symmetry_cell_setting 'orthorhombic'
loop_
_space_group_symop_operation_xyz
x,y,z
1/2-x,-y,1/2+z
1/2+x,1/2-y,-z
-x,1/2+y,1/2-z
loop_
_atom_site_type_symbol
_atom_site_label
_atom_site_fract_x
_atom_site_fract_y
_atom_site_fract_z
Si Si1 0.187787 0.116867 0.044615
Si Si2 0.353374 0.552705 0.849942
Si Si3 0.228294 0.067504 0.471178
Si Si4 0.028346 0.339716 0.070727
Si Si5 0.066433 0.640818 0.934448
Si Si6 0.019102 0.811866 0.027413
Si Si7 0.653332 0.861784 0.626111
O O1 0.200425 0.098318 0.263443
O O2 0.013934 0.154771 0.020526
O O3 0.350166 0.163578 0.997128
O O4 0.198501 0.022631 0.968056
O O5 0.457608 0.568524 0.667287
O O6 0.427335 0.604538 0.021782
O O7 0.330185 0.459890 0.892706
O O8 0.199408 0.602956 0.811171
O O9 0.317474 0.145588 0.560089
O O10 0.067143 0.074419 0.574991
O O11 0.045518 0.289815 0.266919
O O12 0.180300 0.327125 0.943930
O O13 0.019125 0.734653 0.894411
O O14 0.126959 0.650719 0.150183
#
# Coordination Sequence:
#
# PCOD9314423 Si02
#       7
#     4   4   4   4   4   4   4
#     4  11  22  41  68 101 131 173 219 292 333 397
#     4  10  21  41  64  96 133 165 235 271 329 409
#     4  11  22  40  69  94 132 172 228 270 346 400
#     4  10  24  40  64  99 137 168 227 280 339 400
#     4  11  24  42  68  92 135 181 222 278 348 401
#     4  10  23  45  59  97 133 175 228 274 335 421
#     4  11  22  41  66 101 127 174 225 281 340 400
#
# _framework density 27.779627999999999
#
# number of rings (size 3 to 8) (size 9 to 14) (size 15 to 20)
#    0.857    0.571    1.429    5.143    2.000    3.429 
#    5.143    0.000    0.000    0.000    0.000    0.000 
#    0.000    0.000    0.000    0.000    0.000    0.000 
#
# Total GULP energy -156272.225862 kJ/mol
# GULP energy per Si atom -5581.150924 kJ/mol
# Density = 2.771640 g / cm^3
# Si number density = 27.779628 Si / 1000 Ang^3
#
#
#
# Elastic Constant Matrix: (Units=GPa)
#
#
# Indices 1 2 3 4 5 6 
#
# 1 162.6900 25.3045 40.4666 0.0000 0.0000 0.0000
# 2 25.3045 115.1433 13.3551 0.0000 0.0000 0.0000
# 3 40.4666 13.3551 73.7217 0.0000 0.0000 0.0000
# 4 0.0000 0.0000 0.0000 35.2249 0.0000 0.0000
# 5 0.0000 0.0000 0.0000 0.0000 36.7620 0.0000
# 6 0.0000 0.0000 0.0000 0.0000 0.0000 32.5630
#
#
#
# Elastic Compliance Matrix: (Units=1/GPa)
#
#
# Indices 1 2 3 4 5 6 
#
# 1 0.007267 -0.001159 -0.003779 0.000000 0.000000 0.000000
# 2 -0.001159 0.009056 -0.001005 0.000000 0.000000 0.000000
# 3 -0.003779 -0.001005 0.015821 0.000000 0.000000 0.000000
# 4 0.000000 0.000000 0.000000 0.028389 0.000000 0.000000
# 5 0.000000 0.000000 0.000000 0.000000 0.027202 0.000000
# 6 0.000000 0.000000 0.000000 0.000000 0.000000 0.030710
#
#
# Mechanical properties :
#
#
# Convention : Reuss Voigt Hill
#
# Bulk Modulus (GPa) = 49.36002 56.64527 53.00265
# Shear Modulus (GPa) = 36.47459 39.07190 37.77325
#
# Velocity S-wave (km/s) = 3.62746 3.75439 3.69147
# Velocity P-wave (km/s) = 5.94572 6.26332 6.10659
#
# Compressibility (1/GPa) = 0.02025931
#
# Stress axis : x y z
#
# Youngs Moduli (GPa) = 137.61147 110.42421 63.20789
#
# Poissons Ratio (x) = 0.12795 0.23886
# Poissons Ratio (y) = 0.15945 0.06349
# Poissons Ratio (z) = 0.52003 0.11092
#
# Static dielectric constant tensor:
#      x y z
#    x 2.379880 0.000000 0.000000 
#    y 0.000000 2.179860 0.000000 
#    z 0.000000 0.000000 2.190580 
# 
# From -- ./inp_files/3012.got.cif
#   From: 2010.05.17/outbox.cif.g08.bks.cpg/sg19_2_cif.got.tgz:3012.got - 2010.06.03 22:46:19.
