data_PCOD9314499
_publ_section_title
;
Structure prediction by ZEFSAII (Michael W. Deem and Ramdas Pophale) SiO2 
 PCOD9314499
Probable space group: P 21 21 21
;
_chemical_formula_sum "Si O2"
_cell_formula_units_Z 32
_cell_length_a 7.059576
_cell_length_b 11.044501
_cell_length_c 16.804621
_cell_angle_alpha 90.000000
_cell_angle_beta 90.000000
_cell_angle_gamma 90.000000
_cell_volume 1310.247799
_symmetry_space_group_name_H-M "P 21 21 21"
_symmetry_group_IT_number 19
_symmetry_cell_setting 'orthorhombic'
loop_
_space_group_symop_operation_xyz
x,y,z
1/2-x,-y,1/2+z
1/2+x,1/2-y,-z
-x,1/2+y,1/2-z
loop_
_atom_site_type_symbol
_atom_site_label
_atom_site_fract_x
_atom_site_fract_y
_atom_site_fract_z
Si Si1 0.655378 0.005494 0.663585
Si Si2 0.443911 0.662959 0.520000
Si Si3 0.467121 0.841165 0.882202
Si Si4 0.080168 0.906214 0.307841
Si Si5 0.210570 0.281882 0.736253
Si Si6 0.451284 0.178931 0.397689
Si Si7 0.487716 0.427086 0.450973
Si Si8 0.017794 0.564484 0.499521
O O1 0.575004 0.083628 0.736989
O O2 0.843318 0.051703 0.620403
O O3 0.716981 0.877648 0.699788
O O4 0.506355 0.984317 0.591637
O O5 0.506813 0.660790 0.612387
O O6 0.570056 0.562473 0.470615
O O7 0.237003 0.603609 0.511953
O O8 0.428314 0.801157 0.489550
O O9 0.620152 0.778578 0.828142
O O10 0.268757 0.782130 0.905522
O O11 0.393584 0.956868 0.833847
O O12 0.573398 0.889183 0.959945
O O13 0.275318 0.847817 0.277569
O O14 0.023702 0.328277 0.692896
O O15 0.573469 0.295874 0.427572
O O16 0.471259 0.051264 0.444546
#
# Coordination Sequence:
#
# PCOD9314499 Si02
#       8
#     4   4   4   4   4   4   4   4
#     4  10  21  43  69 100 140 188 235 291 359 429
#     4  10  23  46  69 101 138 188 243 292 353 431
#     4  10  25  43  67 102 142 186 236 287 357 426
#     4  10  21  42  70  97 144 187 228 292 365 427
#     4  11  23  44  70 100 145 182 232 297 360 425
#     4  12  27  43  72 107 140 185 238 300 359 421
#     4  10  24  42  71 101 137 182 239 292 343 422
#     4  11  24  43  70 102 138 188 241 297 352 423
#
# _framework density 24.42286
#
# number of rings (size 3 to 8) (size 9 to 14) (size 15 to 20)
#    0.000    1.500    1.250    3.750   10.500    1.000 
#    0.000    7.500    0.000    0.000    0.000    0.000 
#    0.000    0.000    0.000    0.000    0.000    0.000 
#
# Total GULP energy -178311.536601 kJ/mol
# GULP energy per Si atom -5572.235519 kJ/mol
# Density = 2.436727 g / cm^3
# Si number density = 24.422860 Si / 1000 Ang^3
#
#
#
# Elastic Constant Matrix: (Units=GPa)
#
#
# Indices 1 2 3 4 5 6 
#
# 1 66.0133 24.7547 34.7847 0.0000 0.0000 0.0000
# 2 24.7547 153.4494 43.0486 0.0000 0.0000 0.0000
# 3 34.7847 43.0486 118.5709 0.0000 0.0000 0.0000
# 4 0.0000 0.0000 0.0000 17.0994 0.0000 0.0000
# 5 0.0000 0.0000 0.0000 0.0000 28.4307 0.0000
# 6 0.0000 0.0000 0.0000 0.0000 0.0000 -4.0281
#
#
#
# Elastic Compliance Matrix: (Units=1/GPa)
#
#
# Indices 1 2 3 4 5 6 
#
# 1 0.018268 -0.001607 -0.004776 0.000000 0.000000 0.000000
# 2 -0.001607 0.007397 -0.002214 0.000000 0.000000 0.000000
# 3 -0.004776 -0.002214 0.010639 0.000000 0.000000 0.000000
# 4 0.000000 0.000000 0.000000 0.058482 0.000000 0.000000
# 5 0.000000 0.000000 0.000000 0.000000 0.035173 0.000000
# 6 0.000000 0.000000 0.000000 0.000000 0.000000 -0.248254
#
#
# Mechanical properties :
#
#
# Convention : Reuss Voigt Hill
#
# Bulk Modulus (GPa) = 52.32980 60.35663 56.34321
# Shear Modulus (GPa) = -52.78055 23.99677 -14.39189
#
# Velocity S-wave (km/s) = -4.65382 3.13797 -2.43014
# Velocity P-wave (km/s) = 2.72109 6.15597 3.90459
#
# Compressibility (1/GPa) = 0.01910957
#
# Stress axis : x y z
#
# Youngs Moduli (GPa) = 54.74182 135.18550 93.99700
#
# Poissons Ratio (x) = 0.21727 0.44889
# Poissons Ratio (y) = 0.08798 0.20812
# Poissons Ratio (z) = 0.26142 0.29932
#
# Static dielectric constant tensor:
#      x y z
#    x 2.039390 0.000000 0.000000 
#    y 0.000000 2.079290 0.000000 
#    z 0.000000 0.000000 1.993520 
# 
# From -- ./inp_files/5899.got.cif
#   From: 2010.05.17/outbox.cif.g08.bks.cpg/sg19_3_cif.got.tgz:5899.got - 2010.06.03 22:46:19.
