data_PCOD9314164
_publ_section_title
;
Structure prediction by ZEFSAII (Michael W. Deem and Ramdas Pophale) SiO2 
 PCOD9314164
Probable space group: P 21 21 21
;
_chemical_formula_sum "Si O2"
_cell_formula_units_Z 32
_cell_length_a 5.174003
_cell_length_b 18.331382
_cell_length_c 17.529977
_cell_angle_alpha 90.000000
_cell_angle_beta 90.000000
_cell_angle_gamma 90.000000
_cell_volume 1662.659163
_symmetry_space_group_name_H-M "P 21 21 21"
_symmetry_group_IT_number 19
_symmetry_cell_setting 'orthorhombic'
loop_
_space_group_symop_operation_xyz
x,y,z
1/2-x,-y,1/2+z
1/2+x,1/2-y,-z
-x,1/2+y,1/2-z
loop_
_atom_site_type_symbol
_atom_site_label
_atom_site_fract_x
_atom_site_fract_y
_atom_site_fract_z
Si Si1 0.885327 0.202199 0.983893
Si Si2 0.696314 0.218485 0.390759
Si Si3 0.749437 0.780715 0.315079
Si Si4 0.741113 0.813374 0.720357
Si Si5 0.152964 0.029215 0.593878
Si Si6 0.037981 0.849841 0.029981
Si Si7 0.340156 0.431434 0.900692
Si Si8 0.143312 0.645754 0.836429
O O1 0.815103 0.185002 0.896443
O O2 0.659991 0.257151 0.011700
O O3 0.885090 0.131575 0.037007
O O4 0.804602 0.187178 0.311628
O O5 0.582133 0.158384 0.447009
O O6 0.486804 0.278786 0.364120
O O7 0.884180 0.268441 0.442257
O O8 0.517619 0.723613 0.297111
O O9 0.759739 0.837861 0.245736
O O10 0.017318 0.737083 0.315514
O O11 0.724300 0.890727 0.678734
O O12 0.400221 0.978595 0.606887
O O13 0.907462 0.979244 0.575514
O O14 0.232024 0.091355 0.532161
O O15 0.066489 0.081232 0.664207
O O16 0.846220 0.873947 0.097725
#
# Coordination Sequence:
#
# PCOD9314164 Si02
#       8
#     4   4   4   4   4   4   4   4
#     4  12  22  40  67  99 123 158 217 280 324 360
#     4  10  21  34  66 101 119 159 207 283 312 357
#     4  11  21  39  64  98 121 152 206 276 325 359
#     4  11  22  38  64  95 125 153 209 267 326 370
#     4  11  25  41  63  86 128 182 206 239 322 409
#     4  11  19  39  64  92 127 162 211 258 320 383
#     4  12  23  42  65  89 128 173 210 256 321 394
#     4  10  21  39  65  90 127 161 210 255 320 380
#
# _framework density 19.246278
#
# number of rings (size 3 to 8) (size 9 to 14) (size 15 to 20)
#    0.000    1.000    6.250    1.500    0.000    0.000 
#    0.000    1.250    5.500    0.000    0.000    0.000 
#    0.000    0.000    0.000    0.000    0.000    0.000 
#
# Total GULP energy -178628.560174 kJ/mol
# GULP energy per Si atom -5582.142505 kJ/mol
# Density = 1.920247 g / cm^3
# Si number density = 19.246278 Si / 1000 Ang^3
#
#
#
# Elastic Constant Matrix: (Units=GPa)
#
#
# Indices 1 2 3 4 5 6 
#
# 1 87.0027 36.2154 6.9086 0.0000 0.0000 0.0000
# 2 36.2154 99.8150 33.6634 0.0000 0.0000 0.0000
# 3 6.9086 33.6634 105.2585 0.0000 0.0000 0.0000
# 4 0.0000 0.0000 0.0000 8.3149 0.0000 0.0000
# 5 0.0000 0.0000 0.0000 0.0000 -34.9581 0.0000
# 6 0.0000 0.0000 0.0000 0.0000 0.0000 42.0993
#
#
#
# Elastic Compliance Matrix: (Units=1/GPa)
#
#
# Indices 1 2 3 4 5 6 
#
# 1 0.013594 -0.005191 0.000768 0.000000 0.000000 0.000000
# 2 -0.005191 0.013212 -0.003885 0.000000 0.000000 0.000000
# 3 0.000768 -0.003885 0.010692 0.000000 0.000000 0.000000
# 4 0.000000 0.000000 0.000000 0.120265 0.000000 0.000000
# 5 0.000000 0.000000 0.000000 0.000000 -0.028606 0.000000
# 6 0.000000 0.000000 0.000000 0.000000 0.000000 0.023753
#
#
# Mechanical properties :
#
#
# Convention : Reuss Voigt Hill
#
# Bulk Modulus (GPa) = 47.88695 49.51679 48.70187
# Shear Modulus (GPa) = 28.33052 17.44383 22.88717
#
# Velocity S-wave (km/s) = 3.84083 3.01383 3.45218
# Velocity P-wave (km/s) = 6.67866 6.15587 6.42258
#
# Compressibility (1/GPa) = 0.02088252
#
# Stress axis : x y z
#
# Youngs Moduli (GPa) = 73.56310 75.68762 93.52411
#
# Poissons Ratio (x) = 0.39291 -0.07183
# Poissons Ratio (y) = 0.38188 0.36332
# Poissons Ratio (z) = -0.05650 0.29403
#
# Static dielectric constant tensor:
#      x y z
#    x 1.726780 0.000000 0.000000 
#    y 0.000000 1.687350 0.000000 
#    z 0.000000 0.000000 1.670030 
# 
# From -- ./inp_files/1876.got.cif
#   From: 2010.05.17/outbox.cif.g08.bks.cpg/sg19_1_cif.got.tgz:1876.got - 2010.06.03 22:46:19.
