data_PCOD9314533
_publ_section_title
;
Structure prediction by ZEFSAII (Michael W. Deem and Ramdas Pophale) SiO2 
 PCOD9314533
Probable space group: P 21 21 21
;
_chemical_formula_sum "Si O2"
_cell_formula_units_Z 28
_cell_length_a 16.782507
_cell_length_b 9.134041
_cell_length_c 9.323926
_cell_angle_alpha 90.000000
_cell_angle_beta 90.000000
_cell_angle_gamma 90.000000
_cell_volume 1429.284262
_symmetry_space_group_name_H-M "P 21 21 21"
_symmetry_group_IT_number 19
_symmetry_cell_setting 'orthorhombic'
loop_
_space_group_symop_operation_xyz
x,y,z
1/2-x,-y,1/2+z
1/2+x,1/2-y,-z
-x,1/2+y,1/2-z
loop_
_atom_site_type_symbol
_atom_site_label
_atom_site_fract_x
_atom_site_fract_y
_atom_site_fract_z
Si Si1 0.391763 0.818840 0.790859
Si Si2 0.726160 0.176039 0.296455
Si Si3 0.390378 0.025430 0.044675
Si Si4 0.326994 0.528232 0.909028
Si Si5 0.205151 0.966242 0.085418
Si Si6 0.972110 0.186671 0.064591
Si Si7 0.602198 0.406247 0.163503
O O1 0.339809 0.674975 0.816661
O O2 0.471315 0.788807 0.701354
O O3 0.340486 0.938305 0.703906
O O4 0.411118 0.888375 0.944235
O O5 0.699153 0.076970 0.431286
O O6 0.786030 0.299424 0.361537
O O7 0.654856 0.272678 0.227684
O O8 0.766169 0.078632 0.173005
O O9 0.294883 0.024704 0.063664
O O10 0.426316 0.000179 0.201416
O O11 0.421267 0.170650 0.970967
O O12 0.411670 0.446553 0.914515
O O13 0.158170 0.993956 0.938095
O O14 0.031228 0.152339 0.933507
#
# Coordination Sequence:
#
# PCOD9314533 Si02
#       7
#     4   4   4   4   4   4   4
#     4  11  23  44  67  95 134 175 218 274 331 409
#     4  11  26  42  69 101 134 175 228 281 336 392
#     4  11  21  41  67  91 127 177 223 263 321 404
#     4  12  26  44  67 104 137 174 224 289 337 394
#     4  10  21  43  71  93 122 175 225 268 326 401
#     4  11  26  40  65  95 140 174 215 273 343 403
#     4  10  23  42  68  95 130 170 231 266 332 395
#
# _framework density 19.590223999999999
#
# number of rings (size 3 to 8) (size 9 to 14) (size 15 to 20)
#    0.000    1.143    2.857    4.286    8.000    1.143 
#    0.000    1.429    0.000    0.000    0.000    0.000 
#    0.000    0.000    0.000    0.000    0.000    0.000 
#
# Total GULP energy -156534.194652 kJ/mol
# GULP energy per Si atom -5590.506952 kJ/mol
# Density = 1.954564 g / cm^3
# Si number density = 19.590224 Si / 1000 Ang^3
#
#
#
# Elastic Constant Matrix: (Units=GPa)
#
#
# Indices 1 2 3 4 5 6 
#
# 1 32.1775 7.6465 21.6321 0.0000 0.0000 0.0000
# 2 7.6465 59.8912 7.6510 0.0000 0.0000 0.0000
# 3 21.6321 7.6510 84.5840 0.0000 0.0000 0.0000
# 4 0.0000 0.0000 0.0000 26.0835 0.0000 0.0000
# 5 0.0000 0.0000 0.0000 0.0000 4.4031 0.0000
# 6 0.0000 0.0000 0.0000 0.0000 0.0000 39.9821
#
#
#
# Elastic Compliance Matrix: (Units=1/GPa)
#
#
# Indices 1 2 3 4 5 6 
#
# 1 0.038317 -0.003683 -0.009466 0.000000 0.000000 0.000000
# 2 -0.003683 0.017246 -0.000618 0.000000 0.000000 0.000000
# 3 -0.009466 -0.000618 0.014299 0.000000 0.000000 0.000000
# 4 0.000000 0.000000 0.000000 0.038338 0.000000 0.000000
# 5 0.000000 0.000000 0.000000 0.000000 0.227114 0.000000
# 6 0.000000 0.000000 0.000000 0.000000 0.000000 0.025011
#
#
# Mechanical properties :
#
#
# Convention : Reuss Voigt Hill
#
# Bulk Modulus (GPa) = 23.62506 27.83467 25.72986
# Shear Modulus (GPa) = 12.43877 23.40861 17.92369
#
# Velocity S-wave (km/s) = 2.52255 3.46050 3.02806
# Velocity P-wave (km/s) = 4.53543 5.49600 5.03866
#
# Compressibility (1/GPa) = 0.04232794
#
# Stress axis : x y z
#
# Youngs Moduli (GPa) = 26.09835 57.98414 69.93281
#
# Poissons Ratio (x) = 0.21354 0.66200
# Poissons Ratio (y) = 0.09611 0.04323
# Poissons Ratio (z) = 0.24705 0.03584
#
# Static dielectric constant tensor:
#      x y z
#    x 1.672060 0.000000 0.000000 
#    y 0.000000 1.694250 0.000000 
#    z 0.000000 0.000000 1.655740 
# 
# From -- ./inp_files/4147.got.cif
#   From: 2010.05.17/outbox.cif.g08.bks.cpg/sg19_3_cif.got.tgz:4147.got - 2010.06.03 22:46:19.
