data_PCOD9314412
_publ_section_title
;
Structure prediction by ZEFSAII (Michael W. Deem and Ramdas Pophale) SiO2 
 PCOD9314412
Probable space group: P 21 21 21
;
_chemical_formula_sum "Si O2"
_cell_formula_units_Z 28
_cell_length_a 7.179039
_cell_length_b 15.224089
_cell_length_c 9.765190
_cell_angle_alpha 90.000000
_cell_angle_beta 90.000000
_cell_angle_gamma 90.000000
_cell_volume 1067.279885
_symmetry_space_group_name_H-M "P 21 21 21"
_symmetry_group_IT_number 19
_symmetry_cell_setting 'orthorhombic'
loop_
_space_group_symop_operation_xyz
x,y,z
1/2-x,-y,1/2+z
1/2+x,1/2-y,-z
-x,1/2+y,1/2-z
loop_
_atom_site_type_symbol
_atom_site_label
_atom_site_fract_x
_atom_site_fract_y
_atom_site_fract_z
Si Si1 0.365060 0.876420 0.129266
Si Si2 0.974509 0.475184 0.467942
Si Si3 0.267872 0.852446 0.420252
Si Si4 0.304137 0.383626 0.871442
Si Si5 0.956512 0.434765 0.752612
Si Si6 0.391471 0.816401 0.830699
Si Si7 0.159461 0.309380 0.121073
O O1 0.433989 0.829197 0.991278
O O2 0.149718 0.899185 0.094562
O O3 0.363811 0.830073 0.275476
O O4 0.445004 0.973064 0.167633
O O5 0.833204 0.553142 0.521026
O O6 0.063857 0.444117 0.608663
O O7 0.116658 0.517781 0.362499
O O8 0.320904 0.780384 0.532078
O O9 0.046372 0.850118 0.392587
O O10 0.308320 0.366241 0.035562
O O11 0.427102 0.329903 0.764531
O O12 0.088970 0.373080 0.838633
O O13 0.758474 0.391971 0.713462
O O14 0.309192 0.723481 0.776627
#
# Coordination Sequence:
#
# PCOD9314412 Si02
#       7
#     4   4   4   4   4   4   4
#     4  10  22  43  67  93 140 170 213 279 346 374
#     4  10  21  41  62  99 124 166 220 263 335 393
#     4  11  22  42  69  96 131 181 216 274 327 395
#     4  12  23  37  69  94 126 177 220 266 320 405
#     4  10  23  39  65  95 129 168 211 277 332 385
#     4  11  23  43  64  96 134 178 215 276 327 392
#     4  12  22  41  66  95 128 178 231 261 323 404
#
# _framework density 26.234918
#
# number of rings (size 3 to 8) (size 9 to 14) (size 15 to 20)
#    0.000    1.143    4.286    1.714    2.000    1.143 
#    0.000    7.143    0.000    0.000    0.000    0.000 
#    0.000    0.000    0.000    0.000    0.000    0.000 
#
# Total GULP energy -156492.790972 kJ/mol
# GULP energy per Si atom -5589.028249 kJ/mol
# Density = 2.617521 g / cm^3
# Si number density = 26.234918 Si / 1000 Ang^3
#
#
#
# Elastic Constant Matrix: (Units=GPa)
#
#
# Indices 1 2 3 4 5 6 
#
# 1 69.8482 -0.2809 26.0203 0.0000 0.0000 0.0000
# 2 -0.2809 32.5391 -0.1087 0.0000 0.0000 0.0000
# 3 26.0203 -0.1087 152.1729 0.0000 0.0000 0.0000
# 4 0.0000 0.0000 0.0000 33.6175 0.0000 0.0000
# 5 0.0000 0.0000 0.0000 0.0000 26.5914 0.0000
# 6 0.0000 0.0000 0.0000 0.0000 0.0000 25.2002
#
#
#
# Elastic Compliance Matrix: (Units=1/GPa)
#
#
# Indices 1 2 3 4 5 6 
#
# 1 0.015291 0.000123 -0.002615 0.000000 0.000000 0.000000
# 2 0.000123 0.030733 0.000001 0.000000 0.000000 0.000000
# 3 -0.002615 0.000001 0.007019 0.000000 0.000000 0.000000
# 4 0.000000 0.000000 0.000000 0.029746 0.000000 0.000000
# 5 0.000000 0.000000 0.000000 0.000000 0.037606 0.000000
# 6 0.000000 0.000000 0.000000 0.000000 0.000000 0.039682
#
#
# Mechanical properties :
#
#
# Convention : Reuss Voigt Hill
#
# Bulk Modulus (GPa) = 20.80638 33.98018 27.39328
# Shear Modulus (GPa) = 27.61216 32.34377 29.97797
#
# Velocity S-wave (km/s) = 3.24774 3.51501 3.38401
# Velocity P-wave (km/s) = 4.69167 5.42716 5.07276
#
# Compressibility (1/GPa) = 0.04806219
#
# Stress axis : x y z
#
# Youngs Moduli (GPa) = 65.39684 32.53800 142.47970
#
# Poissons Ratio (x) = -0.00401 0.37253
# Poissons Ratio (y) = -0.00806 -0.00012
# Poissons Ratio (z) = 0.17099 -0.00003
#
# Static dielectric constant tensor:
#      x y z
#    x 2.085300 0.000000 0.000000 
#    y 0.000000 2.138330 0.000000 
#    z 0.000000 0.000000 2.109220 
# 
# From -- ./inp_files/2989.got.cif
#   From: 2010.05.17/outbox.cif.g08.bks.cpg/sg19_2_cif.got.tgz:2989.got - 2010.06.03 22:46:19.
