data_PCOD9314193
_publ_section_title
;
Structure prediction by ZEFSAII (Michael W. Deem and Ramdas Pophale) SiO2 
 PCOD9314193
Probable space group: P 21 21 21
;
_chemical_formula_sum "Si O2"
_cell_formula_units_Z 32
_cell_length_a 9.984603
_cell_length_b 10.163175
_cell_length_c 13.552159
_cell_angle_alpha 90.000000
_cell_angle_beta 90.000000
_cell_angle_gamma 90.000000
_cell_volume 1375.208961
_symmetry_space_group_name_H-M "P 21 21 21"
_symmetry_group_IT_number 19
_symmetry_cell_setting 'orthorhombic'
loop_
_space_group_symop_operation_xyz
x,y,z
1/2-x,-y,1/2+z
1/2+x,1/2-y,-z
-x,1/2+y,1/2-z
loop_
_atom_site_type_symbol
_atom_site_label
_atom_site_fract_x
_atom_site_fract_y
_atom_site_fract_z
Si Si1 0.141736 0.160523 0.642658
Si Si2 0.308797 0.528846 0.569593
Si Si3 0.884638 0.799281 0.157321
Si Si4 0.522107 0.697709 0.634588
Si Si5 0.799924 0.152544 0.241217
Si Si6 0.716375 0.467350 0.564437
Si Si7 0.378773 0.460163 0.353095
Si Si8 0.026681 0.426138 0.545836
O O1 0.258022 0.206828 0.714434
O O2 0.193415 0.081975 0.547772
O O3 0.071465 0.296439 0.607109
O O4 0.022125 0.076897 0.687423
O O5 0.385889 0.667173 0.575924
O O6 0.340265 0.438241 0.665734
O O7 0.369440 0.459207 0.472230
O O8 0.148223 0.529152 0.562754
O O9 0.972154 0.820857 0.253256
O O10 0.850126 0.649029 0.129938
O O11 0.739866 0.863078 0.177621
O O12 0.955905 0.870839 0.065443
O O13 0.593469 0.837177 0.652466
O O14 0.632617 0.597994 0.590624
O O15 0.667617 0.097703 0.189703
O O16 0.877896 0.471938 0.573472
#
# Coordination Sequence:
#
# PCOD9314193 Si02
#       8
#     4   4   4   4   4   4   4   4
#     4  10  21  39  67  93 136 176 225 282 338 400
#     4  10  22  44  68  96 141 178 225 282 348 405
#     4  10  21  36  65  97 132 176 229 277 344 410
#     4  12  23  39  65  98 136 181 220 287 339 412
#     4  11  25  41  68 101 136 181 235 282 339 415
#     4  11  21  39  69 100 131 175 237 281 339 412
#     4  11  21  43  69  99 136 187 222 291 342 404
#     4   9  20  37  67 100 124 174 231 280 335 404
#
# _framework density 23.269189000000001
#
# number of rings (size 3 to 8) (size 9 to 14) (size 15 to 20)
#    0.000    1.500    3.750    2.250    1.750    2.000 
#    0.000    3.750    2.750    0.000    0.000    0.000 
#    0.000    0.000    0.000    0.000    0.000    0.000 
#
# Total GULP energy -178663.458987 kJ/mol
# GULP energy per Si atom -5583.233093 kJ/mol
# Density = 2.321623 g / cm^3
# Si number density = 23.269189 Si / 1000 Ang^3
#
#
#
# Elastic Constant Matrix: (Units=GPa)
#
#
# Indices 1 2 3 4 5 6 
#
# 1 102.6287 -11.3647 20.3733 0.0000 0.0000 0.0000
# 2 -11.3647 9.0881 24.3242 0.0000 0.0000 0.0000
# 3 20.3733 24.3242 22.2388 0.0000 0.0000 0.0000
# 4 0.0000 0.0000 0.0000 22.9005 0.0000 0.0000
# 5 0.0000 0.0000 0.0000 0.0000 30.2013 0.0000
# 6 0.0000 0.0000 0.0000 0.0000 0.0000 28.4824
#
#
#
# Elastic Compliance Matrix: (Units=1/GPa)
#
#
# Indices 1 2 3 4 5 6 
#
# 1 0.006730 -0.012927 0.007974 0.000000 0.000000 0.000000
# 2 -0.012927 -0.032256 0.047123 0.000000 0.000000 0.000000
# 3 0.007974 0.047123 -0.013881 0.000000 0.000000 0.000000
# 4 0.000000 0.000000 0.000000 0.043667 0.000000 0.000000
# 5 0.000000 0.000000 0.000000 0.000000 0.033111 0.000000
# 6 0.000000 0.000000 0.000000 0.000000 0.000000 0.035109
#
#
# Mechanical properties :
#
#
# Convention : Reuss Voigt Hill
#
# Bulk Modulus (GPa) = 22.25512 22.29125 22.27318
# Shear Modulus (GPa) = 1604.48285 23.02503 813.75394
#
# Velocity S-wave (km/s) = 26.28741 3.14906 18.72090
# Velocity P-wave (km/s) = 30.51156 4.77730 21.83779
#
# Compressibility (1/GPa) = 0.04493348
#
# Stress axis : x y z
#
# Youngs Moduli (GPa) = 148.59923 -31.00151 -72.04151
#
# Poissons Ratio (x) = -0.40075 0.57444
# Poissons Ratio (y) = 1.92089 3.39485
# Poissons Ratio (z) = -1.18490 1.46090
#
# Static dielectric constant tensor:
#      x y z
#    x 1.999110 0.000000 0.000000 
#    y 0.000000 1.932980 0.000000 
#    z 0.000000 0.000000 1.875710 
# 
# From -- ./inp_files/5912.got.cif
#   From: 2010.05.17/outbox.cif.g08.bks.cpg/sg19_3_cif.got.tgz:5912.got - 2010.06.03 22:46:19.
