data_PCOD9314500
_publ_section_title
;
Structure prediction by ZEFSAII (Michael W. Deem and Ramdas Pophale) SiO2 
 PCOD9314500
Probable space group: P 21 21 21
;
_chemical_formula_sum "Si O2"
_cell_formula_units_Z 24
_cell_length_a 6.940760
_cell_length_b 9.632754
_cell_length_c 14.215384
_cell_angle_alpha 90.000000
_cell_angle_beta 90.000000
_cell_angle_gamma 90.000000
_cell_volume 950.421151
_symmetry_space_group_name_H-M "P 21 21 21"
_symmetry_group_IT_number 19
_symmetry_cell_setting 'orthorhombic'
loop_
_space_group_symop_operation_xyz
x,y,z
1/2-x,-y,1/2+z
1/2+x,1/2-y,-z
-x,1/2+y,1/2-z
loop_
_atom_site_type_symbol
_atom_site_label
_atom_site_fract_x
_atom_site_fract_y
_atom_site_fract_z
Si Si1 0.340228 0.322160 0.249175
Si Si2 0.390156 0.185291 0.898220
Si Si3 0.287333 0.495746 0.902995
Si Si4 0.254170 0.188763 0.689256
Si Si5 0.172086 0.914482 0.599877
Si Si6 0.759754 0.028905 0.390400
O O1 0.187370 0.392203 0.320034
O O2 0.524250 0.280181 0.309815
O O3 0.287966 0.192949 0.184101
O O4 0.387658 0.450133 0.178374
O O5 0.403842 0.352394 0.897629
O O6 0.298588 0.154088 0.797094
O O7 0.576925 0.088341 0.901029
O O8 0.286119 0.147074 0.996540
O O9 0.060782 0.445470 0.894768
O O10 0.314920 0.559969 0.005755
O O11 0.343761 0.333007 0.656087
O O12 0.276612 0.059031 0.620717
#
# Coordination Sequence:
#
# PCOD9314500 Si02
#       6
#     4   4   4   4   4   4
#     4  11  20  42  72  96 129 183 225 278 338 421
#     4  11  22  42  68  99 141 178 225 289 349 401
#     4  10  21  42  71  99 136 178 233 279 349 405
#     4  11  23  44  67 101 135 180 232 282 345 416
#     4  10  22  39  71  99 133 181 228 280 344 416
#     4  11  24  41  69 102 140 174 235 290 337 415
#
# _framework density 25.251965999999999
#
# number of rings (size 3 to 8) (size 9 to 14) (size 15 to 20)
#    0.000    1.333    5.000    1.000    0.000    2.667 
#    0.000    5.000    0.000    0.000    0.000    0.000 
#    0.000    0.000    0.000    0.000    0.000    0.000 
#
# Total GULP energy -134302.190072 kJ/mol
# GULP energy per Si atom -5595.924586 kJ/mol
# Density = 2.519449 g / cm^3
# Si number density = 25.251966 Si / 1000 Ang^3
#
#
#
# Elastic Constant Matrix: (Units=GPa)
#
#
# Indices 1 2 3 4 5 6 
#
# 1 51.3650 17.9401 12.7685 0.0000 0.0000 0.0000
# 2 17.9401 101.2961 34.8351 0.0000 0.0000 0.0000
# 3 12.7685 34.8351 140.8355 0.0000 0.0000 0.0000
# 4 0.0000 0.0000 0.0000 50.9869 0.0000 0.0000
# 5 0.0000 0.0000 0.0000 0.0000 27.5253 0.0000
# 6 0.0000 0.0000 0.0000 0.0000 0.0000 32.6057
#
#
#
# Elastic Compliance Matrix: (Units=1/GPa)
#
#
# Indices 1 2 3 4 5 6 
#
# 1 0.020899 -0.003333 -0.001070 0.000000 0.000000 0.000000
# 2 -0.003333 0.011321 -0.002498 0.000000 0.000000 0.000000
# 3 -0.001070 -0.002498 0.007815 0.000000 0.000000 0.000000
# 4 0.000000 0.000000 0.000000 0.019613 0.000000 0.000000
# 5 0.000000 0.000000 0.000000 0.000000 0.036330 0.000000
# 6 0.000000 0.000000 0.000000 0.000000 0.000000 0.030669
#
#
# Mechanical properties :
#
#
# Convention : Reuss Voigt Hill
#
# Bulk Modulus (GPa) = 38.12079 47.17598 42.64839
# Shear Modulus (GPa) = 33.51305 37.42043 35.46674
#
# Velocity S-wave (km/s) = 3.64695 3.85370 3.75175
# Velocity P-wave (km/s) = 5.73259 6.20677 5.97439
#
# Compressibility (1/GPa) = 0.02623241
#
# Stress axis : x y z
#
# Youngs Moduli (GPa) = 47.84975 88.32778 127.95226
#
# Poissons Ratio (x) = 0.29442 0.13694
# Poissons Ratio (y) = 0.15949 0.31964
# Poissons Ratio (z) = 0.05121 0.22065
#
# Static dielectric constant tensor:
#      x y z
#    x 2.172640 0.000000 0.000000 
#    y 0.000000 1.930600 0.000000 
#    z 0.000000 0.000000 1.975650 
# 
# From -- ./inp_files/2818.got.cif
#   From: 2010.05.17/outbox.cif.g08.bks.cpg/sg19_2_cif.got.tgz:2818.got - 2010.06.03 22:46:19.
