data_PCOD9314044
_publ_section_title
;
Structure prediction by ZEFSAII (Michael W. Deem and Ramdas Pophale) SiO2 
 PCOD9314044
Probable space group: P 21 21 21
;
_chemical_formula_sum "Si O2"
_cell_formula_units_Z 32
_cell_length_a 5.215397
_cell_length_b 8.678559
_cell_length_c 30.564089
_cell_angle_alpha 90.000000
_cell_angle_beta 90.000000
_cell_angle_gamma 90.000000
_cell_volume 1383.395787
_symmetry_space_group_name_H-M "P 21 21 21"
_symmetry_group_IT_number 19
_symmetry_cell_setting 'orthorhombic'
loop_
_space_group_symop_operation_xyz
x,y,z
1/2-x,-y,1/2+z
1/2+x,1/2-y,-z
-x,1/2+y,1/2-z
loop_
_atom_site_type_symbol
_atom_site_label
_atom_site_fract_x
_atom_site_fract_y
_atom_site_fract_z
Si Si1 0.816924 0.112242 0.035893
Si Si2 0.050065 0.874209 0.871597
Si Si3 0.261386 0.444717 0.786285
Si Si4 0.686863 0.297753 0.896889
Si Si5 0.082047 0.511878 0.876292
Si Si6 0.047809 0.079806 0.948725
Si Si7 0.467085 0.538040 0.655926
Si Si8 0.748706 0.249360 0.765794
O O1 0.085901 0.115297 0.060930
O O2 0.739710 0.292953 0.031005
O O3 0.853130 0.040561 0.988255
O O4 0.649607 0.029073 0.073353
O O5 0.063244 0.692199 0.871025
O O6 0.129466 0.933164 0.920538
O O7 0.263162 0.950790 0.839486
O O8 0.759671 0.924706 0.859961
O O9 0.272397 0.447437 0.839187
O O10 0.513806 0.370957 0.764097
O O11 0.226590 0.623016 0.772527
O O12 0.015353 0.340482 0.772620
O O13 0.818100 0.422495 0.866208
O O14 0.906662 0.181265 0.912070
O O15 0.482978 0.175805 0.878888
O O16 0.339636 0.635297 0.694857
#
# Coordination Sequence:
#
# PCOD9314044 Si02
#       8
#     4   4   4   4   4   4   4   4
#     4  11  20  40  67  94 136 180 239 297 347 429
#     4  11  26  43  69 103 139 188 231 297 353 425
#     4  12  28  48  76 107 149 183 245 288 371 427
#     4  10  20  40  66  93 127 180 233 284 345 419
#     4  11  27  43  67 101 141 191 232 303 367 425
#     4  10  21  38  64  98 126 179 241 285 350 417
#     4  11  23  44  72  95 140 179 242 280 351 422
#     4  12  27  48  75 111 142 194 233 304 352 438
#
# _framework density 23.131485999999999
#
# number of rings (size 3 to 8) (size 9 to 14) (size 15 to 20)
#    0.000    1.000    3.750    2.250    7.000    0.000 
#    2.250    0.000    0.000    0.000    0.000    0.000 
#    0.000    0.000    0.000    0.000    0.000    0.000 
#
# Total GULP energy -178567.540825 kJ/mol
# GULP energy per Si atom -5580.235651 kJ/mol
# Density = 2.307884 g / cm^3
# Si number density = 23.131486 Si / 1000 Ang^3
#
#
#
# Elastic Constant Matrix: (Units=GPa)
#
#
# Indices 1 2 3 4 5 6 
#
# 1 104.1404 42.0162 9.2954 0.0000 0.0000 0.0000
# 2 42.0162 138.7999 28.2989 0.0000 0.0000 0.0000
# 3 9.2954 28.2989 47.5029 0.0000 0.0000 0.0000
# 4 0.0000 0.0000 0.0000 27.3019 0.0000 0.0000
# 5 0.0000 0.0000 0.0000 0.0000 25.6107 0.0000
# 6 0.0000 0.0000 0.0000 0.0000 0.0000 16.0167
#
#
#
# Elastic Compliance Matrix: (Units=1/GPa)
#
#
# Indices 1 2 3 4 5 6 
#
# 1 0.010940 -0.003273 -0.000191 0.000000 0.000000 0.000000
# 2 -0.003273 0.009180 -0.004828 0.000000 0.000000 0.000000
# 3 -0.000191 -0.004828 0.023965 0.000000 0.000000 0.000000
# 4 0.000000 0.000000 0.000000 0.036628 0.000000 0.000000
# 5 0.000000 0.000000 0.000000 0.000000 0.039046 0.000000
# 6 0.000000 0.000000 0.000000 0.000000 0.000000 0.062435
#
#
# Mechanical properties :
#
#
# Convention : Reuss Voigt Hill
#
# Bulk Modulus (GPa) = 36.36279 49.96271 43.16275
# Shear Modulus (GPa) = 24.04495 27.84137 25.94316
#
# Velocity S-wave (km/s) = 3.22761 3.47308 3.35259
# Velocity P-wave (km/s) = 5.44464 6.14242 5.80403
#
# Compressibility (1/GPa) = 0.02750064
#
# Stress axis : x y z
#
# Youngs Moduli (GPa) = 91.40889 108.93636 41.72745
#
# Poissons Ratio (x) = 0.35651 0.00797
# Poissons Ratio (y) = 0.29915 0.20147
# Poissons Ratio (z) = 0.01747 0.52597
#
# Static dielectric constant tensor:
#      x y z
#    x 1.920880 0.000000 0.000000 
#    y 0.000000 1.832830 0.000000 
#    z 0.000000 0.000000 2.027380 
# 
# From -- ./inp_files/7565.got.cif
#   From: 2010.05.17/outbox.cif.g08.bks.cpg/sg19_4_cif.got.tgz:7565.got - 2010.06.03 22:46:19.
