data_PCOD9314261
_publ_section_title
;
Structure prediction by ZEFSAII (Michael W. Deem and Ramdas Pophale) SiO2 
 PCOD9314261
Probable space group: P 21 21 21
;
_chemical_formula_sum "Si O2"
_cell_formula_units_Z 28
_cell_length_a 13.254510
_cell_length_b 18.493247
_cell_length_c 5.114029
_cell_angle_alpha 90.000000
_cell_angle_beta 90.000000
_cell_angle_gamma 90.000000
_cell_volume 1253.545303
_symmetry_space_group_name_H-M "P 21 21 21"
_symmetry_group_IT_number 19
_symmetry_cell_setting 'orthorhombic'
loop_
_space_group_symop_operation_xyz
x,y,z
1/2-x,-y,1/2+z
1/2+x,1/2-y,-z
-x,1/2+y,1/2-z
loop_
_atom_site_type_symbol
_atom_site_label
_atom_site_fract_x
_atom_site_fract_y
_atom_site_fract_z
Si Si1 0.327025 0.669302 0.219996
Si Si2 0.815045 0.988020 0.583552
Si Si3 0.485700 0.785266 0.254185
Si Si4 0.845732 0.647015 0.353906
Si Si5 0.976901 0.558187 0.022250
Si Si6 0.793860 0.468767 0.898142
Si Si7 0.276618 0.274547 0.244655
O O1 0.353078 0.590518 0.325449
O O2 0.425184 0.716348 0.147879
O O3 0.262870 0.705980 0.455002
O O4 0.258447 0.667947 0.961366
O O5 0.735919 0.980603 0.346340
O O6 0.908212 0.034740 0.477035
O O7 0.428299 0.799123 0.525944
O O8 0.468025 0.863314 0.117374
O O9 0.603454 0.770150 0.263134
O O10 0.752516 0.606974 0.502260
O O11 0.779204 0.699846 0.170628
O O12 0.918924 0.579441 0.286875
O O13 0.909890 0.492642 0.908137
O O14 0.759495 0.474820 0.597041
#
# Coordination Sequence:
#
# PCOD9314261 Si02
#       7
#     4   4   4   4   4   4   4
#     4  11  25  47  63 107 133 177 233 279 335 413
#     4  12  28  46  70 100 140 182 233 282 342 415
#     4  11  23  42  71  99 136 182 225 279 353 402
#     4  10  23  43  65 104 132 183 230 284 343 418
#     4  11  23  42  72  96 138 186 222 283 350 404
#     4  10  21  38  64  96 134 167 228 276 336 405
#     4  11  25  42  73  94 143 173 229 285 337 409
#
# _framework density 22.336649000000001
#
# number of rings (size 3 to 8) (size 9 to 14) (size 15 to 20)
#    0.000    1.143    2.857    2.571    8.000    0.000 
#    0.000    0.000    0.000    0.000    0.000    0.000 
#    0.000    0.000    0.000    0.000    0.000    0.000 
#
# Total GULP energy -155928.539034 kJ/mol
# GULP energy per Si atom -5568.876394 kJ/mol
# Density = 2.228581 g / cm^3
# Si number density = 22.336649 Si / 1000 Ang^3
#
#
#
# Elastic Constant Matrix: (Units=GPa)
#
#
# Indices 1 2 3 4 5 6 
#
# 1 140.9998 49.7151 15.3047 0.0000 0.0000 0.0000
# 2 49.7151 87.5544 0.9152 0.0000 0.0000 0.0000
# 3 15.3047 0.9152 59.6445 0.0000 0.0000 0.0000
# 4 0.0000 0.0000 0.0000 31.6804 0.0000 0.0000
# 5 0.0000 0.0000 0.0000 0.0000 21.2353 0.0000
# 6 0.0000 0.0000 0.0000 0.0000 0.0000 37.5662
#
#
#
# Elastic Compliance Matrix: (Units=1/GPa)
#
#
# Indices 1 2 3 4 5 6 
#
# 1 0.009165 -0.005181 -0.002272 0.000000 0.000000 0.000000
# 2 -0.005181 0.014352 0.001109 0.000000 0.000000 0.000000
# 3 -0.002272 0.001109 0.017332 0.000000 0.000000 0.000000
# 4 0.000000 0.000000 0.000000 0.031565 0.000000 0.000000
# 5 0.000000 0.000000 0.000000 0.000000 0.047091 0.000000
# 6 0.000000 0.000000 0.000000 0.000000 0.000000 0.026620
#
#
# Mechanical properties :
#
#
# Convention : Reuss Voigt Hill
#
# Bulk Modulus (GPa) = 35.50959 46.67432 41.09196
# Shear Modulus (GPa) = 29.72648 32.91396 31.32022
#
# Velocity S-wave (km/s) = 3.65202 3.84284 3.74864
# Velocity P-wave (km/s) = 5.80646 6.37425 6.09697
#
# Compressibility (1/GPa) = 0.02816140
#
# Stress axis : x y z
#
# Youngs Moduli (GPa) = 109.10499 69.67903 57.69651
#
# Poissons Ratio (x) = 0.36098 0.13111
# Poissons Ratio (y) = 0.56523 -0.06399
# Poissons Ratio (z) = 0.24793 -0.07728
#
# Static dielectric constant tensor:
#      x y z
#    x 1.776930 0.000000 0.000000 
#    y 0.000000 1.961050 0.000000 
#    z 0.000000 0.000000 1.987640 
# 
# From -- ./inp_files/1045.got.cif
#   From: 2010.05.17/outbox.cif.g08.bks.cpg/sg19_1_cif.got.tgz:1045.got - 2010.06.03 22:46:19.
