data_PCOD9314395
_publ_section_title
;
Structure prediction by ZEFSAII (Michael W. Deem and Ramdas Pophale) SiO2 
 PCOD9314395
Probable space group: P 21 21 21
;
_chemical_formula_sum "Si O2"
_cell_formula_units_Z 20
_cell_length_a 7.747359
_cell_length_b 9.589711
_cell_length_c 10.258791
_cell_angle_alpha 90.000000
_cell_angle_beta 90.000000
_cell_angle_gamma 90.000000
_cell_volume 762.176198
_symmetry_space_group_name_H-M "P 21 21 21"
_symmetry_group_IT_number 19
_symmetry_cell_setting 'orthorhombic'
loop_
_space_group_symop_operation_xyz
x,y,z
1/2-x,-y,1/2+z
1/2+x,1/2-y,-z
-x,1/2+y,1/2-z
loop_
_atom_site_type_symbol
_atom_site_label
_atom_site_fract_x
_atom_site_fract_y
_atom_site_fract_z
Si Si1 0.718321 0.469525 0.096989
Si Si2 0.511774 0.715258 0.983710
Si Si3 0.704271 0.802115 0.721326
Si Si4 0.821130 0.111071 0.675240
Si Si5 0.177736 0.151571 0.168650
O O1 0.573828 0.584221 0.068879
O O2 0.682325 0.321656 0.162620
O O3 0.834733 0.549659 0.204095
O O4 0.766705 0.426423 0.950586
O O5 0.518498 0.842751 0.085495
O O6 0.638789 0.757312 0.864712
O O7 0.339409 0.663650 0.914746
O O8 0.522208 0.811080 0.641306
O O9 0.796858 0.950577 0.709792
O O10 0.785647 0.210636 0.798154
#
# Coordination Sequence:
#
# PCOD9314395 Si02
#       5
#     4   4   4   4   4
#     4  11  20  41  67  96 133 177 230 278 341 399
#     4  10  22  43  63 100 134 183 222 290 334 412
#     4  11  21  40  67  93 132 188 225 261 357 417
#     4  10  22  40  68  95 140 172 237 271 350 408
#     4  10  21  40  69  92 131 180 222 280 344 408
#
# _framework density 26.240652999999998
#
# number of rings (size 3 to 8) (size 9 to 14) (size 15 to 20)
#    0.000    1.600    4.000    1.200    2.800    0.000 
#    0.000    6.000    0.000    0.000    0.000    0.000 
#    0.000    0.000    0.000    0.000    0.000    0.000 
#
# Total GULP energy -111870.691536 kJ/mol
# GULP energy per Si atom -5593.534577 kJ/mol
# Density = 2.618093 g / cm^3
# Si number density = 26.240653 Si / 1000 Ang^3
#
#
#
# Elastic Constant Matrix: (Units=GPa)
#
#
# Indices 1 2 3 4 5 6 
#
# 1 71.5094 51.9233 48.5630 0.0000 0.0000 0.0000
# 2 51.9233 230.9712 64.7461 0.0000 0.0000 0.0000
# 3 48.5630 64.7461 129.8989 0.0000 0.0000 0.0000
# 4 0.0000 0.0000 0.0000 44.9367 0.0000 0.0000
# 5 0.0000 0.0000 0.0000 0.0000 38.8286 0.0000
# 6 0.0000 0.0000 0.0000 0.0000 0.0000 27.5005
#
#
#
# Elastic Compliance Matrix: (Units=1/GPa)
#
#
# Indices 1 2 3 4 5 6 
#
# 1 0.020207 -0.002819 -0.006149 0.000000 0.000000 0.000000
# 2 -0.002819 0.005426 -0.001651 0.000000 0.000000 0.000000
# 3 -0.006149 -0.001651 0.010820 0.000000 0.000000 0.000000
# 4 0.000000 0.000000 0.000000 0.022254 0.000000 0.000000
# 5 0.000000 0.000000 0.000000 0.000000 0.025754 0.000000
# 6 0.000000 0.000000 0.000000 0.000000 0.000000 0.036363
#
#
# Mechanical properties :
#
#
# Convention : Reuss Voigt Hill
#
# Bulk Modulus (GPa) = 65.72381 84.76048 75.24215
# Shear Modulus (GPa) = 33.98275 40.06297 37.02286
#
# Velocity S-wave (km/s) = 3.60257 3.91161 3.76027
# Velocity P-wave (km/s) = 6.51196 7.26445 6.89847
#
# Compressibility (1/GPa) = 0.01521519
#
# Stress axis : x y z
#
# Youngs Moduli (GPa) = 49.48750 184.29986 92.42109
#
# Poissons Ratio (x) = 0.51951 0.56834
# Poissons Ratio (y) = 0.13950 0.15256
# Poissons Ratio (z) = 0.30432 0.30422
#
# Static dielectric constant tensor:
#      x y z
#    x 2.142960 0.000000 0.000000 
#    y 0.000000 2.018410 0.000000 
#    z 0.000000 0.000000 2.075260 
# 
# From -- ./inp_files/2608.got.cif
#   From: 2010.05.17/outbox.cif.g08.bks.cpg/sg19_2_cif.got.tgz:2608.got - 2010.06.03 22:46:19.
