data_PCOD9314768
_publ_section_title
;
Structure prediction by ZEFSAII (Michael W. Deem and Ramdas Pophale) SiO2 
 PCOD9314768
Probable space group: P 21 21 21
;
_chemical_formula_sum "Si O2"
_cell_formula_units_Z 32
_cell_length_a 8.086456
_cell_length_b 8.376295
_cell_length_c 22.372319
_cell_angle_alpha 90.000000
_cell_angle_beta 90.000000
_cell_angle_gamma 90.000000
_cell_volume 1515.378758
_symmetry_space_group_name_H-M "P 21 21 21"
_symmetry_group_IT_number 19
_symmetry_cell_setting 'orthorhombic'
loop_
_space_group_symop_operation_xyz
x,y,z
1/2-x,-y,1/2+z
1/2+x,1/2-y,-z
-x,1/2+y,1/2-z
loop_
_atom_site_type_symbol
_atom_site_label
_atom_site_fract_x
_atom_site_fract_y
_atom_site_fract_z
Si Si1 0.966182 0.128718 0.767554
Si Si2 0.679577 0.558259 0.319008
Si Si3 0.756282 0.219203 0.919283
Si Si4 0.834757 0.045223 0.227064
Si Si5 0.501591 0.614589 0.867725
Si Si6 0.043763 0.534915 0.148243
Si Si7 0.753029 0.676064 0.639251
Si Si8 0.409844 0.370492 0.960229
O O1 0.862114 0.294090 0.774221
O O2 0.079903 0.125542 0.827250
O O3 0.837643 0.984007 0.760470
O O4 0.083003 0.091929 0.709795
O O5 0.644020 0.642259 0.383672
O O6 0.864208 0.498877 0.334240
O O7 0.587490 0.288239 0.948331
O O8 0.681633 0.090569 0.872993
O O9 0.862060 0.138794 0.971108
O O10 0.963426 0.044492 0.280299
O O11 0.830705 0.206553 0.188971
O O12 0.854942 0.900580 0.180400
O O13 0.574194 0.788440 0.875071
O O14 0.437252 0.541159 0.929243
O O15 0.865816 0.472617 0.127814
O O16 0.732203 0.780416 0.579090
#
# Coordination Sequence:
#
# PCOD9314768 Si02
#       8
#     4   4   4   4   4   4   4   4
#     4  12  23  36  60  95 137 164 212 266 323 389
#     4  11  24  41  59  97 131 170 210 269 331 388
#     4  10  22  41  70  87 125 168 224 266 328 388
#     4  11  21  34  59  90 126 168 205 260 316 390
#     4  10  24  40  63  93 130 172 220 265 329 392
#     4  11  21  38  63  92 124 175 210 266 325 390
#     4  10  23  39  59  93 129 167 214 253 333 383
#     4   9  22  43  67  91 120 174 219 273 315 396
#
# _framework density 21.116834999999998
#
# number of rings (size 3 to 8) (size 9 to 14) (size 15 to 20)
#    0.000    1.500    2.500    3.000    5.250    0.000 
#    0.000    5.000    0.000    0.000    0.000    0.000 
#    0.000    0.000    0.000    0.000    0.000    0.000 
#
# Total GULP energy -178264.244759 kJ/mol
# GULP energy per Si atom -5570.757649 kJ/mol
# Density = 2.106877 g / cm^3
# Si number density = 21.116835 Si / 1000 Ang^3
#
#
#
# Elastic Constant Matrix: (Units=GPa)
#
#
# Indices 1 2 3 4 5 6 
#
# 1 48.0654 7.9349 5.9461 0.0000 0.0000 0.0000
# 2 7.9349 69.2315 15.4000 0.0000 0.0000 0.0000
# 3 5.9461 15.4000 67.5058 0.0000 0.0000 0.0000
# 4 0.0000 0.0000 0.0000 9.3763 0.0000 0.0000
# 5 0.0000 0.0000 0.0000 0.0000 37.2539 0.0000
# 6 0.0000 0.0000 0.0000 0.0000 0.0000 27.5672
#
#
#
# Elastic Compliance Matrix: (Units=1/GPa)
#
#
# Indices 1 2 3 4 5 6 
#
# 1 0.021330 -0.002135 -0.001392 0.000000 0.000000 0.000000
# 2 -0.002135 0.015430 -0.003332 0.000000 0.000000 0.000000
# 3 -0.001392 -0.003332 0.015696 0.000000 0.000000 0.000000
# 4 0.000000 0.000000 0.000000 0.106652 0.000000 0.000000
# 5 0.000000 0.000000 0.000000 0.000000 0.026843 0.000000
# 6 0.000000 0.000000 0.000000 0.000000 0.000000 0.036275
#
#
# Mechanical properties :
#
#
# Convention : Reuss Voigt Hill
#
# Bulk Modulus (GPa) = 25.81413 27.04053 26.42733
# Shear Modulus (GPa) = 20.09188 25.20758 22.64973
#
# Velocity S-wave (km/s) = 3.08793 3.45877 3.27860
# Velocity P-wave (km/s) = 4.99647 5.36505 5.18404
#
# Compressibility (1/GPa) = 0.03873847
#
# Stress axis : x y z
#
# Youngs Moduli (GPa) = 46.88311 64.80806 63.70947
#
# Poissons Ratio (x) = 0.13837 0.08866
# Poissons Ratio (y) = 0.10010 0.21228
# Poissons Ratio (z) = 0.06525 0.21594
#
# Static dielectric constant tensor:
#      x y z
#    x 1.872540 0.000000 0.000000 
#    y 0.000000 1.769230 0.000000 
#    z 0.000000 0.000000 1.752420 
# 
# From -- ./inp_files/3240.got.cif
#   From: 2010.05.17/outbox.cif.g08.bks.cpg/sg19_2_cif.got.tgz:3240.got - 2010.06.03 22:46:19.
