data_PCOD9314082
_publ_section_title
;
Structure prediction by ZEFSAII (Michael W. Deem and Ramdas Pophale) SiO2 
 PCOD9314082
Probable space group: P 21 21 21
;
_chemical_formula_sum "Si O2"
_cell_formula_units_Z 32
_cell_length_a 8.239025
_cell_length_b 12.276882
_cell_length_c 14.058641
_cell_angle_alpha 90.000000
_cell_angle_beta 90.000000
_cell_angle_gamma 90.000000
_cell_volume 1422.025038
_symmetry_space_group_name_H-M "P 21 21 21"
_symmetry_group_IT_number 19
_symmetry_cell_setting 'orthorhombic'
loop_
_space_group_symop_operation_xyz
x,y,z
1/2-x,-y,1/2+z
1/2+x,1/2-y,-z
-x,1/2+y,1/2-z
loop_
_atom_site_type_symbol
_atom_site_label
_atom_site_fract_x
_atom_site_fract_y
_atom_site_fract_z
Si Si1 0.194836 0.655452 0.127335
Si Si2 0.641404 0.363853 0.291356
Si Si3 0.166514 0.735050 0.715122
Si Si4 0.120186 0.461705 0.238919
Si Si5 0.737238 0.081444 0.557933
Si Si6 0.797958 0.445391 0.113152
Si Si7 0.180496 0.179354 0.388839
Si Si8 0.055385 0.930605 0.589583
O O1 0.252163 0.774396 0.155603
O O2 0.189505 0.581700 0.221784
O O3 0.009637 0.663572 0.088146
O O4 0.299790 0.582001 0.054216
O O5 0.461718 0.314667 0.289528
O O6 0.677472 0.378502 0.179149
O O7 0.647131 0.477824 0.346809
O O8 0.267856 0.628533 0.685905
O O9 0.297700 0.802765 0.776158
O O10 0.072341 0.817579 0.646804
O O11 0.119998 0.438258 0.351733
O O12 0.948730 0.456645 0.186600
O O13 0.752582 0.214495 0.562153
O O14 0.883363 0.993694 0.572496
O O15 0.732968 0.566134 0.089703
O O16 0.863855 0.405568 0.012475
#
# Coordination Sequence:
#
# PCOD9314082 Si02
#       8
#     4   4   4   4   4   4   4   4
#     4  11  24  41  70  99 135 176 229 279 354 409
#     4  12  24  42  70 104 131 181 228 292 345 416
#     4  11  24  41  70  92 141 176 235 278 341 409
#     4  10  22  44  66  95 137 181 220 290 336 407
#     4  11  21  40  69  98 130 177 231 277 341 401
#     4  11  24  44  67  99 143 178 230 284 364 408
#     4  10  20  41  66  95 133 173 219 292 332 404
#     4  12  23  43  68  98 138 184 222 288 347 420
#
# _framework density 22.503121
#
# number of rings (size 3 to 8) (size 9 to 14) (size 15 to 20)
#    0.000    1.000    6.250    3.000    0.000    1.000 
#    2.250    2.500    0.000    0.000    0.000    0.000 
#    0.000    0.000    0.000    0.000    0.000    0.000 
#
# Total GULP energy -178239.818469 kJ/mol
# GULP energy per Si atom -5569.994327 kJ/mol
# Density = 2.245190 g / cm^3
# Si number density = 22.503121 Si / 1000 Ang^3
#
#
#
# Elastic Constant Matrix: (Units=GPa)
#
#
# Indices 1 2 3 4 5 6 
#
# 1 35.2603 22.4101 2.8523 0.0000 0.0000 0.0000
# 2 22.4101 62.7691 5.7090 0.0000 0.0000 0.0000
# 3 2.8523 5.7090 91.3365 0.0000 0.0000 0.0000
# 4 0.0000 0.0000 0.0000 26.1436 0.0000 0.0000
# 5 0.0000 0.0000 0.0000 0.0000 22.0314 0.0000
# 6 0.0000 0.0000 0.0000 0.0000 0.0000 30.1142
#
#
#
# Elastic Compliance Matrix: (Units=1/GPa)
#
#
# Indices 1 2 3 4 5 6 
#
# 1 0.036694 -0.013071 -0.000329 0.000000 0.000000 0.000000
# 2 -0.013071 0.020678 -0.000884 0.000000 0.000000 0.000000
# 3 -0.000329 -0.000884 0.011014 0.000000 0.000000 0.000000
# 4 0.000000 0.000000 0.000000 0.038250 0.000000 0.000000
# 5 0.000000 0.000000 0.000000 0.000000 0.045390 0.000000
# 6 0.000000 0.000000 0.000000 0.000000 0.000000 0.033207
#
#
# Mechanical properties :
#
#
# Convention : Reuss Voigt Hill
#
# Bulk Modulus (GPa) = 25.11380 27.92319 26.51849
# Shear Modulus (GPa) = 22.01914 26.21746 24.11830
#
# Velocity S-wave (km/s) = 3.13148 3.41700 3.27735
# Velocity P-wave (km/s) = 4.92537 5.29182 5.11188
#
# Compressibility (1/GPa) = 0.03981875
#
# Stress axis : x y z
#
# Youngs Moduli (GPa) = 27.25207 48.35956 90.79297
#
# Poissons Ratio (x) = 0.63210 0.02986
# Poissons Ratio (y) = 0.35621 0.08029
# Poissons Ratio (z) = 0.00896 0.04277
#
# Static dielectric constant tensor:
#      x y z
#    x 1.947260 0.000000 0.000000 
#    y 0.000000 1.878750 0.000000 
#    z 0.000000 0.000000 1.901330 
# 
# From -- ./inp_files/5947.got.cif
#   From: 2010.05.17/outbox.cif.g08.bks.cpg/sg19_3_cif.got.tgz:5947.got - 2010.06.03 22:46:19.
