data_PCOD9314803
_publ_section_title
;
Structure prediction by ZEFSAII (Michael W. Deem and Ramdas Pophale) SiO2 
 PCOD9314803
Probable space group: P 21 21 21
;
_chemical_formula_sum "Si O2"
_cell_formula_units_Z 32
_cell_length_a 15.869170
_cell_length_b 13.134082
_cell_length_c 6.550152
_cell_angle_alpha 90.000000
_cell_angle_beta 90.000000
_cell_angle_gamma 90.000000
_cell_volume 1365.228400
_symmetry_space_group_name_H-M "P 21 21 21"
_symmetry_group_IT_number 19
_symmetry_cell_setting 'orthorhombic'
loop_
_space_group_symop_operation_xyz
x,y,z
1/2-x,-y,1/2+z
1/2+x,1/2-y,-z
-x,1/2+y,1/2-z
loop_
_atom_site_type_symbol
_atom_site_label
_atom_site_fract_x
_atom_site_fract_y
_atom_site_fract_z
Si Si1 0.447069 0.270086 0.515780
Si Si2 0.834339 0.374603 0.038850
Si Si3 0.723013 0.410603 0.387134
Si Si4 0.021145 0.353103 0.135519
Si Si5 0.627135 0.954629 0.750001
Si Si6 0.406125 0.769704 0.296042
Si Si7 0.232095 0.751812 0.793129
Si Si8 0.810162 0.911120 0.937240
O O1 0.492009 0.179103 0.638818
O O2 0.423755 0.353364 0.689709
O O3 0.514013 0.299485 0.342674
O O4 0.359378 0.251755 0.400475
O O5 0.798266 0.473896 0.928316
O O6 0.788232 0.277058 0.940364
O O7 0.811180 0.390954 0.274585
O O8 0.934098 0.369268 0.013301
O O9 0.657327 0.362604 0.228506
O O10 0.719822 0.344192 0.592625
O O11 0.076661 0.454216 0.140239
O O12 0.069522 0.261803 0.023439
O O13 0.637993 0.991293 0.515517
O O14 0.722429 0.939807 0.830915
O O15 0.361773 0.668728 0.199372
O O16 0.282667 0.651907 0.858491
#
# Coordination Sequence:
#
# PCOD9314803 Si02
#       8
#     4   4   4   4   4   4   4   4
#     4  11  23  46  65  96 137 173 216 281 335 399
#     4  12  23  41  68  96 133 176 225 272 334 396
#     4  11  24  40  66  98 129 176 226 271 328 404
#     4  12  25  43  69  98 136 178 223 271 341 402
#     4  11  24  44  68 102 133 177 227 277 339 402
#     4  11  24  45  66  99 135 175 220 278 337 395
#     4  10  22  42  65  91 133 173 218 276 331 386
#     4  10  23  43  71  94 136 172 225 280 325 406
#
# _framework density 23.439302999999999
#
# number of rings (size 3 to 8) (size 9 to 14) (size 15 to 20)
#    0.000    1.000    5.000    1.500    1.750    1.000 
#    9.000    0.000    0.000    0.000    0.000    0.000 
#    0.000    0.000    0.000    0.000    0.000    0.000 
#
# Total GULP energy -178973.249828 kJ/mol
# GULP energy per Si atom -5592.914057 kJ/mol
# Density = 2.338595 g / cm^3
# Si number density = 23.439303 Si / 1000 Ang^3
#
#
#
# Elastic Constant Matrix: (Units=GPa)
#
#
# Indices 1 2 3 4 5 6 
#
# 1 66.6760 -4.0664 1.1537 0.0000 0.0000 0.0000
# 2 -4.0664 44.0553 -0.2216 0.0000 0.0000 0.0000
# 3 1.1537 -0.2216 38.6506 0.0000 0.0000 0.0000
# 4 0.0000 0.0000 0.0000 31.8532 0.0000 0.0000
# 5 0.0000 0.0000 0.0000 0.0000 41.6506 0.0000
# 6 0.0000 0.0000 0.0000 0.0000 0.0000 35.7893
#
#
#
# Elastic Compliance Matrix: (Units=1/GPa)
#
#
# Indices 1 2 3 4 5 6 
#
# 1 0.015090 0.001391 -0.000442 0.000000 0.000000 0.000000
# 2 0.001391 0.022828 0.000089 0.000000 0.000000 0.000000
# 3 -0.000442 0.000089 0.025887 0.000000 0.000000 0.000000
# 4 0.000000 0.000000 0.000000 0.031394 0.000000 0.000000
# 5 0.000000 0.000000 0.000000 0.000000 0.024009 0.000000
# 6 0.000000 0.000000 0.000000 0.000000 0.000000 0.027941
#
#
# Mechanical properties :
#
#
# Convention : Reuss Voigt Hill
#
# Bulk Modulus (GPa) = 15.17922 15.90147 15.54034
# Shear Modulus (GPa) = 29.93405 32.02635 30.98020
#
# Velocity S-wave (km/s) = 3.57751 3.70043 3.63949
# Velocity P-wave (km/s) = 4.85333 5.00564 4.93007
#
# Compressibility (1/GPa) = 0.06587955
#
# Stress axis : x y z
#
# Youngs Moduli (GPa) = 66.26740 43.80669 38.63017
#
# Poissons Ratio (x) = -0.06092 0.01709
# Poissons Ratio (y) = -0.09216 -0.00345
# Poissons Ratio (z) = 0.02932 -0.00391
#
# Static dielectric constant tensor:
#      x y z
#    x 1.886630 0.000000 0.000000 
#    y 0.000000 1.843120 0.000000 
#    z 0.000000 0.000000 1.945130 
# 
# From -- ./inp_files/1782.got.cif
#   From: 2010.05.17/outbox.cif.g08.bks.cpg/sg19_1_cif.got.tgz:1782.got - 2010.06.03 22:46:19.
