data_PCOD9314084
_publ_section_title
;
Structure prediction by ZEFSAII (Michael W. Deem and Ramdas Pophale) SiO2 
 PCOD9314084
Probable space group: P 21 21 21
;
_chemical_formula_sum "Si O2"
_cell_formula_units_Z 28
_cell_length_a 13.560146
_cell_length_b 7.054249
_cell_length_c 11.996246
_cell_angle_alpha 90.000000
_cell_angle_beta 90.000000
_cell_angle_gamma 90.000000
_cell_volume 1147.520661
_symmetry_space_group_name_H-M "P 21 21 21"
_symmetry_group_IT_number 19
_symmetry_cell_setting 'orthorhombic'
loop_
_space_group_symop_operation_xyz
x,y,z
1/2-x,-y,1/2+z
1/2+x,1/2-y,-z
-x,1/2+y,1/2-z
loop_
_atom_site_type_symbol
_atom_site_label
_atom_site_fract_x
_atom_site_fract_y
_atom_site_fract_z
Si Si1 0.451766 0.710560 0.606739
Si Si2 0.844397 0.205861 0.124868
Si Si3 0.929899 0.396933 0.494520
Si Si4 0.262224 0.833114 0.154411
Si Si5 0.396693 0.738631 0.853818
Si Si6 0.683406 0.672529 0.211270
Si Si7 0.738742 0.938186 0.403203
O O1 0.564856 0.647479 0.613898
O O2 0.434723 0.795342 0.730658
O O3 0.358443 0.572767 0.592492
O O4 0.455352 0.878695 0.515030
O O5 0.775994 0.257831 0.226751
O O6 0.879195 0.990916 0.150614
O O7 0.792150 0.189089 0.006779
O O8 0.833145 0.391625 0.416063
O O9 0.900170 0.336766 0.618634
O O10 0.014096 0.262192 0.442380
O O11 0.302478 0.650911 0.088911
O O12 0.326513 0.008152 0.195438
O O13 0.288027 0.833618 0.856878
O O14 0.696738 0.855634 0.288498
#
# Coordination Sequence:
#
# PCOD9314084 Si02
#       7
#     4   4   4   4   4   4   4
#     4  10  20  41  66  98 127 166 226 283 317 395
#     4  11  22  39  70  99 132 171 221 282 337 393
#     4  11  22  39  70  99 132 171 221 282 337 393
#     4  12  22  36  70  98 128 172 216 276 338 384
#     4  10  20  41  66  98 127 166 226 283 317 395
#     4  11  24  43  67  98 136 174 223 274 340 411
#     4  11  24  43  67  98 136 174 223 274 340 411
#
# _framework density 24.400431000000001
#
# number of rings (size 3 to 8) (size 9 to 14) (size 15 to 20)
#    0.000    1.143    7.143    1.714    0.000    1.143 
#    0.000    0.000   28.286    0.000    0.000    0.000 
#    0.000    0.000    0.000    0.000    0.000    0.000 
#
# Total GULP energy -156413.003419 kJ/mol
# GULP energy per Si atom -5586.178694 kJ/mol
# Density = 2.434489 g / cm^3
# Si number density = 24.400431 Si / 1000 Ang^3
#
#
#
# Elastic Constant Matrix: (Units=GPa)
#
#
# Indices 1 2 3 4 5 6 
#
# 1 39.8883 -9.6762 6.3634 0.0000 0.0000 0.0000
# 2 -9.6762 60.9013 -8.0136 0.0000 0.0000 0.0000
# 3 6.3634 -8.0136 75.8712 0.0000 0.0000 0.0000
# 4 0.0000 0.0000 0.0000 24.0346 0.0000 0.0000
# 5 0.0000 0.0000 0.0000 0.0000 45.5603 0.0000
# 6 0.0000 0.0000 0.0000 0.0000 0.0000 22.0950
#
#
#
# Elastic Compliance Matrix: (Units=1/GPa)
#
#
# Indices 1 2 3 4 5 6 
#
# 1 0.026313 0.003945 -0.001790 0.000000 0.000000 0.000000
# 2 0.003945 0.017243 0.001490 0.000000 0.000000 0.000000
# 3 -0.001790 0.001490 0.013488 0.000000 0.000000 0.000000
# 4 0.000000 0.000000 0.000000 0.041607 0.000000 0.000000
# 5 0.000000 0.000000 0.000000 0.000000 0.021949 0.000000
# 6 0.000000 0.000000 0.000000 0.000000 0.000000 0.045259
#
#
# Mechanical properties :
#
#
# Convention : Reuss Voigt Hill
#
# Bulk Modulus (GPa) = 15.54393 17.11200 16.32797
# Shear Modulus (GPa) = 27.77590 30.87046 29.32318
#
# Velocity S-wave (km/s) = 3.37758 3.56077 3.47039
# Velocity P-wave (km/s) = 4.64704 4.89220 4.77119
#
# Compressibility (1/GPa) = 0.06433378
#
# Stress axis : x y z
#
# Youngs Moduli (GPa) = 38.00460 57.99479 74.14117
#
# Poissons Ratio (x) = -0.22879 0.13273
# Poissons Ratio (y) = -0.14993 -0.11050
# Poissons Ratio (z) = 0.06804 -0.08643
#
# Static dielectric constant tensor:
#      x y z
#    x 1.997790 0.000000 0.000000 
#    y 0.000000 2.037560 0.000000 
#    z 0.000000 0.000000 1.915810 
# 
# From -- ./inp_files/5188.got.cif
#   From: 2010.05.17/outbox.cif.g08.bks.cpg/sg19_3_cif.got.tgz:5188.got - 2010.06.03 22:46:19.
