data_PCOD9314587
_publ_section_title
;
Structure prediction by ZEFSAII (Michael W. Deem and Ramdas Pophale) SiO2 
 PCOD9314587
Probable space group: P 21 21 21
;
_chemical_formula_sum "Si O2"
_cell_formula_units_Z 20
_cell_length_a 7.187604
_cell_length_b 15.302252
_cell_length_c 7.518727
_cell_angle_alpha 90.000000
_cell_angle_beta 90.000000
_cell_angle_gamma 90.000000
_cell_volume 826.958675
_symmetry_space_group_name_H-M "P 21 21 21"
_symmetry_group_IT_number 19
_symmetry_cell_setting 'orthorhombic'
loop_
_space_group_symop_operation_xyz
x,y,z
1/2-x,-y,1/2+z
1/2+x,1/2-y,-z
-x,1/2+y,1/2-z
loop_
_atom_site_type_symbol
_atom_site_label
_atom_site_fract_x
_atom_site_fract_y
_atom_site_fract_z
Si Si1 0.339030 0.397924 0.712368
Si Si2 0.961192 0.775245 0.750211
Si Si3 0.937027 0.524018 0.503249
Si Si4 0.599788 0.414342 0.390625
Si Si5 0.640355 0.291044 0.873181
O O1 0.133556 0.362867 0.675725
O O2 0.455269 0.433540 0.547661
O O3 0.452256 0.308501 0.764986
O O4 0.381405 0.460997 0.880250
O O5 0.819165 0.611919 0.450270
O O6 0.900280 0.769889 0.541278
O O7 0.183890 0.767662 0.744099
O O8 0.803716 0.446199 0.447400
O O9 0.964831 0.537161 0.711367
O O10 0.603893 0.311652 0.349099
#
# Coordination Sequence:
#
# PCOD9314587 Si02
#       5
#     4   4   4   4   4
#     4  10  22  36  61  85 119 156 198 239 296 353
#     4  11  20  37  63  92 118 157 194 251 291 353
#     4   9  19  38  63  83 119 163 191 247 296 356
#     4  11  20  36  64  86 116 161 200 236 308 343
#     4   9  19  37  61  86 122 149 195 243 293 345
#
# _framework density 24.185006000000001
#
# number of rings (size 3 to 8) (size 9 to 14) (size 15 to 20)
#    1.200    0.800    4.000    0.000    2.800    0.000 
#    0.000    0.000   17.600    0.000    0.000    0.000 
#    0.000    0.000    0.000    0.000    0.000    0.000 
#
# Total GULP energy -111716.059122 kJ/mol
# GULP energy per Si atom -5585.802956 kJ/mol
# Density = 2.412996 g / cm^3
# Si number density = 24.185006 Si / 1000 Ang^3
#
#
#
# Elastic Constant Matrix: (Units=GPa)
#
#
# Indices 1 2 3 4 5 6 
#
# 1 76.4032 28.7207 15.3471 0.0000 0.0000 0.0000
# 2 28.7207 42.7307 0.3032 0.0000 0.0000 0.0000
# 3 15.3471 0.3032 119.8562 0.0000 0.0000 0.0000
# 4 0.0000 0.0000 0.0000 24.8894 0.0000 0.0000
# 5 0.0000 0.0000 0.0000 0.0000 6.7324 0.0000
# 6 0.0000 0.0000 0.0000 0.0000 0.0000 42.8269
#
#
#
# Elastic Compliance Matrix: (Units=1/GPa)
#
#
# Indices 1 2 3 4 5 6 
#
# 1 0.018121 -0.012163 -0.002289 0.000000 0.000000 0.000000
# 2 -0.012163 0.031567 0.001478 0.000000 0.000000 0.000000
# 3 -0.002289 0.001478 0.008633 0.000000 0.000000 0.000000
# 4 0.000000 0.000000 0.000000 0.040178 0.000000 0.000000
# 5 0.000000 0.000000 0.000000 0.000000 0.148536 0.000000
# 6 0.000000 0.000000 0.000000 0.000000 0.000000 0.023350
#
#
# Mechanical properties :
#
#
# Convention : Reuss Voigt Hill
#
# Bulk Modulus (GPa) = 30.89251 36.41468 33.65360
# Shear Modulus (GPa) = 16.28006 27.86437 22.07221
#
# Velocity S-wave (km/s) = 2.59732 3.39799 3.02427
# Velocity P-wave (km/s) = 4.66861 5.52128 5.11275
#
# Compressibility (1/GPa) = 0.03237030
#
# Stress axis : x y z
#
# Youngs Moduli (GPa) = 55.18577 31.67848 115.83788
#
# Poissons Ratio (x) = 0.38531 0.26521
# Poissons Ratio (y) = 0.67124 -0.17116
# Poissons Ratio (z) = 0.12635 -0.04681
#
# Static dielectric constant tensor:
#      x y z
#    x 1.933950 0.000000 0.000000 
#    y 0.000000 1.931100 0.000000 
#    z 0.000000 0.000000 1.922570 
# 
# From -- ./inp_files/2867.got.cif
#   From: 2010.05.17/outbox.cif.g08.bks.cpg/sg19_2_cif.got.tgz:2867.got - 2010.06.03 22:46:19.
