data_PCOD9314882
_publ_section_title
;
Structure prediction by ZEFSAII (Michael W. Deem and Ramdas Pophale) SiO2 
 PCOD9314882
Probable space group: P 21 21 21
;
_chemical_formula_sum "Si O2"
_cell_formula_units_Z 32
_cell_length_a 14.400261
_cell_length_b 7.548094
_cell_length_c 10.813590
_cell_angle_alpha 90.000000
_cell_angle_beta 90.000000
_cell_angle_gamma 90.000000
_cell_volume 1175.378014
_symmetry_space_group_name_H-M "P 21 21 21"
_symmetry_group_IT_number 19
_symmetry_cell_setting 'orthorhombic'
loop_
_space_group_symop_operation_xyz
x,y,z
1/2-x,-y,1/2+z
1/2+x,1/2-y,-z
-x,1/2+y,1/2-z
loop_
_atom_site_type_symbol
_atom_site_label
_atom_site_fract_x
_atom_site_fract_y
_atom_site_fract_z
Si Si1 0.891693 0.777945 0.833760
Si Si2 0.163685 0.669661 0.930773
Si Si3 0.831805 0.752834 0.215283
Si Si4 0.284581 0.157762 0.801221
Si Si5 0.935205 0.188781 0.816025
Si Si6 0.841302 0.774450 0.483352
Si Si7 0.536680 0.710612 0.580245
Si Si8 0.499033 0.306379 0.581850
O O1 0.786381 0.728345 0.801569
O O2 0.957382 0.701015 0.724636
O O3 0.905863 0.987725 0.837316
O O4 0.938999 0.707535 0.957707
O O5 0.271586 0.682905 0.901515
O O6 0.119730 0.750848 0.805513
O O7 0.144034 0.459213 0.942969
O O8 0.104608 0.749398 0.043736
O O9 0.814287 0.542630 0.223734
O O10 0.800998 0.826031 0.348281
O O11 0.939449 0.789135 0.184319
O O12 0.379721 0.266332 0.829548
O O13 0.225758 0.162151 0.929984
O O14 0.919797 0.293441 0.941749
O O15 0.940254 0.686323 0.445461
O O16 0.503673 0.513384 0.612260
#
# Coordination Sequence:
#
# PCOD9314882 Si02
#       8
#     4   4   4   4   4   4   4   4
#     4  11  22  38  68 101 137 172 242 293 340 420
#     4  10  22  43  69 101 140 184 234 292 348 424
#     4  11  26  43  73 100 142 192 230 303 360 425
#     4  11  24  43  69 107 132 186 242 291 353 427
#     4  11  20  39  70  99 135 182 225 291 348 404
#     4  11  23  49  69 104 145 184 240 296 367 424
#     4  10  22  44  71  97 139 185 233 293 356 422
#     4   9  23  43  63 103 136 181 244 289 344 420
#
# _framework density 27.225286000000001
#
# number of rings (size 3 to 8) (size 9 to 14) (size 15 to 20)
#    0.000    1.500    2.500    2.250    8.750    2.000 
#    2.250    7.500    0.000    0.000    0.000    0.000 
#    0.000    0.000    0.000    0.000    0.000    0.000 
#
# Total GULP energy -179181.482021 kJ/mol
# GULP energy per Si atom -5599.421313 kJ/mol
# Density = 2.716332 g / cm^3
# Si number density = 27.225286 Si / 1000 Ang^3
#
#
#
# Elastic Constant Matrix: (Units=GPa)
#
#
# Indices 1 2 3 4 5 6 
#
# 1 163.0015 15.9705 27.0899 0.0000 0.0000 0.0000
# 2 15.9705 63.9620 18.7158 0.0000 0.0000 0.0000
# 3 27.0899 18.7158 134.4855 0.0000 0.0000 0.0000
# 4 0.0000 0.0000 0.0000 28.4113 0.0000 0.0000
# 5 0.0000 0.0000 0.0000 0.0000 50.4435 0.0000
# 6 0.0000 0.0000 0.0000 0.0000 0.0000 27.3853
#
#
#
# Elastic Compliance Matrix: (Units=1/GPa)
#
#
# Indices 1 2 3 4 5 6 
#
# 1 0.006447 -0.001282 -0.001120 0.000000 0.000000 0.000000
# 2 -0.001282 0.016553 -0.002045 0.000000 0.000000 0.000000
# 3 -0.001120 -0.002045 0.007946 0.000000 0.000000 0.000000
# 4 0.000000 0.000000 0.000000 0.035197 0.000000 0.000000
# 5 0.000000 0.000000 0.000000 0.000000 0.019824 0.000000
# 6 0.000000 0.000000 0.000000 0.000000 0.000000 0.036516
#
#
# Mechanical properties :
#
#
# Convention : Reuss Voigt Hill
#
# Bulk Modulus (GPa) = 45.35007 53.88902 49.61955
# Shear Modulus (GPa) = 36.04173 41.22620 38.63397
#
# Velocity S-wave (km/s) = 3.64240 3.89557 3.77111
# Velocity P-wave (km/s) = 5.86370 6.33014 6.10138
#
# Compressibility (1/GPa) = 0.02205068
#
# Stress axis : x y z
#
# Youngs Moduli (GPa) = 155.11869 60.41259 125.84891
#
# Poissons Ratio (x) = 0.07744 0.14097
# Poissons Ratio (y) = 0.19884 0.25741
# Poissons Ratio (z) = 0.17376 0.12357
#
# Static dielectric constant tensor:
#      x y z
#    x 2.232260 0.000000 0.000000 
#    y 0.000000 2.021430 0.000000 
#    z 0.000000 0.000000 2.181410 
# 
# From -- ./inp_files/5237.got.cif
#   From: 2010.05.17/outbox.cif.g08.bks.cpg/sg19_3_cif.got.tgz:5237.got - 2010.06.03 22:46:19.
