data_PCOD9314748
_publ_section_title
;
Structure prediction by ZEFSAII (Michael W. Deem and Ramdas Pophale) SiO2 
 PCOD9314748
Probable space group: P 21 21 21
;
_chemical_formula_sum "Si O2"
_cell_formula_units_Z 32
_cell_length_a 10.963521
_cell_length_b 8.262663
_cell_length_c 15.785571
_cell_angle_alpha 90.000000
_cell_angle_beta 90.000000
_cell_angle_gamma 90.000000
_cell_volume 1429.981401
_symmetry_space_group_name_H-M "P 21 21 21"
_symmetry_group_IT_number 19
_symmetry_cell_setting 'orthorhombic'
loop_
_space_group_symop_operation_xyz
x,y,z
1/2-x,-y,1/2+z
1/2+x,1/2-y,-z
-x,1/2+y,1/2-z
loop_
_atom_site_type_symbol
_atom_site_label
_atom_site_fract_x
_atom_site_fract_y
_atom_site_fract_z
Si Si1 0.986805 0.648617 0.572689
Si Si2 0.020993 0.298916 0.586655
Si Si3 0.230356 0.505353 0.552212
Si Si4 0.606875 0.330139 0.658998
Si Si5 0.897829 0.351465 0.255176
Si Si6 0.135406 0.298498 0.763872
Si Si7 0.010263 0.390984 0.083239
Si Si8 0.813383 0.081056 0.619347
O O1 0.954179 0.461401 0.552924
O O2 0.131601 0.629363 0.588950
O O3 0.915772 0.702873 0.655353
O O4 0.975883 0.773554 0.496073
O O5 0.160191 0.332209 0.556943
O O6 0.039154 0.302774 0.688179
O O7 0.935456 0.146298 0.573400
O O8 0.356595 0.531397 0.599462
O O9 0.248752 0.529011 0.451877
O O10 0.613194 0.455979 0.738001
O O11 0.493995 0.208253 0.675080
O O12 0.579026 0.453146 0.581463
O O13 0.727441 0.228868 0.644331
O O14 0.764150 0.276916 0.264513
O O15 0.957528 0.297427 0.164837
O O16 0.157781 0.477756 0.798571
#
# Coordination Sequence:
#
# PCOD9314748 Si02
#       8
#     4   4   4   4   4   4   4   4
#     4  10  23  42  67  96 136 188 229 287 355 421
#     4  10  26  41  66 102 136 182 237 284 364 421
#     4  10  24  42  66  97 138 174 233 288 348 426
#     4  10  24  39  70  99 139 179 234 283 359 411
#     4  10  23  41  68 101 139 183 234 290 346 424
#     4  12  22  44  69  99 144 184 234 295 354 426
#     4  10  22  41  67  96 134 180 228 286 353 412
#     4  12  24  42  71 100 142 180 229 303 345 429
#
# _framework density 22.377915000000002
#
# number of rings (size 3 to 8) (size 9 to 14) (size 15 to 20)
#    1.500    0.000    1.250    3.750    3.500    0.000 
#    0.000    0.000    0.000    0.000    0.000    0.000 
#    0.000    0.000    0.000    0.000    0.000    0.000 
#
# Total GULP energy -178344.258792 kJ/mol
# GULP energy per Si atom -5573.258087 kJ/mol
# Density = 2.232698 g / cm^3
# Si number density = 22.377915 Si / 1000 Ang^3
#
#
#
# Elastic Constant Matrix: (Units=GPa)
#
#
# Indices 1 2 3 4 5 6 
#
# 1 82.9167 26.9375 -4.3192 0.0000 0.0000 0.0000
# 2 26.9375 62.2309 -3.7872 0.0000 0.0000 0.0000
# 3 -4.3192 -3.7872 44.2473 0.0000 0.0000 0.0000
# 4 0.0000 0.0000 0.0000 28.4804 0.0000 0.0000
# 5 0.0000 0.0000 0.0000 0.0000 27.4772 0.0000
# 6 0.0000 0.0000 0.0000 0.0000 0.0000 34.5331
#
#
#
# Elastic Compliance Matrix: (Units=1/GPa)
#
#
# Indices 1 2 3 4 5 6 
#
# 1 0.014066 -0.006037 0.000856 0.000000 0.000000 0.000000
# 2 -0.006037 0.018744 0.001015 0.000000 0.000000 0.000000
# 3 0.000856 0.001015 0.022771 0.000000 0.000000 0.000000
# 4 0.000000 0.000000 0.000000 0.035112 0.000000 0.000000
# 5 0.000000 0.000000 0.000000 0.000000 0.036394 0.000000
# 6 0.000000 0.000000 0.000000 0.000000 0.000000 0.028958
#
#
# Mechanical properties :
#
#
# Convention : Reuss Voigt Hill
#
# Bulk Modulus (GPa) = 21.16379 25.22856 23.19618
# Shear Modulus (GPa) = 27.75858 29.46907 28.61382
#
# Velocity S-wave (km/s) = 3.52582 3.63282 3.57972
# Velocity P-wave (km/s) = 5.10423 5.37540 5.24157
#
# Compressibility (1/GPa) = 0.04725052
#
# Stress axis : x y z
#
# Youngs Moduli (GPa) = 71.09327 53.35049 43.91601
#
# Poissons Ratio (x) = 0.32205 -0.03761
# Poissons Ratio (y) = 0.42916 -0.04458
# Poissons Ratio (z) = -0.06088 -0.05415
#
# Static dielectric constant tensor:
#      x y z
#    x 1.808620 0.000000 0.000000 
#    y 0.000000 1.854970 0.000000 
#    z 0.000000 0.000000 1.849870 
# 
# From -- ./inp_files/6749.got.cif
#   From: 2010.05.17/outbox.cif.g08.bks.cpg/sg19_4_cif.got.tgz:6749.got - 2010.06.03 22:46:19.
