data_PCOD9314119
_publ_section_title
;
Structure prediction by ZEFSAII (Michael W. Deem and Ramdas Pophale) SiO2 
 PCOD9314119
Probable space group: P 21 21 21
;
_chemical_formula_sum "Si O2"
_cell_formula_units_Z 28
_cell_length_a 13.581973
_cell_length_b 5.604398
_cell_length_c 16.217837
_cell_angle_alpha 90.000000
_cell_angle_beta 90.000000
_cell_angle_gamma 90.000000
_cell_volume 1234.482004
_symmetry_space_group_name_H-M "P 21 21 21"
_symmetry_group_IT_number 19
_symmetry_cell_setting 'orthorhombic'
loop_
_space_group_symop_operation_xyz
x,y,z
1/2-x,-y,1/2+z
1/2+x,1/2-y,-z
-x,1/2+y,1/2-z
loop_
_atom_site_type_symbol
_atom_site_label
_atom_site_fract_x
_atom_site_fract_y
_atom_site_fract_z
Si Si1 0.584121 0.724879 0.077895
Si Si2 0.941877 0.333037 0.755234
Si Si3 0.898265 0.775744 0.183411
Si Si4 0.871672 0.274850 0.263982
Si Si5 0.737310 0.743530 0.937047
Si Si6 0.925671 0.410877 0.936664
Si Si7 0.893665 0.978969 0.003914
O O1 0.619969 0.683491 0.170752
O O2 0.536614 0.988465 0.069689
O O3 0.661967 0.672445 0.007791
O O4 0.485609 0.575316 0.057219
O O5 0.900835 0.299776 0.846695
O O6 0.984700 0.604770 0.755313
O O7 0.855014 0.521419 0.213496
O O8 0.012643 0.773598 0.211741
O O9 0.851147 0.019263 0.220849
O O10 0.896943 0.823477 0.085761
O O11 0.809827 0.278200 0.348397
O O12 0.840572 0.606550 0.942641
O O13 0.784499 0.995610 0.964036
O O14 0.918370 0.255797 0.019093
#
# Coordination Sequence:
#
# PCOD9314119 Si02
#       7
#     4   4   4   4   4   4   4
#     4  10  22  43  68  95 137 185 229 284 350 422
#     4  10  20  42  69  96 131 183 228 278 352 411
#     4  10  23  42  71  94 132 180 232 276 347 413
#     4  10  23  43  66  98 131 182 226 285 340 413
#     4  11  25  42  66 102 138 180 232 290 350 404
#     4  10  24  41  67  98 140 179 233 292 346 418
#     4  11  23  43  67 101 135 179 234 289 343 415
#
# _framework density 22.681577000000001
#
# number of rings (size 3 to 8) (size 9 to 14) (size 15 to 20)
#    0.000    1.714    2.857    0.000    6.000    3.429 
#    0.000    0.000    0.000    0.000    0.000    0.000 
#    0.000    0.000    0.000    0.000    0.000    0.000 
#
# Total GULP energy -155885.460549 kJ/mol
# GULP energy per Si atom -5567.337877 kJ/mol
# Density = 2.262995 g / cm^3
# Si number density = 22.681577 Si / 1000 Ang^3
#
#
#
# Elastic Constant Matrix: (Units=GPa)
#
#
# Indices 1 2 3 4 5 6 
#
# 1 62.5919 5.1174 20.9246 0.0000 0.0000 0.0000
# 2 5.1174 67.3946 29.5125 0.0000 0.0000 0.0000
# 3 20.9246 29.5125 128.7821 0.0000 0.0000 0.0000
# 4 0.0000 0.0000 0.0000 32.5910 0.0000 0.0000
# 5 0.0000 0.0000 0.0000 0.0000 25.9416 0.0000
# 6 0.0000 0.0000 0.0000 0.0000 0.0000 7.7304
#
#
#
# Elastic Compliance Matrix: (Units=1/GPa)
#
#
# Indices 1 2 3 4 5 6 
#
# 1 0.016895 -0.000090 -0.002724 0.000000 0.000000 0.000000
# 2 -0.000090 0.016494 -0.003765 0.000000 0.000000 0.000000
# 3 -0.002724 -0.003765 0.009071 0.000000 0.000000 0.000000
# 4 0.000000 0.000000 0.000000 0.030683 0.000000 0.000000
# 5 0.000000 0.000000 0.000000 0.000000 0.038548 0.000000
# 6 0.000000 0.000000 0.000000 0.000000 0.000000 0.129359
#
#
# Mechanical properties :
#
#
# Convention : Reuss Voigt Hill
#
# Bulk Modulus (GPa) = 34.12978 41.09753 37.61366
# Shear Modulus (GPa) = 18.94121 26.80021 22.87071
#
# Velocity S-wave (km/s) = 2.89293 3.44115 3.17888
# Velocity P-wave (km/s) = 5.12238 5.82644 5.48571
#
# Compressibility (1/GPa) = 0.02929993
#
# Stress axis : x y z
#
# Youngs Moduli (GPa) = 59.19035 60.62961 110.24650
#
# Poissons Ratio (x) = 0.00544 0.30036
# Poissons Ratio (y) = 0.00531 0.41510
# Poissons Ratio (z) = 0.16126 0.22828
#
# Static dielectric constant tensor:
#      x y z
#    x 1.830950 0.000000 0.000000 
#    y 0.000000 2.319920 0.000000 
#    z 0.000000 0.000000 1.915230 
# 
# From -- ./inp_files/6235.got.cif
#   From: 2010.05.17/outbox.cif.g08.bks.cpg/sg19_4_cif.got.tgz:6235.got - 2010.06.03 22:46:19.
