data_PCOD9314106
_publ_section_title
;
Structure prediction by ZEFSAII (Michael W. Deem and Ramdas Pophale) SiO2 
 PCOD9314106
Probable space group: P 21 21 21
;
_chemical_formula_sum "Si O2"
_cell_formula_units_Z 28
_cell_length_a 24.325520
_cell_length_b 5.265723
_cell_length_c 9.690059
_cell_angle_alpha 90.000000
_cell_angle_beta 90.000000
_cell_angle_gamma 90.000000
_cell_volume 1241.213709
_symmetry_space_group_name_H-M "P 21 21 21"
_symmetry_group_IT_number 19
_symmetry_cell_setting 'orthorhombic'
loop_
_space_group_symop_operation_xyz
x,y,z
1/2-x,-y,1/2+z
1/2+x,1/2-y,-z
-x,1/2+y,1/2-z
loop_
_atom_site_type_symbol
_atom_site_label
_atom_site_fract_x
_atom_site_fract_y
_atom_site_fract_z
Si Si1 0.794559 0.441632 0.672796
Si Si2 0.596507 0.132846 0.947485
Si Si3 0.077518 0.754986 0.270852
Si Si4 0.186423 0.984077 0.148029
Si Si5 0.361637 0.535677 0.282247
Si Si6 0.525253 0.259097 0.312920
Si Si7 0.504557 0.479511 0.940096
O O1 0.735960 0.461856 0.748248
O O2 0.793119 0.389046 0.505191
O O3 0.826882 0.214277 0.752738
O O4 0.823702 0.715941 0.693312
O O5 0.650900 0.270257 0.893936
O O6 0.552811 0.323103 0.015211
O O7 0.570128 0.997147 0.819387
O O8 0.612787 0.948799 0.070368
O O9 0.050678 0.681477 0.415504
O O10 0.140415 0.825516 0.235294
O O11 0.037768 0.958435 0.199422
O O12 0.412990 0.646115 0.197896
O O13 0.487478 0.044338 0.236120
O O14 0.509362 0.226728 0.473379
#
# Coordination Sequence:
#
# PCOD9314106 Si02
#       7
#     4   4   4   4   4   4   4
#     4  11  25  45  69  93 129 172 227 273 336 384
#     4  10  20  42  64  90 130 170 214 260 333 395
#     4  11  21  40  64  95 130 174 221 269 336 395
#     4  10  25  42  67  92 124 176 219 282 325 398
#     4  11  23  43  67  95 130 175 211 264 334 396
#     4  12  25  41  67 101 140 174 219 269 330 404
#     4  11  23  37  66 100 133 177 219 273 326 408
#
# _framework density 22.558564000000001
#
# number of rings (size 3 to 8) (size 9 to 14) (size 15 to 20)
#    0.000    1.143    4.286    1.714    4.000    1.143 
#    2.571    0.000    0.000    0.000    0.000    0.000 
#    0.000    0.000    0.000    0.000    0.000    0.000 
#
# Total GULP energy -156037.761562 kJ/mol
# GULP energy per Si atom -5572.777199 kJ/mol
# Density = 2.250722 g / cm^3
# Si number density = 22.558564 Si / 1000 Ang^3
#
#
#
# Elastic Constant Matrix: (Units=GPa)
#
#
# Indices 1 2 3 4 5 6 
#
# 1 146.6345 21.6227 50.5955 0.0000 0.0000 0.0000
# 2 21.6227 80.3442 5.2386 0.0000 0.0000 0.0000
# 3 50.5955 5.2386 47.4136 0.0000 0.0000 0.0000
# 4 0.0000 0.0000 0.0000 26.5918 0.0000 0.0000
# 5 0.0000 0.0000 0.0000 0.0000 28.7239 0.0000
# 6 0.0000 0.0000 0.0000 0.0000 0.0000 27.3211
#
#
#
# Elastic Compliance Matrix: (Units=1/GPa)
#
#
# Indices 1 2 3 4 5 6 
#
# 1 0.011183 -0.002248 -0.011685 0.000000 0.000000 0.000000
# 2 -0.002248 0.012989 0.000964 0.000000 0.000000 0.000000
# 3 -0.011685 0.000964 0.033454 0.000000 0.000000 0.000000
# 4 0.000000 0.000000 0.000000 0.037606 0.000000 0.000000
# 5 0.000000 0.000000 0.000000 0.000000 0.034814 0.000000
# 6 0.000000 0.000000 0.000000 0.000000 0.000000 0.036602
#
#
# Mechanical properties :
#
#
# Convention : Reuss Voigt Hill
#
# Bulk Modulus (GPa) = 31.55899 47.70065 39.62982
# Shear Modulus (GPa) = 24.61260 29.65640 27.13450
#
# Velocity S-wave (km/s) = 3.30669 3.62973 3.47197
# Velocity P-wave (km/s) = 5.34782 6.22557 5.80331
#
# Compressibility (1/GPa) = 0.03168669
#
# Stress axis : x y z
#
# Youngs Moduli (GPa) = 89.42119 76.99090 29.89192
#
# Poissons Ratio (x) = 0.17306 0.34929
# Poissons Ratio (y) = 0.20100 -0.02880
# Poissons Ratio (z) = 1.04490 -0.07418
#
# Static dielectric constant tensor:
#      x y z
#    x 1.847060 0.000000 0.000000 
#    y 0.000000 1.880690 0.000000 
#    z 0.000000 0.000000 1.966880 
# 
# From -- ./inp_files/1144.got.cif
#   From: 2010.05.17/outbox.cif.g08.bks.cpg/sg19_1_cif.got.tgz:1144.got - 2010.06.03 22:46:19.
