data_PCOD9314612
_publ_section_title
;
Structure prediction by ZEFSAII (Michael W. Deem and Ramdas Pophale) SiO2 
 PCOD9314612
Probable space group: P 21 21 21
;
_chemical_formula_sum "Si O2"
_cell_formula_units_Z 24
_cell_length_a 9.853484
_cell_length_b 7.764211
_cell_length_c 12.993942
_cell_angle_alpha 90.000000
_cell_angle_beta 90.000000
_cell_angle_gamma 90.000000
_cell_volume 994.095411
_symmetry_space_group_name_H-M "P 21 21 21"
_symmetry_group_IT_number 19
_symmetry_cell_setting 'orthorhombic'
loop_
_space_group_symop_operation_xyz
x,y,z
1/2-x,-y,1/2+z
1/2+x,1/2-y,-z
-x,1/2+y,1/2-z
loop_
_atom_site_type_symbol
_atom_site_label
_atom_site_fract_x
_atom_site_fract_y
_atom_site_fract_z
Si Si1 0.264238 0.103211 0.460460
Si Si2 0.386814 0.891608 0.637395
Si Si3 0.131821 0.747579 0.263433
Si Si4 0.602079 0.118038 0.138011
Si Si5 0.565129 0.917691 0.943873
Si Si6 0.848363 0.249604 0.744619
O O1 0.321023 0.948959 0.529961
O O2 0.333723 0.270616 0.511648
O O3 0.327377 0.112526 0.346958
O O4 0.099026 0.112694 0.458098
O O5 0.387983 0.069848 0.705780
O O6 0.533101 0.803886 0.642764
O O7 0.292105 0.757011 0.695944
O O8 0.279383 0.728776 0.311252
O O9 0.097658 0.605509 0.176025
O O10 0.617284 0.931017 0.192655
O O11 0.461555 0.196021 0.175129
O O12 0.601979 0.078763 0.016482
#
# Coordination Sequence:
#
# PCOD9314612 Si02
#       6
#     4   4   4   4   4   4
#     4  10  22  38  65  89 126 170 210 251 308 388
#     4  11  22  42  64  91 126 161 211 257 311 370
#     4  11  24  40  65  93 125 166 210 258 312 373
#     4  11  24  40  65  93 125 166 210 258 312 373
#     4  10  22  40  63  91 124 168 214 247 312 388
#     4  11  22  42  64  91 126 161 211 257 311 370
#
# _framework density 24.142551000000001
#
# number of rings (size 3 to 8) (size 9 to 14) (size 15 to 20)
#    0.000    1.333    3.333    2.000   14.000    0.000 
#    0.000   10.000    0.000    0.000    0.000    0.000 
#    0.000    0.000    0.000    0.000    0.000    0.000 
#
# Total GULP energy -134183.947714 kJ/mol
# GULP energy per Si atom -5590.997821 kJ/mol
# Density = 2.408760 g / cm^3
# Si number density = 24.142551 Si / 1000 Ang^3
#
#
#
# Elastic Constant Matrix: (Units=GPa)
#
#
# Indices 1 2 3 4 5 6 
#
# 1 96.3315 32.5548 10.3915 0.0000 0.0000 0.0000
# 2 32.5548 109.3166 7.7590 0.0000 0.0000 0.0000
# 3 10.3915 7.7590 85.8502 0.0000 0.0000 0.0000
# 4 0.0000 0.0000 0.0000 33.8274 0.0000 0.0000
# 5 0.0000 0.0000 0.0000 0.0000 36.4182 0.0000
# 6 0.0000 0.0000 0.0000 0.0000 0.0000 1.7901
#
#
#
# Elastic Compliance Matrix: (Units=1/GPa)
#
#
# Indices 1 2 3 4 5 6 
#
# 1 0.011645 -0.003390 -0.001103 0.000000 0.000000 0.000000
# 2 -0.003390 0.010193 -0.000511 0.000000 0.000000 0.000000
# 3 -0.001103 -0.000511 0.011828 0.000000 0.000000 0.000000
# 4 0.000000 0.000000 0.000000 0.029562 0.000000 0.000000
# 5 0.000000 0.000000 0.000000 0.000000 0.027459 0.000000
# 6 0.000000 0.000000 0.000000 0.000000 0.000000 0.558640
#
#
# Mechanical properties :
#
#
# Convention : Reuss Voigt Hill
#
# Bulk Modulus (GPa) = 42.26734 43.65655 42.96195
# Shear Modulus (GPa) = 7.49377 30.46000 18.97688
#
# Velocity S-wave (km/s) = 1.76372 3.55586 2.80667
# Velocity P-wave (km/s) = 4.65758 5.91447 5.32325
#
# Compressibility (1/GPa) = 0.02365893
#
# Stress axis : x y z
#
# Youngs Moduli (GPa) = 85.87108 98.10195 84.54576
#
# Poissons Ratio (x) = 0.33254 0.09327
# Poissons Ratio (y) = 0.29108 0.04320
# Poissons Ratio (z) = 0.09473 0.05013
#
# Static dielectric constant tensor:
#      x y z
#    x 1.851190 0.000000 0.000000 
#    y 0.000000 2.126540 0.000000 
#    z 0.000000 0.000000 1.958590 
# 
# From -- ./inp_files/2749.got.cif
#   From: 2010.05.17/outbox.cif.g08.bks.cpg/sg19_2_cif.got.tgz:2749.got - 2010.06.03 22:46:19.
