data_PCOD9314677
_publ_section_title
;
Structure prediction by ZEFSAII (Michael W. Deem and Ramdas Pophale) SiO2 
 PCOD9314677
Probable space group: P 21 21 21
;
_chemical_formula_sum "Si O2"
_cell_formula_units_Z 32
_cell_length_a 14.588758
_cell_length_b 8.229263
_cell_length_c 11.405463
_cell_angle_alpha 90.000000
_cell_angle_beta 90.000000
_cell_angle_gamma 90.000000
_cell_volume 1369.279740
_symmetry_space_group_name_H-M "P 21 21 21"
_symmetry_group_IT_number 19
_symmetry_cell_setting 'orthorhombic'
loop_
_space_group_symop_operation_xyz
x,y,z
1/2-x,-y,1/2+z
1/2+x,1/2-y,-z
-x,1/2+y,1/2-z
loop_
_atom_site_type_symbol
_atom_site_label
_atom_site_fract_x
_atom_site_fract_y
_atom_site_fract_z
Si Si1 0.323276 0.707830 0.040533
Si Si2 0.385244 0.732904 0.628362
Si Si3 0.985332 0.468801 0.254566
Si Si4 0.397268 0.916346 0.233273
Si Si5 0.510796 0.793034 0.932182
Si Si6 0.498154 0.182421 0.094897
Si Si7 0.185036 0.649521 0.625421
Si Si8 0.338303 0.231362 0.376058
O O1 0.322743 0.827478 0.152394
O O2 0.293889 0.528405 0.078642
O O3 0.427627 0.698323 0.993980
O O4 0.259901 0.771809 0.937098
O O5 0.410376 0.593877 0.725526
O O6 0.443769 0.892148 0.662379
O O7 0.426763 0.677738 0.505443
O O8 0.277209 0.756468 0.617588
O O9 0.950298 0.305573 0.318427
O O10 0.965287 0.545814 0.126126
O O11 0.454805 0.781056 0.299991
O O12 0.462746 0.012749 0.144074
O O13 0.363009 0.053521 0.323957
O O14 0.591930 0.792115 0.025088
O O15 0.404034 0.276726 0.061582
O O16 0.161434 0.651534 0.763401
#
# Coordination Sequence:
#
# PCOD9314677 Si02
#       8
#     4   4   4   4   4   4   4   4
#     4  12  25  43  68  98 133 175 229 291 348 411
#     4  11  23  43  68  98 137 182 227 287 351 414
#     4  10  22  40  64  94 131 172 221 270 337 412
#     4  11  25  43  68  99 133 178 230 284 349 427
#     4  11  23  42  67  96 135 179 219 280 346 411
#     4  11  24  45  70  98 138 181 226 286 348 413
#     4  11  25  44  69 102 135 181 241 287 345 432
#     4  11  25  44  68  99 138 180 227 287 352 418
#
# _framework density 23.369952000000001
#
# number of rings (size 3 to 8) (size 9 to 14) (size 15 to 20)
#    0.000    1.000    0.000    7.500    0.000    9.000 
#    0.000    5.000    0.000    0.000    0.000    0.000 
#    0.000    0.000    0.000    0.000    0.000    0.000 
#
# Total GULP energy -178692.607586 kJ/mol
# GULP energy per Si atom -5584.143987 kJ/mol
# Density = 2.331676 g / cm^3
# Si number density = 23.369952 Si / 1000 Ang^3
#
#
#
# Elastic Constant Matrix: (Units=GPa)
#
#
# Indices 1 2 3 4 5 6 
#
# 1 84.9352 -3.3187 24.6090 0.0000 0.0000 0.0000
# 2 -3.3187 59.4672 13.3006 0.0000 0.0000 0.0000
# 3 24.6090 13.3006 84.5649 0.0000 0.0000 0.0000
# 4 0.0000 0.0000 0.0000 41.9267 0.0000 0.0000
# 5 0.0000 0.0000 0.0000 0.0000 46.1801 0.0000
# 6 0.0000 0.0000 0.0000 0.0000 0.0000 20.9558
#
#
#
# Elastic Compliance Matrix: (Units=1/GPa)
#
#
# Indices 1 2 3 4 5 6 
#
# 1 0.013008 0.001630 -0.004042 0.000000 0.000000 0.000000
# 2 0.001630 0.017633 -0.003248 0.000000 0.000000 0.000000
# 3 -0.004042 -0.003248 0.013512 0.000000 0.000000 0.000000
# 4 0.000000 0.000000 0.000000 0.023851 0.000000 0.000000
# 5 0.000000 0.000000 0.000000 0.000000 0.021654 0.000000
# 6 0.000000 0.000000 0.000000 0.000000 0.000000 0.047720
#
#
# Mechanical properties :
#
#
# Convention : Reuss Voigt Hill
#
# Bulk Modulus (GPa) = 30.45556 33.12769 31.79163
# Shear Modulus (GPa) = 31.31978 34.77095 33.04536
#
# Velocity S-wave (km/s) = 3.66481 3.86145 3.76441
# Velocity P-wave (km/s) = 5.56489 5.83842 5.70329
#
# Compressibility (1/GPa) = 0.03283472
#
# Stress axis : x y z
#
# Youngs Moduli (GPa) = 76.87297 56.71064 74.00671
#
# Poissons Ratio (x) = -0.09244 0.29913
# Poissons Ratio (y) = -0.12530 0.24036
# Poissons Ratio (z) = 0.31072 0.18418
#
# Static dielectric constant tensor:
#      x y z
#    x 1.844070 0.000000 0.000000 
#    y 0.000000 1.929020 0.000000 
#    z 0.000000 0.000000 1.902990 
# 
# From -- ./inp_files/5226.got.cif
#   From: 2010.05.17/outbox.cif.g08.bks.cpg/sg19_3_cif.got.tgz:5226.got - 2010.06.03 22:46:19.
