data_PCOD9314211
_publ_section_title
;
Structure prediction by ZEFSAII (Michael W. Deem and Ramdas Pophale) SiO2 
 PCOD9314211
Probable space group: P 21 21 21
;
_chemical_formula_sum "Si O2"
_cell_formula_units_Z 28
_cell_length_a 18.689969
_cell_length_b 11.019627
_cell_length_c 5.875344
_cell_angle_alpha 90.000000
_cell_angle_beta 90.000000
_cell_angle_gamma 90.000000
_cell_volume 1210.065210
_symmetry_space_group_name_H-M "P 21 21 21"
_symmetry_group_IT_number 19
_symmetry_cell_setting 'orthorhombic'
loop_
_space_group_symop_operation_xyz
x,y,z
1/2-x,-y,1/2+z
1/2+x,1/2-y,-z
-x,1/2+y,1/2-z
loop_
_atom_site_type_symbol
_atom_site_label
_atom_site_fract_x
_atom_site_fract_y
_atom_site_fract_z
Si Si1 0.804857 0.119219 0.821391
Si Si2 0.172348 0.146602 0.563711
Si Si3 0.675140 0.569741 0.108576
Si Si4 0.538712 0.662701 0.339327
Si Si5 0.968430 0.069969 0.893292
Si Si6 0.742678 0.859027 0.819328
Si Si7 0.933379 0.496116 0.224810
O O1 0.883823 0.072343 0.877170
O O2 0.803031 0.163766 0.553426
O O3 0.752340 0.002890 0.805181
O O4 0.782215 0.183157 0.064439
O O5 0.243641 0.110554 0.420928
O O6 0.183953 0.286248 0.625981
O O7 0.103681 0.096773 0.434012
O O8 0.176443 0.064945 0.787996
O O9 0.622905 0.648608 0.271682
O O10 0.630738 0.556590 0.878138
O O11 0.510881 0.797130 0.294854
O O12 0.499026 0.551367 0.219445
O O13 0.535570 0.621701 0.599550
O O14 0.003576 0.061142 0.140131
#
# Coordination Sequence:
#
# PCOD9314211 Si02
#       7
#     4   4   4   4   4   4   4
#     4  10  24  45  67 104 133 191 234 301 347 437
#     4  11  21  37  67  92 137 172 223 302 345 417
#     4  10  21  37  61  96 128 170 227 280 352 415
#     4  10  25  44  66  98 132 180 233 283 357 433
#     4  11  25  45  72  95 144 184 238 292 360 429
#     4  10  24  42  70 101 138 178 251 283 369 416
#     4  10  24  40  61 102 132 177 232 277 360 427
#
# _framework density 23.139249
#
# number of rings (size 3 to 8) (size 9 to 14) (size 15 to 20)
#    0.000    1.714    1.429    0.857    6.000    6.857 
#    2.571    0.000    0.000    0.000    0.000    0.000 
#    0.000    0.000    0.000    0.000    0.000    0.000 
#
# Total GULP energy -156060.887121 kJ/mol
# GULP energy per Si atom -5573.603111 kJ/mol
# Density = 2.308658 g / cm^3
# Si number density = 23.139249 Si / 1000 Ang^3
#
#
#
# Elastic Constant Matrix: (Units=GPa)
#
#
# Indices 1 2 3 4 5 6 
#
# 1 48.7102 3.9565 15.0175 0.0000 0.0000 0.0000
# 2 3.9565 79.7641 25.2450 0.0000 0.0000 0.0000
# 3 15.0175 25.2450 102.1422 0.0000 0.0000 0.0000
# 4 0.0000 0.0000 0.0000 29.7209 0.0000 0.0000
# 5 0.0000 0.0000 0.0000 0.0000 1.2360 0.0000
# 6 0.0000 0.0000 0.0000 0.0000 0.0000 39.4211
#
#
#
# Elastic Compliance Matrix: (Units=1/GPa)
#
#
# Indices 1 2 3 4 5 6 
#
# 1 0.021505 -0.000072 -0.003144 0.000000 0.000000 0.000000
# 2 -0.000072 0.013601 -0.003351 0.000000 0.000000 0.000000
# 3 -0.003144 -0.003351 0.011081 0.000000 0.000000 0.000000
# 4 0.000000 0.000000 0.000000 0.033646 0.000000 0.000000
# 5 0.000000 0.000000 0.000000 0.000000 0.809033 0.000000
# 6 0.000000 0.000000 0.000000 0.000000 0.000000 0.025367
#
#
# Mechanical properties :
#
#
# Convention : Reuss Voigt Hill
#
# Bulk Modulus (GPa) = 30.25428 35.45049 32.85239
# Shear Modulus (GPa) = 5.32831 26.50211 15.91521
#
# Velocity S-wave (km/s) = 1.51912 3.38795 2.62544
# Velocity P-wave (km/s) = 4.02246 5.53697 4.83933
#
# Compressibility (1/GPa) = 0.03305317
#
# Stress axis : x y z
#
# Youngs Moduli (GPa) = 46.50143 73.52338 90.24650
#
# Poissons Ratio (x) = 0.00526 0.28374
# Poissons Ratio (y) = 0.00333 0.30242
# Poissons Ratio (z) = 0.14620 0.24638
#
# Static dielectric constant tensor:
#      x y z
#    x 1.851220 0.000000 0.000000 
#    y 0.000000 1.925050 0.000000 
#    z 0.000000 0.000000 1.959640 
# 
# From -- ./inp_files/1940.got.cif
#   From: 2010.05.17/outbox.cif.g08.bks.cpg/sg19_1_cif.got.tgz:1940.got - 2010.06.03 22:46:19.
