data_PCOD9314399
_publ_section_title
;
Structure prediction by ZEFSAII (Michael W. Deem and Ramdas Pophale) SiO2 
 PCOD9314399
Probable space group: P 21 21 21
;
_chemical_formula_sum "Si O2"
_cell_formula_units_Z 32
_cell_length_a 21.094668
_cell_length_b 5.646309
_cell_length_c 11.359276
_cell_angle_alpha 90.000000
_cell_angle_beta 90.000000
_cell_angle_gamma 90.000000
_cell_volume 1352.969443
_symmetry_space_group_name_H-M "P 21 21 21"
_symmetry_group_IT_number 19
_symmetry_cell_setting 'orthorhombic'
loop_
_space_group_symop_operation_xyz
x,y,z
1/2-x,-y,1/2+z
1/2+x,1/2-y,-z
-x,1/2+y,1/2-z
loop_
_atom_site_type_symbol
_atom_site_label
_atom_site_fract_x
_atom_site_fract_y
_atom_site_fract_z
Si Si1 0.795040 0.865839 0.809433
Si Si2 0.261906 0.900444 0.975702
Si Si3 0.926832 0.976137 0.741347
Si Si4 0.833496 0.897021 0.209927
Si Si5 0.914886 0.785239 0.431373
Si Si6 0.968717 0.269067 0.935616
Si Si7 0.841742 0.215015 0.012917
Si Si8 0.620638 0.712783 0.056469
O O1 0.732056 0.991266 0.760209
O O2 0.859714 0.833591 0.734087
O O3 0.772940 0.640222 0.885245
O O4 0.822344 0.036345 0.910971
O O5 0.313469 0.789499 0.889150
O O6 0.195957 0.796650 0.937997
O O7 0.273595 0.174416 0.955713
O O8 0.952487 0.016501 0.873499
O O9 0.908096 0.231149 0.684545
O O10 0.983285 0.880509 0.659998
O O11 0.867017 0.098652 0.132045
O O12 0.878030 0.787030 0.308620
O O13 0.897170 0.539805 0.499543
O O14 0.990801 0.774518 0.445079
O O15 0.896354 0.045846 0.484579
O O16 0.898968 0.372866 0.960896
#
# Coordination Sequence:
#
# PCOD9314399 Si02
#       8
#     4   4   4   4   4   4   4   4
#     4  10  21  41  65  99 139 174 234 294 361 430
#     4  11  23  39  67 100 140 179 233 297 355 424
#     4  10  21  40  70 103 136 185 231 296 368 409
#     4  11  23  43  66  98 138 187 232 291 366 417
#     4  11  25  45  69 100 141 188 237 286 348 427
#     4  10  23  44  65 101 138 184 241 291 347 439
#     4  10  25  42  62 102 137 180 241 295 354 430
#     4  11  23  42  70 107 139 177 231 294 353 422
#
# _framework density 23.651681
#
# number of rings (size 3 to 8) (size 9 to 14) (size 15 to 20)
#    0.000    1.500    2.500    1.500    5.250    1.000 
#   11.250    0.000    0.000    0.000    0.000    0.000 
#    0.000    0.000    0.000    0.000    0.000    0.000 
#
# Total GULP energy -178285.144635 kJ/mol
# GULP energy per Si atom -5571.410770 kJ/mol
# Density = 2.359785 g / cm^3
# Si number density = 23.651681 Si / 1000 Ang^3
#
#
#
# Elastic Constant Matrix: (Units=GPa)
#
#
# Indices 1 2 3 4 5 6 
#
# 1 106.6133 8.1061 26.3591 0.0000 0.0000 0.0000
# 2 8.1061 60.9590 12.7469 0.0000 0.0000 0.0000
# 3 26.3591 12.7469 74.1512 0.0000 0.0000 0.0000
# 4 0.0000 0.0000 0.0000 31.9126 0.0000 0.0000
# 5 0.0000 0.0000 0.0000 0.0000 25.3298 0.0000
# 6 0.0000 0.0000 0.0000 0.0000 0.0000 30.1103
#
#
#
# Elastic Compliance Matrix: (Units=1/GPa)
#
#
# Indices 1 2 3 4 5 6 
#
# 1 0.010307 -0.000627 -0.003556 0.000000 0.000000 0.000000
# 2 -0.000627 0.017054 -0.002709 0.000000 0.000000 0.000000
# 3 -0.003556 -0.002709 0.015216 0.000000 0.000000 0.000000
# 4 0.000000 0.000000 0.000000 0.031336 0.000000 0.000000
# 5 0.000000 0.000000 0.000000 0.000000 0.039479 0.000000
# 6 0.000000 0.000000 0.000000 0.000000 0.000000 0.033211
#
#
# Mechanical properties :
#
#
# Convention : Reuss Voigt Hill
#
# Bulk Modulus (GPa) = 34.73069 37.34976 36.04022
# Shear Modulus (GPa) = 29.41459 30.43796 29.92628
#
# Velocity S-wave (km/s) = 3.53038 3.59127 3.56095
# Velocity P-wave (km/s) = 5.59770 5.74649 5.67258
#
# Compressibility (1/GPa) = 0.02879298
#
# Stress axis : x y z
#
# Youngs Moduli (GPa) = 97.02576 58.63635 65.72168
#
# Poissons Ratio (x) = 0.03676 0.23370
# Poissons Ratio (y) = 0.06083 0.17803
# Poissons Ratio (z) = 0.34502 0.15884
#
# Static dielectric constant tensor:
#      x y z
#    x 1.913020 0.000000 0.000000 
#    y 0.000000 2.011530 0.000000 
#    z 0.000000 0.000000 1.950200 
# 
# From -- ./inp_files/5484.got.cif
#   From: 2010.05.17/outbox.cif.g08.bks.cpg/sg19_3_cif.got.tgz:5484.got - 2010.06.03 22:46:19.
