data_PCOD9314743
_publ_section_title
;
Structure prediction by ZEFSAII (Michael W. Deem and Ramdas Pophale) SiO2 
 PCOD9314743
Probable space group: P 21 21 21
;
_chemical_formula_sum "Si O2"
_cell_formula_units_Z 20
_cell_length_a 4.845337
_cell_length_b 14.053713
_cell_length_c 10.850838
_cell_angle_alpha 90.000000
_cell_angle_beta 90.000000
_cell_angle_gamma 90.000000
_cell_volume 738.887549
_symmetry_space_group_name_H-M "P 21 21 21"
_symmetry_group_IT_number 19
_symmetry_cell_setting 'orthorhombic'
loop_
_space_group_symop_operation_xyz
x,y,z
1/2-x,-y,1/2+z
1/2+x,1/2-y,-z
-x,1/2+y,1/2-z
loop_
_atom_site_type_symbol
_atom_site_label
_atom_site_fract_x
_atom_site_fract_y
_atom_site_fract_z
Si Si1 0.976777 0.901598 0.815777
Si Si2 0.708787 0.729751 0.700210
Si Si3 0.345240 0.042219 0.937162
Si Si4 0.127223 0.575851 0.405960
Si Si5 0.965395 0.803765 0.043500
O O1 0.957395 0.794949 0.756608
O O2 0.788462 0.958008 0.717475
O O3 0.255830 0.958099 0.844464
O O4 0.843178 0.883081 0.951520
O O5 0.778493 0.638548 0.621628
O O6 0.563543 0.812865 0.621870
O O7 0.525006 0.690288 0.813171
O O8 0.649561 0.066638 0.983978
O O9 0.157656 0.026119 0.059163
O O10 0.262719 0.783396 0.983540
#
# Coordination Sequence:
#
# PCOD9314743 Si02
#       5
#     4   4   4   4   4
#     4   9  25  44  68 100 133 181 222 282 333 406
#     4   9  23  45  68 102 132 178 221 283 336 408
#     4  12  24  45  68  99 135 182 224 281 342 405
#     4  10  26  43  68  96 139 173 231 275 344 404
#     4  10  22  41  66  97 133 172 222 275 339 397
#
# _framework density 27.067717999999999
#
# number of rings (size 3 to 8) (size 9 to 14) (size 15 to 20)
#    1.200    0.800    0.000    1.200    5.600    8.000 
#    7.200    0.000    0.000    0.000    0.000    0.000 
#    0.000    0.000    0.000    0.000    0.000    0.000 
#
# Total GULP energy -111583.632430 kJ/mol
# GULP energy per Si atom -5579.181622 kJ/mol
# Density = 2.700611 g / cm^3
# Si number density = 27.067718 Si / 1000 Ang^3
#
#
#
# Elastic Constant Matrix: (Units=GPa)
#
#
# Indices 1 2 3 4 5 6 
#
# 1 117.3227 6.7069 35.0773 0.0000 0.0000 0.0000
# 2 6.7069 100.1521 34.9284 0.0000 0.0000 0.0000
# 3 35.0773 34.9284 130.5206 0.0000 0.0000 0.0000
# 4 0.0000 0.0000 0.0000 36.1499 0.0000 0.0000
# 5 0.0000 0.0000 0.0000 0.0000 53.0100 0.0000
# 6 0.0000 0.0000 0.0000 0.0000 0.0000 25.2909
#
#
#
# Elastic Compliance Matrix: (Units=1/GPa)
#
#
# Indices 1 2 3 4 5 6 
#
# 1 0.009275 0.000274 -0.002566 0.000000 0.000000 0.000000
# 2 0.000274 0.011021 -0.003023 0.000000 0.000000 0.000000
# 3 -0.002566 -0.003023 0.009160 0.000000 0.000000 0.000000
# 4 0.000000 0.000000 0.000000 0.027663 0.000000 0.000000
# 5 0.000000 0.000000 0.000000 0.000000 0.018864 0.000000
# 6 0.000000 0.000000 0.000000 0.000000 0.000000 0.039540
#
#
# Mechanical properties :
#
#
# Convention : Reuss Voigt Hill
#
# Bulk Modulus (GPa) = 53.11826 55.71341 54.41584
# Shear Modulus (GPa) = 37.75638 40.97568 39.36603
#
# Velocity S-wave (km/s) = 3.73887 3.89501 3.81774
# Velocity P-wave (km/s) = 6.18916 6.39185 6.29132
#
# Compressibility (1/GPa) = 0.01882592
#
# Stress axis : x y z
#
# Youngs Moduli (GPa) = 107.81666 90.73835 109.16863
#
# Poissons Ratio (x) = -0.02484 0.28012
# Poissons Ratio (y) = -0.02951 0.33000
# Poissons Ratio (z) = 0.27665 0.27428
#
# Static dielectric constant tensor:
#      x y z
#    x 2.043600 0.000000 0.000000 
#    y 0.000000 2.254110 0.000000 
#    z 0.000000 0.000000 2.179070 
# 
# From -- ./inp_files/832.got.cif
#   From: 2010.05.17/outbox.cif.g08.bks.cpg/sg19_1_cif.got.tgz:832.got - 2010.06.03 22:46:19.
