data_PCOD9314799
_publ_section_title
;
Structure prediction by ZEFSAII (Michael W. Deem and Ramdas Pophale) SiO2 
 PCOD9314799
Probable space group: P 21 21 21
;
_chemical_formula_sum "Si O2"
_cell_formula_units_Z 20
_cell_length_a 28.314791
_cell_length_b 5.434770
_cell_length_c 4.865475
_cell_angle_alpha 90.000000
_cell_angle_beta 90.000000
_cell_angle_gamma 90.000000
_cell_volume 748.720588
_symmetry_space_group_name_H-M "P 21 21 21"
_symmetry_group_IT_number 19
_symmetry_cell_setting 'orthorhombic'
loop_
_space_group_symop_operation_xyz
x,y,z
1/2-x,-y,1/2+z
1/2+x,1/2-y,-z
-x,1/2+y,1/2-z
loop_
_atom_site_type_symbol
_atom_site_label
_atom_site_fract_x
_atom_site_fract_y
_atom_site_fract_z
Si Si1 0.834757 0.329720 0.088873
Si Si2 0.240883 0.333711 0.725124
Si Si3 0.027568 0.793915 0.297927
Si Si4 0.359236 0.687828 0.987147
Si Si5 0.089481 0.674768 0.795368
O O1 0.862091 0.568947 0.192712
O O2 0.845394 0.051847 0.191010
O O3 0.859738 0.292224 0.787846
O O4 0.779028 0.352164 0.145505
O O5 0.241338 0.563797 0.933780
O O6 0.187130 0.257441 0.673485
O O7 0.050329 0.795989 0.598446
O O8 0.990844 0.565558 0.278229
O O9 0.068596 0.704490 0.092003
O O10 0.402275 0.602644 0.177879
#
# Coordination Sequence:
#
# PCOD9314799 Si02
#       5
#     4   4   4   4   4
#     4   9  22  40  67  95 137 175 220 271 316 390
#     4  10  22  42  64  98 138 182 228 268 322 376
#     4  12  28  46  75  98 134 168 219 280 350 410
#     4   9  22  40  67  95 137 175 220 271 316 390
#     4  10  26  46  71 102 132 174 221 276 336 396
#
# _framework density 26.712236999999998
#
# number of rings (size 3 to 8) (size 9 to 14) (size 15 to 20)
#    1.200    0.800    0.000    1.200    8.400    6.400 
#    0.000    8.000    0.000    0.000    0.000    0.000 
#    0.000    0.000    0.000    0.000    0.000    0.000 
#
# Total GULP energy -111622.474834 kJ/mol
# GULP energy per Si atom -5581.123742 kJ/mol
# Density = 2.665144 g / cm^3
# Si number density = 26.712237 Si / 1000 Ang^3
#
#
#
# Elastic Constant Matrix: (Units=GPa)
#
#
# Indices 1 2 3 4 5 6 
#
# 1 91.0491 4.6425 20.1075 0.0000 0.0000 0.0000
# 2 4.6425 147.3038 0.5909 0.0000 0.0000 0.0000
# 3 20.1075 0.5909 62.8294 0.0000 0.0000 0.0000
# 4 0.0000 0.0000 0.0000 20.2727 0.0000 0.0000
# 5 0.0000 0.0000 0.0000 0.0000 50.5123 0.0000
# 6 0.0000 0.0000 0.0000 0.0000 0.0000 52.2533
#
#
#
# Elastic Compliance Matrix: (Units=1/GPa)
#
#
# Indices 1 2 3 4 5 6 
#
# 1 0.011837 -0.000358 -0.003785 0.000000 0.000000 0.000000
# 2 -0.000358 0.006800 0.000051 0.000000 0.000000 0.000000
# 3 -0.003785 0.000051 0.017127 0.000000 0.000000 0.000000
# 4 0.000000 0.000000 0.000000 0.049327 0.000000 0.000000
# 5 0.000000 0.000000 0.000000 0.000000 0.019797 0.000000
# 6 0.000000 0.000000 0.000000 0.000000 0.000000 0.019138
#
#
# Mechanical properties :
#
#
# Convention : Reuss Voigt Hill
#
# Bulk Modulus (GPa) = 36.25889 39.09602 37.67746
# Shear Modulus (GPa) = 35.35977 42.99710 39.17844
#
# Velocity S-wave (km/s) = 3.64226 4.01639 3.83389
# Velocity P-wave (km/s) = 5.59387 6.01467 5.80808
#
# Compressibility (1/GPa) = 0.02757944
#
# Stress axis : x y z
#
# Youngs Moduli (GPa) = 84.47936 147.06390 58.38755
#
# Poissons Ratio (x) = 0.05263 0.22099
# Poissons Ratio (y) = 0.03023 -0.00295
# Poissons Ratio (z) = 0.31975 -0.00744
#
# Static dielectric constant tensor:
#      x y z
#    x 2.152710 0.000000 0.000000 
#    y 0.000000 2.277630 0.000000 
#    z 0.000000 0.000000 2.029060 
# 
# From -- ./inp_files/2285.got.cif
#   From: 2010.05.17/outbox.cif.g08.bks.cpg/sg19_2_cif.got.tgz:2285.got - 2010.06.03 22:46:19.
