data_PCOD9314427
_publ_section_title
;
Structure prediction by ZEFSAII (Michael W. Deem and Ramdas Pophale) SiO2 
 PCOD9314427
Probable space group: P 21 21 21
;
_chemical_formula_sum "Si O2"
_cell_formula_units_Z 24
_cell_length_a 5.557060
_cell_length_b 6.926021
_cell_length_c 26.407779
_cell_angle_alpha 90.000000
_cell_angle_beta 90.000000
_cell_angle_gamma 90.000000
_cell_volume 1016.390897
_symmetry_space_group_name_H-M "P 21 21 21"
_symmetry_group_IT_number 19
_symmetry_cell_setting 'orthorhombic'
loop_
_space_group_symop_operation_xyz
x,y,z
1/2-x,-y,1/2+z
1/2+x,1/2-y,-z
-x,1/2+y,1/2-z
loop_
_atom_site_type_symbol
_atom_site_label
_atom_site_fract_x
_atom_site_fract_y
_atom_site_fract_z
Si Si1 0.826564 0.716243 0.285982
Si Si2 0.481899 0.429339 0.492985
Si Si3 0.828438 0.235267 0.057620
Si Si4 0.672738 0.239694 0.166233
Si Si5 0.363750 0.118716 0.575621
Si Si6 0.429542 0.644648 0.821617
O O1 0.572281 0.797416 0.305583
O O2 0.852809 0.494809 0.303277
O O3 0.069949 0.809828 0.310506
O O4 0.855855 0.728413 0.225788
O O5 0.645756 0.568889 0.527032
O O6 0.269692 0.578149 0.481777
O O7 0.442539 0.241096 0.526278
O O8 0.581749 0.382800 0.436938
O O9 0.669281 0.281554 0.106709
O O10 0.053927 0.106705 0.078551
O O11 0.712500 0.007696 0.170449
O O12 0.476301 0.220688 0.624686
#
# Coordination Sequence:
#
# PCOD9314427 Si02
#       6
#     4   4   4   4   4   4
#     4  10  21  41  65  91 124 174 208 275 330 397
#     4  12  23  40  69  94 136 174 227 265 348 391
#     4  11  23  41  66  95 131 174 220 279 329 403
#     4   9  23  39  65  91 133 165 217 272 331 391
#     4  11  23  43  60 102 130 178 215 284 328 409
#     4   9  23  40  65  89 136 163 221 271 338 393
#
# _framework density 23.612964999999999
#
# number of rings (size 3 to 8) (size 9 to 14) (size 15 to 20)
#    1.000    0.667    3.333    1.000    2.333    1.333 
#    0.000    1.667    0.000    0.000    0.000    0.000 
#    0.000    0.000    0.000    0.000    0.000    0.000 
#
# Total GULP energy -133605.950584 kJ/mol
# GULP energy per Si atom -5566.914608 kJ/mol
# Density = 2.355922 g / cm^3
# Si number density = 23.612965 Si / 1000 Ang^3
#
#
#
# Elastic Constant Matrix: (Units=GPa)
#
#
# Indices 1 2 3 4 5 6 
#
# 1 66.2600 18.5161 17.9101 0.0000 0.0000 0.0000
# 2 18.5161 47.2726 8.8362 0.0000 0.0000 0.0000
# 3 17.9101 8.8362 109.2461 0.0000 0.0000 0.0000
# 4 0.0000 0.0000 0.0000 36.1371 0.0000 0.0000
# 5 0.0000 0.0000 0.0000 0.0000 22.9385 0.0000
# 6 0.0000 0.0000 0.0000 0.0000 0.0000 6.7360
#
#
#
# Elastic Compliance Matrix: (Units=1/GPa)
#
#
# Indices 1 2 3 4 5 6 
#
# 1 0.017523 -0.006424 -0.002353 0.000000 0.000000 0.000000
# 2 -0.006424 0.023833 -0.000875 0.000000 0.000000 0.000000
# 3 -0.002353 -0.000875 0.009610 0.000000 0.000000 0.000000
# 4 0.000000 0.000000 0.000000 0.027672 0.000000 0.000000
# 5 0.000000 0.000000 0.000000 0.000000 0.043595 0.000000
# 6 0.000000 0.000000 0.000000 0.000000 0.000000 0.148456
#
#
# Mechanical properties :
#
#
# Convention : Reuss Voigt Hill
#
# Bulk Modulus (GPa) = 31.58192 34.81151 33.19671
# Shear Modulus (GPa) = 16.63628 24.99674 20.81651
#
# Velocity S-wave (km/s) = 2.65720 3.25715 2.97235
# Velocity P-wave (km/s) = 4.77683 5.37772 5.08616
#
# Compressibility (1/GPa) = 0.03166369
#
# Stress axis : x y z
#
# Youngs Moduli (GPa) = 57.06708 41.95777 104.05629
#
# Poissons Ratio (x) = 0.26953 0.24487
# Poissons Ratio (y) = 0.36659 0.09101
# Poissons Ratio (z) = 0.13429 0.03670
#
# Static dielectric constant tensor:
#      x y z
#    x 2.084930 0.000000 0.000000 
#    y 0.000000 1.917820 0.000000 
#    z 0.000000 0.000000 1.931760 
# 
# From -- ./inp_files/7246.got.cif
#   From: 2010.05.17/outbox.cif.g08.bks.cpg/sg19_4_cif.got.tgz:7246.got - 2010.06.03 22:46:19.
