data_PCOD9314659
_publ_section_title
;
Structure prediction by ZEFSAII (Michael W. Deem and Ramdas Pophale) SiO2 
 PCOD9314659
Probable space group: P 21 21 21
;
_chemical_formula_sum "Si O2"
_cell_formula_units_Z 28
_cell_length_a 7.753020
_cell_length_b 16.068266
_cell_length_c 8.513494
_cell_angle_alpha 90.000000
_cell_angle_beta 90.000000
_cell_angle_gamma 90.000000
_cell_volume 1060.590545
_symmetry_space_group_name_H-M "P 21 21 21"
_symmetry_group_IT_number 19
_symmetry_cell_setting 'orthorhombic'
loop_
_space_group_symop_operation_xyz
x,y,z
1/2-x,-y,1/2+z
1/2+x,1/2-y,-z
-x,1/2+y,1/2-z
loop_
_atom_site_type_symbol
_atom_site_label
_atom_site_fract_x
_atom_site_fract_y
_atom_site_fract_z
Si Si1 0.725185 0.930555 0.329438
Si Si2 0.774212 0.568300 0.449408
Si Si3 0.539966 0.177004 0.025017
Si Si4 0.532417 0.064000 0.540138
Si Si5 0.540176 0.298099 0.743590
Si Si6 0.235411 0.275337 0.509918
Si Si7 0.403731 0.836261 0.258145
O O1 0.882816 0.947498 0.212861
O O2 0.580710 0.884634 0.225824
O O3 0.787367 0.867894 0.465965
O O4 0.638903 0.007552 0.416737
O O5 0.584142 0.602909 0.415491
O O6 0.840568 0.474226 0.452677
O O7 0.903279 0.619642 0.335873
O O8 0.805928 0.603161 0.623880
O O9 0.477014 0.229572 0.871296
O O10 0.566491 0.249223 0.150218
O O11 0.578598 0.157469 0.488791
O O12 0.397572 0.310802 0.607879
O O13 0.713763 0.258816 0.667109
O O14 0.193355 0.192553 0.606391
#
# Coordination Sequence:
#
# PCOD9314659 Si02
#       7
#     4   4   4   4   4   4   4
#     4  11  24  45  67 100 142 182 234 281 361 419
#     4  10  23  45  66  96 137 186 231 274 356 421
#     4  11  22  43  69  96 129 184 239 283 326 436
#     4  11  25  43  66 100 141 184 226 289 357 425
#     4  11  24  42  71 101 138 180 232 295 343 414
#     4  12  24  43  68 107 140 175 239 299 351 403
#     4  10  22  39  71  98 131 185 229 283 344 420
#
# _framework density 26.400386999999998
#
# number of rings (size 3 to 8) (size 9 to 14) (size 15 to 20)
#    0.000    1.143    2.857    3.429    8.000    0.000 
#    2.571    2.857    0.000    0.000    0.000    0.000 
#    0.000    0.000    0.000    0.000    0.000    0.000 
#
# Total GULP energy -156732.188481 kJ/mol
# GULP energy per Si atom -5597.578160 kJ/mol
# Density = 2.634030 g / cm^3
# Si number density = 26.400387 Si / 1000 Ang^3
#
#
#
# Elastic Constant Matrix: (Units=GPa)
#
#
# Indices 1 2 3 4 5 6 
#
# 1 62.2264 10.9540 19.5859 0.0000 0.0000 0.0000
# 2 10.9540 128.6494 35.2918 0.0000 0.0000 0.0000
# 3 19.5859 35.2918 78.4512 0.0000 0.0000 0.0000
# 4 0.0000 0.0000 0.0000 30.6792 0.0000 0.0000
# 5 0.0000 0.0000 0.0000 0.0000 47.0432 0.0000
# 6 0.0000 0.0000 0.0000 0.0000 0.0000 41.9186
#
#
#
# Elastic Compliance Matrix: (Units=1/GPa)
#
#
# Indices 1 2 3 4 5 6 
#
# 1 0.017453 -0.000332 -0.004208 0.000000 0.000000 0.000000
# 2 -0.000332 0.008874 -0.003909 0.000000 0.000000 0.000000
# 3 -0.004208 -0.003909 0.015556 0.000000 0.000000 0.000000
# 4 0.000000 0.000000 0.000000 0.032595 0.000000 0.000000
# 5 0.000000 0.000000 0.000000 0.000000 0.021257 0.000000
# 6 0.000000 0.000000 0.000000 0.000000 0.000000 0.023856
#
#
# Mechanical properties :
#
#
# Convention : Reuss Voigt Hill
#
# Bulk Modulus (GPa) = 40.02392 44.55449 42.28920
# Shear Modulus (GPa) = 34.52633 37.49457 36.01045
#
# Velocity S-wave (km/s) = 3.62027 3.77268 3.69726
# Velocity P-wave (km/s) = 5.71563 5.99087 5.85487
#
# Compressibility (1/GPa) = 0.02498506
#
# Stress axis : x y z
#
# Youngs Moduli (GPa) = 57.29592 112.69307 64.28439
#
# Poissons Ratio (x) = 0.03738 0.27052
# Poissons Ratio (y) = 0.01900 0.25129
# Poissons Ratio (z) = 0.24111 0.44052
#
# Static dielectric constant tensor:
#      x y z
#    x 2.205720 0.000000 0.000000 
#    y 0.000000 1.999650 0.000000 
#    z 0.000000 0.000000 2.067660 
# 
# From -- ./inp_files/2977.got.cif
#   From: 2010.05.17/outbox.cif.g08.bks.cpg/sg19_2_cif.got.tgz:2977.got - 2010.06.03 22:46:19.
