data_PCOD9314970
_publ_section_title
;
Structure prediction by ZEFSAII (Michael W. Deem and Ramdas Pophale) SiO2 
 PCOD9314970
Probable space group: P 21 21 21
;
_chemical_formula_sum "Si O2"
_cell_formula_units_Z 32
_cell_length_a 10.293503
_cell_length_b 9.282940
_cell_length_c 12.939186
_cell_angle_alpha 90.000000
_cell_angle_beta 90.000000
_cell_angle_gamma 90.000000
_cell_volume 1236.390600
_symmetry_space_group_name_H-M "P 21 21 21"
_symmetry_group_IT_number 19
_symmetry_cell_setting 'orthorhombic'
loop_
_space_group_symop_operation_xyz
x,y,z
1/2-x,-y,1/2+z
1/2+x,1/2-y,-z
-x,1/2+y,1/2-z
loop_
_atom_site_type_symbol
_atom_site_label
_atom_site_fract_x
_atom_site_fract_y
_atom_site_fract_z
Si Si1 0.235289 0.027920 0.312880
Si Si2 0.614983 0.219165 0.774899
Si Si3 0.596540 0.892403 0.243812
Si Si4 0.242497 0.864655 0.027772
Si Si5 0.015814 0.457403 0.411551
Si Si6 0.934252 0.445458 0.879301
Si Si7 0.403109 0.229059 0.932011
Si Si8 0.911968 0.833083 0.875533
O O1 0.115396 0.115384 0.263586
O O2 0.281939 0.135162 0.405907
O O3 0.137664 0.977374 0.070365
O O4 0.196380 0.875356 0.367329
O O5 0.762859 0.169265 0.765351
O O6 0.537678 0.128936 0.691658
O O7 0.545427 0.196587 0.883563
O O8 0.656484 0.526178 0.278057
O O9 0.578924 0.008306 0.150181
O O10 0.573401 0.003126 0.337512
O O11 0.455655 0.652407 0.005637
O O12 0.264913 0.729187 0.104227
O O13 0.382754 0.938414 0.038892
O O14 0.103816 0.599562 0.415747
O O15 0.992868 0.731480 0.793791
O O16 0.909960 0.303119 0.945174
#
# Coordination Sequence:
#
# PCOD9314970 Si02
#       8
#     4   4   4   4   4   4   4   4
#     4  11  23  50  76 102 155 209 255 326 414 467
#     4  12  25  45  72 109 151 206 253 337 403 474
#     4  11  26  46  74 111 156 206 265 329 396 485
#     4  10  22  46  74 107 151 212 252 321 410 467
#     4  12  26  46  77 114 154 202 266 330 397 482
#     4  10  23  46  76 108 153 206 257 333 396 480
#     4  11  27  46  78 115 147 204 277 329 402 485
#     4  11  26  47  77 114 157 215 267 327 404 482
#
# _framework density 25.881791
#
# number of rings (size 3 to 8) (size 9 to 14) (size 15 to 20)
#    0.000    1.000    1.250    4.500    3.500    6.000 
#    4.500    0.000    0.000    0.000    0.000    0.000 
#    0.000    0.000    0.000    0.000    0.000    0.000 
#
# Total GULP energy -178372.668251 kJ/mol
# GULP energy per Si atom -5574.145883 kJ/mol
# Density = 2.582288 g / cm^3
# Si number density = 25.881791 Si / 1000 Ang^3
#
#
#
# Elastic Constant Matrix: (Units=GPa)
#
#
# Indices 1 2 3 4 5 6 
#
# 1 77.9939 30.1600 50.3851 0.0000 0.0000 0.0000
# 2 30.1600 112.6158 47.7724 0.0000 0.0000 0.0000
# 3 50.3851 47.7724 145.1409 0.0000 0.0000 0.0000
# 4 0.0000 0.0000 0.0000 39.3722 0.0000 0.0000
# 5 0.0000 0.0000 0.0000 0.0000 36.8049 0.0000
# 6 0.0000 0.0000 0.0000 0.0000 0.0000 42.8541
#
#
#
# Elastic Compliance Matrix: (Units=1/GPa)
#
#
# Indices 1 2 3 4 5 6 
#
# 1 0.017065 -0.002391 -0.005137 0.000000 0.000000 0.000000
# 2 -0.002391 0.010656 -0.002677 0.000000 0.000000 0.000000
# 3 -0.005137 -0.002677 0.009554 0.000000 0.000000 0.000000
# 4 0.000000 0.000000 0.000000 0.025399 0.000000 0.000000
# 5 0.000000 0.000000 0.000000 0.000000 0.027170 0.000000
# 6 0.000000 0.000000 0.000000 0.000000 0.000000 0.023335
#
#
# Mechanical properties :
#
#
# Convention : Reuss Voigt Hill
#
# Bulk Modulus (GPa) = 59.29669 65.82061 62.55865
# Shear Modulus (GPa) = 35.91679 37.63510 36.77595
#
# Velocity S-wave (km/s) = 3.72926 3.81742 3.77360
# Velocity P-wave (km/s) = 6.44232 6.70200 6.57344
#
# Compressibility (1/GPa) = 0.01686435
#
# Stress axis : x y z
#
# Youngs Moduli (GPa) = 58.60068 93.84545 104.66456
#
# Poissons Ratio (x) = 0.22439 0.53765
# Poissons Ratio (y) = 0.14012 0.28022
# Poissons Ratio (z) = 0.30103 0.25125
#
# Static dielectric constant tensor:
#      x y z
#    x 2.181220 0.000000 0.000000 
#    y 0.000000 2.243370 0.000000 
#    z 0.000000 0.000000 2.096160 
# 
# From -- ./inp_files/6000.got.cif
#   From: 2010.05.17/outbox.cif.g08.bks.cpg/sg19_3_cif.got.tgz:6000.got - 2010.06.03 22:46:19.
