data_PCOD9314293
_publ_section_title
;
Structure prediction by ZEFSAII (Michael W. Deem and Ramdas Pophale) SiO2 
 PCOD9314293
Probable space group: P 21 21 21
;
_chemical_formula_sum "Si O2"
_cell_formula_units_Z 32
_cell_length_a 16.078126
_cell_length_b 9.802008
_cell_length_c 8.902301
_cell_angle_alpha 90.000000
_cell_angle_beta 90.000000
_cell_angle_gamma 90.000000
_cell_volume 1402.984118
_symmetry_space_group_name_H-M "P 21 21 21"
_symmetry_group_IT_number 19
_symmetry_cell_setting 'orthorhombic'
loop_
_space_group_symop_operation_xyz
x,y,z
1/2-x,-y,1/2+z
1/2+x,1/2-y,-z
-x,1/2+y,1/2-z
loop_
_atom_site_type_symbol
_atom_site_label
_atom_site_fract_x
_atom_site_fract_y
_atom_site_fract_z
Si Si1 0.463660 0.121828 0.224500
Si Si2 0.628166 0.055035 0.798778
Si Si3 0.177766 0.955602 0.909530
Si Si4 0.591400 0.154462 0.489834
Si Si5 0.668124 0.594931 0.737816
Si Si6 0.971137 0.553205 0.059739
Si Si7 0.100092 0.250719 0.953227
Si Si8 0.231512 0.360443 0.739474
O O1 0.526223 0.106615 0.364217
O O2 0.508028 0.230405 0.114079
O O3 0.374138 0.143297 0.299829
O O4 0.457891 0.994652 0.111791
O O5 0.600912 0.051992 0.626313
O O6 0.566958 0.959030 0.894212
O O7 0.721656 0.999787 0.797505
O O8 0.612795 0.202718 0.875717
O O9 0.267226 0.990347 0.841062
O O10 0.131079 0.101838 0.912517
O O11 0.174896 0.913874 0.082571
O O12 0.558939 0.293597 0.561899
O O13 0.679256 0.181862 0.407990
O O14 0.580342 0.548716 0.668821
O O15 0.700864 0.748075 0.707667
O O16 0.160777 0.357783 0.866873
#
# Coordination Sequence:
#
# PCOD9314293 Si02
#       8
#     4   4   4   4   4   4   4   4
#     4  10  21  39  62  90 121 168 204 260 319 382
#     4  11  23  38  67  91 129 169 214 264 323 396
#     4  11  21  39  65  90 125 167 211 264 324 380
#     4  11  23  43  66  95 135 171 214 273 327 384
#     4  11  23  40  65  94 127 166 213 270 317 386
#     4  11  24  42  62  97 130 168 219 269 323 388
#     4   9  21  40  60  88 127 160 207 265 315 375
#     4  10  22  41  63  91 126 169 214 263 320 393
#
# _framework density 22.808526000000001
#
# number of rings (size 3 to 8) (size 9 to 14) (size 15 to 20)
#    0.000    1.500    0.000    6.000    3.500    0.000 
#    4.500    0.000   11.000    0.000    0.000    0.000 
#    0.000    0.000    0.000    0.000    0.000    0.000 
#
# Total GULP energy -178753.887743 kJ/mol
# GULP energy per Si atom -5586.058992 kJ/mol
# Density = 2.275661 g / cm^3
# Si number density = 22.808526 Si / 1000 Ang^3
#
#
#
# Elastic Constant Matrix: (Units=GPa)
#
#
# Indices 1 2 3 4 5 6 
#
# 1 49.4433 9.5493 10.6243 0.0000 0.0000 0.0000
# 2 9.5493 25.4381 4.2452 0.0000 0.0000 0.0000
# 3 10.6243 4.2452 109.1299 0.0000 0.0000 0.0000
# 4 0.0000 0.0000 0.0000 17.7196 0.0000 0.0000
# 5 0.0000 0.0000 0.0000 0.0000 25.7049 0.0000
# 6 0.0000 0.0000 0.0000 0.0000 0.0000 17.8584
#
#
#
# Elastic Compliance Matrix: (Units=1/GPa)
#
#
# Indices 1 2 3 4 5 6 
#
# 1 0.022170 -0.008014 -0.001847 0.000000 0.000000 0.000000
# 2 -0.008014 0.042465 -0.000872 0.000000 0.000000 0.000000
# 3 -0.001847 -0.000872 0.009377 0.000000 0.000000 0.000000
# 4 0.000000 0.000000 0.000000 0.056435 0.000000 0.000000
# 5 0.000000 0.000000 0.000000 0.000000 0.038903 0.000000
# 6 0.000000 0.000000 0.000000 0.000000 0.000000 0.055996
#
#
# Mechanical properties :
#
#
# Convention : Reuss Voigt Hill
#
# Bulk Modulus (GPa) = 19.03057 25.87209 22.45133
# Shear Modulus (GPa) = 18.91598 22.89606 20.90602
#
# Velocity S-wave (km/s) = 2.88295 3.17178 3.03081
# Velocity P-wave (km/s) = 4.40949 4.97809 4.70239
#
# Compressibility (1/GPa) = 0.05254704
#
# Stress axis : x y z
#
# Youngs Moduli (GPa) = 45.10635 23.54873 106.64311
#
# Poissons Ratio (x) = 0.18872 0.19692
# Poissons Ratio (y) = 0.36149 0.09296
# Poissons Ratio (z) = 0.08329 0.02053
#
# Static dielectric constant tensor:
#      x y z
#    x 1.869950 0.000000 0.000000 
#    y 0.000000 1.840900 0.000000 
#    z 0.000000 0.000000 1.849030 
# 
# From -- ./inp_files/3976.got.cif
#   From: 2010.05.17/outbox.cif.g08.bks.cpg/sg19_2_cif.got.tgz:3976.got - 2010.06.03 22:46:19.
