data_PCOD9314308
_publ_section_title
;
Structure prediction by ZEFSAII (Michael W. Deem and Ramdas Pophale) SiO2 
 PCOD9314308
Probable space group: P 21 21 21
;
_chemical_formula_sum "Si O2"
_cell_formula_units_Z 24
_cell_length_a 11.406663
_cell_length_b 12.060054
_cell_length_c 7.452968
_cell_angle_alpha 90.000000
_cell_angle_beta 90.000000
_cell_angle_gamma 90.000000
_cell_volume 1025.267332
_symmetry_space_group_name_H-M "P 21 21 21"
_symmetry_group_IT_number 19
_symmetry_cell_setting 'orthorhombic'
loop_
_space_group_symop_operation_xyz
x,y,z
1/2-x,-y,1/2+z
1/2+x,1/2-y,-z
-x,1/2+y,1/2-z
loop_
_atom_site_type_symbol
_atom_site_label
_atom_site_fract_x
_atom_site_fract_y
_atom_site_fract_z
Si Si1 0.821120 0.350178 0.168339
Si Si2 0.938117 0.300748 0.677652
Si Si3 0.321109 0.649832 0.331669
Si Si4 0.061899 0.300763 0.322350
Si Si5 0.787387 0.597546 0.063916
Si Si6 0.787404 0.097534 0.563896
O O1 0.750012 0.250002 0.077591
O O2 0.817827 0.469669 0.078148
O O3 0.756311 0.368917 0.363545
O O4 0.954775 0.309336 0.187573
O O5 0.821573 0.373182 0.694947
O O6 0.892056 0.177720 0.629221
O O7 0.045243 0.309306 0.812429
O O8 0.000008 0.348189 0.500006
O O9 0.317841 0.530344 0.421871
O O10 0.256297 0.631075 0.136471
O O11 0.107960 0.177732 0.370759
O O12 0.178445 0.373197 0.305070
#
# Coordination Sequence:
#
# PCOD9314308 Si02
#       6
#     4   4   4   4   4   4
#     4  11  22  39  64  88 119 158 202 240 302 350
#     4   9  18  39  62  83 117 164 190 239 300 351
#     4  11  22  39  64  88 119 158 202 240 302 350
#     4   9  18  39  62  83 117 164 190 239 300 351
#     4  10  21  39  64  85 122 155 199 245 295 349
#     4  10  21  39  64  85 122 155 199 245 295 349
#
# _framework density 23.408529000000001
#
# number of rings (size 3 to 8) (size 9 to 14) (size 15 to 20)
#    0.000    2.000    6.667    0.000    4.667    0.000 
#    6.000    0.000    0.000    0.000    0.000    0.000 
#    0.000    0.000    0.000    0.000    0.000    0.000 
#
# Total GULP energy -134018.400015 kJ/mol
# GULP energy per Si atom -5584.100001 kJ/mol
# Density = 2.335525 g / cm^3
# Si number density = 23.408529 Si / 1000 Ang^3
#
#
#
# Elastic Constant Matrix: (Units=GPa)
#
#
# Indices 1 2 3 4 5 6 
#
# 1 138.2247 38.7702 24.3740 0.0000 0.0000 0.0000
# 2 38.7702 127.0443 39.4192 0.0000 0.0000 0.0000
# 3 24.3740 39.4192 79.4387 0.0000 0.0000 0.0000
# 4 0.0000 0.0000 0.0000 30.6909 0.0000 0.0000
# 5 0.0000 0.0000 0.0000 0.0000 2.0736 0.0000
# 6 0.0000 0.0000 0.0000 0.0000 0.0000 23.1187
#
#
#
# Elastic Compliance Matrix: (Units=1/GPa)
#
#
# Indices 1 2 3 4 5 6 
#
# 1 0.008056 -0.001999 -0.001480 0.000000 0.000000 0.000000
# 2 -0.001999 0.009800 -0.004249 0.000000 0.000000 0.000000
# 3 -0.001480 -0.004249 0.015151 0.000000 0.000000 0.000000
# 4 0.000000 0.000000 0.000000 0.032583 0.000000 0.000000
# 5 0.000000 0.000000 0.000000 0.000000 0.482253 0.000000
# 6 0.000000 0.000000 0.000000 0.000000 0.000000 0.043255
#
#
# Mechanical properties :
#
#
# Convention : Reuss Voigt Hill
#
# Bulk Modulus (GPa) = 56.97995 61.09273 59.03634
# Shear Modulus (GPa) = 8.16452 27.31960 17.74206
#
# Velocity S-wave (km/s) = 1.86960 3.41996 2.75604
# Velocity P-wave (km/s) = 5.39026 6.46142 5.95000
#
# Compressibility (1/GPa) = 0.01755003
#
# Stress axis : x y z
#
# Youngs Moduli (GPa) = 124.12583 102.04122 66.00213
#
# Poissons Ratio (x) = 0.20402 0.09767
# Poissons Ratio (y) = 0.24818 0.28047
# Poissons Ratio (z) = 0.18368 0.43362
#
# Static dielectric constant tensor:
#      x y z
#    x 1.911900 0.000000 0.000000 
#    y 0.000000 1.817250 0.000000 
#    z 0.000000 0.000000 1.996890 
# 
# From -- ./inp_files/3375.got.cif
#   From: 2010.05.17/outbox.cif.g08.bks.cpg/sg19_2_cif.got.tgz:3375.got - 2010.06.03 22:46:19.
