data_PCOD9314742
_publ_section_title
;
Structure prediction by ZEFSAII (Michael W. Deem and Ramdas Pophale) SiO2 
 PCOD9314742
Probable space group: P 21 21 21
;
_chemical_formula_sum "Si O2"
_cell_formula_units_Z 32
_cell_length_a 10.455209
_cell_length_b 5.129069
_cell_length_c 23.467981
_cell_angle_alpha 90.000000
_cell_angle_beta 90.000000
_cell_angle_gamma 90.000000
_cell_volume 1258.481942
_symmetry_space_group_name_H-M "P 21 21 21"
_symmetry_group_IT_number 19
_symmetry_cell_setting 'orthorhombic'
loop_
_space_group_symop_operation_xyz
x,y,z
1/2-x,-y,1/2+z
1/2+x,1/2-y,-z
-x,1/2+y,1/2-z
loop_
_atom_site_type_symbol
_atom_site_label
_atom_site_fract_x
_atom_site_fract_y
_atom_site_fract_z
Si Si1 0.722078 0.548674 0.599160
Si Si2 0.328911 0.329632 0.122091
Si Si3 0.130096 0.451982 0.338070
Si Si4 0.778620 0.894075 0.767393
Si Si5 0.979669 0.962514 0.476888
Si Si6 0.613851 0.540125 0.914446
Si Si7 0.511498 0.682257 0.081069
Si Si8 0.473619 0.973044 0.195715
O O1 0.708238 0.838660 0.623633
O O2 0.621097 0.510103 0.548720
O O3 0.859851 0.479424 0.576443
O O4 0.681049 0.336693 0.647326
O O5 0.252018 0.494377 0.169686
O O6 0.249292 0.079091 0.103028
O O7 0.386632 0.503350 0.071691
O O8 0.449586 0.226890 0.158429
O O9 0.161431 0.544912 0.274217
O O10 0.984770 0.468680 0.360912
O O11 0.838235 0.604149 0.774915
O O12 0.904929 0.017957 0.736570
O O13 0.895276 0.174196 0.441475
O O14 0.980112 0.068119 0.540622
O O15 0.936893 0.673397 0.460161
O O16 0.500337 0.764386 0.146813
#
# Coordination Sequence:
#
# PCOD9314742 Si02
#       8
#     4   4   4   4   4   4   4   4
#     4  10  22  41  66  97 129 166 229 269 330 399
#     4  11  26  42  65 101 141 178 220 292 347 406
#     4  10  22  43  68  92 129 177 222 274 322 408
#     4  11  22  39  65  96 131 179 219 281 341 403
#     4  10  25  45  70  97 132 184 218 283 340 403
#     4  10  25  49  65  97 140 174 232 280 334 412
#     4  11  25  40  69 102 129 179 223 282 347 410
#     4  11  23  39  64  98 135 165 229 277 345 401
#
# _framework density 25.427464000000001
#
# number of rings (size 3 to 8) (size 9 to 14) (size 15 to 20)
#    0.000    1.500    2.500    0.750   10.500    0.000 
#    4.500    0.000    0.000    0.000    0.000    0.000 
#    0.000    0.000    0.000    0.000    0.000    0.000 
#
# Total GULP energy -179175.873743 kJ/mol
# GULP energy per Si atom -5599.246054 kJ/mol
# Density = 2.536959 g / cm^3
# Si number density = 25.427464 Si / 1000 Ang^3
#
#
#
# Elastic Constant Matrix: (Units=GPa)
#
#
# Indices 1 2 3 4 5 6 
#
# 1 85.3882 3.9720 22.5847 0.0000 0.0000 0.0000
# 2 3.9720 70.8708 4.5334 0.0000 0.0000 0.0000
# 3 22.5847 4.5334 80.7039 0.0000 0.0000 0.0000
# 4 0.0000 0.0000 0.0000 38.9909 0.0000 0.0000
# 5 0.0000 0.0000 0.0000 0.0000 16.4133 0.0000
# 6 0.0000 0.0000 0.0000 0.0000 0.0000 31.9628
#
#
#
# Elastic Compliance Matrix: (Units=1/GPa)
#
#
# Indices 1 2 3 4 5 6 
#
# 1 0.012664 -0.000485 -0.003517 0.000000 0.000000 0.000000
# 2 -0.000485 0.014180 -0.000661 0.000000 0.000000 0.000000
# 3 -0.003517 -0.000661 0.013412 0.000000 0.000000 0.000000
# 4 0.000000 0.000000 0.000000 0.025647 0.000000 0.000000
# 5 0.000000 0.000000 0.000000 0.000000 0.060926 0.000000
# 6 0.000000 0.000000 0.000000 0.000000 0.000000 0.031286
#
#
# Mechanical properties :
#
#
# Convention : Reuss Voigt Hill
#
# Bulk Modulus (GPa) = 32.32998 33.23812 32.78405
# Shear Modulus (GPa) = 28.12933 31.19825 29.66379
#
# Velocity S-wave (km/s) = 3.32965 3.50659 3.41926
# Velocity P-wave (km/s) = 5.24636 5.43093 5.33944
#
# Compressibility (1/GPa) = 0.03093104
#
# Stress axis : x y z
#
# Youngs Moduli (GPa) = 78.96443 70.52375 74.55875
#
# Poissons Ratio (x) = 0.03419 0.26220
# Poissons Ratio (y) = 0.03828 0.04927
# Poissons Ratio (z) = 0.27770 0.04661
#
# Static dielectric constant tensor:
#      x y z
#    x 1.997660 0.000000 0.000000 
#    y 0.000000 2.076660 0.000000 
#    z 0.000000 0.000000 1.998760 
# 
# From -- ./inp_files/1297.got.cif
#   From: 2010.05.17/outbox.cif.g08.bks.cpg/sg19_1_cif.got.tgz:1297.got - 2010.06.03 22:46:19.
