data_PCOD9314891
_publ_section_title
;
Structure prediction by ZEFSAII (Michael W. Deem and Ramdas Pophale) SiO2 
 PCOD9314891
Probable space group: P 21 21 21
;
_chemical_formula_sum "Si O2"
_cell_formula_units_Z 28
_cell_length_a 5.913110
_cell_length_b 15.697108
_cell_length_c 14.006710
_cell_angle_alpha 90.000000
_cell_angle_beta 90.000000
_cell_angle_gamma 90.000000
_cell_volume 1300.084982
_symmetry_space_group_name_H-M "P 21 21 21"
_symmetry_group_IT_number 19
_symmetry_cell_setting 'orthorhombic'
loop_
_space_group_symop_operation_xyz
x,y,z
1/2-x,-y,1/2+z
1/2+x,1/2-y,-z
-x,1/2+y,1/2-z
loop_
_atom_site_type_symbol
_atom_site_label
_atom_site_fract_x
_atom_site_fract_y
_atom_site_fract_z
Si Si1 0.324303 0.923797 0.126683
Si Si2 0.941580 0.781779 0.134647
Si Si3 0.464803 0.446600 0.868624
Si Si4 0.722018 0.907593 0.007190
Si Si5 0.016340 0.206850 0.985294
Si Si6 0.237938 0.358460 0.689519
Si Si7 0.058033 0.697637 0.735507
O O1 0.487760 0.886775 0.207329
O O2 0.141147 0.848797 0.121331
O O3 0.459167 0.928492 0.027292
O O4 0.203857 0.010299 0.157548
O O5 0.819612 0.791418 0.236908
O O6 0.048087 0.689344 0.139533
O O7 0.768679 0.813041 0.052961
O O8 0.323647 0.413209 0.778383
O O9 0.336581 0.520896 0.925884
O O10 0.507755 0.370206 0.940781
O O11 0.834562 0.912173 0.902982
O O12 0.997538 0.185510 0.873819
O O13 0.771094 0.253762 0.003271
O O14 0.070373 0.283024 0.724815
#
# Coordination Sequence:
#
# PCOD9314891 Si02
#       7
#     4   4   4   4   4   4   4
#     4   9  22  42  63 100 137 182 231 297 357 435
#     4   9  21  39  66  99 132 175 238 292 358 427
#     4  11  25  44  64 104 145 188 242 291 374 431
#     4  10  24  40  67  99 142 183 236 301 363 430
#     4  12  27  47  75 105 145 197 249 302 361 446
#     4  11  23  41  68  99 135 185 234 298 357 435
#     4  10  22  43  71 100 138 180 244 299 364 432
#
# _framework density 21.537054000000001
#
# number of rings (size 3 to 8) (size 9 to 14) (size 15 to 20)
#    0.000    1.714    1.429    0.857   10.000    6.857 
#    0.000    0.000    0.000    0.000    0.000    0.000 
#    0.000    0.000    0.000    0.000    0.000    0.000 
#
# Total GULP energy -156050.931680 kJ/mol
# GULP energy per Si atom -5573.247560 kJ/mol
# Density = 2.148803 g / cm^3
# Si number density = 21.537054 Si / 1000 Ang^3
#
#
#
# Elastic Constant Matrix: (Units=GPa)
#
#
# Indices 1 2 3 4 5 6 
#
# 1 63.7116 17.1094 -4.2475 0.0000 0.0000 0.0000
# 2 17.1094 74.7078 36.8427 0.0000 0.0000 0.0000
# 3 -4.2475 36.8427 111.0899 0.0000 0.0000 0.0000
# 4 0.0000 0.0000 0.0000 27.2311 0.0000 0.0000
# 5 0.0000 0.0000 0.0000 0.0000 22.9961 0.0000
# 6 0.0000 0.0000 0.0000 0.0000 0.0000 3.7018
#
#
#
# Elastic Compliance Matrix: (Units=1/GPa)
#
#
# Indices 1 2 3 4 5 6 
#
# 1 0.017223 -0.005104 0.002351 0.000000 0.000000 0.000000
# 2 -0.005104 0.017515 -0.006004 0.000000 0.000000 0.000000
# 3 0.002351 -0.006004 0.011083 0.000000 0.000000 0.000000
# 4 0.000000 0.000000 0.000000 0.036723 0.000000 0.000000
# 5 0.000000 0.000000 0.000000 0.000000 0.043486 0.000000
# 6 0.000000 0.000000 0.000000 0.000000 0.000000 0.270137
#
#
# Mechanical properties :
#
#
# Convention : Reuss Voigt Hill
#
# Bulk Modulus (GPa) = 35.32599 38.76870 37.04735
# Shear Modulus (GPa) = 11.81708 24.10612 17.96160
#
# Velocity S-wave (km/s) = 2.34495 3.34920 2.89101
# Velocity P-wave (km/s) = 4.87542 5.74423 5.32757
#
# Compressibility (1/GPa) = 0.02830777
#
# Stress axis : x y z
#
# Youngs Moduli (GPa) = 58.06156 57.09287 90.22951
#
# Poissons Ratio (x) = 0.29140 -0.21215
# Poissons Ratio (y) = 0.29634 0.54174
# Poissons Ratio (z) = -0.13652 0.34279
#
# Static dielectric constant tensor:
#      x y z
#    x 1.936250 0.000000 0.000000 
#    y 0.000000 1.795030 0.000000 
#    z 0.000000 0.000000 1.831620 
# 
# From -- ./inp_files/5713.got.cif
#   From: 2010.05.17/outbox.cif.g08.bks.cpg/sg19_3_cif.got.tgz:5713.got - 2010.06.03 22:46:19.
