data_PCOD9314350
_publ_section_title
;
Structure prediction by ZEFSAII (Michael W. Deem and Ramdas Pophale) SiO2 
 PCOD9314350
Probable space group: P 21 21 21
;
_chemical_formula_sum "Si O2"
_cell_formula_units_Z 28
_cell_length_a 13.607422
_cell_length_b 11.322893
_cell_length_c 7.823557
_cell_angle_alpha 90.000000
_cell_angle_beta 90.000000
_cell_angle_gamma 90.000000
_cell_volume 1205.417544
_symmetry_space_group_name_H-M "P 21 21 21"
_symmetry_group_IT_number 19
_symmetry_cell_setting 'orthorhombic'
loop_
_space_group_symop_operation_xyz
x,y,z
1/2-x,-y,1/2+z
1/2+x,1/2-y,-z
-x,1/2+y,1/2-z
loop_
_atom_site_type_symbol
_atom_site_label
_atom_site_fract_x
_atom_site_fract_y
_atom_site_fract_z
Si Si1 0.296401 0.104083 0.796877
Si Si2 0.900816 0.184104 0.359946
Si Si3 0.195041 0.674042 0.801023
Si Si4 0.350968 0.072141 0.158792
Si Si5 0.910166 0.073691 0.005336
Si Si6 0.586917 0.340876 0.186128
Si Si7 0.090178 0.303796 0.465763
O O1 0.365925 0.080149 0.956092
O O2 0.341176 0.193567 0.662400
O O3 0.198275 0.161392 0.882902
O O4 0.254372 0.990147 0.700941
O O5 0.867371 0.128041 0.537499
O O6 0.014062 0.221033 0.366398
O O7 0.875835 0.110687 0.192725
O O8 0.151103 0.801831 0.747586
O O9 0.174404 0.592117 0.637049
O O10 0.305109 0.691450 0.870241
O O11 0.422684 0.973017 0.233477
O O12 0.999210 0.160522 0.947644
O O13 0.943799 0.938907 0.019604
O O14 0.590150 0.250020 0.342880
#
# Coordination Sequence:
#
# PCOD9314350 Si02
#       7
#     4   4   4   4   4   4   4
#     4  10  21  39  72 103 140 175 245 298 368 406
#     4  12  26  48  69 111 141 193 256 300 358 450
#     4  12  25  50  70 104 154 190 247 298 376 443
#     4  10  21  41  77 100 137 185 237 320 348 416
#     4  12  29  47  74 104 154 199 234 304 382 443
#     4  10  24  44  71 106 141 185 247 306 360 427
#     4  12  28  47  77 110 149 197 250 302 372 457
#
# _framework density 23.228466999999998
#
# number of rings (size 3 to 8) (size 9 to 14) (size 15 to 20)
#    0.857    0.000    4.286    2.571    6.000    1.143 
#    2.571    0.000    0.000    0.000    0.000    0.000 
#    0.000    0.000    0.000    0.000    0.000    0.000 
#
# Total GULP energy -156433.978135 kJ/mol
# GULP energy per Si atom -5586.927791 kJ/mol
# Density = 2.317560 g / cm^3
# Si number density = 23.228467 Si / 1000 Ang^3
#
#
#
# Elastic Constant Matrix: (Units=GPa)
#
#
# Indices 1 2 3 4 5 6 
#
# 1 74.8235 -13.0065 -0.6371 0.0000 0.0000 0.0000
# 2 -13.0065 46.6480 30.5986 0.0000 0.0000 0.0000
# 3 -0.6371 30.5986 126.3800 0.0000 0.0000 0.0000
# 4 0.0000 0.0000 0.0000 26.4017 0.0000 0.0000
# 5 0.0000 0.0000 0.0000 0.0000 32.3091 0.0000
# 6 0.0000 0.0000 0.0000 0.0000 0.0000 24.7062
#
#
#
# Elastic Compliance Matrix: (Units=1/GPa)
#
#
# Indices 1 2 3 4 5 6 
#
# 1 0.014162 0.004639 -0.001052 0.000000 0.000000 0.000000
# 2 0.004639 0.027004 -0.006515 0.000000 0.000000 0.000000
# 3 -0.001052 -0.006515 0.009485 0.000000 0.000000 0.000000
# 4 0.000000 0.000000 0.000000 0.037876 0.000000 0.000000
# 5 0.000000 0.000000 0.000000 0.000000 0.030951 0.000000
# 6 0.000000 0.000000 0.000000 0.000000 0.000000 0.040476
#
#
# Mechanical properties :
#
#
# Convention : Reuss Voigt Hill
#
# Bulk Modulus (GPa) = 22.32394 31.30683 26.81538
# Shear Modulus (GPa) = 27.66395 32.07651 29.87023
#
# Velocity S-wave (km/s) = 3.45476 3.72010 3.58988
# Velocity P-wave (km/s) = 5.05423 5.65325 5.36211
#
# Compressibility (1/GPa) = 0.04479497
#
# Stress axis : x y z
#
# Youngs Moduli (GPa) = 70.61077 37.03195 105.43362
#
# Poissons Ratio (x) = -0.17177 0.11088
# Poissons Ratio (y) = -0.32753 0.68686
# Poissons Ratio (z) = 0.07426 0.24125
#
# Static dielectric constant tensor:
#      x y z
#    x 1.927430 0.000000 0.000000 
#    y 0.000000 1.836610 0.000000 
#    z 0.000000 0.000000 1.867130 
# 
# From -- ./inp_files/4327.got.cif
#   From: 2010.05.17/outbox.cif.g08.bks.cpg/sg19_3_cif.got.tgz:4327.got - 2010.06.03 22:46:19.
