data_PCOD9314599
_publ_section_title
;
Structure prediction by ZEFSAII (Michael W. Deem and Ramdas Pophale) SiO2 
 PCOD9314599
Probable space group: P 21 21 21
;
_chemical_formula_sum "Si O2"
_cell_formula_units_Z 32
_cell_length_a 8.134449
_cell_length_b 15.919824
_cell_length_c 11.148793
_cell_angle_alpha 90.000000
_cell_angle_beta 90.000000
_cell_angle_gamma 90.000000
_cell_volume 1443.757505
_symmetry_space_group_name_H-M "P 21 21 21"
_symmetry_group_IT_number 19
_symmetry_cell_setting 'orthorhombic'
loop_
_space_group_symop_operation_xyz
x,y,z
1/2-x,-y,1/2+z
1/2+x,1/2-y,-z
-x,1/2+y,1/2-z
loop_
_atom_site_type_symbol
_atom_site_label
_atom_site_fract_x
_atom_site_fract_y
_atom_site_fract_z
Si Si1 0.999392 0.686656 0.084734
Si Si2 0.924016 0.470945 0.782494
Si Si3 0.699714 0.633357 0.470002
Si Si4 0.021238 0.219733 0.879632
Si Si5 0.747226 0.541967 0.039863
Si Si6 0.548724 0.124473 0.565454
Si Si7 0.385648 0.373487 0.337296
Si Si8 0.819025 0.849596 0.794681
O O1 0.128253 0.646324 0.176490
O O2 0.843332 0.626646 0.072787
O O3 0.974578 0.782849 0.120680
O O4 0.080762 0.687119 0.950871
O O5 0.793339 0.404304 0.835530
O O6 0.867901 0.486123 0.648975
O O7 0.965228 0.559738 0.841631
O O8 0.098122 0.423250 0.780819
O O9 0.574462 0.710688 0.458540
O O10 0.863415 0.664735 0.534377
O O11 0.644309 0.543174 0.525571
O O12 0.134433 0.266666 0.780027
O O13 0.896446 0.168537 0.793545
O O14 0.615006 0.567904 0.936535
O O15 0.707838 0.087788 0.632423
O O16 0.596247 0.143617 0.426086
#
# Coordination Sequence:
#
# PCOD9314599 Si02
#       8
#     4   4   4   4   4   4   4   4
#     4  11  21  38  69 103 128 168 226 287 347 404
#     4  10  22  43  65  92 132 176 226 285 340 408
#     4  11  25  46  67  95 137 189 231 287 343 424
#     4  11  24  47  66  95 141 186 232 284 348 419
#     4  11  22  43  67  98 135 172 231 286 343 411
#     4  10  22  37  67 101 131 168 216 286 346 403
#     4  11  21  42  66  95 132 175 219 285 348 407
#     4   9  21  40  63  91 132 170 213 278 341 404
#
# _framework density 22.164387000000001
#
# number of rings (size 3 to 8) (size 9 to 14) (size 15 to 20)
#    0.000    1.500    3.750    1.500    3.500    1.000 
#    9.000    0.000    0.000    0.000    0.000    0.000 
#    0.000    0.000    0.000    0.000    0.000    0.000 
#
# Total GULP energy -178222.833706 kJ/mol
# GULP energy per Si atom -5569.463553 kJ/mol
# Density = 2.211394 g / cm^3
# Si number density = 22.164387 Si / 1000 Ang^3
#
#
#
# Elastic Constant Matrix: (Units=GPa)
#
#
# Indices 1 2 3 4 5 6 
#
# 1 95.4151 27.1164 37.7109 0.0000 0.0000 0.0000
# 2 27.1164 91.0333 34.4172 0.0000 0.0000 0.0000
# 3 37.7109 34.4172 50.2459 0.0000 0.0000 0.0000
# 4 0.0000 0.0000 0.0000 18.1483 0.0000 0.0000
# 5 0.0000 0.0000 0.0000 0.0000 35.3214 0.0000
# 6 0.0000 0.0000 0.0000 0.0000 0.0000 35.0853
#
#
#
# Elastic Compliance Matrix: (Units=1/GPa)
#
#
# Indices 1 2 3 4 5 6 
#
# 1 0.014906 -0.000284 -0.010993 0.000000 0.000000 0.000000
# 2 -0.000284 0.014829 -0.009945 0.000000 0.000000 0.000000
# 3 -0.010993 -0.009945 0.034964 0.000000 0.000000 0.000000
# 4 0.000000 0.000000 0.000000 0.055101 0.000000 0.000000
# 5 0.000000 0.000000 0.000000 0.000000 0.028311 0.000000
# 6 0.000000 0.000000 0.000000 0.000000 0.000000 0.028502
#
#
# Mechanical properties :
#
#
# Convention : Reuss Voigt Hill
#
# Bulk Modulus (GPa) = 44.92999 48.35371 46.64185
# Shear Modulus (GPa) = 22.07738 26.87432 24.47585
#
# Velocity S-wave (km/s) = 3.15949 3.48587 3.32669
# Velocity P-wave (km/s) = 5.79871 6.16969 5.98708
#
# Compressibility (1/GPa) = 0.02225685
#
# Stress axis : x y z
#
# Youngs Moduli (GPa) = 67.08748 67.43377 28.60060
#
# Poissons Ratio (x) = 0.01915 0.31440
# Poissons Ratio (y) = 0.01905 0.28442
# Poissons Ratio (z) = 0.73748 0.67060
#
# Static dielectric constant tensor:
#      x y z
#    x 1.856870 0.000000 0.000000 
#    y 0.000000 1.840540 0.000000 
#    z 0.000000 0.000000 1.934470 
# 
# From -- ./inp_files/4726.got.cif
#   From: 2010.05.17/outbox.cif.g08.bks.cpg/sg19_3_cif.got.tgz:4726.got - 2010.06.03 22:46:19.
