data_PCOD9314153
_publ_section_title
;
Structure prediction by ZEFSAII (Michael W. Deem and Ramdas Pophale) SiO2 
 PCOD9314153
Probable space group: P 21 21 21
;
_chemical_formula_sum "Si O2"
_cell_formula_units_Z 20
_cell_length_a 14.022824
_cell_length_b 10.371347
_cell_length_c 5.370079
_cell_angle_alpha 90.000000
_cell_angle_beta 90.000000
_cell_angle_gamma 90.000000
_cell_volume 781.000520
_symmetry_space_group_name_H-M "P 21 21 21"
_symmetry_group_IT_number 19
_symmetry_cell_setting 'orthorhombic'
loop_
_space_group_symop_operation_xyz
x,y,z
1/2-x,-y,1/2+z
1/2+x,1/2-y,-z
-x,1/2+y,1/2-z
loop_
_atom_site_type_symbol
_atom_site_label
_atom_site_fract_x
_atom_site_fract_y
_atom_site_fract_z
Si Si1 0.495753 0.081554 0.481694
Si Si2 0.839170 0.602754 0.372786
Si Si3 0.699269 0.173683 0.585813
Si Si4 0.799210 0.226155 0.081595
Si Si5 0.011850 0.683242 0.650674
O O1 0.599755 0.098600 0.599634
O O2 0.468920 0.216254 0.363553
O O3 0.404138 0.023226 0.623179
O O4 0.513224 0.967155 0.279187
O O5 0.740290 0.627827 0.519355
O O6 0.907903 0.700676 0.531439
O O7 0.826114 0.672497 0.110677
O O8 0.762255 0.151830 0.832001
O O9 0.756187 0.165599 0.329700
O O10 0.912005 0.212197 0.064753
#
# Coordination Sequence:
#
# PCOD9314153 Si02
#       5
#     4   4   4   4   4
#     4  10  20  46  72 113 150 198 252 314 384 454
#     4   8  22  43  66 108 147 191 244 309 369 448
#     4  10  20  45  66 105 148 187 253 306 358 456
#     4  10  22  44  70 107 146 195 250 306 377 447
#     4  10  22  44  78 111 149 209 241 327 376 459
#
# _framework density 25.608177999999999
#
# number of rings (size 3 to 8) (size 9 to 14) (size 15 to 20)
#    2.400    0.000    2.000    0.000    0.000    3.200 
#   14.400    6.000    0.000    0.000    0.000    0.000 
#    0.000    0.000    0.000    0.000    0.000    0.000 
#
# Total GULP energy -111496.060553 kJ/mol
# GULP energy per Si atom -5574.803028 kJ/mol
# Density = 2.554989 g / cm^3
# Si number density = 25.608178 Si / 1000 Ang^3
#
#
#
# Elastic Constant Matrix: (Units=GPa)
#
#
# Indices 1 2 3 4 5 6 
#
# 1 96.8131 8.7714 29.6374 0.0000 0.0000 0.0000
# 2 8.7714 80.5870 7.1333 0.0000 0.0000 0.0000
# 3 29.6374 7.1333 113.9448 0.0000 0.0000 0.0000
# 4 0.0000 0.0000 0.0000 22.9305 0.0000 0.0000
# 5 0.0000 0.0000 0.0000 0.0000 79.2691 0.0000
# 6 0.0000 0.0000 0.0000 0.0000 0.0000 30.8919
#
#
#
# Elastic Compliance Matrix: (Units=1/GPa)
#
#
# Indices 1 2 3 4 5 6 
#
# 1 0.011298 -0.000975 -0.002878 0.000000 0.000000 0.000000
# 2 -0.000975 0.012562 -0.000533 0.000000 0.000000 0.000000
# 3 -0.002878 -0.000533 0.009558 0.000000 0.000000 0.000000
# 4 0.000000 0.000000 0.000000 0.043610 0.000000 0.000000
# 5 0.000000 0.000000 0.000000 0.000000 0.012615 0.000000
# 6 0.000000 0.000000 0.000000 0.000000 0.000000 0.032371
#
#
# Mechanical properties :
#
#
# Convention : Reuss Voigt Hill
#
# Bulk Modulus (GPa) = 40.57194 42.49211 41.53202
# Shear Modulus (GPa) = 35.97069 43.00515 39.48792
#
# Velocity S-wave (km/s) = 3.75194 4.10244 3.93110
# Velocity P-wave (km/s) = 5.88618 6.25053 6.07109
#
# Compressibility (1/GPa) = 0.02464758
#
# Stress axis : x y z
#
# Youngs Moduli (GPa) = 88.50748 79.60360 104.62400
#
# Poissons Ratio (x) = 0.07762 0.30108
# Poissons Ratio (y) = 0.08630 0.05575
# Poissons Ratio (z) = 0.25470 0.04241
#
# Static dielectric constant tensor:
#      x y z
#    x 2.017860 0.000000 0.000000 
#    y 0.000000 2.122600 0.000000 
#    z 0.000000 0.000000 1.979770 
# 
# From -- ./inp_files/921.got.cif
#   From: 2010.05.17/outbox.cif.g08.bks.cpg/sg19_1_cif.got.tgz:921.got - 2010.06.03 22:46:19.
