data_PCOD9314774
_publ_section_title
;
Structure prediction by ZEFSAII (Michael W. Deem and Ramdas Pophale) SiO2 
 PCOD9314774
Probable space group: P 21 21 21
;
_chemical_formula_sum "Si O2"
_cell_formula_units_Z 32
_cell_length_a 11.876655
_cell_length_b 5.188471
_cell_length_c 20.160371
_cell_angle_alpha 90.000000
_cell_angle_beta 90.000000
_cell_angle_gamma 90.000000
_cell_volume 1242.315931
_symmetry_space_group_name_H-M "P 21 21 21"
_symmetry_group_IT_number 19
_symmetry_cell_setting 'orthorhombic'
loop_
_space_group_symop_operation_xyz
x,y,z
1/2-x,-y,1/2+z
1/2+x,1/2-y,-z
-x,1/2+y,1/2-z
loop_
_atom_site_type_symbol
_atom_site_label
_atom_site_fract_x
_atom_site_fract_y
_atom_site_fract_z
Si Si1 0.160576 0.718731 0.696755
Si Si2 0.562516 0.978877 0.181444
Si Si3 0.926190 0.229829 0.245272
Si Si4 0.450466 0.262318 0.534155
Si Si5 0.804343 0.408833 0.360889
Si Si6 0.417678 0.642888 0.094505
Si Si7 0.851999 0.468489 0.105877
Si Si8 0.280726 0.495067 0.431873
O O1 0.150898 0.534694 0.759330
O O2 0.135072 0.611008 0.624111
O O3 0.275180 0.867989 0.690263
O O4 0.050406 0.895097 0.709368
O O5 0.516585 0.720661 0.145825
O O6 0.625998 0.106230 0.119725
O O7 0.847622 0.192184 0.310151
O O8 0.866401 0.346208 0.179406
O O9 0.013138 0.457249 0.267721
O O10 0.395407 0.053506 0.582613
O O11 0.530223 0.147179 0.477416
O O12 0.527013 0.448780 0.577903
O O13 0.348356 0.408773 0.497072
O O14 0.686147 0.338477 0.395628
O O15 0.777527 0.733827 0.098492
O O16 0.802620 0.235297 0.061368
#
# Coordination Sequence:
#
# PCOD9314774 Si02
#       8
#     4   4   4   4   4   4   4   4
#     4  11  22  41  76 114 152 201 257 325 403 466
#     4  10  22  41  72 115 153 197 247 337 384 473
#     4  12  27  50  79 114 153 204 256 323 402 457
#     4  11  26  56  70 111 163 203 267 328 393 480
#     4  11  26  48  75 109 153 206 261 330 387 480
#     4  10  24  46  72 110 151 206 260 314 410 462
#     4  12  27  52  79 116 154 209 264 323 393 479
#     4  11  28  48  81 111 153 208 260 318 396 469
#
# _framework density 25.758346
#
# number of rings (size 3 to 8) (size 9 to 14) (size 15 to 20)
#    0.000    1.000    2.500    2.250    7.000    1.000 
#   18.000    0.000    0.000    0.000    0.000    0.000 
#    0.000    0.000    0.000    0.000    0.000    0.000 
#
# Total GULP energy -179028.912220 kJ/mol
# GULP energy per Si atom -5594.653507 kJ/mol
# Density = 2.569972 g / cm^3
# Si number density = 25.758346 Si / 1000 Ang^3
#
#
#
# Elastic Constant Matrix: (Units=GPa)
#
#
# Indices 1 2 3 4 5 6 
#
# 1 71.6248 23.5486 24.5865 0.0000 0.0000 0.0000
# 2 23.5486 73.6950 -4.7079 0.0000 0.0000 0.0000
# 3 24.5865 -4.7079 110.8204 0.0000 0.0000 0.0000
# 4 0.0000 0.0000 0.0000 21.8400 0.0000 0.0000
# 5 0.0000 0.0000 0.0000 0.0000 64.9265 0.0000
# 6 0.0000 0.0000 0.0000 0.0000 0.0000 33.1901
#
#
#
# Elastic Compliance Matrix: (Units=1/GPa)
#
#
# Indices 1 2 3 4 5 6 
#
# 1 0.017259 -0.005775 -0.004074 0.000000 0.000000 0.000000
# 2 -0.005775 0.015539 0.001941 0.000000 0.000000 0.000000
# 3 -0.004074 0.001941 0.010010 0.000000 0.000000 0.000000
# 4 0.000000 0.000000 0.000000 0.045787 0.000000 0.000000
# 5 0.000000 0.000000 0.000000 0.000000 0.015402 0.000000
# 6 0.000000 0.000000 0.000000 0.000000 0.000000 0.030129
#
#
# Mechanical properties :
#
#
# Convention : Reuss Voigt Hill
#
# Bulk Modulus (GPa) = 37.04877 38.11051 37.57964
# Shear Modulus (GPa) = 31.45828 38.17219 34.81524
#
# Velocity S-wave (km/s) = 3.49848 3.85377 3.68041
# Velocity P-wave (km/s) = 5.54379 5.88469 5.71678
#
# Compressibility (1/GPa) = 0.02699145
#
# Stress axis : x y z
#
# Youngs Moduli (GPa) = 57.94058 64.35454 99.89977
#
# Poissons Ratio (x) = 0.37167 0.40703
# Poissons Ratio (y) = 0.33462 -0.19395
# Poissons Ratio (z) = 0.23607 -0.12494
#
# Static dielectric constant tensor:
#      x y z
#    x 2.094780 0.000000 0.000000 
#    y 0.000000 2.103460 0.000000 
#    z 0.000000 0.000000 2.012420 
# 
# From -- ./inp_files/7155.got.cif
#   From: 2010.05.17/outbox.cif.g08.bks.cpg/sg19_4_cif.got.tgz:7155.got - 2010.06.03 22:46:19.
