data_PCOD9314972
_publ_section_title
;
Structure prediction by ZEFSAII (Michael W. Deem and Ramdas Pophale) SiO2 
 PCOD9314972
Probable space group: P 21 21 21
;
_chemical_formula_sum "Si O2"
_cell_formula_units_Z 32
_cell_length_a 21.191073
_cell_length_b 5.471186
_cell_length_c 11.700186
_cell_angle_alpha 90.000000
_cell_angle_beta 90.000000
_cell_angle_gamma 90.000000
_cell_volume 1356.523097
_symmetry_space_group_name_H-M "P 21 21 21"
_symmetry_group_IT_number 19
_symmetry_cell_setting 'orthorhombic'
loop_
_space_group_symop_operation_xyz
x,y,z
1/2-x,-y,1/2+z
1/2+x,1/2-y,-z
-x,1/2+y,1/2-z
loop_
_atom_site_type_symbol
_atom_site_label
_atom_site_fract_x
_atom_site_fract_y
_atom_site_fract_z
Si Si1 0.179415 0.603096 0.127048
Si Si2 0.191215 0.678443 0.587442
Si Si3 0.975722 0.663259 0.803270
Si Si4 0.936915 0.198804 0.506610
Si Si5 0.753791 0.435218 0.551296
Si Si6 0.345055 0.565066 0.869320
Si Si7 0.858338 0.460029 0.705582
Si Si8 0.014186 0.392249 0.312652
O O1 0.237880 0.421801 0.105467
O O2 0.167805 0.621010 0.262888
O O3 0.113063 0.535948 0.064798
O O4 0.204136 0.835688 0.054767
O O5 0.150820 0.514696 0.501808
O O6 0.162176 0.751613 0.706462
O O7 0.199773 0.915354 0.509153
O O8 0.901881 0.641788 0.776518
O O9 0.005122 0.442059 0.726223
O O10 0.002851 0.587978 0.927307
O O11 0.897148 0.326336 0.606270
O O12 0.967892 0.390511 0.420972
O O13 0.717723 0.230698 0.624703
O O14 0.798743 0.575344 0.640401
O O15 0.413171 0.673280 0.839797
O O16 0.010973 0.663386 0.261140
#
# Coordination Sequence:
#
# PCOD9314972 Si02
#       8
#     4   4   4   4   4   4   4   4
#     4  10  22  47  68 105 136 193 239 303 372 450
#     4  11  25  42  72 107 143 191 241 310 379 445
#     4  10  24  45  71 106 141 189 244 303 365 441
#     4  10  24  47  74 104 146 195 249 308 375 442
#     4  10  24  42  71 106 142 192 239 306 376 442
#     4  11  25  45  72 103 152 184 253 309 374 447
#     4  10  23  45  68 106 143 188 246 302 374 449
#     4  12  29  49  76 109 149 204 255 309 373 450
#
# _framework density 23.589718000000001
#
# number of rings (size 3 to 8) (size 9 to 14) (size 15 to 20)
#    0.000    1.500    2.500    0.000    7.000    8.000 
#    4.500    0.000    0.000    0.000    0.000    0.000 
#    0.000    0.000    0.000    0.000    0.000    0.000 
#
# Total GULP energy -178446.076539 kJ/mol
# GULP energy per Si atom -5576.439892 kJ/mol
# Density = 2.353603 g / cm^3
# Si number density = 23.589718 Si / 1000 Ang^3
#
#
#
# Elastic Constant Matrix: (Units=GPa)
#
#
# Indices 1 2 3 4 5 6 
#
# 1 73.5298 -3.0718 48.1501 0.0000 0.0000 0.0000
# 2 -3.0718 27.5861 10.7869 0.0000 0.0000 0.0000
# 3 48.1501 10.7869 113.6190 0.0000 0.0000 0.0000
# 4 0.0000 0.0000 0.0000 12.3030 0.0000 0.0000
# 5 0.0000 0.0000 0.0000 0.0000 58.0296 0.0000
# 6 0.0000 0.0000 0.0000 0.0000 0.0000 20.9092
#
#
#
# Elastic Compliance Matrix: (Units=1/GPa)
#
#
# Indices 1 2 3 4 5 6 
#
# 1 0.019637 0.005650 -0.008858 0.000000 0.000000 0.000000
# 2 0.005650 0.039274 -0.006123 0.000000 0.000000 0.000000
# 3 -0.008858 -0.006123 0.013137 0.000000 0.000000 0.000000
# 4 0.000000 0.000000 0.000000 0.081281 0.000000 0.000000
# 5 0.000000 0.000000 0.000000 0.000000 0.017233 0.000000
# 6 0.000000 0.000000 0.000000 0.000000 0.000000 0.047826
#
#
# Mechanical properties :
#
#
# Convention : Reuss Voigt Hill
#
# Bulk Modulus (GPa) = 18.73180 36.27393 27.50287
# Shear Modulus (GPa) = 19.61989 28.83969 24.22979
#
# Velocity S-wave (km/s) = 2.88707 3.50030 3.20837
# Velocity P-wave (km/s) = 4.36709 5.63440 5.04073
#
# Compressibility (1/GPa) = 0.05338514
#
# Stress axis : x y z
#
# Youngs Moduli (GPa) = 50.92520 25.46230 76.12294
#
# Poissons Ratio (x) = -0.14387 0.67431
# Poissons Ratio (y) = -0.28775 0.46612
# Poissons Ratio (z) = 0.45110 0.15591
#
# Static dielectric constant tensor:
#      x y z
#    x 2.002190 0.000000 0.000000 
#    y 0.000000 2.055530 0.000000 
#    z 0.000000 0.000000 1.894280 
# 
# From -- ./inp_files/5471.got.cif
#   From: 2010.05.17/outbox.cif.g08.bks.cpg/sg19_3_cif.got.tgz:5471.got - 2010.06.03 22:46:19.
