data_PCOD9314545
_publ_section_title
;
Structure prediction by ZEFSAII (Michael W. Deem and Ramdas Pophale) SiO2 
 PCOD9314545
Probable space group: P 21 21 21
;
_chemical_formula_sum "Si O2"
_cell_formula_units_Z 32
_cell_length_a 9.715809
_cell_length_b 13.029126
_cell_length_c 12.957460
_cell_angle_alpha 90.000000
_cell_angle_beta 90.000000
_cell_angle_gamma 90.000000
_cell_volume 1640.265421
_symmetry_space_group_name_H-M "P 21 21 21"
_symmetry_group_IT_number 19
_symmetry_cell_setting 'orthorhombic'
loop_
_space_group_symop_operation_xyz
x,y,z
1/2-x,-y,1/2+z
1/2+x,1/2-y,-z
-x,1/2+y,1/2-z
loop_
_atom_site_type_symbol
_atom_site_label
_atom_site_fract_x
_atom_site_fract_y
_atom_site_fract_z
Si Si1 0.811025 0.490963 0.589500
Si Si2 0.149424 0.839805 0.538620
Si Si3 0.751000 0.032637 0.152911
Si Si4 0.853762 0.838317 0.457536
Si Si5 0.080801 0.152345 0.487250
Si Si6 0.419964 0.603693 0.994517
Si Si7 0.668848 0.946899 0.865802
Si Si8 0.441536 0.980788 0.187388
O O1 0.733170 0.588082 0.540506
O O2 0.702216 0.397052 0.581960
O O3 0.868382 0.520742 0.702069
O O4 0.937622 0.452641 0.519278
O O5 0.249654 0.750042 0.574109
O O6 0.104381 0.914000 0.631423
O O7 0.007806 0.802342 0.485351
O O8 0.830366 0.084786 0.247232
O O9 0.607441 0.985011 0.194124
O O10 0.709161 0.109765 0.061408
O O11 0.846818 0.945802 0.104151
O O12 0.859277 0.931640 0.376779
O O13 0.071239 0.274222 0.485847
O O14 0.941195 0.106913 0.439291
O O15 0.096014 0.107904 0.604069
O O16 0.317451 0.578324 0.088355
#
# Coordination Sequence:
#
# PCOD9314545 Si02
#       8
#     4   4   4   4   4   4   4   4
#     4  11  23  41  66  96 125 168 214 259 319 383
#     4  10  23  42  64  91 127 166 207 263 313 374
#     4  10  22  41  65  92 126 166 211 261 315 375
#     4  10  22  43  62  90 129 164 210 262 314 370
#     4  11  23  44  63  93 137 162 212 274 313 373
#     4  11  23  40  67  96 123 173 213 253 325 384
#     4  11  21  43  64  90 130 166 209 263 314 377
#     4  10  21  44  65  88 129 167 208 265 313 372
#
# _framework density 19.509036999999999
#
# number of rings (size 3 to 8) (size 9 to 14) (size 15 to 20)
#    0.000    1.500    6.250    0.750    3.500    4.000 
#    2.250    0.000    0.000    0.000    0.000    0.000 
#    0.000    0.000    0.000    0.000    0.000    0.000 
#
# Total GULP energy -178648.241485 kJ/mol
# GULP energy per Si atom -5582.757546 kJ/mol
# Density = 1.946463 g / cm^3
# Si number density = 19.509037 Si / 1000 Ang^3
#
#
#
# Elastic Constant Matrix: (Units=GPa)
#
#
# Indices 1 2 3 4 5 6 
#
# 1 98.7036 24.8542 3.9616 0.0000 0.0000 0.0000
# 2 24.8542 52.4355 -9.0381 0.0000 0.0000 0.0000
# 3 3.9616 -9.0381 74.5360 0.0000 0.0000 0.0000
# 4 0.0000 0.0000 0.0000 -0.0970 0.0000 0.0000
# 5 0.0000 0.0000 0.0000 0.0000 22.6623 0.0000
# 6 0.0000 0.0000 0.0000 0.0000 0.0000 22.9920
#
#
#
# Elastic Compliance Matrix: (Units=1/GPa)
#
#
# Indices 1 2 3 4 5 6 
#
# 1 0.011629 -0.005739 -0.001314 0.000000 0.000000 0.000000
# 2 -0.005739 0.022310 0.003010 0.000000 0.000000 0.000000
# 3 -0.001314 0.003010 0.013851 0.000000 0.000000 0.000000
# 4 0.000000 0.000000 0.000000-10.309429 0.000000 0.000000
# 5 0.000000 0.000000 0.000000 0.000000 0.044126 0.000000
# 6 0.000000 0.000000 0.000000 0.000000 0.000000 0.043493
#
#
# Mechanical properties :
#
#
# Convention : Reuss Voigt Hill
#
# Bulk Modulus (GPa) = 25.18529 29.47006 27.32767
# Shear Modulus (GPa) = -0.49248 22.83795 11.17274
#
# Velocity S-wave (km/s) = -0.50298 3.42517 2.39570
# Velocity P-wave (km/s) = 3.54969 5.54806 4.65732
#
# Compressibility (1/GPa) = 0.03970571
#
# Stress axis : x y z
#
# Youngs Moduli (GPa) = 85.99116 44.82294 72.19592
#
# Poissons Ratio (x) = 0.25722 0.09486
# Poissons Ratio (y) = 0.49347 -0.21733
# Poissons Ratio (z) = 0.11299 -0.13493
#
# Static dielectric constant tensor:
#      x y z
#    x 1.693670 0.000000 0.000000 
#    y 0.000000 1.677110 0.000000 
#    z 0.000000 0.000000 1.692490 
# 
# From -- ./inp_files/5986.got.cif
#   From: 2010.05.17/outbox.cif.g08.bks.cpg/sg19_3_cif.got.tgz:5986.got - 2010.06.03 22:46:19.
