data_PCOD9314154
_publ_section_title
;
Structure prediction by ZEFSAII (Michael W. Deem and Ramdas Pophale) SiO2 
 PCOD9314154
Probable space group: P 21 21 21
;
_chemical_formula_sum "Si O2"
_cell_formula_units_Z 32
_cell_length_a 5.154547
_cell_length_b 11.004826
_cell_length_c 21.969578
_cell_angle_alpha 90.000000
_cell_angle_beta 90.000000
_cell_angle_gamma 90.000000
_cell_volume 1246.221958
_symmetry_space_group_name_H-M "P 21 21 21"
_symmetry_group_IT_number 19
_symmetry_cell_setting 'orthorhombic'
loop_
_space_group_symop_operation_xyz
x,y,z
1/2-x,-y,1/2+z
1/2+x,1/2-y,-z
-x,1/2+y,1/2-z
loop_
_atom_site_type_symbol
_atom_site_label
_atom_site_fract_x
_atom_site_fract_y
_atom_site_fract_z
Si Si1 0.438201 0.041908 0.869306
Si Si2 0.152169 0.790259 0.748692
Si Si3 0.565810 0.184798 0.981443
Si Si4 0.864288 0.982143 0.041116
Si Si5 0.867102 0.057574 0.257537
Si Si6 0.564084 0.860709 0.141775
Si Si7 0.940260 0.899325 0.910415
Si Si8 0.673770 0.415925 0.860302
O O1 0.532202 0.053671 0.799414
O O2 0.422126 0.838826 0.776691
O O3 0.658962 0.951159 0.894234
O O4 0.458377 0.156264 0.914111
O O5 0.157367 0.983322 0.878375
O O6 0.192758 0.802889 0.675610
O O7 0.917591 0.885523 0.762329
O O8 0.615973 0.056449 0.016249
O O9 0.355137 0.260730 0.018604
O O10 0.794829 0.889171 0.094496
O O11 0.045207 0.082208 0.073822
O O12 0.982891 0.916088 0.982654
O O13 0.598898 0.831108 0.213659
O O14 0.945305 0.046865 0.187201
O O15 0.452748 0.736787 0.113401
O O16 0.377379 0.975345 0.139019
#
# Coordination Sequence:
#
# PCOD9314154 Si02
#       8
#     4   4   4   4   4   4   4   4
#     4  11  21  46  77 103 142 192 253 305 360 460
#     4  10  23  45  71  96 148 192 242 296 378 430
#     4  11  26  49  75 102 147 199 245 307 376 447
#     4  11  28  44  75 112 155 190 254 316 373 461
#     4  10  20  46  69 101 139 194 234 309 358 436
#     4  12  25  44  76 111 152 197 247 311 384 457
#     4  11  25  41  73 112 153 192 239 307 391 441
#     4  10  26  43  74 103 156 188 250 309 366 452
#
# _framework density 25.677607999999999
#
# number of rings (size 3 to 8) (size 9 to 14) (size 15 to 20)
#    0.750    0.500    2.500    2.250   10.500    0.000 
#    0.000    5.000    0.000    0.000    0.000    0.000 
#    0.000    0.000    0.000    0.000    0.000    0.000 
#
# Total GULP energy -178871.706322 kJ/mol
# GULP energy per Si atom -5589.740823 kJ/mol
# Density = 2.561916 g / cm^3
# Si number density = 25.677608 Si / 1000 Ang^3
#
#
#
# Elastic Constant Matrix: (Units=GPa)
#
#
# Indices 1 2 3 4 5 6 
#
# 1 95.3552 4.5529 25.5425 0.0000 0.0000 0.0000
# 2 4.5529 50.3191 1.1297 0.0000 0.0000 0.0000
# 3 25.5425 1.1297 134.5554 0.0000 0.0000 0.0000
# 4 0.0000 0.0000 0.0000 48.6998 0.0000 0.0000
# 5 0.0000 0.0000 0.0000 0.0000 33.7957 0.0000
# 6 0.0000 0.0000 0.0000 0.0000 0.0000 41.6848
#
#
#
# Elastic Compliance Matrix: (Units=1/GPa)
#
#
# Indices 1 2 3 4 5 6 
#
# 1 0.011095 -0.000957 -0.002098 0.000000 0.000000 0.000000
# 2 -0.000957 0.019959 0.000014 0.000000 0.000000 0.000000
# 3 -0.002098 0.000014 0.007830 0.000000 0.000000 0.000000
# 4 0.000000 0.000000 0.000000 0.020534 0.000000 0.000000
# 5 0.000000 0.000000 0.000000 0.000000 0.029590 0.000000
# 6 0.000000 0.000000 0.000000 0.000000 0.000000 0.023990
#
#
# Mechanical properties :
#
#
# Convention : Reuss Voigt Hill
#
# Bulk Modulus (GPa) = 30.48532 38.07554 34.28043
# Shear Modulus (GPa) = 38.45765 41.43637 39.94701
#
# Velocity S-wave (km/s) = 3.87423 4.02147 3.94853
# Velocity P-wave (km/s) = 5.64898 6.03518 5.84527
#
# Compressibility (1/GPa) = 0.03280267
#
# Stress axis : x y z
#
# Youngs Moduli (GPa) = 90.13244 50.10166 127.71323
#
# Poissons Ratio (x) = 0.04793 0.26795
# Poissons Ratio (y) = 0.08623 -0.00179
# Poissons Ratio (z) = 0.18910 -0.00070
#
# Static dielectric constant tensor:
#      x y z
#    x 1.977360 0.000000 0.000000 
#    y 0.000000 2.046500 0.000000 
#    z 0.000000 0.000000 2.133020 
# 
# From -- ./inp_files/1985.got.cif
#   From: 2010.05.17/outbox.cif.g08.bks.cpg/sg19_1_cif.got.tgz:1985.got - 2010.06.03 22:46:19.
