data_PCOD9314146
_publ_section_title
;
Structure prediction by ZEFSAII (Michael W. Deem and Ramdas Pophale) SiO2 
 PCOD9314146
Probable space group: P 21 21 21
;
_chemical_formula_sum "Si O2"
_cell_formula_units_Z 24
_cell_length_a 9.912617
_cell_length_b 4.720286
_cell_length_c 14.858306
_cell_angle_alpha 90.000000
_cell_angle_beta 90.000000
_cell_angle_gamma 90.000000
_cell_volume 695.225892
_symmetry_space_group_name_H-M "P 21 21 21"
_symmetry_group_IT_number 19
_symmetry_cell_setting 'orthorhombic'
loop_
_space_group_symop_operation_xyz
x,y,z
1/2-x,-y,1/2+z
1/2+x,1/2-y,-z
-x,1/2+y,1/2-z
loop_
_atom_site_type_symbol
_atom_site_label
_atom_site_fract_x
_atom_site_fract_y
_atom_site_fract_z
Si Si1 0.120896 0.703187 0.031408
Si Si2 0.187533 0.766852 0.514041
Si Si3 0.445456 0.678463 0.129045
Si Si4 0.014768 0.012508 0.327393
Si Si5 0.305108 0.972546 0.268340
Si Si6 0.153206 0.504738 0.359500
O O1 0.254192 0.532864 0.968286
O O2 0.009562 0.655737 0.953186
O O3 0.986060 0.823333 0.107024
O O4 0.196804 0.003884 0.016345
O O5 0.099640 0.622331 0.590453
O O6 0.104971 0.816662 0.417602
O O7 0.369483 0.526797 0.615395
O O8 0.326579 0.871538 0.167578
O O9 0.560706 0.623138 0.200419
O O10 0.180734 0.174052 0.301535
O O11 0.047393 0.689831 0.270630
O O12 0.284764 0.672239 0.316341
#
# Coordination Sequence:
#
# PCOD9314146 Si02
#       6
#     4   4   4   4   4   4
#     4  12  26  46  79 111 155 210 271 318 390 472
#     4  12  26  45  72 120 150 207 265 323 388 482
#     4  12  27  46  80 120 166 198 268 338 399 478
#     4  10  22  45  74 105 149 204 254 317 384 469
#     4  10  27  44  73 121 151 205 243 340 407 450
#     4  10  20  44  66 107 149 192 249 308 392 447
#
# _framework density 34.521155
#
# number of rings (size 3 to 8) (size 9 to 14) (size 15 to 20)
#    1.000    0.000    3.333    3.000    4.667    1.333 
#    0.000    0.000    3.667    0.000    0.000    0.000 
#    0.000    0.000    0.000    0.000    0.000    0.000 
#
# Total GULP energy -134225.821974 kJ/mol
# GULP energy per Si atom -5592.742582 kJ/mol
# Density = 3.444258 g / cm^3
# Si number density = 34.521155 Si / 1000 Ang^3
#
#
#
# Elastic Constant Matrix: (Units=GPa)
#
#
# Indices 1 2 3 4 5 6 
#
# 1 214.5503 82.7444 103.1304 0.0000 0.0000 0.0000
# 2 82.7444 348.2446 102.3378 0.0000 0.0000 0.0000
# 3 103.1304 102.3378 227.4689 0.0000 0.0000 0.0000
# 4 0.0000 0.0000 0.0000 94.1878 0.0000 0.0000
# 5 0.0000 0.0000 0.0000 0.0000 88.5975 0.0000
# 6 0.0000 0.0000 0.0000 0.0000 0.0000 120.7832
#
#
#
# Elastic Compliance Matrix: (Units=1/GPa)
#
#
# Indices 1 2 3 4 5 6 
#
# 1 0.006119 -0.000736 -0.002443 0.000000 0.000000 0.000000
# 2 -0.000736 0.003398 -0.001195 0.000000 0.000000 0.000000
# 3 -0.002443 -0.001195 0.006041 0.000000 0.000000 0.000000
# 4 0.000000 0.000000 0.000000 0.010617 0.000000 0.000000
# 5 0.000000 0.000000 0.000000 0.000000 0.011287 0.000000
# 6 0.000000 0.000000 0.000000 0.000000 0.000000 0.008279
#
#
# Mechanical properties :
#
#
# Convention : Reuss Voigt Hill
#
# Bulk Modulus (GPa) = 146.84090 151.85436 149.34763
# Shear Modulus (GPa) = 88.09068 94.18378 91.13723
#
# Velocity S-wave (km/s) = 5.05700 5.22897 5.14371
# Velocity P-wave (km/s) = 8.75937 8.97443 8.86755
#
# Compressibility (1/GPa) = 0.00681009
#
# Stress axis : x y z
#
# Youngs Moduli (GPa) = 163.42140 294.32990 165.52212
#
# Poissons Ratio (x) = 0.21661 0.40441
# Poissons Ratio (y) = 0.12027 0.19778
# Poissons Ratio (z) = 0.39927 0.35169
#
# Static dielectric constant tensor:
#      x y z
#    x 3.262240 0.000000 0.000000 
#    y 0.000000 2.881160 0.000000 
#    z 0.000000 0.000000 3.627800 
# 
# From -- ./inp_files/6546.got.cif
#   From: 2010.05.17/outbox.cif.g08.bks.cpg/sg19_4_cif.got.tgz:6546.got - 2010.06.03 22:46:19.
