data_PCOD9314507
_publ_section_title
;
Structure prediction by ZEFSAII (Michael W. Deem and Ramdas Pophale) SiO2 
 PCOD9314507
Probable space group: P 21 21 21
;
_chemical_formula_sum "Si O2"
_cell_formula_units_Z 28
_cell_length_a 10.672370
_cell_length_b 12.666073
_cell_length_c 7.776059
_cell_angle_alpha 90.000000
_cell_angle_beta 90.000000
_cell_angle_gamma 90.000000
_cell_volume 1051.144464
_symmetry_space_group_name_H-M "P 21 21 21"
_symmetry_group_IT_number 19
_symmetry_cell_setting 'orthorhombic'
loop_
_space_group_symop_operation_xyz
x,y,z
1/2-x,-y,1/2+z
1/2+x,1/2-y,-z
-x,1/2+y,1/2-z
loop_
_atom_site_type_symbol
_atom_site_label
_atom_site_fract_x
_atom_site_fract_y
_atom_site_fract_z
Si Si1 0.429332 0.407420 0.370345
Si Si2 0.116069 0.823125 0.986865
Si Si3 0.005162 0.531293 0.412348
Si Si4 0.062887 0.271600 0.011910
Si Si5 0.801784 0.316136 0.121479
Si Si6 0.838816 0.539486 0.069578
Si Si7 0.700888 0.036643 0.827054
O O1 0.432188 0.281730 0.396508
O O2 0.570099 0.447550 0.405284
O O3 0.347644 0.439157 0.204367
O O4 0.348772 0.459993 0.523838
O O5 0.138930 0.801257 0.189985
O O6 0.029732 0.927017 0.978744
O O7 0.251061 0.859279 0.916250
O O8 0.972050 0.650098 0.459249
O O9 0.923035 0.522202 0.235987
O O10 0.145335 0.519265 0.342072
O O11 0.126190 0.351715 0.150246
O O12 0.920521 0.312032 0.989791
O O13 0.183259 0.261358 0.887451
O O14 0.755942 0.434266 0.074905
#
# Coordination Sequence:
#
# PCOD9314507 Si02
#       7
#     4   4   4   4   4   4   4
#     4  11  25  42  68  96 139 174 226 287 339 413
#     4  11  22  41  66  95 130 174 227 279 339 396
#     4  10  22  40  68  91 124 181 223 272 333 419
#     4  12  23  43  69  97 135 178 234 269 352 398
#     4  11  24  40  69  99 136 183 224 287 331 414
#     4  10  21  43  62  96 130 171 226 276 336 394
#     4  11  25  43  68  98 132 179 224 280 348 400
#
# _framework density 26.637632
#
# number of rings (size 3 to 8) (size 9 to 14) (size 15 to 20)
#    0.000    1.143    5.714    2.571    6.000    1.143 
#    0.000    0.000    0.000    0.000    0.000    0.000 
#    0.000    0.000    0.000    0.000    0.000    0.000 
#
# Total GULP energy -156433.747591 kJ/mol
# GULP energy per Si atom -5586.919557 kJ/mol
# Density = 2.657700 g / cm^3
# Si number density = 26.637632 Si / 1000 Ang^3
#
#
#
# Elastic Constant Matrix: (Units=GPa)
#
#
# Indices 1 2 3 4 5 6 
#
# 1 59.5155 24.9262 4.1750 0.0000 0.0000 0.0000
# 2 24.9262 146.9834 29.3037 0.0000 0.0000 0.0000
# 3 4.1750 29.3037 52.6632 0.0000 0.0000 0.0000
# 4 0.0000 0.0000 0.0000 32.8932 0.0000 0.0000
# 5 0.0000 0.0000 0.0000 0.0000 32.8402 0.0000
# 6 0.0000 0.0000 0.0000 0.0000 0.0000 48.8431
#
#
#
# Elastic Compliance Matrix: (Units=1/GPa)
#
#
# Indices 1 2 3 4 5 6 
#
# 1 0.018091 -0.003129 0.000307 0.000000 0.000000 0.000000
# 2 -0.003129 0.008194 -0.004311 0.000000 0.000000 0.000000
# 3 0.000307 -0.004311 0.021363 0.000000 0.000000 0.000000
# 4 0.000000 0.000000 0.000000 0.030401 0.000000 0.000000
# 5 0.000000 0.000000 0.000000 0.000000 0.030450 0.000000
# 6 0.000000 0.000000 0.000000 0.000000 0.000000 0.020474
#
#
# Mechanical properties :
#
#
# Convention : Reuss Voigt Hill
#
# Bulk Modulus (GPa) = 29.95686 41.77467 35.86576
# Shear Modulus (GPa) = 32.39018 36.29912 34.34465
#
# Velocity S-wave (km/s) = 3.49084 3.69548 3.59462
# Velocity P-wave (km/s) = 5.24580 5.82455 5.54274
#
# Compressibility (1/GPa) = 0.03338134
#
# Stress axis : x y z
#
# Youngs Moduli (GPa) = 55.27495 122.04542 46.80957
#
# Poissons Ratio (x) = 0.38191 -0.01437
# Poissons Ratio (y) = 0.17297 0.20180
# Poissons Ratio (z) = -0.01697 0.52616
#
# Static dielectric constant tensor:
#      x y z
#    x 2.149280 0.000000 0.000000 
#    y 0.000000 2.048590 0.000000 
#    z 0.000000 0.000000 2.188140 
# 
# From -- ./inp_files/3471.got.cif
#   From: 2010.05.17/outbox.cif.g08.bks.cpg/sg19_2_cif.got.tgz:3471.got - 2010.06.03 22:46:19.
