data_PCOD9314994
_publ_section_title
;
Structure prediction by ZEFSAII (Michael W. Deem and Ramdas Pophale) SiO2 
 PCOD9314994
Probable space group: P 21 21 21
;
_chemical_formula_sum "Si O2"
_cell_formula_units_Z 24
_cell_length_a 16.226984
_cell_length_b 5.035415
_cell_length_c 13.440530
_cell_angle_alpha 90.000000
_cell_angle_beta 90.000000
_cell_angle_gamma 90.000000
_cell_volume 1098.220312
_symmetry_space_group_name_H-M "P 21 21 21"
_symmetry_group_IT_number 19
_symmetry_cell_setting 'orthorhombic'
loop_
_space_group_symop_operation_xyz
x,y,z
1/2-x,-y,1/2+z
1/2+x,1/2-y,-z
-x,1/2+y,1/2-z
loop_
_atom_site_type_symbol
_atom_site_label
_atom_site_fract_x
_atom_site_fract_y
_atom_site_fract_z
Si Si1 0.064505 0.511509 0.123797
Si Si2 0.723830 0.575221 0.591349
Si Si3 0.904033 0.775150 0.175117
Si Si4 0.079279 0.696162 0.492774
Si Si5 0.009981 0.306349 0.809624
Si Si6 0.338955 0.425563 0.423464
O O1 0.112238 0.403059 0.218682
O O2 0.002195 0.727380 0.169367
O O3 0.125704 0.586975 0.035721
O O4 0.997080 0.318572 0.070586
O O5 0.654850 0.481965 0.670631
O O6 0.659651 0.614905 0.499850
O O7 0.771728 0.848816 0.597552
O O8 0.793562 0.352025 0.592480
O O9 0.891730 0.946904 0.074138
O O10 0.042894 0.669366 0.602287
O O11 0.084773 0.477240 0.856436
O O12 0.962644 0.548377 0.753956
#
# Coordination Sequence:
#
# PCOD9314994 Si02
#       6
#     4   4   4   4   4   4
#     4  10  23  38  74  99 133 174 235 273 350 407
#     4  11  24  45  63  98 146 173 213 282 352 393
#     4  11  21  43  70 106 133 179 222 292 346 409
#     4  10  23  44  69  97 140 174 228 290 336 401
#     4  11  26  46  72  95 130 192 245 273 323 405
#     4  11  25  46  66  99 140 178 221 286 333 407
#
# _framework density 21.853539999999999
#
# number of rings (size 3 to 8) (size 9 to 14) (size 15 to 20)
#    0.000    1.333    3.333    1.000   11.667    0.000 
#    9.000    0.000    0.000    0.000    0.000    0.000 
#    0.000    0.000    0.000    0.000    0.000    0.000 
#
# Total GULP energy -133660.214554 kJ/mol
# GULP energy per Si atom -5569.175606 kJ/mol
# Density = 2.180380 g / cm^3
# Si number density = 21.853540 Si / 1000 Ang^3
#
#
#
# Elastic Constant Matrix: (Units=GPa)
#
#
# Indices 1 2 3 4 5 6 
#
# 1 56.1593 -15.9162 3.1000 0.0000 0.0000 0.0000
# 2 -15.9162 38.5584 -5.5433 0.0000 0.0000 0.0000
# 3 3.1000 -5.5433 75.2527 0.0000 0.0000 0.0000
# 4 0.0000 0.0000 0.0000 1.3548 0.0000 0.0000
# 5 0.0000 0.0000 0.0000 0.0000 6.6698 0.0000
# 6 0.0000 0.0000 0.0000 0.0000 0.0000 50.0651
#
#
#
# Elastic Compliance Matrix: (Units=1/GPa)
#
#
# Indices 1 2 3 4 5 6 
#
# 1 0.020169 0.008294 -0.000220 0.000000 0.000000 0.000000
# 2 0.008294 0.029623 0.001840 0.000000 0.000000 0.000000
# 3 -0.000220 0.001840 0.013433 0.000000 0.000000 0.000000
# 4 0.000000 0.000000 0.000000 0.738102 0.000000 0.000000
# 5 0.000000 0.000000 0.000000 0.000000 0.149930 0.000000
# 6 0.000000 0.000000 0.000000 0.000000 0.000000 0.019974
#
#
# Mechanical properties :
#
#
# Convention : Reuss Voigt Hill
#
# Bulk Modulus (GPa) = 12.04036 14.80571 13.42303
# Shear Modulus (GPa) = 5.10680 24.17326 14.64003
#
# Velocity S-wave (km/s) = 1.53033 3.32949 2.59108
# Velocity P-wave (km/s) = 2.94008 4.64439 3.88680
#
# Compressibility (1/GPa) = 0.08305399
#
# Stress axis : x y z
#
# Youngs Moduli (GPa) = 49.58050 33.75776 74.44244
#
# Poissons Ratio (x) = -0.27998 0.01637
# Poissons Ratio (y) = -0.41121 -0.13701
# Poissons Ratio (z) = 0.01090 -0.06213
#
# Static dielectric constant tensor:
#      x y z
#    x 1.818070 0.000000 0.000000 
#    y 0.000000 1.899050 0.000000 
#    z 0.000000 0.000000 1.882680 
# 
# From -- ./inp_files/1414.got.cif
#   From: 2010.05.17/outbox.cif.g08.bks.cpg/sg19_1_cif.got.tgz:1414.got - 2010.06.03 22:46:19.
