data_PCOD9314347
_publ_section_title
;
Structure prediction by ZEFSAII (Michael W. Deem and Ramdas Pophale) SiO2 
 PCOD9314347
Probable space group: P 21 21 21
;
_chemical_formula_sum "Si O2"
_cell_formula_units_Z 32
_cell_length_a 11.838604
_cell_length_b 13.359830
_cell_length_c 7.503836
_cell_angle_alpha 90.000000
_cell_angle_beta 90.000000
_cell_angle_gamma 90.000000
_cell_volume 1186.819735
_symmetry_space_group_name_H-M "P 21 21 21"
_symmetry_group_IT_number 19
_symmetry_cell_setting 'orthorhombic'
loop_
_space_group_symop_operation_xyz
x,y,z
1/2-x,-y,1/2+z
1/2+x,1/2-y,-z
-x,1/2+y,1/2-z
loop_
_atom_site_type_symbol
_atom_site_label
_atom_site_fract_x
_atom_site_fract_y
_atom_site_fract_z
Si Si1 0.484235 0.233782 0.994683
Si Si2 0.268385 0.369977 0.044153
Si Si3 0.788416 0.463206 0.562931
Si Si4 0.189379 0.401847 0.648055
Si Si5 0.147322 0.206721 0.243384
Si Si6 0.937160 0.100341 0.392779
Si Si7 0.997377 0.913320 0.151440
Si Si8 0.926313 0.464733 0.871075
O O1 0.594247 0.302421 0.957720
O O2 0.378224 0.306197 0.994589
O O3 0.235642 0.128105 0.322765
O O4 0.462927 0.150652 0.145589
O O5 0.293194 0.479976 0.115251
O O6 0.212352 0.310034 0.208378
O O7 0.194426 0.377736 0.861104
O O8 0.873020 0.427763 0.409449
O O9 0.876446 0.513446 0.695489
O O10 0.681150 0.526416 0.502777
O O11 0.311930 0.357019 0.590123
O O12 0.084052 0.380121 0.514230
O O13 0.036855 0.179689 0.362300
O O14 0.993716 0.340234 0.177605
O O15 0.973877 0.034395 0.560735
O O16 0.948611 0.017923 0.232438
#
# Coordination Sequence:
#
# PCOD9314347 Si02
#       8
#     4   4   4   4   4   4   4   4
#     4  11  23  45  69 103 147 192 244 320 375 450
#     4  12  26  44  78 102 151 201 259 311 391 463
#     4  11  23  42  71 107 144 191 252 306 390 457
#     4  12  25  47  71 108 145 206 243 316 391 465
#     4  11  23  43  73 104 141 196 246 316 379 452
#     4  10  22  46  71 104 153 191 252 312 387 449
#     4  11  25  42  70 107 149 193 248 313 378 465
#     4  10  21  39  71 101 142 192 242 314 381 453
#
# _framework density 26.962813000000001
#
# number of rings (size 3 to 8) (size 9 to 14) (size 15 to 20)
#    0.000    1.000    3.750    3.750    3.500    1.000 
#    0.000    0.000    0.000    0.000    0.000    0.000 
#    0.000    0.000    0.000    0.000    0.000    0.000 
#
# Total GULP energy -178754.768395 kJ/mol
# GULP energy per Si atom -5586.086512 kJ/mol
# Density = 2.690144 g / cm^3
# Si number density = 26.962813 Si / 1000 Ang^3
#
#
#
# Elastic Constant Matrix: (Units=GPa)
#
#
# Indices 1 2 3 4 5 6 
#
# 1 146.1513 17.2259 39.2452 0.0000 0.0000 0.0000
# 2 17.2259 92.0416 32.5723 0.0000 0.0000 0.0000
# 3 39.2452 32.5723 117.4667 0.0000 0.0000 0.0000
# 4 0.0000 0.0000 0.0000 37.2509 0.0000 0.0000
# 5 0.0000 0.0000 0.0000 0.0000 60.2336 0.0000
# 6 0.0000 0.0000 0.0000 0.0000 0.0000 40.2078
#
#
#
# Elastic Compliance Matrix: (Units=1/GPa)
#
#
# Indices 1 2 3 4 5 6 
#
# 1 0.007544 -0.000577 -0.002361 0.000000 0.000000 0.000000
# 2 -0.000577 0.012091 -0.003160 0.000000 0.000000 0.000000
# 3 -0.002361 -0.003160 0.010178 0.000000 0.000000 0.000000
# 4 0.000000 0.000000 0.000000 0.026845 0.000000 0.000000
# 5 0.000000 0.000000 0.000000 0.000000 0.016602 0.000000
# 6 0.000000 0.000000 0.000000 0.000000 0.000000 0.024871
#
#
# Mechanical properties :
#
#
# Convention : Reuss Voigt Hill
#
# Bulk Modulus (GPa) = 56.75834 59.30517 58.03176
# Shear Modulus (GPa) = 43.03007 45.31288 44.17147
#
# Velocity S-wave (km/s) = 3.99921 4.10392 4.05190
# Velocity P-wave (km/s) = 6.51316 6.67077 6.59243
#
# Compressibility (1/GPa) = 0.01761856
#
# Stress axis : x y z
#
# Youngs Moduli (GPa) = 132.55483 82.70717 98.25146
#
# Poissons Ratio (x) = 0.04768 0.23193
# Poissons Ratio (y) = 0.07642 0.31048
# Poissons Ratio (z) = 0.31291 0.26136
#
# Static dielectric constant tensor:
#      x y z
#    x 2.186760 0.000000 0.000000 
#    y 0.000000 2.243800 0.000000 
#    z 0.000000 0.000000 2.233630 
# 
# From -- ./inp_files/3635.got.cif
#   From: 2010.05.17/outbox.cif.g08.bks.cpg/sg19_2_cif.got.tgz:3635.got - 2010.06.03 22:46:19.
