data_PCOD9314041
_publ_section_title
;
Structure prediction by ZEFSAII (Michael W. Deem and Ramdas Pophale) SiO2 
 PCOD9314041
Probable space group: P 21 21 21
;
_chemical_formula_sum "Si O2"
_cell_formula_units_Z 32
_cell_length_a 11.777445
_cell_length_b 14.390253
_cell_length_c 7.806863
_cell_angle_alpha 90.000000
_cell_angle_beta 90.000000
_cell_angle_gamma 90.000000
_cell_volume 1323.110367
_symmetry_space_group_name_H-M "P 21 21 21"
_symmetry_group_IT_number 19
_symmetry_cell_setting 'orthorhombic'
loop_
_space_group_symop_operation_xyz
x,y,z
1/2-x,-y,1/2+z
1/2+x,1/2-y,-z
-x,1/2+y,1/2-z
loop_
_atom_site_type_symbol
_atom_site_label
_atom_site_fract_x
_atom_site_fract_y
_atom_site_fract_z
Si Si1 0.956852 0.851680 0.477617
Si Si2 0.608825 0.974035 0.172936
Si Si3 0.198558 0.922097 0.508917
Si Si4 0.687305 0.213044 0.435218
Si Si5 0.594701 0.867649 0.807023
Si Si6 0.636833 0.050051 0.655816
Si Si7 0.849999 0.699285 0.281836
Si Si8 0.622821 0.402988 0.292467
O O1 0.944696 0.901635 0.292485
O O2 0.879784 0.761560 0.448539
O O3 0.091529 0.851000 0.509117
O O4 0.904768 0.918383 0.621459
O O5 0.735027 0.951198 0.233917
O O6 0.499707 0.937357 0.274336
O O7 0.600012 0.922617 0.987367
O O8 0.281711 0.889783 0.660167
O O9 0.275082 0.916153 0.340587
O O10 0.150883 0.024671 0.552288
O O11 0.799063 0.200195 0.322087
O O12 0.635833 0.111752 0.484457
O O13 0.715774 0.249415 0.628434
O O14 0.615909 0.296124 0.352125
O O15 0.474997 0.819506 0.789576
O O16 0.606386 0.942106 0.654385
#
# Coordination Sequence:
#
# PCOD9314041 Si02
#       8
#     4   4   4   4   4   4   4   4
#     4   9  21  40  61  91 136 168 226 284 343 412
#     4   9  19  39  61  91 134 173 222 295 334 421
#     4  11  25  42  69  99 147 188 229 307 353 422
#     4  10  21  41  71 101 132 185 237 292 352 434
#     4  10  20  40  65  97 136 172 229 294 347 422
#     4   9  20  39  67  95 130 177 224 284 353 404
#     4  11  22  43  66 101 136 187 232 289 359 426
#     4  11  22  42  64  99 141 182 241 289 365 417
#
# _framework density 24.185434999999998
#
# number of rings (size 3 to 8) (size 9 to 14) (size 15 to 20)
#    0.000    2.000    1.250    1.500    3.500    2.000 
#   13.500    2.500    0.000    0.000    0.000    0.000 
#    0.000    0.000    0.000    0.000    0.000    0.000 
#
# Total GULP energy -178828.203854 kJ/mol
# GULP energy per Si atom -5588.381370 kJ/mol
# Density = 2.413039 g / cm^3
# Si number density = 24.185435 Si / 1000 Ang^3
#
#
#
# Elastic Constant Matrix: (Units=GPa)
#
#
# Indices 1 2 3 4 5 6 
#
# 1 76.8819 26.8801 23.5858 0.0000 0.0000 0.0000
# 2 26.8801 98.7277 17.8046 0.0000 0.0000 0.0000
# 3 23.5858 17.8046 76.1040 0.0000 0.0000 0.0000
# 4 0.0000 0.0000 0.0000 16.1021 0.0000 0.0000
# 5 0.0000 0.0000 0.0000 0.0000 26.8766 0.0000
# 6 0.0000 0.0000 0.0000 0.0000 0.0000 33.7080
#
#
#
# Elastic Compliance Matrix: (Units=1/GPa)
#
#
# Indices 1 2 3 4 5 6 
#
# 1 0.015445 -0.003489 -0.003970 0.000000 0.000000 0.000000
# 2 -0.003489 0.011363 -0.001577 0.000000 0.000000 0.000000
# 3 -0.003970 -0.001577 0.014739 0.000000 0.000000 0.000000
# 4 0.000000 0.000000 0.000000 0.062104 0.000000 0.000000
# 5 0.000000 0.000000 0.000000 0.000000 0.037207 0.000000
# 6 0.000000 0.000000 0.000000 0.000000 0.000000 0.029667
#
#
# Mechanical properties :
#
#
# Convention : Reuss Voigt Hill
#
# Bulk Modulus (GPa) = 42.59963 43.13942 42.86952
# Shear Modulus (GPa) = 25.45532 27.56688 26.51110
#
# Velocity S-wave (km/s) = 3.24775 3.37977 3.31442
# Velocity P-wave (km/s) = 5.63168 5.75380 5.69307
#
# Compressibility (1/GPa) = 0.02347438
#
# Stress axis : x y z
#
# Youngs Moduli (GPa) = 64.74650 88.00302 67.84558
#
# Poissons Ratio (x) = 0.30705 0.26937
# Poissons Ratio (y) = 0.22591 0.10700
# Poissons Ratio (z) = 0.25706 0.13879
#
# Static dielectric constant tensor:
#      x y z
#    x 1.850190 0.000000 0.000000 
#    y 0.000000 1.984130 0.000000 
#    z 0.000000 0.000000 1.960900 
# 
# From -- ./inp_files/3628.got.cif
#   From: 2010.05.17/outbox.cif.g08.bks.cpg/sg19_2_cif.got.tgz:3628.got - 2010.06.03 22:46:19.
