data_PCOD9314381
_publ_section_title
;
Structure prediction by ZEFSAII (Michael W. Deem and Ramdas Pophale) SiO2 
 PCOD9314381
Probable space group: P 21 21 21
;
_chemical_formula_sum "Si O2"
_cell_formula_units_Z 28
_cell_length_a 8.969357
_cell_length_b 5.305168
_cell_length_c 25.401857
_cell_angle_alpha 90.000000
_cell_angle_beta 90.000000
_cell_angle_gamma 90.000000
_cell_volume 1208.720585
_symmetry_space_group_name_H-M "P 21 21 21"
_symmetry_group_IT_number 19
_symmetry_cell_setting 'orthorhombic'
loop_
_space_group_symop_operation_xyz
x,y,z
1/2-x,-y,1/2+z
1/2+x,1/2-y,-z
-x,1/2+y,1/2-z
loop_
_atom_site_type_symbol
_atom_site_label
_atom_site_fract_x
_atom_site_fract_y
_atom_site_fract_z
Si Si1 0.964275 0.003526 0.619234
Si Si2 0.599882 0.447387 0.744148
Si Si3 0.741179 0.745336 0.545079
Si Si4 0.724147 0.374789 0.637705
Si Si5 0.473216 0.632984 0.942091
Si Si6 0.202133 0.128590 0.539864
Si Si7 0.568549 0.712452 0.276979
O O1 0.858589 0.191305 0.651452
O O2 0.108939 0.120026 0.592659
O O3 0.015200 0.797618 0.661701
O O4 0.864206 0.938014 0.567107
O O5 0.505039 0.695290 0.761546
O O6 0.666077 0.526038 0.686996
O O7 0.753169 0.357000 0.773901
O O8 0.775153 0.526678 0.586674
O O9 0.740286 0.644392 0.486196
O O10 0.573693 0.840442 0.556279
O O11 0.588316 0.217504 0.613873
O O12 0.636652 0.733482 0.948859
O O13 0.382586 0.730100 0.993135
O O14 0.518833 0.983180 0.253231
#
# Coordination Sequence:
#
# PCOD9314381 Si02
#       7
#     4   4   4   4   4   4   4
#     4  11  24  41  71  99 137 189 241 301 369 448
#     4  12  28  47  74 108 151 192 246 319 386 447
#     4  10  21  40  66  93 134 182 227 290 365 433
#     4  10  23  44  65  94 136 184 228 299 368 435
#     4  10  22  38  63  90 136 173 226 285 352 436
#     4  11  22  40  61 101 133 179 232 288 361 438
#     4  12  26  50  78 111 149 201 260 314 375 459
#
# _framework density 23.164988999999998
#
# number of rings (size 3 to 8) (size 9 to 14) (size 15 to 20)
#    0.000    1.143    1.429    5.143    6.000    1.143 
#    0.000    0.000    0.000    0.000    0.000    0.000 
#    0.000    0.000    0.000    0.000    0.000    0.000 
#
# Total GULP energy -156090.536306 kJ/mol
# GULP energy per Si atom -5574.662011 kJ/mol
# Density = 2.311226 g / cm^3
# Si number density = 23.164989 Si / 1000 Ang^3
#
#
#
# Elastic Constant Matrix: (Units=GPa)
#
#
# Indices 1 2 3 4 5 6 
#
# 1 123.3367 9.8094 15.4100 0.0000 0.0000 0.0000
# 2 9.8094 59.8174 -10.2316 0.0000 0.0000 0.0000
# 3 15.4100 -10.2316 74.2895 0.0000 0.0000 0.0000
# 4 0.0000 0.0000 0.0000 29.0623 0.0000 0.0000
# 5 0.0000 0.0000 0.0000 0.0000 26.1904 0.0000
# 6 0.0000 0.0000 0.0000 0.0000 0.0000 17.3089
#
#
#
# Elastic Compliance Matrix: (Units=1/GPa)
#
#
# Indices 1 2 3 4 5 6 
#
# 1 0.008496 -0.001736 -0.002001 0.000000 0.000000 0.000000
# 2 -0.001736 0.017475 0.002767 0.000000 0.000000 0.000000
# 3 -0.002001 0.002767 0.014257 0.000000 0.000000 0.000000
# 4 0.000000 0.000000 0.000000 0.034409 0.000000 0.000000
# 5 0.000000 0.000000 0.000000 0.000000 0.038182 0.000000
# 6 0.000000 0.000000 0.000000 0.000000 0.000000 0.057774
#
#
# Mechanical properties :
#
#
# Convention : Reuss Voigt Hill
#
# Bulk Modulus (GPa) = 26.11769 31.93547 29.02658
# Shear Modulus (GPa) = 26.98385 30.67603 28.82994
#
# Velocity S-wave (km/s) = 3.41670 3.64296 3.53164
# Velocity P-wave (km/s) = 5.18307 5.61346 5.40255
#
# Compressibility (1/GPa) = 0.03828822
#
# Stress axis : x y z
#
# Youngs Moduli (GPa) = 117.70275 57.22323 70.14070
#
# Poissons Ratio (x) = 0.09931 0.14038
# Poissons Ratio (y) = 0.20428 -0.19407
# Poissons Ratio (z) = 0.23557 -0.15833
#
# Static dielectric constant tensor:
#      x y z
#    x 1.959630 0.000000 0.000000 
#    y 0.000000 2.041400 0.000000 
#    z 0.000000 0.000000 1.929310 
# 
# From -- ./inp_files/541.got.cif
#   From: 2010.05.17/outbox.cif.g08.bks.cpg/sg19_1_cif.got.tgz:541.got - 2010.06.03 22:46:19.
