data_PCOD9314110
_publ_section_title
;
Structure prediction by ZEFSAII (Michael W. Deem and Ramdas Pophale) SiO2 
 PCOD9314110
Probable space group: P 21 21 21
;
_chemical_formula_sum "Si O2"
_cell_formula_units_Z 24
_cell_length_a 6.892135
_cell_length_b 14.449938
_cell_length_c 9.449215
_cell_angle_alpha 90.000000
_cell_angle_beta 90.000000
_cell_angle_gamma 90.000000
_cell_volume 941.056048
_symmetry_space_group_name_H-M "P 21 21 21"
_symmetry_group_IT_number 19
_symmetry_cell_setting 'orthorhombic'
loop_
_space_group_symop_operation_xyz
x,y,z
1/2-x,-y,1/2+z
1/2+x,1/2-y,-z
-x,1/2+y,1/2-z
loop_
_atom_site_type_symbol
_atom_site_label
_atom_site_fract_x
_atom_site_fract_y
_atom_site_fract_z
Si Si1 0.300971 0.409381 0.497831
Si Si2 0.716391 0.409850 0.887342
Si Si3 0.730164 0.739497 0.189364
Si Si4 0.764537 0.382903 0.437383
Si Si5 0.327587 0.588924 0.324564
Si Si6 0.659093 0.290585 0.158363
O O1 0.205419 0.326637 0.405180
O O2 0.534977 0.394281 0.480651
O O3 0.255386 0.505604 0.420536
O O4 0.242635 0.414561 0.662252
O O5 0.655568 0.516504 0.896506
O O6 0.696632 0.367438 0.042452
O O7 0.636652 0.329028 0.783396
O O8 0.939207 0.417595 0.836003
O O9 0.646521 0.669803 0.070382
O O10 0.564916 0.780225 0.292916
O O11 0.769294 0.318820 0.300475
O O12 0.279255 0.688860 0.389969
#
# Coordination Sequence:
#
# PCOD9314110 Si02
#       6
#     4   4   4   4   4   4
#     4  10  22  41  66  98 142 184 237 290 362 420
#     4  10  22  40  68  98 137 183 234 288 353 428
#     4  10  21  41  68 100 136 180 227 297 352 423
#     4  10  20  42  66  98 137 184 234 288 363 426
#     4  10  22  43  63  97 138 184 236 293 351 422
#     4  10  21  41  67  99 136 175 236 290 347 425
#
# _framework density 25.503261999999999
#
# number of rings (size 3 to 8) (size 9 to 14) (size 15 to 20)
#    0.000    2.000    1.667    1.000    2.333    1.333 
#    6.000   10.000    0.000    0.000    0.000    0.000 
#    0.000    0.000    0.000    0.000    0.000    0.000 
#
# Total GULP energy -134267.722570 kJ/mol
# GULP energy per Si atom -5594.488440 kJ/mol
# Density = 2.544522 g / cm^3
# Si number density = 25.503262 Si / 1000 Ang^3
#
#
#
# Elastic Constant Matrix: (Units=GPa)
#
#
# Indices 1 2 3 4 5 6 
#
# 1 98.4743 5.4970 12.0270 0.0000 0.0000 0.0000
# 2 5.4970 158.7810 25.7043 0.0000 0.0000 0.0000
# 3 12.0270 25.7043 109.6640 0.0000 0.0000 0.0000
# 4 0.0000 0.0000 0.0000 60.1895 0.0000 0.0000
# 5 0.0000 0.0000 0.0000 0.0000 31.7360 0.0000
# 6 0.0000 0.0000 0.0000 0.0000 0.0000 8.6945
#
#
#
# Elastic Compliance Matrix: (Units=1/GPa)
#
#
# Indices 1 2 3 4 5 6 
#
# 1 0.010298 -0.000181 -0.001087 0.000000 0.000000 0.000000
# 2 -0.000181 0.006550 -0.001515 0.000000 0.000000 0.000000
# 3 -0.001087 -0.001515 0.009593 0.000000 0.000000 0.000000
# 4 0.000000 0.000000 0.000000 0.016614 0.000000 0.000000
# 5 0.000000 0.000000 0.000000 0.000000 0.031510 0.000000
# 6 0.000000 0.000000 0.000000 0.000000 0.000000 0.115016
#
#
# Mechanical properties :
#
#
# Convention : Reuss Voigt Hill
#
# Bulk Modulus (GPa) = 47.90510 50.37509 49.14009
# Shear Modulus (GPa) = 24.73968 41.70338 33.22153
#
# Velocity S-wave (km/s) = 3.11796 4.04817 3.61312
# Velocity P-wave (km/s) = 5.63799 6.45333 6.05939
#
# Compressibility (1/GPa) = 0.02087460
#
# Stress axis : x y z
#
# Youngs Moduli (GPa) = 97.10828 152.68228 104.24079
#
# Poissons Ratio (x) = 0.02756 0.11332
# Poissons Ratio (y) = 0.01753 0.15796
# Poissons Ratio (z) = 0.10556 0.23137
#
# Static dielectric constant tensor:
#      x y z
#    x 2.147630 0.000000 0.000000 
#    y 0.000000 1.976670 0.000000 
#    z 0.000000 0.000000 1.918230 
# 
# From -- ./inp_files/2843.got.cif
#   From: 2010.05.17/outbox.cif.g08.bks.cpg/sg19_2_cif.got.tgz:2843.got - 2010.06.03 22:46:19.
