data_PCOD9314306
_publ_section_title
;
Structure prediction by ZEFSAII (Michael W. Deem and Ramdas Pophale) SiO2 
 PCOD9314306
Probable space group: P 21 21 21
;
_chemical_formula_sum "Si O2"
_cell_formula_units_Z 28
_cell_length_a 7.727044
_cell_length_b 7.414079
_cell_length_c 17.220812
_cell_angle_alpha 90.000000
_cell_angle_beta 90.000000
_cell_angle_gamma 90.000000
_cell_volume 986.561629
_symmetry_space_group_name_H-M "P 21 21 21"
_symmetry_group_IT_number 19
_symmetry_cell_setting 'orthorhombic'
loop_
_space_group_symop_operation_xyz
x,y,z
1/2-x,-y,1/2+z
1/2+x,1/2-y,-z
-x,1/2+y,1/2-z
loop_
_atom_site_type_symbol
_atom_site_label
_atom_site_fract_x
_atom_site_fract_y
_atom_site_fract_z
Si Si1 0.149337 0.445297 0.512547
Si Si2 0.223573 0.832016 0.133628
Si Si3 0.323865 0.208881 0.091044
Si Si4 0.463347 0.113347 0.860966
Si Si5 0.385010 0.488167 0.794913
Si Si6 0.045785 0.715038 0.760478
Si Si7 0.697309 0.658881 0.087264
O O1 0.126032 0.659766 0.520731
O O2 0.236769 0.358680 0.437073
O O3 0.957242 0.375474 0.527915
O O4 0.254203 0.349953 0.583883
O O5 0.306343 0.996168 0.083452
O O6 0.356596 0.826084 0.206223
O O7 0.033144 0.896227 0.158944
O O8 0.435522 0.240290 0.169735
O O9 0.135865 0.291572 0.108473
O O10 0.366377 0.291627 0.830802
O O11 0.519791 0.986569 0.788850
O O12 0.348078 0.987453 0.914827
O O13 0.195709 0.566054 0.775598
O O14 0.117233 0.856577 0.825846
#
# Coordination Sequence:
#
# PCOD9314306 Si02
#       7
#     4   4   4   4   4   4   4
#     4  11  26  43  70  92 136 187 216 286 344 400
#     4  10  24  41  63  98 134 170 229 273 332 411
#     4  10  23  43  65 102 134 176 221 287 337 405
#     4  10  21  39  63  98 133 168 229 266 347 392
#     4  10  22  37  67  99 132 177 211 296 328 396
#     4  10  24  40  68 101 133 176 226 282 346 396
#     4  11  24  45  64 100 134 180 230 276 340 422
#
# _framework density 28.381401
#
# number of rings (size 3 to 8) (size 9 to 14) (size 15 to 20)
#    0.000    1.714    0.000    3.429   16.000    0.000 
#    2.571    0.000    0.000    0.000    0.000    0.000 
#    0.000    0.000    0.000    0.000    0.000    0.000 
#
# Total GULP energy -156894.398325 kJ/mol
# GULP energy per Si atom -5603.371369 kJ/mol
# Density = 2.831680 g / cm^3
# Si number density = 28.381401 Si / 1000 Ang^3
#
#
#
# Elastic Constant Matrix: (Units=GPa)
#
#
# Indices 1 2 3 4 5 6 
#
# 1 124.3250 -1.1080 30.0401 0.0000 0.0000 0.0000
# 2 -1.1080 127.9056 16.1205 0.0000 0.0000 0.0000
# 3 30.0401 16.1205 117.0767 0.0000 0.0000 0.0000
# 4 0.0000 0.0000 0.0000 48.8909 0.0000 0.0000
# 5 0.0000 0.0000 0.0000 0.0000 55.5883 0.0000
# 6 0.0000 0.0000 0.0000 0.0000 0.0000 43.2631
#
#
#
# Elastic Compliance Matrix: (Units=1/GPa)
#
#
# Indices 1 2 3 4 5 6 
#
# 1 0.008591 0.000358 -0.002254 0.000000 0.000000 0.000000
# 2 0.000358 0.007971 -0.001190 0.000000 0.000000 0.000000
# 3 -0.002254 -0.001190 0.009283 0.000000 0.000000 0.000000
# 4 0.000000 0.000000 0.000000 0.020454 0.000000 0.000000
# 5 0.000000 0.000000 0.000000 0.000000 0.017989 0.000000
# 6 0.000000 0.000000 0.000000 0.000000 0.000000 0.023114
#
#
# Mechanical properties :
#
#
# Convention : Reuss Voigt Hill
#
# Bulk Modulus (GPa) = 50.82251 51.04584 50.93418
# Shear Modulus (GPa) = 49.93415 51.16544 50.54980
#
# Velocity S-wave (km/s) = 4.19907 4.25052 4.22487
# Velocity P-wave (km/s) = 6.43859 6.48953 6.46411
#
# Compressibility (1/GPa) = 0.01967632
#
# Stress axis : x y z
#
# Youngs Moduli (GPa) = 116.39834 125.45013 107.71826
#
# Poissons Ratio (x) = -0.04497 0.24277
# Poissons Ratio (y) = -0.04173 0.12814
# Poissons Ratio (z) = 0.26233 0.14923
#
# Static dielectric constant tensor:
#      x y z
#    x 2.155410 0.000000 0.000000 
#    y 0.000000 2.260520 0.000000 
#    z 0.000000 0.000000 2.365220 
# 
# From -- ./inp_files/6589.got.cif
#   From: 2010.05.17/outbox.cif.g08.bks.cpg/sg19_4_cif.got.tgz:6589.got - 2010.06.03 22:46:19.
