data_PCOD9314963
_publ_section_title
;
Structure prediction by ZEFSAII (Michael W. Deem and Ramdas Pophale) SiO2 
 PCOD9314963
Probable space group: P 21 21 21
;
_chemical_formula_sum "Si O2"
_cell_formula_units_Z 32
_cell_length_a 9.425611
_cell_length_b 9.961421
_cell_length_c 12.402137
_cell_angle_alpha 90.000000
_cell_angle_beta 90.000000
_cell_angle_gamma 90.000000
_cell_volume 1164.467392
_symmetry_space_group_name_H-M "P 21 21 21"
_symmetry_group_IT_number 19
_symmetry_cell_setting 'orthorhombic'
loop_
_space_group_symop_operation_xyz
x,y,z
1/2-x,-y,1/2+z
1/2+x,1/2-y,-z
-x,1/2+y,1/2-z
loop_
_atom_site_type_symbol
_atom_site_label
_atom_site_fract_x
_atom_site_fract_y
_atom_site_fract_z
Si Si1 0.647552 0.178283 0.774977
Si Si2 0.311037 0.463214 0.871108
Si Si3 0.915456 0.415207 0.450294
Si Si4 0.338477 0.799019 0.517637
Si Si5 0.012084 0.052417 0.611377
Si Si6 0.252459 0.180752 0.750027
Si Si7 0.577686 0.750957 0.373061
Si Si8 0.683679 0.413008 0.610928
O O1 0.610035 0.036975 0.728774
O O2 0.585674 0.208289 0.892093
O O3 0.818829 0.174192 0.793546
O O4 0.632061 0.300117 0.693100
O O5 0.277740 0.319881 0.814301
O O6 0.158103 0.529318 0.899669
O O7 0.423622 0.527913 0.958995
O O8 0.319257 0.257547 0.020302
O O9 0.862967 0.324255 0.351599
O O10 0.837462 0.368366 0.559680
O O11 0.833425 0.556034 0.430139
O O12 0.430711 0.807248 0.412505
O O13 0.056755 0.903877 0.654682
O O14 0.098561 0.155434 0.690128
O O15 0.077602 0.076120 0.491528
O O16 0.292218 0.052784 0.826087
#
# Coordination Sequence:
#
# PCOD9314963 Si02
#       8
#     4   4   4   4   4   4   4   4
#     4  10  24  51  74 116 153 212 253 341 402 477
#     4  12  31  44  79 122 164 200 290 328 410 507
#     4  11  26  48  76 123 152 220 274 329 419 483
#     4  10  22  45  76 109 145 196 270 318 392 468
#     4  11  26  48  76 123 152 220 274 329 419 483
#     4  11  25  51  81 114 159 221 267 346 422 490
#     4  10  22  45  76 109 145 196 270 318 392 468
#     4  11  22  50  88  98 170 221 260 341 416 496
#
# _framework density 27.480377000000001
#
# number of rings (size 3 to 8) (size 9 to 14) (size 15 to 20)
#    0.750    0.500    5.000    0.000    8.750    1.000 
#    0.000    8.750    2.750    0.000    0.000    0.000 
#    0.000    0.000    0.000    0.000    0.000    0.000 
#
# Total GULP energy -178550.922345 kJ/mol
# GULP energy per Si atom -5579.716323 kJ/mol
# Density = 2.741783 g / cm^3
# Si number density = 27.480377 Si / 1000 Ang^3
#
#
#
# Elastic Constant Matrix: (Units=GPa)
#
#
# Indices 1 2 3 4 5 6 
#
# 1 216.6015 21.0790 17.6509 0.0000 0.0000 0.0000
# 2 21.0790 73.3321 17.7920 0.0000 0.0000 0.0000
# 3 17.6509 17.7920 95.9045 0.0000 0.0000 0.0000
# 4 0.0000 0.0000 0.0000 20.3512 0.0000 0.0000
# 5 0.0000 0.0000 0.0000 0.0000 21.5592 0.0000
# 6 0.0000 0.0000 0.0000 0.0000 0.0000 34.5677
#
#
#
# Elastic Compliance Matrix: (Units=1/GPa)
#
#
# Indices 1 2 3 4 5 6 
#
# 1 0.004789 -0.001217 -0.000655 0.000000 0.000000 0.000000
# 2 -0.001217 0.014589 -0.002482 0.000000 0.000000 0.000000
# 3 -0.000655 -0.002482 0.011008 0.000000 0.000000 0.000000
# 4 0.000000 0.000000 0.000000 0.049137 0.000000 0.000000
# 5 0.000000 0.000000 0.000000 0.000000 0.046384 0.000000
# 6 0.000000 0.000000 0.000000 0.000000 0.000000 0.028929
#
#
# Mechanical properties :
#
#
# Convention : Reuss Voigt Hill
#
# Bulk Modulus (GPa) = 46.13607 55.43131 50.78369
# Shear Modulus (GPa) = 29.27893 37.25004 33.26449
#
# Velocity S-wave (km/s) = 3.26766 3.68572 3.48297
# Velocity P-wave (km/s) = 5.57333 6.19094 5.89024
#
# Compressibility (1/GPa) = 0.02167502
#
# Stress axis : x y z
#
# Youngs Moduli (GPa) = 208.82646 68.54562 90.84130
#
# Poissons Ratio (x) = 0.08345 0.05954
# Poissons Ratio (y) = 0.25423 0.22551
# Poissons Ratio (z) = 0.13688 0.17016
#
# Static dielectric constant tensor:
#      x y z
#    x 2.275710 0.000000 0.000000 
#    y 0.000000 2.174060 0.000000 
#    z 0.000000 0.000000 2.307890 
# 
# From -- ./inp_files/5061.got.cif
#   From: 2010.05.17/outbox.cif.g08.bks.cpg/sg19_3_cif.got.tgz:5061.got - 2010.06.03 22:46:19.
