data_PCOD9314986
_publ_section_title
;
Structure prediction by ZEFSAII (Michael W. Deem and Ramdas Pophale) SiO2 
 PCOD9314986
Probable space group: P 21 21 21
;
_chemical_formula_sum "Si O2"
_cell_formula_units_Z 32
_cell_length_a 12.652247
_cell_length_b 8.490968
_cell_length_c 13.082847
_cell_angle_alpha 90.000000
_cell_angle_beta 90.000000
_cell_angle_gamma 90.000000
_cell_volume 1405.487956
_symmetry_space_group_name_H-M "P 21 21 21"
_symmetry_group_IT_number 19
_symmetry_cell_setting 'orthorhombic'
loop_
_space_group_symop_operation_xyz
x,y,z
1/2-x,-y,1/2+z
1/2+x,1/2-y,-z
-x,1/2+y,1/2-z
loop_
_atom_site_type_symbol
_atom_site_label
_atom_site_fract_x
_atom_site_fract_y
_atom_site_fract_z
Si Si1 0.915915 0.358149 0.558933
Si Si2 0.283637 0.570349 0.638204
Si Si3 0.426638 0.830754 0.951770
Si Si4 0.657014 0.659349 0.613223
Si Si5 0.753381 0.833039 0.151284
Si Si6 0.361463 0.645703 0.419154
Si Si7 0.626117 0.738283 0.841103
Si Si8 0.054925 0.666163 0.563273
O O1 0.828880 0.310064 0.640887
O O2 0.862865 0.362260 0.445216
O O3 0.982381 0.513416 0.572586
O O4 0.000018 0.213358 0.547478
O O5 0.314544 0.654448 0.742878
O O6 0.354478 0.610931 0.540539
O O7 0.292220 0.383329 0.655344
O O8 0.165593 0.631387 0.617041
O O9 0.339679 0.695013 0.936432
O O10 0.510967 0.816760 0.859019
O O11 0.370495 0.997251 0.943414
O O12 0.778151 0.713884 0.601048
O O13 0.632807 0.652955 0.733333
O O14 0.587459 0.790251 0.553246
O O15 0.687876 0.992471 0.134158
O O16 0.480286 0.695040 0.393299
#
# Coordination Sequence:
#
# PCOD9314986 Si02
#       8
#     4   4   4   4   4   4   4   4
#     4  10  24  38  65  94 132 174 224 267 343 404
#     4  11  24  43  68  96 136 177 228 279 347 398
#     4  10  24  38  67  98 133 173 226 273 346 394
#     4  11  22  39  64  96 134 165 226 285 326 403
#     4  12  23  44  66  94 140 174 224 293 332 407
#     4  11  23  42  67  95 133 179 227 278 342 403
#     4  10  23  36  66  99 125 177 218 277 334 402
#     4  11  25  44  67  98 135 185 221 282 342 407
#
# _framework density 22.767893000000001
#
# number of rings (size 3 to 8) (size 9 to 14) (size 15 to 20)
#    0.750    0.500    2.500    3.750    5.250    1.000 
#    0.000    0.000    0.000    0.000    0.000    0.000 
#    0.000    0.000    0.000    0.000    0.000    0.000 
#
# Total GULP energy -178722.940661 kJ/mol
# GULP energy per Si atom -5585.091896 kJ/mol
# Density = 2.271607 g / cm^3
# Si number density = 22.767893 Si / 1000 Ang^3
#
#
#
# Elastic Constant Matrix: (Units=GPa)
#
#
# Indices 1 2 3 4 5 6 
#
# 1 76.9303 16.0656 -19.6499 0.0000 0.0000 0.0000
# 2 16.0656 65.3315 -1.2569 0.0000 0.0000 0.0000
# 3 -19.6499 -1.2569 23.1439 0.0000 0.0000 0.0000
# 4 0.0000 0.0000 0.0000 18.3244 0.0000 0.0000
# 5 0.0000 0.0000 0.0000 0.0000 13.6792 0.0000
# 6 0.0000 0.0000 0.0000 0.0000 0.0000 49.1454
#
#
#
# Elastic Compliance Matrix: (Units=1/GPa)
#
#
# Indices 1 2 3 4 5 6 
#
# 1 0.017606 -0.004046 0.014728 0.000000 0.000000 0.000000
# 2 -0.004046 0.016252 -0.002553 0.000000 0.000000 0.000000
# 3 0.014728 -0.002553 0.055574 0.000000 0.000000 0.000000
# 4 0.000000 0.000000 0.000000 0.054572 0.000000 0.000000
# 5 0.000000 0.000000 0.000000 0.000000 0.073103 0.000000
# 6 0.000000 0.000000 0.000000 0.000000 0.000000 0.020348
#
#
# Mechanical properties :
#
#
# Convention : Reuss Voigt Hill
#
# Bulk Modulus (GPa) = 9.46157 17.30259 13.38208
# Shear Modulus (GPa) = 19.49876 27.57961 23.53919
#
# Velocity S-wave (km/s) = 2.92963 3.48420 3.21888
# Velocity P-wave (km/s) = 3.95074 4.87876 4.43907
#
# Compressibility (1/GPa) = 0.10569066
#
# Stress axis : x y z
#
# Youngs Moduli (GPa) = 56.80012 61.52939 17.99405
#
# Poissons Ratio (x) = 0.24895 -0.26502
# Poissons Ratio (y) = 0.22981 0.04593
# Poissons Ratio (z) = -0.83655 0.15706
#
# Static dielectric constant tensor:
#      x y z
#    x 1.864710 0.000000 0.000000 
#    y 0.000000 1.879800 0.000000 
#    z 0.000000 0.000000 1.843290 
# 
# From -- ./inp_files/6113.got.cif
#   From: 2010.05.17/outbox.cif.g08.bks.cpg/sg19_4_cif.got.tgz:6113.got - 2010.06.03 22:46:19.
