data_PCOD9314144
_publ_section_title
;
Structure prediction by ZEFSAII (Michael W. Deem and Ramdas Pophale) SiO2 
 PCOD9314144
Probable space group: P 21 21 21
;
_chemical_formula_sum "Si O2"
_cell_formula_units_Z 32
_cell_length_a 11.285516
_cell_length_b 13.094072
_cell_length_c 8.822041
_cell_angle_alpha 90.000000
_cell_angle_beta 90.000000
_cell_angle_gamma 90.000000
_cell_volume 1303.662632
_symmetry_space_group_name_H-M "P 21 21 21"
_symmetry_group_IT_number 19
_symmetry_cell_setting 'orthorhombic'
loop_
_space_group_symop_operation_xyz
x,y,z
1/2-x,-y,1/2+z
1/2+x,1/2-y,-z
-x,1/2+y,1/2-z
loop_
_atom_site_type_symbol
_atom_site_label
_atom_site_fract_x
_atom_site_fract_y
_atom_site_fract_z
Si Si1 0.722875 0.077801 0.387783
Si Si2 0.678352 0.587162 0.597918
Si Si3 0.662451 0.743646 0.054559
Si Si4 0.486996 0.679611 0.806119
Si Si5 0.611734 0.298637 0.933047
Si Si6 0.602035 0.956010 0.610373
Si Si7 0.331967 0.913964 0.118634
Si Si8 0.466915 0.725689 0.258713
O O1 0.777905 0.147926 0.521267
O O2 0.816986 0.071897 0.253015
O O3 0.609574 0.138300 0.322758
O O4 0.681983 0.971334 0.460414
O O5 0.587724 0.663262 0.678562
O O6 0.771774 0.647085 0.494678
O O7 0.753152 0.542553 0.741584
O O8 0.620091 0.500965 0.492584
O O9 0.546995 0.739565 0.942811
O O10 0.746624 0.656382 0.985382
O O11 0.604167 0.719258 0.215414
O O12 0.381486 0.740178 0.725941
O O13 0.451770 0.567588 0.858132
O O14 0.506551 0.380554 0.912980
O O15 0.569090 0.223684 0.066877
O O16 0.423097 0.836830 0.197912
#
# Coordination Sequence:
#
# PCOD9314144 Si02
#       8
#     4   4   4   4   4   4   4   4
#     4  11  26  44  71 103 145 183 238 292 352 429
#     4  10  22  41  65  99 129 175 230 285 335 421
#     4  10  20  44  65  94 135 182 225 288 339 414
#     4  11  24  45  71  97 139 185 234 289 354 409
#     4  11  25  44  71  98 141 184 232 291 351 414
#     4  12  27  47  72 105 143 188 235 295 357 423
#     4   9  21  38  64  91 129 168 223 284 333 397
#     4  10  23  43  65  97 139 177 231 284 339 419
#
# _framework density 24.546226000000001
#
# number of rings (size 3 to 8) (size 9 to 14) (size 15 to 20)
#    0.000    1.500    2.500    2.250    5.250    2.000 
#    2.250    0.000    0.000    0.000    0.000    0.000 
#    0.000    0.000    0.000    0.000    0.000    0.000 
#
# Total GULP energy -179245.732856 kJ/mol
# GULP energy per Si atom -5601.429152 kJ/mol
# Density = 2.449036 g / cm^3
# Si number density = 24.546226 Si / 1000 Ang^3
#
#
#
# Elastic Constant Matrix: (Units=GPa)
#
#
# Indices 1 2 3 4 5 6 
#
# 1 71.7384 -4.1514 16.3787 0.0000 0.0000 0.0000
# 2 -4.1514 31.8278 12.4082 0.0000 0.0000 0.0000
# 3 16.3787 12.4082 67.4339 0.0000 0.0000 0.0000
# 4 0.0000 0.0000 0.0000 50.2689 0.0000 0.0000
# 5 0.0000 0.0000 0.0000 0.0000 57.3236 0.0000
# 6 0.0000 0.0000 0.0000 0.0000 0.0000 18.8218
#
#
#
# Elastic Compliance Matrix: (Units=1/GPa)
#
#
# Indices 1 2 3 4 5 6 
#
# 1 0.015146 0.003673 -0.004355 0.000000 0.000000 0.000000
# 2 0.003673 0.034738 -0.007284 0.000000 0.000000 0.000000
# 3 -0.004355 -0.007284 0.017227 0.000000 0.000000 0.000000
# 4 0.000000 0.000000 0.000000 0.019893 0.000000 0.000000
# 5 0.000000 0.000000 0.000000 0.000000 0.017445 0.000000
# 6 0.000000 0.000000 0.000000 0.000000 0.000000 0.053130
#
#
# Mechanical properties :
#
#
# Convention : Reuss Voigt Hill
#
# Bulk Modulus (GPa) = 19.53869 24.47456 22.00662
# Shear Modulus (GPa) = 26.23698 35.04049 30.63874
#
# Velocity S-wave (km/s) = 3.27292 3.78237 3.53683
# Velocity P-wave (km/s) = 4.71804 5.39143 5.06594
#
# Compressibility (1/GPa) = 0.05118050
#
# Stress axis : x y z
#
# Youngs Moduli (GPa) = 66.02251 28.78696 58.04719
#
# Poissons Ratio (x) = -0.10574 0.25278
# Poissons Ratio (y) = -0.24252 0.42282
# Poissons Ratio (z) = 0.28751 0.20969
#
# Static dielectric constant tensor:
#      x y z
#    x 1.963530 0.000000 0.000000 
#    y 0.000000 1.910470 0.000000 
#    z 0.000000 0.000000 1.969980 
# 
# From -- ./inp_files/3634.got.cif
#   From: 2010.05.17/outbox.cif.g08.bks.cpg/sg19_2_cif.got.tgz:3634.got - 2010.06.03 22:46:19.
