data_PCOD9314645
_publ_section_title
;
Structure prediction by ZEFSAII (Michael W. Deem and Ramdas Pophale) SiO2 
 PCOD9314645
Probable space group: P 21 21 21
;
_chemical_formula_sum "Si O2"
_cell_formula_units_Z 32
_cell_length_a 11.939342
_cell_length_b 18.635845
_cell_length_c 5.765645
_cell_angle_alpha 90.000000
_cell_angle_beta 90.000000
_cell_angle_gamma 90.000000
_cell_volume 1282.854438
_symmetry_space_group_name_H-M "P 21 21 21"
_symmetry_group_IT_number 19
_symmetry_cell_setting 'orthorhombic'
loop_
_space_group_symop_operation_xyz
x,y,z
1/2-x,-y,1/2+z
1/2+x,1/2-y,-z
-x,1/2+y,1/2-z
loop_
_atom_site_type_symbol
_atom_site_label
_atom_site_fract_x
_atom_site_fract_y
_atom_site_fract_z
Si Si1 0.679579 0.570988 0.030680
Si Si2 0.831993 0.169474 0.224205
Si Si3 0.251062 0.911024 0.474132
Si Si4 0.453438 0.578205 0.254987
Si Si5 0.638821 0.140205 0.850337
Si Si6 0.483950 0.839068 0.382617
Si Si7 0.834364 0.063881 0.619941
Si Si8 0.133629 0.273020 0.548376
O O1 0.708533 0.613493 0.270196
O O2 0.753765 0.498304 0.018535
O O3 0.553352 0.548578 0.098447
O O4 0.698052 0.607443 0.779559
O O5 0.852119 0.094885 0.361242
O O6 0.767393 0.223018 0.399938
O O7 0.733771 0.157782 0.039189
O O8 0.942109 0.193743 0.091069
O O9 0.378312 0.884094 0.468191
O O10 0.468304 0.606586 0.521551
O O11 0.363428 0.516508 0.308565
O O12 0.419918 0.651287 0.129301
O O13 0.707728 0.083667 0.692436
O O14 0.620180 0.215590 0.723906
O O15 0.432406 0.786273 0.189108
O O16 0.574890 0.889757 0.260444
#
# Coordination Sequence:
#
# PCOD9314645 Si02
#       8
#     4   4   4   4   4   4   4   4
#     4  10  23  43  65 100 139 175 239 295 364 420
#     4   9  22  43  65  98 132 174 237 287 360 436
#     4  10  23  43  66  98 135 182 237 300 345 435
#     4  11  23  39  66  95 137 185 228 301 365 425
#     4   9  22  40  62  96 134 170 224 296 357 426
#     4  11  23  43  71  96 135 190 234 293 363 440
#     4  10  22  39  67 101 130 179 239 291 356 438
#     4  10  24  44  64 100 144 177 232 301 368 440
#
# _framework density 24.944374
#
# number of rings (size 3 to 8) (size 9 to 14) (size 15 to 20)
#    0.000    2.000    1.250    0.000    8.750    5.000 
#    6.750    0.000    0.000    0.000    0.000    0.000 
#    0.000    0.000    0.000    0.000    0.000    0.000 
#
# Total GULP energy -178393.692136 kJ/mol
# GULP energy per Si atom -5574.802879 kJ/mol
# Density = 2.488760 g / cm^3
# Si number density = 24.944374 Si / 1000 Ang^3
#
#
#
# Elastic Constant Matrix: (Units=GPa)
#
#
# Indices 1 2 3 4 5 6 
#
# 1 74.2867 15.0122 41.9372 0.0000 0.0000 0.0000
# 2 15.0122 53.3918 -8.0584 0.0000 0.0000 0.0000
# 3 41.9372 -8.0584 109.5034 0.0000 0.0000 0.0000
# 4 0.0000 0.0000 0.0000 24.2329 0.0000 0.0000
# 5 0.0000 0.0000 0.0000 0.0000 32.7981 0.0000
# 6 0.0000 0.0000 0.0000 0.0000 0.0000 33.3228
#
#
#
# Elastic Compliance Matrix: (Units=1/GPa)
#
#
# Indices 1 2 3 4 5 6 
#
# 1 0.019223 -0.006589 -0.007847 0.000000 0.000000 0.000000
# 2 -0.006589 0.021198 0.004083 0.000000 0.000000 0.000000
# 3 -0.007847 0.004083 0.012438 0.000000 0.000000 0.000000
# 4 0.000000 0.000000 0.000000 0.041266 0.000000 0.000000
# 5 0.000000 0.000000 0.000000 0.000000 0.030490 0.000000
# 6 0.000000 0.000000 0.000000 0.000000 0.000000 0.030010
#
#
# Mechanical properties :
#
#
# Convention : Reuss Voigt Hill
#
# Bulk Modulus (GPa) = 31.10020 37.21820 34.15920
# Shear Modulus (GPa) = 26.87492 30.62346 28.74919
#
# Velocity S-wave (km/s) = 3.28593 3.50761 3.39858
# Velocity P-wave (km/s) = 5.18569 5.59976 5.39670
#
# Compressibility (1/GPa) = 0.03215413
#
# Stress axis : x y z
#
# Youngs Moduli (GPa) = 52.02196 47.17322 80.40038
#
# Poissons Ratio (x) = 0.31083 0.63088
# Poissons Ratio (y) = 0.34278 -0.32831
# Poissons Ratio (z) = 0.40820 -0.19263
#
# Static dielectric constant tensor:
#      x y z
#    x 2.003280 0.000000 0.000000 
#    y 0.000000 1.988710 0.000000 
#    z 0.000000 0.000000 2.328660 
# 
# From -- ./inp_files/1213.got.cif
#   From: 2010.05.17/outbox.cif.g08.bks.cpg/sg19_1_cif.got.tgz:1213.got - 2010.06.03 22:46:19.
