data_PCOD9314083
_publ_section_title
;
Structure prediction by ZEFSAII (Michael W. Deem and Ramdas Pophale) SiO2 
 PCOD9314083
Probable space group: P 21 21 21
;
_chemical_formula_sum "Si O2"
_cell_formula_units_Z 28
_cell_length_a 5.123032
_cell_length_b 9.776292
_cell_length_c 27.730702
_cell_angle_alpha 90.000000
_cell_angle_beta 90.000000
_cell_angle_gamma 90.000000
_cell_volume 1388.871599
_symmetry_space_group_name_H-M "P 21 21 21"
_symmetry_group_IT_number 19
_symmetry_cell_setting 'orthorhombic'
loop_
_space_group_symop_operation_xyz
x,y,z
1/2-x,-y,1/2+z
1/2+x,1/2-y,-z
-x,1/2+y,1/2-z
loop_
_atom_site_type_symbol
_atom_site_label
_atom_site_fract_x
_atom_site_fract_y
_atom_site_fract_z
Si Si1 0.589326 0.428366 0.129295
Si Si2 0.124104 0.746824 0.243710
Si Si3 0.518509 0.192890 0.561508
Si Si4 0.454839 0.646048 0.324143
Si Si5 0.048845 0.962936 0.160491
Si Si6 0.519816 0.124596 0.452846
Si Si7 0.083755 0.476294 0.189353
O O1 0.583489 0.265445 0.136474
O O2 0.526486 0.487162 0.077025
O O3 0.369117 0.485020 0.166259
O O4 0.869898 0.478890 0.147326
O O5 0.393471 0.716220 0.272260
O O6 0.129382 0.841576 0.196771
O O7 0.026825 0.600108 0.225691
O O8 0.958116 0.834703 0.282035
O O9 0.465136 0.097718 0.606962
O O10 0.499740 0.113566 0.510553
O O11 0.799582 0.266090 0.563566
O O12 0.299274 0.310516 0.559350
O O13 0.731649 0.577481 0.332288
O O14 0.231357 0.530382 0.328409
#
# Coordination Sequence:
#
# PCOD9314083 Si02
#       7
#     4   4   4   4   4   4   4
#     4  11  23  41  62  89 125 164 208 253 319 369
#     4  11  24  42  60  88 123 170 207 262 305 372
#     4  10  22  39  67  97 123 159 209 265 318 370
#     4  11  26  39  59  89 126 166 209 260 302 392
#     4  12  24  42  62  89 129 164 211 259 322 363
#     4  10  20  41  66  96 124 157 211 265 313 380
#     4  11  25  38  64  88 124 162 217 248 317 368
#
# _framework density 20.160252
#
# number of rings (size 3 to 8) (size 9 to 14) (size 15 to 20)
#    0.000    1.143    1.429    5.143    4.000    3.429 
#    0.000    1.429    0.000    0.000    0.000    0.000 
#    0.000    0.000    0.000    0.000    0.000    0.000 
#
# Total GULP energy -156542.172472 kJ/mol
# GULP energy per Si atom -5590.791874 kJ/mol
# Density = 2.011437 g / cm^3
# Si number density = 20.160252 Si / 1000 Ang^3
#
#
#
# Elastic Constant Matrix: (Units=GPa)
#
#
# Indices 1 2 3 4 5 6 
#
# 1 55.9243 4.7240 0.2947 0.0000 0.0000 0.0000
# 2 4.7240 75.0365 42.1666 0.0000 0.0000 0.0000
# 3 0.2947 42.1666 99.0150 0.0000 0.0000 0.0000
# 4 0.0000 0.0000 0.0000 39.5134 0.0000 0.0000
# 5 0.0000 0.0000 0.0000 0.0000 21.5637 0.0000
# 6 0.0000 0.0000 0.0000 0.0000 0.0000 24.7604
#
#
#
# Elastic Compliance Matrix: (Units=1/GPa)
#
#
# Indices 1 2 3 4 5 6 
#
# 1 0.018001 -0.001450 0.000564 0.000000 0.000000 0.000000
# 2 -0.001450 0.017636 -0.007506 0.000000 0.000000 0.000000
# 3 0.000564 -0.007506 0.013294 0.000000 0.000000 0.000000
# 4 0.000000 0.000000 0.000000 0.025308 0.000000 0.000000
# 5 0.000000 0.000000 0.000000 0.000000 0.046374 0.000000
# 6 0.000000 0.000000 0.000000 0.000000 0.000000 0.040387
#
#
# Mechanical properties :
#
#
# Convention : Reuss Voigt Hill
#
# Bulk Modulus (GPa) = 31.10746 36.03847 33.57297
# Shear Modulus (GPa) = 26.52503 29.35354 27.93929
#
# Velocity S-wave (km/s) = 3.63121 3.81991 3.72675
# Velocity P-wave (km/s) = 5.74843 6.11314 5.93359
#
# Compressibility (1/GPa) = 0.03214663
#
# Stress axis : x y z
#
# Youngs Moduli (GPa) = 55.55292 56.70132 75.21949
#
# Poissons Ratio (x) = 0.08223 -0.04242
# Poissons Ratio (y) = 0.08056 0.56462
# Poissons Ratio (z) = -0.03133 0.42562
#
# Static dielectric constant tensor:
#      x y z
#    x 1.713700 0.000000 0.000000 
#    y 0.000000 1.711940 0.000000 
#    z 0.000000 0.000000 1.706740 
# 
# From -- ./inp_files/7445.got.cif
#   From: 2010.05.17/outbox.cif.g08.bks.cpg/sg19_4_cif.got.tgz:7445.got - 2010.06.03 22:46:19.
