data_PCOD9314149
_publ_section_title
;
Structure prediction by ZEFSAII (Michael W. Deem and Ramdas Pophale) SiO2 
 PCOD9314149
Probable space group: P 21 21 21
;
_chemical_formula_sum "Si O2"
_cell_formula_units_Z 32
_cell_length_a 13.482158
_cell_length_b 9.551430
_cell_length_c 10.929563
_cell_angle_alpha 90.000000
_cell_angle_beta 90.000000
_cell_angle_gamma 90.000000
_cell_volume 1407.442326
_symmetry_space_group_name_H-M "P 21 21 21"
_symmetry_group_IT_number 19
_symmetry_cell_setting 'orthorhombic'
loop_
_space_group_symop_operation_xyz
x,y,z
1/2-x,-y,1/2+z
1/2+x,1/2-y,-z
-x,1/2+y,1/2-z
loop_
_atom_site_type_symbol
_atom_site_label
_atom_site_fract_x
_atom_site_fract_y
_atom_site_fract_z
Si Si1 0.173438 0.146550 0.222608
Si Si2 0.826671 0.350129 0.364003
Si Si3 0.343865 0.220467 0.377439
Si Si4 0.435586 0.654870 0.879602
Si Si5 0.626318 0.033799 0.102255
Si Si6 0.166273 0.623413 0.328497
Si Si7 0.537551 0.043854 0.365946
Si Si8 0.017143 0.223916 0.018764
O O1 0.270791 0.231537 0.262653
O O2 0.097423 0.196380 0.328281
O O3 0.205272 0.985679 0.212592
O O4 0.112787 0.180203 0.099843
O O5 0.792725 0.353573 0.505050
O O6 0.803099 0.209738 0.290784
O O7 0.946653 0.360515 0.371166
O O8 0.373289 0.371219 0.430369
O O9 0.439880 0.134531 0.340012
O O10 0.383343 0.528724 0.804281
O O11 0.409390 0.620037 0.019592
O O12 0.736445 0.097546 0.089556
O O13 0.602231 0.035626 0.246242
O O14 0.544736 0.125846 0.033996
O O15 0.080745 0.712285 0.397306
O O16 0.502396 0.891999 0.414356
#
# Coordination Sequence:
#
# PCOD9314149 Si02
#       8
#     4   4   4   4   4   4   4   4
#     4  12  23  43  72 102 140 191 234 308 362 436
#     4  11  23  42  68  99 143 181 239 294 366 429
#     4  11  26  44  69 106 142 192 244 295 363 448
#     4  10  20  44  70 100 141 183 234 302 359 433
#     4  12  27  43  75 105 142 194 240 303 371 431
#     4  11  24  42  71 107 135 184 243 295 360 445
#     4  10  24  49  67 102 148 187 234 308 361 438
#     4  11  25  47  72 103 151 186 242 309 368 436
#
# _framework density 22.736277000000001
#
# number of rings (size 3 to 8) (size 9 to 14) (size 15 to 20)
#    0.000    1.000    6.250    0.750    5.250    5.000 
#    0.000    0.000    0.000    0.000    0.000    0.000 
#    0.000    0.000    0.000    0.000    0.000    0.000 
#
# Total GULP energy -178854.170018 kJ/mol
# GULP energy per Si atom -5589.192813 kJ/mol
# Density = 2.268453 g / cm^3
# Si number density = 22.736277 Si / 1000 Ang^3
#
#
#
# Elastic Constant Matrix: (Units=GPa)
#
#
# Indices 1 2 3 4 5 6 
#
# 1 64.7791 28.6287 12.6989 0.0000 0.0000 0.0000
# 2 28.6287 62.2458 33.8186 0.0000 0.0000 0.0000
# 3 12.6989 33.8186 49.5814 0.0000 0.0000 0.0000
# 4 0.0000 0.0000 0.0000 36.3176 0.0000 0.0000
# 5 0.0000 0.0000 0.0000 0.0000 27.2590 0.0000
# 6 0.0000 0.0000 0.0000 0.0000 0.0000 22.5523
#
#
#
# Elastic Compliance Matrix: (Units=1/GPa)
#
#
# Indices 1 2 3 4 5 6 
#
# 1 0.019474 -0.009925 0.001782 0.000000 0.000000 0.000000
# 2 -0.009925 0.030582 -0.018318 0.000000 0.000000 0.000000
# 3 0.001782 -0.018318 0.032207 0.000000 0.000000 0.000000
# 4 0.000000 0.000000 0.000000 0.027535 0.000000 0.000000
# 5 0.000000 0.000000 0.000000 0.000000 0.036685 0.000000
# 6 0.000000 0.000000 0.000000 0.000000 0.000000 0.044341
#
#
# Mechanical properties :
#
#
# Convention : Reuss Voigt Hill
#
# Bulk Modulus (GPa) = 34.08128 36.32208 35.20168
# Shear Modulus (GPa) = 19.72188 23.98981 21.85584
#
# Velocity S-wave (km/s) = 2.94839 3.25181 3.10381
# Velocity P-wave (km/s) = 5.15878 5.48717 5.32551
#
# Compressibility (1/GPa) = 0.02934162
#
# Stress axis : x y z
#
# Youngs Moduli (GPa) = 51.35072 32.69887 31.04947
#
# Poissons Ratio (x) = 0.32453 -0.05532
# Poissons Ratio (y) = 0.50964 0.56875
# Poissons Ratio (z) = -0.09150 0.59897
#
# Static dielectric constant tensor:
#      x y z
#    x 1.854190 0.000000 0.000000 
#    y 0.000000 1.861290 0.000000 
#    z 0.000000 0.000000 1.870530 
# 
# From -- ./inp_files/5281.got.cif
#   From: 2010.05.17/outbox.cif.g08.bks.cpg/sg19_3_cif.got.tgz:5281.got - 2010.06.03 22:46:19.
