data_PCOD9314562
_publ_section_title
;
Structure prediction by ZEFSAII (Michael W. Deem and Ramdas Pophale) SiO2 
 PCOD9314562
Probable space group: P 21 21 21
;
_chemical_formula_sum "Si O2"
_cell_formula_units_Z 32
_cell_length_a 11.519409
_cell_length_b 9.313455
_cell_length_c 13.793226
_cell_angle_alpha 90.000000
_cell_angle_beta 90.000000
_cell_angle_gamma 90.000000
_cell_volume 1479.813111
_symmetry_space_group_name_H-M "P 21 21 21"
_symmetry_group_IT_number 19
_symmetry_cell_setting 'orthorhombic'
loop_
_space_group_symop_operation_xyz
x,y,z
1/2-x,-y,1/2+z
1/2+x,1/2-y,-z
-x,1/2+y,1/2-z
loop_
_atom_site_type_symbol
_atom_site_label
_atom_site_fract_x
_atom_site_fract_y
_atom_site_fract_z
Si Si1 0.543267 0.730567 0.532791
Si Si2 0.735791 0.090331 0.305789
Si Si3 0.442765 0.718626 0.933265
Si Si4 0.613235 0.492864 0.903102
Si Si5 0.941792 0.950899 0.630550
Si Si6 0.996502 0.516958 0.193397
Si Si7 0.280665 0.473563 0.982890
Si Si8 0.344042 0.883091 0.117371
O O1 0.445550 0.849683 0.557031
O O2 0.514150 0.672658 0.425198
O O3 0.533125 0.604095 0.612820
O O4 0.664703 0.817828 0.538878
O O5 0.646915 0.073709 0.217698
O O6 0.865724 0.034169 0.288476
O O7 0.728023 0.259748 0.328953
O O8 0.697147 0.010566 0.404700
O O9 0.561048 0.632958 0.957491
O O10 0.457907 0.826934 0.845422
O O11 0.350950 0.590939 0.920982
O O12 0.395939 0.813577 0.020783
O O13 0.569456 0.511875 0.793038
O O14 0.751094 0.495038 0.907523
O O15 0.853686 0.995540 0.543494
O O16 0.041062 0.058126 0.668297
#
# Coordination Sequence:
#
# PCOD9314562 Si02
#       8
#     4   4   4   4   4   4   4   4
#     4  11  25  43  73 102 140 181 233 297 351 418
#     4  11  24  45  74  97 145 185 238 294 356 426
#     4  10  21  45  71  94 133 187 230 283 346 408
#     4  11  25  43  71 105 136 176 245 291 346 416
#     4  12  26  44  70 102 146 188 229 294 369 407
#     4  12  22  47  75 103 135 186 244 291 342 422
#     4  10  24  46  70 104 140 187 235 291 354 425
#     4  11  25  45  68  99 141 182 236 287 346 434
#
# _framework density 21.624352999999999
#
# number of rings (size 3 to 8) (size 9 to 14) (size 15 to 20)
#    0.000    1.000    3.750    2.250    7.000    0.000 
#    2.250    0.000    0.000    0.000    0.000    0.000 
#    0.000    0.000    0.000    0.000    0.000    0.000 
#
# Total GULP energy -178729.735884 kJ/mol
# GULP energy per Si atom -5585.304246 kJ/mol
# Density = 2.157514 g / cm^3
# Si number density = 21.624353 Si / 1000 Ang^3
#
#
#
# Elastic Constant Matrix: (Units=GPa)
#
#
# Indices 1 2 3 4 5 6 
#
# 1 125.2585 39.8887 18.3824 0.0000 0.0000 0.0000
# 2 39.8887 91.7805 29.5765 0.0000 0.0000 0.0000
# 3 18.3824 29.5765 83.0764 0.0000 0.0000 0.0000
# 4 0.0000 0.0000 0.0000 23.5300 0.0000 0.0000
# 5 0.0000 0.0000 0.0000 0.0000 21.1342 0.0000
# 6 0.0000 0.0000 0.0000 0.0000 0.0000 26.4430
#
#
#
# Elastic Compliance Matrix: (Units=1/GPa)
#
#
# Indices 1 2 3 4 5 6 
#
# 1 0.009302 -0.003817 -0.000699 0.000000 0.000000 0.000000
# 2 -0.003817 0.013874 -0.004095 0.000000 0.000000 0.000000
# 3 -0.000699 -0.004095 0.013650 0.000000 0.000000 0.000000
# 4 0.000000 0.000000 0.000000 0.042499 0.000000 0.000000
# 5 0.000000 0.000000 0.000000 0.000000 0.047317 0.000000
# 6 0.000000 0.000000 0.000000 0.000000 0.000000 0.037817
#
#
# Mechanical properties :
#
#
# Convention : Reuss Voigt Hill
#
# Bulk Modulus (GPa) = 51.01259 52.86784 51.94022
# Shear Modulus (GPa) = 26.56535 28.37263 27.46899
#
# Velocity S-wave (km/s) = 3.50879 3.62618 3.56797
# Velocity P-wave (km/s) = 6.32906 6.48333 6.40666
#
# Compressibility (1/GPa) = 0.01960300
#
# Stress axis : x y z
#
# Youngs Moduli (GPa) = 107.50696 72.07652 73.26212
#
# Poissons Ratio (x) = 0.27514 0.05122
# Poissons Ratio (y) = 0.41039 0.29999
# Poissons Ratio (z) = 0.07517 0.29514
#
# Static dielectric constant tensor:
#      x y z
#    x 1.797850 0.000000 0.000000 
#    y 0.000000 1.816010 0.000000 
#    z 0.000000 0.000000 1.801040 
# 
# From -- ./inp_files/6126.got.cif
#   From: 2010.05.17/outbox.cif.g08.bks.cpg/sg19_4_cif.got.tgz:6126.got - 2010.06.03 22:46:19.
