data_PCOD9314603
_publ_section_title
;
Structure prediction by ZEFSAII (Michael W. Deem and Ramdas Pophale) SiO2 
 PCOD9314603
Probable space group: P 21 21 21
;
_chemical_formula_sum "Si O2"
_cell_formula_units_Z 12
_cell_length_a 5.557929
_cell_length_b 17.212639
_cell_length_c 4.695836
_cell_angle_alpha 90.000000
_cell_angle_beta 90.000000
_cell_angle_gamma 90.000000
_cell_volume 449.234784
_symmetry_space_group_name_H-M "P 21 21 21"
_symmetry_group_IT_number 19
_symmetry_cell_setting 'orthorhombic'
loop_
_space_group_symop_operation_xyz
x,y,z
1/2-x,-y,1/2+z
1/2+x,1/2-y,-z
-x,1/2+y,1/2-z
loop_
_atom_site_type_symbol
_atom_site_label
_atom_site_fract_x
_atom_site_fract_y
_atom_site_fract_z
Si Si1 0.131349 0.344248 0.830371
Si Si2 0.364545 0.809834 0.699483
Si Si3 0.813546 0.449081 0.130274
O O1 0.382399 0.335884 0.669743
O O2 0.891761 0.323736 0.648058
O O3 0.133913 0.275309 0.065196
O O4 0.071244 0.423743 0.997332
O O5 0.337733 0.871774 0.438650
O O6 0.800374 0.481651 0.443580
#
# Coordination Sequence:
#
# PCOD9314603 Si02
#       3
#     4   4   4
#     4   8  16  34  60  80 117 153 197 233 292 352
#     4   8  16  34  60  80 117 153 197 233 292 352
#     4  10  22  38  60  90 120 152 196 250 296 342
#
# _framework density 26.71209
#
# number of rings (size 3 to 8) (size 9 to 14) (size 15 to 20)
#    2.000    1.333    0.000    0.000    0.000    2.667 
#    0.000    3.333    0.000    0.000    0.000    0.000 
#    0.000    0.000    0.000    0.000    0.000    0.000 
#
# Total GULP energy -66918.422440 kJ/mol
# GULP energy per Si atom -5576.535203 kJ/mol
# Density = 2.665129 g / cm^3
# Si number density = 26.712090 Si / 1000 Ang^3
#
#
#
# Elastic Constant Matrix: (Units=GPa)
#
#
# Indices 1 2 3 4 5 6 
#
# 1 202.6699 -37.7160 18.1921 0.0000 0.0000 0.0000
# 2 -37.7160 88.3858 25.4601 0.0000 0.0000 0.0000
# 3 18.1921 25.4601 71.0125 0.0000 0.0000 0.0000
# 4 0.0000 0.0000 0.0000 35.2081 0.0000 0.0000
# 5 0.0000 0.0000 0.0000 0.0000 6.8816 0.0000
# 6 0.0000 0.0000 0.0000 0.0000 0.0000 32.7518
#
#
#
# Elastic Compliance Matrix: (Units=1/GPa)
#
#
# Indices 1 2 3 4 5 6 
#
# 1 0.005770 0.003220 -0.002633 0.000000 0.000000 0.000000
# 2 0.003220 0.014415 -0.005993 0.000000 0.000000 0.000000
# 3 -0.002633 -0.005993 0.016905 0.000000 0.000000 0.000000
# 4 0.000000 0.000000 0.000000 0.028403 0.000000 0.000000
# 5 0.000000 0.000000 0.000000 0.000000 0.145316 0.000000
# 6 0.000000 0.000000 0.000000 0.000000 0.000000 0.030533
#
#
# Mechanical properties :
#
#
# Convention : Reuss Voigt Hill
#
# Bulk Modulus (GPa) = 38.05346 41.54895 39.80121
# Shear Modulus (GPa) = 19.16361 38.71042 28.93701
#
# Velocity S-wave (km/s) = 2.68136 3.81093 3.29491
# Velocity P-wave (km/s) = 4.88498 5.91205 5.42288
#
# Compressibility (1/GPa) = 0.02627882
#
# Stress axis : x y z
#
# Youngs Moduli (GPa) = 173.31728 69.37404 59.15340
#
# Poissons Ratio (x) = -0.22342 0.15574
# Poissons Ratio (y) = -0.55816 0.35451
# Poissons Ratio (z) = 0.45630 0.41576
#
# Static dielectric constant tensor:
#      x y z
#    x 2.277110 0.000000 0.000000 
#    y 0.000000 2.054730 0.000000 
#    z 0.000000 0.000000 1.953620 
# 
# From -- ./inp_files/7.got.cif
#   From: 2010.05.17/outbox.cif.g08.bks.cpg/sg19_1_cif.got.tgz:7.got - 2010.06.03 22:46:19.
