data_PCOD9314814
_publ_section_title
;
Structure prediction by ZEFSAII (Michael W. Deem and Ramdas Pophale) SiO2 
 PCOD9314814
Probable space group: P 21 21 21
;
_chemical_formula_sum "Si O2"
_cell_formula_units_Z 32
_cell_length_a 12.669211
_cell_length_b 7.508859
_cell_length_c 14.215356
_cell_angle_alpha 90.000000
_cell_angle_beta 90.000000
_cell_angle_gamma 90.000000
_cell_volume 1352.325567
_symmetry_space_group_name_H-M "P 21 21 21"
_symmetry_group_IT_number 19
_symmetry_cell_setting 'orthorhombic'
loop_
_space_group_symop_operation_xyz
x,y,z
1/2-x,-y,1/2+z
1/2+x,1/2-y,-z
-x,1/2+y,1/2-z
loop_
_atom_site_type_symbol
_atom_site_label
_atom_site_fract_x
_atom_site_fract_y
_atom_site_fract_z
Si Si1 0.213849 0.338857 0.445750
Si Si2 0.986585 0.451936 0.129480
Si Si3 0.917652 0.754889 0.657489
Si Si4 0.218407 0.768482 0.457475
Si Si5 0.446211 0.360224 0.432248
Si Si6 0.371019 0.782287 0.755110
Si Si7 0.834446 0.215780 0.837379
Si Si8 0.355390 0.688826 0.143578
O O1 0.213143 0.552968 0.454238
O O2 0.331372 0.279899 0.425962
O O3 0.135972 0.300933 0.360127
O O4 0.194102 0.247053 0.546192
O O5 0.878948 0.350349 0.100207
O O6 0.950627 0.558580 0.222619
O O7 0.079930 0.326652 0.168018
O O8 0.024827 0.565098 0.037315
O O9 0.836443 0.685175 0.578009
O O10 0.855069 0.723316 0.754601
O O11 0.038958 0.699428 0.670971
O O12 0.937126 0.963863 0.633067
O O13 0.191249 0.810756 0.564581
O O14 0.523804 0.213132 0.389858
O O15 0.247342 0.809809 0.732283
O O16 0.806795 0.005802 0.839149
#
# Coordination Sequence:
#
# PCOD9314814 Si02
#       8
#     4   4   4   4   4   4   4   4
#     4  10  22  42  66  96 140 184 236 289 361 417
#     4  12  25  46  70 103 147 183 246 288 371 431
#     4  11  22  42  70 100 140 184 236 300 351 425
#     4  10  23  43  68  97 139 186 226 295 359 429
#     4  11  23  43  68  99 140 183 235 300 348 433
#     4  12  25  45  71 104 138 195 230 307 350 441
#     4  11  24  43  71  98 141 181 237 293 364 426
#     4  11  22  40  66 101 131 186 228 286 356 414
#
# _framework density 23.662939999999999
#
# number of rings (size 3 to 8) (size 9 to 14) (size 15 to 20)
#    0.000    1.000    2.500    6.000    0.000    4.000 
#    0.000    1.250    0.000    0.000    0.000    0.000 
#    0.000    0.000    0.000    0.000    0.000    0.000 
#
# Total GULP energy -178370.106739 kJ/mol
# GULP energy per Si atom -5574.065836 kJ/mol
# Density = 2.360908 g / cm^3
# Si number density = 23.662940 Si / 1000 Ang^3
#
#
#
# Elastic Constant Matrix: (Units=GPa)
#
#
# Indices 1 2 3 4 5 6 
#
# 1 102.6059 32.3284 5.8449 0.0000 0.0000 0.0000
# 2 32.3284 98.0694 -22.0260 0.0000 0.0000 0.0000
# 3 5.8449 -22.0260 131.0457 0.0000 0.0000 0.0000
# 4 0.0000 0.0000 0.0000 0.6556 0.0000 0.0000
# 5 0.0000 0.0000 0.0000 0.0000 18.1118 0.0000
# 6 0.0000 0.0000 0.0000 0.0000 0.0000 27.7937
#
#
#
# Elastic Compliance Matrix: (Units=1/GPa)
#
#
# Indices 1 2 3 4 5 6 
#
# 1 0.011039 -0.003897 -0.001147 0.000000 0.000000 0.000000
# 2 -0.003897 0.011972 0.002186 0.000000 0.000000 0.000000
# 3 -0.001147 0.002186 0.008050 0.000000 0.000000 0.000000
# 4 0.000000 0.000000 0.000000 1.525399 0.000000 0.000000
# 5 0.000000 0.000000 0.000000 0.000000 0.055212 0.000000
# 6 0.000000 0.000000 0.000000 0.000000 0.000000 0.035979
#
#
# Mechanical properties :
#
#
# Convention : Reuss Voigt Hill
#
# Bulk Modulus (GPa) = 39.45521 40.44620 39.95070
# Shear Modulus (GPa) = 3.00876 30.35047 16.67961
#
# Velocity S-wave (km/s) = 1.12883 3.58525 2.65784
# Velocity P-wave (km/s) = 4.29058 5.85392 5.13213
#
# Compressibility (1/GPa) = 0.02534520
#
# Stress axis : x y z
#
# Youngs Moduli (GPa) = 90.58680 83.52545 124.23075
#
# Poissons Ratio (x) = 0.32548 0.14253
# Poissons Ratio (y) = 0.35299 -0.27158
# Poissons Ratio (z) = 0.10393 -0.18260
#
# Static dielectric constant tensor:
#      x y z
#    x 2.161850 0.000000 0.000000 
#    y 0.000000 2.028590 0.000000 
#    z 0.000000 0.000000 1.960380 
# 
# From -- ./inp_files/5917.got.cif
#   From: 2010.05.17/outbox.cif.g08.bks.cpg/sg19_3_cif.got.tgz:5917.got - 2010.06.03 22:46:19.
