data_PCOD9314528
_publ_section_title
;
Structure prediction by ZEFSAII (Michael W. Deem and Ramdas Pophale) SiO2 
 PCOD9314528
Probable space group: P 21 21 21
;
_chemical_formula_sum "Si O2"
_cell_formula_units_Z 28
_cell_length_a 5.579070
_cell_length_b 11.863011
_cell_length_c 16.862565
_cell_angle_alpha 90.000000
_cell_angle_beta 90.000000
_cell_angle_gamma 90.000000
_cell_volume 1116.041593
_symmetry_space_group_name_H-M "P 21 21 21"
_symmetry_group_IT_number 19
_symmetry_cell_setting 'orthorhombic'
loop_
_space_group_symop_operation_xyz
x,y,z
1/2-x,-y,1/2+z
1/2+x,1/2-y,-z
-x,1/2+y,1/2-z
loop_
_atom_site_type_symbol
_atom_site_label
_atom_site_fract_x
_atom_site_fract_y
_atom_site_fract_z
Si Si1 0.818628 0.507059 0.897303
Si Si2 0.572482 0.801924 0.512486
Si Si3 0.191822 0.331847 0.839717
Si Si4 0.280711 0.325070 0.427157
Si Si5 0.602819 0.891676 0.349500
Si Si6 0.064983 0.462240 0.280121
Si Si7 0.561472 0.579914 0.053090
O O1 0.699453 0.508567 0.809790
O O2 0.004229 0.403674 0.893481
O O3 0.960677 0.623850 0.908275
O O4 0.666782 0.508095 0.978676
O O5 0.303311 0.781209 0.483736
O O6 0.570098 0.829195 0.605162
O O7 0.680827 0.875129 0.440952
O O8 0.279881 0.421807 0.775335
O O9 0.064737 0.213186 0.820600
O O10 0.133951 0.382624 0.355484
O O11 0.179722 0.370689 0.511122
O O12 0.283067 0.191016 0.428533
O O13 0.840538 0.898489 0.296706
O O14 0.460637 0.007469 0.366750
#
# Coordination Sequence:
#
# PCOD9314528 Si02
#       7
#     4   4   4   4   4   4   4
#     4  10  21  44  69  91 136 178 222 291 362 412
#     4  10  23  44  73 103 139 184 238 301 354 423
#     4  10  24  44  68  97 143 184 230 304 359 421
#     4  10  21  43  69  94 134 175 226 293 351 424
#     4  11  25  42  68 106 133 185 242 290 360 445
#     4  10  24  44  63 101 139 188 227 289 371 422
#     4  11  22  41  70 100 128 178 241 288 353 431
#
# _framework density 25.088671999999999
#
# number of rings (size 3 to 8) (size 9 to 14) (size 15 to 20)
#    0.000    1.714    1.429    2.571   14.000    0.000 
#   12.857    0.000    0.000    0.000    0.000    0.000 
#    0.000    0.000    0.000    0.000    0.000    0.000 
#
# Total GULP energy -155933.519690 kJ/mol
# GULP energy per Si atom -5569.054275 kJ/mol
# Density = 2.503157 g / cm^3
# Si number density = 25.088672 Si / 1000 Ang^3
#
#
#
# Elastic Constant Matrix: (Units=GPa)
#
#
# Indices 1 2 3 4 5 6 
#
# 1 23.1493 -1.9941 -12.7043 0.0000 0.0000 0.0000
# 2 -1.9941 133.8419 1.3314 0.0000 0.0000 0.0000
# 3 -12.7043 1.3314 48.9749 0.0000 0.0000 0.0000
# 4 0.0000 0.0000 0.0000 23.8322 0.0000 0.0000
# 5 0.0000 0.0000 0.0000 0.0000 20.0442 0.0000
# 6 0.0000 0.0000 0.0000 0.0000 0.0000 27.8299
#
#
#
# Elastic Compliance Matrix: (Units=1/GPa)
#
#
# Indices 1 2 3 4 5 6 
#
# 1 0.050420 0.000621 0.013062 0.000000 0.000000 0.000000
# 2 0.000621 0.007481 -0.000042 0.000000 0.000000 0.000000
# 3 0.013062 -0.000042 0.023808 0.000000 0.000000 0.000000
# 4 0.000000 0.000000 0.000000 0.041960 0.000000 0.000000
# 5 0.000000 0.000000 0.000000 0.000000 0.049890 0.000000
# 6 0.000000 0.000000 0.000000 0.000000 0.000000 0.035933
#
#
# Mechanical properties :
#
#
# Convention : Reuss Voigt Hill
#
# Bulk Modulus (GPa) = 9.17501 19.91468 14.54484
# Shear Modulus (GPa) = 22.87914 28.96346 25.92130
#
# Velocity S-wave (km/s) = 3.02310 3.40140 3.21781
# Velocity P-wave (km/s) = 3.98126 4.83539 4.42896
#
# Compressibility (1/GPa) = 0.10899175
#
# Stress axis : x y z
#
# Youngs Moduli (GPa) = 19.83345 133.66881 42.00240
#
# Poissons Ratio (x) = -0.08304 -0.54864
# Poissons Ratio (y) = -0.01232 0.00177
# Poissons Ratio (z) = -0.25907 0.00564
#
# Static dielectric constant tensor:
#      x y z
#    x 2.205160 0.000000 0.000000 
#    y 0.000000 2.187560 0.000000 
#    z 0.000000 0.000000 2.034730 
# 
# From -- ./inp_files/6417.got.cif
#   From: 2010.05.17/outbox.cif.g08.bks.cpg/sg19_4_cif.got.tgz:6417.got - 2010.06.03 22:46:19.
