data_PCOD9314013
_publ_section_title
;
Structure prediction by ZEFSAII (Michael W. Deem and Ramdas Pophale) SiO2 
 PCOD9314013
Probable space group: P 21 21 21
;
_chemical_formula_sum "Si O2"
_cell_formula_units_Z 32
_cell_length_a 9.926003
_cell_length_b 15.413994
_cell_length_c 8.002641
_cell_angle_alpha 90.000000
_cell_angle_beta 90.000000
_cell_angle_gamma 90.000000
_cell_volume 1224.398877
_symmetry_space_group_name_H-M "P 21 21 21"
_symmetry_group_IT_number 19
_symmetry_cell_setting 'orthorhombic'
loop_
_space_group_symop_operation_xyz
x,y,z
1/2-x,-y,1/2+z
1/2+x,1/2-y,-z
-x,1/2+y,1/2-z
loop_
_atom_site_type_symbol
_atom_site_label
_atom_site_fract_x
_atom_site_fract_y
_atom_site_fract_z
Si Si1 0.970531 0.777024 0.030600
Si Si2 0.659750 0.373263 0.152962
Si Si3 0.724918 0.180231 0.218142
Si Si4 0.122322 0.493282 0.951487
Si Si5 0.856209 0.407813 0.871371
Si Si6 0.250106 0.854960 0.977181
Si Si7 0.599577 0.792550 0.453749
Si Si8 0.809386 0.891097 0.242997
O O1 0.129049 0.781945 0.993058
O O2 0.942302 0.847572 0.171551
O O3 0.871462 0.810372 0.880516
O O4 0.894590 0.687306 0.068397
O O5 0.683635 0.270121 0.129714
O O6 0.500503 0.366792 0.122188
O O7 0.725449 0.390341 0.334895
O O8 0.736804 0.418876 0.003341
O O9 0.686286 0.088055 0.145680
O O10 0.881709 0.189144 0.153162
O O11 0.967457 0.480859 0.904964
O O12 0.203647 0.576784 0.895315
O O13 0.147672 0.471590 0.143380
O O14 0.804924 0.408346 0.680785
O O15 0.918541 0.310510 0.912652
O O16 0.734498 0.819360 0.353319
#
# Coordination Sequence:
#
# PCOD9314013 Si02
#       8
#     4   4   4   4   4   4   4   4
#     4  11  21  38  57 100 125 168 215 269 330 393
#     4  10  21  36  61  93 127 166 215 269 329 390
#     4   9  19  34  61  85 125 158 208 269 321 377
#     4  11  21  39  59  90 119 171 212 271 327 391
#     4  11  20  37  63  88 125 167 214 266 332 385
#     4  11  22  35  64  94 135 165 215 278 324 385
#     4  10  20  40  59  94 126 167 214 284 318 396
#     4  11  24  37  66  88 132 166 219 276 331 385
#
# _framework density 26.135273000000002
#
# number of rings (size 3 to 8) (size 9 to 14) (size 15 to 20)
#    0.000    1.500    3.750    2.250    0.000    3.000 
#    0.000    0.000    2.750    0.000    0.000    0.000 
#    0.000    0.000    0.000    0.000    0.000    0.000 
#
# Total GULP energy -178465.506115 kJ/mol
# GULP energy per Si atom -5577.047066 kJ/mol
# Density = 2.607579 g / cm^3
# Si number density = 26.135273 Si / 1000 Ang^3
#
#
#
# Elastic Constant Matrix: (Units=GPa)
#
#
# Indices 1 2 3 4 5 6 
#
# 1 110.2268 19.2723 39.6655 0.0000 0.0000 0.0000
# 2 19.2723 58.0336 1.5255 0.0000 0.0000 0.0000
# 3 39.6655 1.5255 91.4638 0.0000 0.0000 0.0000
# 4 0.0000 0.0000 0.0000 42.3873 0.0000 0.0000
# 5 0.0000 0.0000 0.0000 0.0000 37.1752 0.0000
# 6 0.0000 0.0000 0.0000 0.0000 0.0000 42.5313
#
#
#
# Elastic Compliance Matrix: (Units=1/GPa)
#
#
# Indices 1 2 3 4 5 6 
#
# 1 0.011487 -0.003685 -0.004920 0.000000 0.000000 0.000000
# 2 -0.003685 0.018421 0.001291 0.000000 0.000000 0.000000
# 3 -0.004920 0.001291 0.013046 0.000000 0.000000 0.000000
# 4 0.000000 0.000000 0.000000 0.023592 0.000000 0.000000
# 5 0.000000 0.000000 0.000000 0.000000 0.026900 0.000000
# 6 0.000000 0.000000 0.000000 0.000000 0.000000 0.023512
#
#
# Mechanical properties :
#
#
# Convention : Reuss Voigt Hill
#
# Bulk Modulus (GPa) = 35.30477 42.29456 38.79966
# Shear Modulus (GPa) = 35.45384 37.70283 36.57834
#
# Velocity S-wave (km/s) = 3.68714 3.80228 3.74515
# Velocity P-wave (km/s) = 5.62711 5.95773 5.79478
#
# Compressibility (1/GPa) = 0.02832479
#
# Stress axis : x y z
#
# Youngs Moduli (GPa) = 87.05404 54.28492 76.65468
#
# Poissons Ratio (x) = 0.20006 0.37716
# Poissons Ratio (y) = 0.32083 -0.09896
# Poissons Ratio (z) = 0.42832 -0.07008
#
# Static dielectric constant tensor:
#      x y z
#    x 2.250450 0.000000 0.000000 
#    y 0.000000 2.025790 0.000000 
#    z 0.000000 0.000000 2.218710 
# 
# From -- ./inp_files/3199.got.cif
#   From: 2010.05.17/outbox.cif.g08.bks.cpg/sg19_2_cif.got.tgz:3199.got - 2010.06.03 22:46:19.
