data_PCOD9314554
_publ_section_title
;
Structure prediction by ZEFSAII (Michael W. Deem and Ramdas Pophale) SiO2 
 PCOD9314554
Probable space group: P 21 21 21
;
_chemical_formula_sum "Si O2"
_cell_formula_units_Z 32
_cell_length_a 13.110444
_cell_length_b 7.323422
_cell_length_c 13.232872
_cell_angle_alpha 90.000000
_cell_angle_beta 90.000000
_cell_angle_gamma 90.000000
_cell_volume 1270.531895
_symmetry_space_group_name_H-M "P 21 21 21"
_symmetry_group_IT_number 19
_symmetry_cell_setting 'orthorhombic'
loop_
_space_group_symop_operation_xyz
x,y,z
1/2-x,-y,1/2+z
1/2+x,1/2-y,-z
-x,1/2+y,1/2-z
loop_
_atom_site_type_symbol
_atom_site_label
_atom_site_fract_x
_atom_site_fract_y
_atom_site_fract_z
Si Si1 0.281986 0.021325 0.469712
Si Si2 0.368508 0.772515 0.610554
Si Si3 0.073142 0.105730 0.589568
Si Si4 0.178227 0.858300 0.742985
Si Si5 0.165103 0.605406 0.226459
Si Si6 0.626832 0.020207 0.342798
Si Si7 0.091296 0.570716 0.435335
Si Si8 0.959573 0.240987 0.429507
O O1 0.173169 0.068716 0.518864
O O2 0.295371 0.064319 0.352460
O O3 0.366803 0.148381 0.522350
O O4 0.317158 0.817293 0.501961
O O5 0.286257 0.877692 0.682640
O O6 0.363548 0.580086 0.666646
O O7 0.485272 0.832070 0.594854
O O8 0.050698 0.310567 0.635823
O O9 0.982883 0.077136 0.507540
O O10 0.091853 0.973403 0.683905
O O11 0.140807 0.645016 0.737283
O O12 0.273971 0.644954 0.178688
O O13 0.169135 0.607650 0.345916
O O14 0.072787 0.725067 0.186124
O O15 0.624575 0.908755 0.448987
O O16 0.062393 0.357631 0.427796
#
# Coordination Sequence:
#
# PCOD9314554 Si02
#       8
#     4   4   4   4   4   4   4   4
#     4  10  21  45  64  85 135 162 204 273 315 372
#     4   9  22  40  62  98 123 162 217 263 315 393
#     4  10  22  44  61  93 128 161 217 263 308 395
#     4  10  23  43  66  93 125 175 205 260 333 372
#     4  11  21  37  63  97 121 166 215 254 331 377
#     4  10  23  40  62  93 128 162 211 257 318 381
#     4  10  22  40  63  91 133 160 208 277 310 383
#     4  10  22  39  63  92 123 168 205 265 322 371
#
# _framework density 25.186302999999999
#
# number of rings (size 3 to 8) (size 9 to 14) (size 15 to 20)
#    0.000    2.000    1.250    0.750   10.500    0.000 
#   15.750    0.000    0.000    0.000    0.000    0.000 
#    0.000    0.000    0.000    0.000    0.000    0.000 
#
# Total GULP energy -178295.183388 kJ/mol
# GULP energy per Si atom -5571.724481 kJ/mol
# Density = 2.512898 g / cm^3
# Si number density = 25.186303 Si / 1000 Ang^3
#
#
#
# Elastic Constant Matrix: (Units=GPa)
#
#
# Indices 1 2 3 4 5 6 
#
# 1 52.2820 -4.5537 5.6834 0.0000 0.0000 0.0000
# 2 -4.5537 44.1773 0.2266 0.0000 0.0000 0.0000
# 3 5.6834 0.2266 128.6447 0.0000 0.0000 0.0000
# 4 0.0000 0.0000 0.0000 25.1541 0.0000 0.0000
# 5 0.0000 0.0000 0.0000 0.0000 28.6222 0.0000
# 6 0.0000 0.0000 0.0000 0.0000 0.0000 33.8748
#
#
#
# Elastic Compliance Matrix: (Units=1/GPa)
#
#
# Indices 1 2 3 4 5 6 
#
# 1 0.019395 0.002004 -0.000860 0.000000 0.000000 0.000000
# 2 0.002004 0.022843 -0.000129 0.000000 0.000000 0.000000
# 3 -0.000860 -0.000129 0.007812 0.000000 0.000000 0.000000
# 4 0.000000 0.000000 0.000000 0.039755 0.000000 0.000000
# 5 0.000000 0.000000 0.000000 0.000000 0.034938 0.000000
# 6 0.000000 0.000000 0.000000 0.000000 0.000000 0.029520
#
#
# Mechanical properties :
#
#
# Convention : Reuss Voigt Hill
#
# Bulk Modulus (GPa) = 19.20163 25.31294 22.25729
# Shear Modulus (GPa) = 29.48219 32.44673 30.96446
#
# Velocity S-wave (km/s) = 3.42506 3.59314 3.51011
# Velocity P-wave (km/s) = 4.82512 5.22363 5.02833
#
# Compressibility (1/GPa) = 0.05207891
#
# Stress axis : x y z
#
# Youngs Moduli (GPa) = 51.55942 43.77658 128.01495
#
# Poissons Ratio (x) = -0.08771 0.11014
# Poissons Ratio (y) = -0.10331 0.01648
# Poissons Ratio (z) = 0.04436 0.00564
#
# Static dielectric constant tensor:
#      x y z
#    x 2.008490 0.000000 0.000000 
#    y 0.000000 2.184570 0.000000 
#    z 0.000000 0.000000 2.021660 
# 
# From -- ./inp_files/5289.got.cif
#   From: 2010.05.17/outbox.cif.g08.bks.cpg/sg19_3_cif.got.tgz:5289.got - 2010.06.03 22:46:19.
