data_PCOD9314498
_publ_section_title
;
Structure prediction by ZEFSAII (Michael W. Deem and Ramdas Pophale) SiO2 
 PCOD9314498
Probable space group: P 21 21 21
;
_chemical_formula_sum "Si O2"
_cell_formula_units_Z 28
_cell_length_a 9.524740
_cell_length_b 11.152735
_cell_length_c 12.964405
_cell_angle_alpha 90.000000
_cell_angle_beta 90.000000
_cell_angle_gamma 90.000000
_cell_volume 1377.168569
_symmetry_space_group_name_H-M "P 21 21 21"
_symmetry_group_IT_number 19
_symmetry_cell_setting 'orthorhombic'
loop_
_space_group_symop_operation_xyz
x,y,z
1/2-x,-y,1/2+z
1/2+x,1/2-y,-z
-x,1/2+y,1/2-z
loop_
_atom_site_type_symbol
_atom_site_label
_atom_site_fract_x
_atom_site_fract_y
_atom_site_fract_z
Si Si1 0.866834 0.025433 0.960204
Si Si2 0.851068 0.165698 0.401448
Si Si3 0.475614 0.396718 0.817943
Si Si4 0.829966 0.589192 0.600887
Si Si5 0.875393 0.800893 0.438519
Si Si6 0.729201 0.584210 0.821131
Si Si7 0.574416 0.484486 0.492053
O O1 0.764922 0.126846 0.911545
O O2 0.017796 0.029668 0.906929
O O3 0.786111 0.901481 0.944226
O O4 0.889157 0.060471 0.080872
O O5 0.826820 0.305959 0.389065
O O6 0.890143 0.113813 0.287704
O O7 0.979070 0.127151 0.475086
O O8 0.543928 0.267821 0.847235
O O9 0.604094 0.489678 0.806231
O O10 0.835473 0.698338 0.520193
O O11 0.785521 0.632531 0.712887
O O12 0.709954 0.498182 0.564581
O O13 0.979462 0.898193 0.488825
O O14 0.859960 0.523837 0.879323
#
# Coordination Sequence:
#
# PCOD9314498 Si02
#       7
#     4   4   4   4   4   4   4
#     4  10  23  41  67  96 128 167 225 278 319 386
#     4  11  26  43  65  95 139 176 218 270 336 398
#     4  11  23  42  69  92 131 174 219 266 335 389
#     4  11  21  41  67  98 127 165 225 272 323 389
#     4  10  21  42  70  95 125 172 223 274 318 389
#     4  12  25  40  66  98 132 177 214 274 329 390
#     4  11  23  43  66  96 132 177 218 268 336 389
#
# _framework density 20.331571
#
# number of rings (size 3 to 8) (size 9 to 14) (size 15 to 20)
#    0.000    1.143    4.286    3.429    4.000    3.429 
#    0.000    1.429    0.000    0.000    0.000    0.000 
#    0.000    0.000    0.000    0.000    0.000    0.000 
#
# Total GULP energy -156516.019492 kJ/mol
# GULP energy per Si atom -5589.857839 kJ/mol
# Density = 2.028530 g / cm^3
# Si number density = 20.331571 Si / 1000 Ang^3
#
#
#
# Elastic Constant Matrix: (Units=GPa)
#
#
# Indices 1 2 3 4 5 6 
#
# 1 103.0450 22.4365 -8.5372 0.0000 0.0000 0.0000
# 2 22.4365 44.5436 -16.5059 0.0000 0.0000 0.0000
# 3 -8.5372 -16.5059 30.4617 0.0000 0.0000 0.0000
# 4 0.0000 0.0000 0.0000 15.8230 0.0000 0.0000
# 5 0.0000 0.0000 0.0000 0.0000 5.8822 0.0000
# 6 0.0000 0.0000 0.0000 0.0000 0.0000 2.6067
#
#
#
# Elastic Compliance Matrix: (Units=1/GPa)
#
#
# Indices 1 2 3 4 5 6 
#
# 1 0.010900 -0.005453 0.000100 0.000000 0.000000 0.000000
# 2 -0.005453 0.030818 0.015171 0.000000 0.000000 0.000000
# 3 0.000100 0.015171 0.041077 0.000000 0.000000 0.000000
# 4 0.000000 0.000000 0.000000 0.063199 0.000000 0.000000
# 5 0.000000 0.000000 0.000000 0.000000 0.170006 0.000000
# 6 0.000000 0.000000 0.000000 0.000000 0.000000 0.383632
#
#
# Mechanical properties :
#
#
# Convention : Reuss Voigt Hill
#
# Bulk Modulus (GPa) = 9.76275 19.20411 14.48343
# Shear Modulus (GPa) = 7.00143 16.90616 11.95379
#
# Velocity S-wave (km/s) = 1.85771 2.88674 2.42738
# Velocity P-wave (km/s) = 3.06817 4.53619 3.87238
#
# Compressibility (1/GPa) = 0.10243012
#
# Stress axis : x y z
#
# Youngs Moduli (GPa) = 91.74176 32.44813 24.34477
#
# Poissons Ratio (x) = 0.17695 -0.00243
# Poissons Ratio (y) = 0.50030 -0.36933
# Poissons Ratio (z) = -0.00917 -0.49227
#
# Static dielectric constant tensor:
#      x y z
#    x 1.716770 0.000000 0.000000 
#    y 0.000000 1.723670 0.000000 
#    z 0.000000 0.000000 1.780090 
# 
# From -- ./inp_files/5886.got.cif
#   From: 2010.05.17/outbox.cif.g08.bks.cpg/sg19_3_cif.got.tgz:5886.got - 2010.06.03 22:46:19.
