data_PCOD9314691
_publ_section_title
;
Structure prediction by ZEFSAII (Michael W. Deem and Ramdas Pophale) SiO2 
 PCOD9314691
Probable space group: P 21 21 21
;
_chemical_formula_sum "Si O2"
_cell_formula_units_Z 32
_cell_length_a 9.918450
_cell_length_b 5.442144
_cell_length_c 25.613972
_cell_angle_alpha 90.000000
_cell_angle_beta 90.000000
_cell_angle_gamma 90.000000
_cell_volume 1382.581584
_symmetry_space_group_name_H-M "P 21 21 21"
_symmetry_group_IT_number 19
_symmetry_cell_setting 'orthorhombic'
loop_
_space_group_symop_operation_xyz
x,y,z
1/2-x,-y,1/2+z
1/2+x,1/2-y,-z
-x,1/2+y,1/2-z
loop_
_atom_site_type_symbol
_atom_site_label
_atom_site_fract_x
_atom_site_fract_y
_atom_site_fract_z
Si Si1 0.535877 0.036034 0.777399
Si Si2 0.427955 0.242464 0.080915
Si Si3 0.068601 0.124844 0.484230
Si Si4 0.672747 0.148639 0.264773
Si Si5 0.458438 0.374402 0.331305
Si Si6 0.725723 0.004212 0.973416
Si Si7 0.728460 0.514444 0.675147
Si Si8 0.293008 0.858897 0.426604
O O1 0.496259 0.820506 0.735718
O O2 0.695277 0.001815 0.781737
O O3 0.430399 0.964409 0.822621
O O4 0.277082 0.350830 0.078090
O O5 0.551097 0.437410 0.077715
O O6 0.478171 0.057641 0.125922
O O7 0.431398 0.089801 0.027147
O O8 0.913358 0.145524 0.466498
O O9 0.144323 0.345300 0.512108
O O10 0.175814 0.050213 0.439941
O O11 0.581281 0.199197 0.314502
O O12 0.725604 0.387439 0.232118
O O13 0.580817 0.014537 0.222012
O O14 0.324517 0.210749 0.341280
O O15 0.708116 0.170609 0.025342
O O16 0.754761 0.725325 0.631792
#
# Coordination Sequence:
#
# PCOD9314691 Si02
#       8
#     4   4   4   4   4   4   4   4
#     4  10  22  43  67  96 138 183 227 288 345 409
#     4  10  23  40  65  96 128 172 223 275 338 407
#     4  10  22  41  67  93 131 176 213 278 344 407
#     4  11  23  42  65  99 135 176 228 285 342 411
#     4  12  23  41  66  99 132 178 225 283 345 414
#     4  10  22  43  66  97 136 170 221 278 341 412
#     4  11  23  40  68  95 132 178 229 270 352 413
#     4  10  22  40  66  97 126 171 224 275 333 421
#
# _framework density 23.145109999999999
#
# number of rings (size 3 to 8) (size 9 to 14) (size 15 to 20)
#    0.000    1.500    3.750    0.750    5.250    1.000 
#    2.250    6.250    0.000    0.000    0.000    0.000 
#    0.000    0.000    0.000    0.000    0.000    0.000 
#
# Total GULP energy -178277.781886 kJ/mol
# GULP energy per Si atom -5571.180684 kJ/mol
# Density = 2.309243 g / cm^3
# Si number density = 23.145110 Si / 1000 Ang^3
#
#
#
# Elastic Constant Matrix: (Units=GPa)
#
#
# Indices 1 2 3 4 5 6 
#
# 1 97.8292 -8.5638 20.0788 0.0000 0.0000 0.0000
# 2 -8.5638 22.1353 -8.0433 0.0000 0.0000 0.0000
# 3 20.0788 -8.0433 59.9945 0.0000 0.0000 0.0000
# 4 0.0000 0.0000 0.0000 25.3269 0.0000 0.0000
# 5 0.0000 0.0000 0.0000 0.0000 32.8763 0.0000
# 6 0.0000 0.0000 0.0000 0.0000 0.0000 33.2338
#
#
#
# Elastic Compliance Matrix: (Units=1/GPa)
#
#
# Indices 1 2 3 4 5 6 
#
# 1 0.011177 0.003117 -0.003323 0.000000 0.000000 0.000000
# 2 0.003117 0.048359 0.005440 0.000000 0.000000 0.000000
# 3 -0.003323 0.005440 0.018510 0.000000 0.000000 0.000000
# 4 0.000000 0.000000 0.000000 0.039484 0.000000 0.000000
# 5 0.000000 0.000000 0.000000 0.000000 0.030417 0.000000
# 6 0.000000 0.000000 0.000000 0.000000 0.000000 0.030090
#
#
# Mechanical properties :
#
#
# Convention : Reuss Voigt Hill
#
# Bulk Modulus (GPa) = 11.29760 20.76692 16.03226
# Shear Modulus (GPa) = 25.37137 30.05321 27.71229
#
# Velocity S-wave (km/s) = 3.31446 3.60734 3.46400
# Velocity P-wave (km/s) = 4.42033 5.13249 4.78967
#
# Compressibility (1/GPa) = 0.08851437
#
# Stress axis : x y z
#
# Youngs Moduli (GPa) = 89.47181 20.67849 54.02593
#
# Poissons Ratio (x) = -0.06445 0.17951
# Poissons Ratio (y) = -0.27886 -0.29392
# Poissons Ratio (z) = 0.29729 -0.11250
#
# Static dielectric constant tensor:
#      x y z
#    x 1.925410 0.000000 0.000000 
#    y 0.000000 2.018200 0.000000 
#    z 0.000000 0.000000 1.901110 
# 
# From -- ./inp_files/7604.got.cif
#   From: 2010.05.17/outbox.cif.g08.bks.cpg/sg19_4_cif.got.tgz:7604.got - 2010.06.03 22:46:19.
