data_PCOD9314577
_publ_section_title
;
Structure prediction by ZEFSAII (Michael W. Deem and Ramdas Pophale) SiO2 
 PCOD9314577
Probable space group: P 21 21 21
;
_chemical_formula_sum "Si O2"
_cell_formula_units_Z 24
_cell_length_a 14.841013
_cell_length_b 13.235073
_cell_length_c 5.225828
_cell_angle_alpha 90.000000
_cell_angle_beta 90.000000
_cell_angle_gamma 90.000000
_cell_volume 1026.467015
_symmetry_space_group_name_H-M "P 21 21 21"
_symmetry_group_IT_number 19
_symmetry_cell_setting 'orthorhombic'
loop_
_space_group_symop_operation_xyz
x,y,z
1/2-x,-y,1/2+z
1/2+x,1/2-y,-z
-x,1/2+y,1/2-z
loop_
_atom_site_type_symbol
_atom_site_label
_atom_site_fract_x
_atom_site_fract_y
_atom_site_fract_z
Si Si1 0.913470 0.755347 0.109100
Si Si2 0.439664 0.380397 0.331492
Si Si3 0.846052 0.309398 0.811855
Si Si4 0.493007 0.069261 0.905740
Si Si5 0.766371 0.661959 0.819342
Si Si6 0.902381 0.576150 0.471340
O O1 0.835086 0.752137 0.898577
O O2 0.877475 0.679885 0.328337
O O3 0.998252 0.694949 0.997100
O O4 0.950266 0.857087 0.226337
O O5 0.357678 0.308747 0.260586
O O6 0.439420 0.485696 0.479628
O O7 0.498332 0.406368 0.082908
O O8 0.441045 0.133584 0.125875
O O9 0.707226 0.642021 0.073072
O O10 0.797443 0.313254 0.084245
O O11 0.416419 0.010325 0.739416
O O12 0.833089 0.573481 0.711011
#
# Coordination Sequence:
#
# PCOD9314577 Si02
#       6
#     4   4   4   4   4   4
#     4  10  21  48  71 103 148 193 240 306 365 426
#     4  10  24  42  73 109 141 189 261 296 344 459
#     4  12  25  47  75 109 152 195 239 310 378 425
#     4  11  25  44  81 108 140 203 256 297 357 435
#     4  11  25  46  74 105 155 191 230 311 391 421
#     4  10  22  47  70 108 144 187 250 306 349 448
#
# _framework density 23.381167999999999
#
# number of rings (size 3 to 8) (size 9 to 14) (size 15 to 20)
#    0.000    1.333    3.333    1.000    7.000    0.000 
#    9.000    0.000    7.333    0.000    0.000    0.000 
#    0.000    0.000    0.000    0.000    0.000    0.000 
#
# Total GULP energy -134094.652104 kJ/mol
# GULP energy per Si atom -5587.277171 kJ/mol
# Density = 2.332795 g / cm^3
# Si number density = 23.381168 Si / 1000 Ang^3
#
#
#
# Elastic Constant Matrix: (Units=GPa)
#
#
# Indices 1 2 3 4 5 6 
#
# 1 53.9710 42.7680 40.1250 0.0000 0.0000 0.0000
# 2 42.7680 134.9860 56.1049 0.0000 0.0000 0.0000
# 3 40.1250 56.1049 149.3968 0.0000 0.0000 0.0000
# 4 0.0000 0.0000 0.0000 48.0451 0.0000 0.0000
# 5 0.0000 0.0000 0.0000 0.0000 51.5280 0.0000
# 6 0.0000 0.0000 0.0000 0.0000 0.0000 5.5266
#
#
#
# Elastic Compliance Matrix: (Units=1/GPa)
#
#
# Indices 1 2 3 4 5 6 
#
# 1 0.027428 -0.006669 -0.004862 0.000000 0.000000 0.000000
# 2 -0.006669 0.010400 -0.002114 0.000000 0.000000 0.000000
# 3 -0.004862 -0.002114 0.008793 0.000000 0.000000 0.000000
# 4 0.000000 0.000000 0.000000 0.020814 0.000000 0.000000
# 5 0.000000 0.000000 0.000000 0.000000 0.019407 0.000000
# 6 0.000000 0.000000 0.000000 0.000000 0.000000 0.180944
#
#
# Mechanical properties :
#
#
# Convention : Reuss Voigt Hill
#
# Bulk Modulus (GPa) = 51.73271 68.48329 60.10800
# Shear Modulus (GPa) = 16.58256 34.31032 25.44644
#
# Velocity S-wave (km/s) = 2.66602 3.83487 3.30256
# Velocity P-wave (km/s) = 5.62590 6.99727 6.34872
#
# Compressibility (1/GPa) = 0.01933013
#
# Stress axis : x y z
#
# Youngs Moduli (GPa) = 36.45898 96.15339 113.72053
#
# Poissons Ratio (x) = 0.64127 0.55291
# Poissons Ratio (y) = 0.24316 0.24045
# Poissons Ratio (z) = 0.17727 0.20331
#
# Static dielectric constant tensor:
#      x y z
#    x 1.951750 0.000000 0.000000 
#    y 0.000000 1.951880 0.000000 
#    z 0.000000 0.000000 1.956270 
# 
# From -- ./inp_files/1717.got.cif
#   From: 2010.05.17/outbox.cif.g08.bks.cpg/sg19_1_cif.got.tgz:1717.got - 2010.06.03 22:46:19.
