data_PCOD9314785
_publ_section_title
;
Structure prediction by ZEFSAII (Michael W. Deem and Ramdas Pophale) SiO2 
 PCOD9314785
Probable space group: P 21 21 21
;
_chemical_formula_sum "Si O2"
_cell_formula_units_Z 24
_cell_length_a 4.988536
_cell_length_b 18.148510
_cell_length_c 11.575907
_cell_angle_alpha 90.000000
_cell_angle_beta 90.000000
_cell_angle_gamma 90.000000
_cell_volume 1048.018900
_symmetry_space_group_name_H-M "P 21 21 21"
_symmetry_group_IT_number 19
_symmetry_cell_setting 'orthorhombic'
loop_
_space_group_symop_operation_xyz
x,y,z
1/2-x,-y,1/2+z
1/2+x,1/2-y,-z
-x,1/2+y,1/2-z
loop_
_atom_site_type_symbol
_atom_site_label
_atom_site_fract_x
_atom_site_fract_y
_atom_site_fract_z
Si Si1 0.659096 0.427049 0.321968
Si Si2 0.911159 0.744356 0.303281
Si Si3 0.611002 0.157041 0.135850
Si Si4 0.806254 0.274853 0.433999
Si Si5 0.505449 0.600064 0.612089
Si Si6 0.846724 0.011648 0.224321
O O1 0.364535 0.457194 0.335882
O O2 0.730709 0.358815 0.402777
O O3 0.721591 0.402544 0.188426
O O4 0.868015 0.494866 0.334412
O O5 0.638311 0.699506 0.309700
O O6 0.054745 0.741415 0.179626
O O7 0.140770 0.712540 0.389382
O O8 0.857793 0.829610 0.330977
O O9 0.741424 0.093350 0.214136
O O10 0.499827 0.117645 0.021206
O O11 0.034700 0.266416 0.530624
O O12 0.375430 0.521993 0.646961
#
# Coordination Sequence:
#
# PCOD9314785 Si02
#       6
#     4   4   4   4   4   4
#     4   9  21  41  63  87 127 173 217 248 326 406
#     4  11  25  41  66  98 131 161 228 275 314 397
#     4  12  24  42  65 102 129 164 223 280 320 380
#     4  11  22  41  65  94 129 173 217 267 329 387
#     4   9  24  41  71  87 134 175 208 260 350 375
#     4  10  22  42  62  90 134 170 215 262 321 407
#
# _framework density 22.900351000000001
#
# number of rings (size 3 to 8) (size 9 to 14) (size 15 to 20)
#    1.000    0.667    0.000    4.000    7.000    0.000 
#    9.000    0.000    0.000    0.000    0.000    0.000 
#    0.000    0.000    0.000    0.000    0.000    0.000 
#
# Total GULP energy -134010.866875 kJ/mol
# GULP energy per Si atom -5583.786120 kJ/mol
# Density = 2.284823 g / cm^3
# Si number density = 22.900351 Si / 1000 Ang^3
#
#
#
# Elastic Constant Matrix: (Units=GPa)
#
#
# Indices 1 2 3 4 5 6 
#
# 1 92.5097 5.0907 1.4514 0.0000 0.0000 0.0000
# 2 5.0907 75.8114 8.6520 0.0000 0.0000 0.0000
# 3 1.4514 8.6520 44.3720 0.0000 0.0000 0.0000
# 4 0.0000 0.0000 0.0000 22.9048 0.0000 0.0000
# 5 0.0000 0.0000 0.0000 0.0000 15.3934 0.0000
# 6 0.0000 0.0000 0.0000 0.0000 0.0000 38.3366
#
#
#
# Elastic Compliance Matrix: (Units=1/GPa)
#
#
# Indices 1 2 3 4 5 6 
#
# 1 0.010852 -0.000704 -0.000218 0.000000 0.000000 0.000000
# 2 -0.000704 0.013536 -0.002616 0.000000 0.000000 0.000000
# 3 -0.000218 -0.002616 0.023054 0.000000 0.000000 0.000000
# 4 0.000000 0.000000 0.000000 0.043659 0.000000 0.000000
# 5 0.000000 0.000000 0.000000 0.000000 0.064963 0.000000
# 6 0.000000 0.000000 0.000000 0.000000 0.000000 0.026085
#
#
# Mechanical properties :
#
#
# Convention : Reuss Voigt Hill
#
# Bulk Modulus (GPa) = 24.77311 27.00904 25.89108
# Shear Modulus (GPa) = 24.66937 28.49355 26.58146
#
# Velocity S-wave (km/s) = 3.28571 3.53121 3.41067
# Velocity P-wave (km/s) = 5.02352 5.33345 5.18080
#
# Compressibility (1/GPa) = 0.04036635
#
# Stress axis : x y z
#
# Youngs Moduli (GPa) = 92.15037 73.87440 43.37638
#
# Poissons Ratio (x) = 0.05200 0.00944
# Poissons Ratio (y) = 0.06486 0.11349
# Poissons Ratio (z) = 0.02006 0.19329
#
# Static dielectric constant tensor:
#      x y z
#    x 1.848940 0.000000 0.000000 
#    y 0.000000 1.850560 0.000000 
#    z 0.000000 0.000000 1.897030 
# 
# From -- ./inp_files/4504.got.cif
#   From: 2010.05.17/outbox.cif.g08.bks.cpg/sg19_3_cif.got.tgz:4504.got - 2010.06.03 22:46:19.
