data_PCOD9314887
_publ_section_title
;
Structure prediction by ZEFSAII (Michael W. Deem and Ramdas Pophale) SiO2 
 PCOD9314887
Probable space group: P 21 21 21
;
_chemical_formula_sum "Si O2"
_cell_formula_units_Z 32
_cell_length_a 11.708691
_cell_length_b 19.411294
_cell_length_c 5.331398
_cell_angle_alpha 90.000000
_cell_angle_beta 90.000000
_cell_angle_gamma 90.000000
_cell_volume 1211.724634
_symmetry_space_group_name_H-M "P 21 21 21"
_symmetry_group_IT_number 19
_symmetry_cell_setting 'orthorhombic'
loop_
_space_group_symop_operation_xyz
x,y,z
1/2-x,-y,1/2+z
1/2+x,1/2-y,-z
-x,1/2+y,1/2-z
loop_
_atom_site_type_symbol
_atom_site_label
_atom_site_fract_x
_atom_site_fract_y
_atom_site_fract_z
Si Si1 0.186274 0.015005 0.655821
Si Si2 0.536955 0.301790 0.665006
Si Si3 0.144213 0.576178 0.153732
Si Si4 0.237789 0.373425 0.170993
Si Si5 0.476445 0.157644 0.413328
Si Si6 0.141369 0.757097 0.521905
Si Si7 0.958259 0.934564 0.527569
Si Si8 0.743956 0.342083 0.373419
O O1 0.173175 0.094613 0.743660
O O2 0.256770 0.019767 0.396857
O O3 0.078447 0.971269 0.572007
O O4 0.460978 0.370194 0.612340
O O5 0.519312 0.233324 0.493114
O O6 0.475568 0.277383 0.919804
O O7 0.667655 0.322385 0.614749
O O8 0.225979 0.589743 0.921049
O O9 0.106186 0.498120 0.108271
O O10 0.203000 0.592840 0.421800
O O11 0.292769 0.298146 0.187590
O O12 0.100960 0.373380 0.135151
O O13 0.558131 0.098858 0.306437
O O14 0.376053 0.133552 0.597919
O O15 0.399478 0.176014 0.166827
O O16 0.230728 0.776413 0.301760
#
# Coordination Sequence:
#
# PCOD9314887 Si02
#       8
#     4   4   4   4   4   4   4   4
#     4  12  27  48  68 103 146 186 238 292 357 434
#     4  10  22  43  69  99 137 190 232 291 365 420
#     4  11  24  48  71 106 144 186 240 297 358 429
#     4  11  25  47  74 105 144 186 244 299 354 428
#     4  11  23  46  66 104 139 179 248 293 357 429
#     4  10  23  44  68 101 139 183 241 300 352 431
#     4  12  25  45  74 108 141 194 239 298 361 429
#     4  11  23  43  68  98 140 188 234 294 358 428
#
# _framework density 26.408640999999999
#
# number of rings (size 3 to 8) (size 9 to 14) (size 15 to 20)
#    0.000    1.000    3.750    2.250    0.000    4.000 
#    9.000    0.000    0.000    0.000    0.000    0.000 
#    0.000    0.000    0.000    0.000    0.000    0.000 
#
# Total GULP energy -178614.846525 kJ/mol
# GULP energy per Si atom -5581.713954 kJ/mol
# Density = 2.634853 g / cm^3
# Si number density = 26.408641 Si / 1000 Ang^3
#
#
#
# Elastic Constant Matrix: (Units=GPa)
#
#
# Indices 1 2 3 4 5 6 
#
# 1 62.8889 0.2933 6.8985 0.0000 0.0000 0.0000
# 2 0.2933 111.0860 -1.0488 0.0000 0.0000 0.0000
# 3 6.8985 -1.0488 77.2643 0.0000 0.0000 0.0000
# 4 0.0000 0.0000 0.0000 41.4756 0.0000 0.0000
# 5 0.0000 0.0000 0.0000 0.0000 23.2146 0.0000
# 6 0.0000 0.0000 0.0000 0.0000 0.0000 43.8346
#
#
#
# Elastic Compliance Matrix: (Units=1/GPa)
#
#
# Indices 1 2 3 4 5 6 
#
# 1 0.016059 -0.000056 -0.001435 0.000000 0.000000 0.000000
# 2 -0.000056 0.009003 0.000127 0.000000 0.000000 0.000000
# 3 -0.001435 0.000127 0.013072 0.000000 0.000000 0.000000
# 4 0.000000 0.000000 0.000000 0.024111 0.000000 0.000000
# 5 0.000000 0.000000 0.000000 0.000000 0.043076 0.000000
# 6 0.000000 0.000000 0.000000 0.000000 0.000000 0.022813
#
#
# Mechanical properties :
#
#
# Convention : Reuss Voigt Hill
#
# Bulk Modulus (GPa) = 28.24230 29.28058 28.76144
# Shear Modulus (GPa) = 35.04748 38.04471 36.54610
#
# Velocity S-wave (km/s) = 3.64692 3.79966 3.72407
# Velocity P-wave (km/s) = 5.33394 5.51013 5.42275
#
# Compressibility (1/GPa) = 0.03540789
#
# Stress axis : x y z
#
# Youngs Moduli (GPa) = 62.27159 111.06938 76.49701
#
# Poissons Ratio (x) = 0.00621 0.10974
# Poissons Ratio (y) = 0.00348 -0.00973
# Poissons Ratio (z) = 0.08933 -0.01413
#
# Static dielectric constant tensor:
#      x y z
#    x 2.101720 0.000000 0.000000 
#    y 0.000000 2.114700 0.000000 
#    z 0.000000 0.000000 2.108080 
# 
# From -- ./inp_files/1258.got.cif
#   From: 2010.05.17/outbox.cif.g08.bks.cpg/sg19_1_cif.got.tgz:1258.got - 2010.06.03 22:46:19.
