data_PCOD9314341
_publ_section_title
;
Structure prediction by ZEFSAII (Michael W. Deem and Ramdas Pophale) SiO2 
 PCOD9314341
Probable space group: P 21 21 21
;
_chemical_formula_sum "Si O2"
_cell_formula_units_Z 24
_cell_length_a 13.835238
_cell_length_b 8.622127
_cell_length_c 7.879527
_cell_angle_alpha 90.000000
_cell_angle_beta 90.000000
_cell_angle_gamma 90.000000
_cell_volume 939.942308
_symmetry_space_group_name_H-M "P 21 21 21"
_symmetry_group_IT_number 19
_symmetry_cell_setting 'orthorhombic'
loop_
_space_group_symop_operation_xyz
x,y,z
1/2-x,-y,1/2+z
1/2+x,1/2-y,-z
-x,1/2+y,1/2-z
loop_
_atom_site_type_symbol
_atom_site_label
_atom_site_fract_x
_atom_site_fract_y
_atom_site_fract_z
Si Si1 0.719152 0.630332 0.250125
Si Si2 0.846886 0.818352 0.049269
Si Si3 0.963446 0.773901 0.405895
Si Si4 0.466314 0.073549 0.430288
Si Si5 0.270189 0.633597 0.453336
Si Si6 0.847896 0.338559 0.276716
O O1 0.769749 0.682769 0.073031
O O2 0.727270 0.767373 0.387356
O O3 0.792993 0.498175 0.303766
O O4 0.610672 0.569285 0.221697
O O5 0.910250 0.792912 0.222465
O O6 0.928295 0.852650 0.909015
O O7 0.779964 0.969210 0.052585
O O8 0.974899 0.596690 0.478315
O O9 0.885523 0.861173 0.523893
O O10 0.069580 0.843079 0.371851
O O11 0.412079 0.191314 0.559024
O O12 0.231830 0.718596 0.285558
#
# Coordination Sequence:
#
# PCOD9314341 Si02
#       6
#     4   4   4   4   4   4
#     4  11  23  42  65 100 132 170 218 278 343 395
#     4  10  23  40  64  98 133 171 223 273 326 406
#     4  10  21  39  68  95 126 176 225 267 325 395
#     4  11  21  41  69  93 130 174 228 267 333 404
#     4  11  22  41  64  98 138 163 220 284 337 388
#     4  11  20  39  70  94 125 174 226 273 320 406
#
# _framework density 25.533483
#
# number of rings (size 3 to 8) (size 9 to 14) (size 15 to 20)
#    0.000    1.333    6.667    0.000    0.000    4.000 
#    0.000    8.333    0.000    0.000    0.000    0.000 
#    0.000    0.000    0.000    0.000    0.000    0.000 
#
# Total GULP energy -134012.885863 kJ/mol
# GULP energy per Si atom -5583.870244 kJ/mol
# Density = 2.547537 g / cm^3
# Si number density = 25.533483 Si / 1000 Ang^3
#
#
#
# Elastic Constant Matrix: (Units=GPa)
#
#
# Indices 1 2 3 4 5 6 
#
# 1 115.1032 31.7381 12.6878 0.0000 0.0000 0.0000
# 2 31.7381 82.0689 23.3157 0.0000 0.0000 0.0000
# 3 12.6878 23.3157 74.9385 0.0000 0.0000 0.0000
# 4 0.0000 0.0000 0.0000 34.4758 0.0000 0.0000
# 5 0.0000 0.0000 0.0000 0.0000 45.2524 0.0000
# 6 0.0000 0.0000 0.0000 0.0000 0.0000 29.0089
#
#
#
# Elastic Compliance Matrix: (Units=1/GPa)
#
#
# Indices 1 2 3 4 5 6 
#
# 1 0.009744 -0.003619 -0.000524 0.000000 0.000000 0.000000
# 2 -0.003619 0.014711 -0.003964 0.000000 0.000000 0.000000
# 3 -0.000524 -0.003964 0.014666 0.000000 0.000000 0.000000
# 4 0.000000 0.000000 0.000000 0.029006 0.000000 0.000000
# 5 0.000000 0.000000 0.000000 0.000000 0.022098 0.000000
# 6 0.000000 0.000000 0.000000 0.000000 0.000000 0.034472
#
#
# Mechanical properties :
#
#
# Convention : Reuss Voigt Hill
#
# Bulk Modulus (GPa) = 43.65586 45.28819 44.47202
# Shear Modulus (GPa) = 33.65947 35.37203 34.51575
#
# Velocity S-wave (km/s) = 3.63471 3.72603 3.68065
# Velocity P-wave (km/s) = 5.89486 6.02381 5.95969
#
# Compressibility (1/GPa) = 0.02290643
#
# Stress axis : x y z
#
# Youngs Moduli (GPa) = 102.63196 67.97725 68.18342
#
# Poissons Ratio (x) = 0.24603 0.03570
# Poissons Ratio (y) = 0.37146 0.27029
# Poissons Ratio (z) = 0.05374 0.26948
#
# Static dielectric constant tensor:
#      x y z
#    x 2.063610 0.000000 0.000000 
#    y 0.000000 2.070580 0.000000 
#    z 0.000000 0.000000 2.155820 
# 
# From -- ./inp_files/2830.got.cif
#   From: 2010.05.17/outbox.cif.g08.bks.cpg/sg19_2_cif.got.tgz:2830.got - 2010.06.03 22:46:19.
