data_PCOD9314936
_publ_section_title
;
Structure prediction by ZEFSAII (Michael W. Deem and Ramdas Pophale) SiO2 
 PCOD9314936
Probable space group: P 21 21 21
;
_chemical_formula_sum "Si O2"
_cell_formula_units_Z 20
_cell_length_a 10.443266
_cell_length_b 9.887446
_cell_length_c 7.620553
_cell_angle_alpha 90.000000
_cell_angle_beta 90.000000
_cell_angle_gamma 90.000000
_cell_volume 786.877183
_symmetry_space_group_name_H-M "P 21 21 21"
_symmetry_group_IT_number 19
_symmetry_cell_setting 'orthorhombic'
loop_
_space_group_symop_operation_xyz
x,y,z
1/2-x,-y,1/2+z
1/2+x,1/2-y,-z
-x,1/2+y,1/2-z
loop_
_atom_site_type_symbol
_atom_site_label
_atom_site_fract_x
_atom_site_fract_y
_atom_site_fract_z
Si Si1 0.268382 0.292242 0.591092
Si Si2 0.957891 0.993190 0.911653
Si Si3 0.971675 0.996428 0.317188
Si Si4 0.824176 0.497150 0.879223
Si Si5 0.247086 0.705010 0.670398
O O1 0.146493 0.381709 0.649600
O O2 0.395604 0.361727 0.664002
O O3 0.268970 0.303564 0.380272
O O4 0.247058 0.138396 0.640059
O O5 0.076869 0.986725 0.782480
O O6 0.880414 0.134262 0.903758
O O7 0.992305 0.967785 0.113038
O O8 0.869807 0.883387 0.382645
O O9 0.092653 0.002362 0.442874
O O10 0.742986 0.360187 0.882912
#
# Coordination Sequence:
#
# PCOD9314936 Si02
#       5
#     4   4   4   4   4
#     4  10  23  46  68 102 145 177 232 293 341 419
#     4  10  22  44  72  96 136 187 224 285 353 403
#     4  10  24  48  71 100 142 186 228 288 353 409
#     4  12  24  46  71 103 142 184 234 284 347 419
#     4  10  23  46  68 105 141 182 230 290 348 410
#
# _framework density 25.416926
#
# number of rings (size 3 to 8) (size 9 to 14) (size 15 to 20)
#    0.000    1.600    2.000    1.200    2.800    4.800 
#   10.800    0.000    0.000    0.000    0.000    0.000 
#    0.000    0.000    0.000    0.000    0.000    0.000 
#
# Total GULP energy -112373.076616 kJ/mol
# GULP energy per Si atom -5618.653831 kJ/mol
# Density = 2.535908 g / cm^3
# Si number density = 25.416926 Si / 1000 Ang^3
#
#
#
# Elastic Constant Matrix: (Units=GPa)
#
#
# Indices 1 2 3 4 5 6 
#
# 1 73.7407 42.7345 26.5520 0.0000 0.0000 0.0000
# 2 42.7345 175.1404 11.4073 0.0000 0.0000 0.0000
# 3 26.5520 11.4073 116.3854 0.0000 0.0000 0.0000
# 4 0.0000 0.0000 0.0000 30.4171 0.0000 0.0000
# 5 0.0000 0.0000 0.0000 0.0000 34.3715 0.0000
# 6 0.0000 0.0000 0.0000 0.0000 0.0000 29.4216
#
#
#
# Elastic Compliance Matrix: (Units=1/GPa)
#
#
# Indices 1 2 3 4 5 6 
#
# 1 0.017115 -0.003947 -0.003518 0.000000 0.000000 0.000000
# 2 -0.003947 0.006657 0.000248 0.000000 0.000000 0.000000
# 3 -0.003518 0.000248 0.009370 0.000000 0.000000 0.000000
# 4 0.000000 0.000000 0.000000 0.032876 0.000000 0.000000
# 5 0.000000 0.000000 0.000000 0.000000 0.029094 0.000000
# 6 0.000000 0.000000 0.000000 0.000000 0.000000 0.033989
#
#
# Mechanical properties :
#
#
# Convention : Reuss Voigt Hill
#
# Bulk Modulus (GPa) = 53.45129 58.51714 55.98421
# Shear Modulus (GPa) = 33.38442 37.81354 35.59898
#
# Velocity S-wave (km/s) = 3.62812 3.86130 3.74652
# Velocity P-wave (km/s) = 6.21502 6.55380 6.38666
#
# Compressibility (1/GPa) = 0.01870862
#
# Stress axis : x y z
#
# Youngs Moduli (GPa) = 58.42807 150.22636 106.71937
#
# Poissons Ratio (x) = 0.59294 0.37541
# Poissons Ratio (y) = 0.23061 -0.02647
# Poissons Ratio (z) = 0.20554 -0.03726
#
# Static dielectric constant tensor:
#      x y z
#    x 1.986020 0.000000 0.000000 
#    y 0.000000 1.968030 0.000000 
#    z 0.000000 0.000000 1.956550 
# 
# From -- ./inp_files/2611.got.cif
#   From: 2010.05.17/outbox.cif.g08.bks.cpg/sg19_2_cif.got.tgz:2611.got - 2010.06.03 22:46:19.
