data_PCOD9314849
_publ_section_title
;
Structure prediction by ZEFSAII (Michael W. Deem and Ramdas Pophale) SiO2 
 PCOD9314849
Probable space group: P 21 21 21
;
_chemical_formula_sum "Si O2"
_cell_formula_units_Z 16
_cell_length_a 5.175038
_cell_length_b 13.309651
_cell_length_c 9.100636
_cell_angle_alpha 90.000000
_cell_angle_beta 90.000000
_cell_angle_gamma 90.000000
_cell_volume 626.833149
_symmetry_space_group_name_H-M "P 21 21 21"
_symmetry_group_IT_number 19
_symmetry_cell_setting 'orthorhombic'
loop_
_space_group_symop_operation_xyz
x,y,z
1/2-x,-y,1/2+z
1/2+x,1/2-y,-z
-x,1/2+y,1/2-z
loop_
_atom_site_type_symbol
_atom_site_label
_atom_site_fract_x
_atom_site_fract_y
_atom_site_fract_z
Si Si1 0.321640 0.137949 0.710834
Si Si2 0.865829 0.125981 0.244873
Si Si3 0.326624 0.455435 0.437423
Si Si4 0.240605 0.180380 0.020761
O O1 0.305088 0.259225 0.713265
O O2 0.589475 0.103062 0.640616
O O3 0.291336 0.108252 0.882538
O O4 0.089680 0.092085 0.619948
O O5 0.817303 0.061609 0.389516
O O6 0.706752 0.069473 0.117171
O O7 0.154821 0.131675 0.174935
O O8 0.477930 0.257891 0.022971
#
# Coordination Sequence:
#
# PCOD9314849 Si02
#       4
#     4   4   4   4
#     4  11  25  47  71 103 143 189 240 298 359 425
#     4  11  26  47  72 107 148 187 242 300 357 433
#     4  12  27  44  72 106 142 194 241 295 365 429
#     4  10  22  42  73 102 137 186 233 291 359 421
#
# _framework density 25.525134999999999
#
# number of rings (size 3 to 8) (size 9 to 14) (size 15 to 20)
#    0.000    1.000    0.000    6.000    0.000   18.000 
#    0.000    0.000    0.000    0.000    0.000    0.000 
#    0.000    0.000    0.000    0.000    0.000    0.000 
#
# Total GULP energy -89699.551453 kJ/mol
# GULP energy per Si atom -5606.221966 kJ/mol
# Density = 2.546704 g / cm^3
# Si number density = 25.525135 Si / 1000 Ang^3
#
#
#
# Elastic Constant Matrix: (Units=GPa)
#
#
# Indices 1 2 3 4 5 6 
#
# 1 98.1905 33.0116 23.0908 0.0000 0.0000 0.0000
# 2 33.0116 168.6542 36.6816 0.0000 0.0000 0.0000
# 3 23.0908 36.6816 160.3294 0.0000 0.0000 0.0000
# 4 0.0000 0.0000 0.0000 44.4296 0.0000 0.0000
# 5 0.0000 0.0000 0.0000 0.0000 49.9901 0.0000
# 6 0.0000 0.0000 0.0000 0.0000 0.0000 35.6867
#
#
#
# Elastic Compliance Matrix: (Units=1/GPa)
#
#
# Indices 1 2 3 4 5 6 
#
# 1 0.011103 -0.001921 -0.001160 0.000000 0.000000 0.000000
# 2 -0.001921 0.006572 -0.001227 0.000000 0.000000 0.000000
# 3 -0.001160 -0.001227 0.006685 0.000000 0.000000 0.000000
# 4 0.000000 0.000000 0.000000 0.022508 0.000000 0.000000
# 5 0.000000 0.000000 0.000000 0.000000 0.020004 0.000000
# 6 0.000000 0.000000 0.000000 0.000000 0.000000 0.028022
#
#
# Mechanical properties :
#
#
# Convention : Reuss Voigt Hill
#
# Bulk Modulus (GPa) = 63.51302 68.08247 65.79775
# Shear Modulus (GPa) = 45.97435 48.31395 47.14415
#
# Velocity S-wave (km/s) = 4.24859 4.35535 4.30230
# Velocity P-wave (km/s) = 7.00028 7.21268 7.10727
#
# Compressibility (1/GPa) = 0.01574480
#
# Stress axis : x y z
#
# Youngs Moduli (GPa) = 90.06723 152.15683 149.59147
#
# Poissons Ratio (x) = 0.29230 0.17346
# Poissons Ratio (y) = 0.17302 0.18354
# Poissons Ratio (z) = 0.10444 0.18669
#
# Static dielectric constant tensor:
#      x y z
#    x 2.043790 0.000000 0.000000 
#    y 0.000000 2.061500 0.000000 
#    z 0.000000 0.000000 2.040330 
# 
# From -- ./inp_files/2358.got.cif
#   From: 2010.05.17/outbox.cif.g08.bks.cpg/sg19_2_cif.got.tgz:2358.got - 2010.06.03 22:46:19.
