data_PCOD9314639
_publ_section_title
;
Structure prediction by ZEFSAII (Michael W. Deem and Ramdas Pophale) SiO2 
 PCOD9314639
Probable space group: P 21 21 21
;
_chemical_formula_sum "Si O2"
_cell_formula_units_Z 24
_cell_length_a 10.657730
_cell_length_b 17.527315
_cell_length_c 4.781231
_cell_angle_alpha 90.000000
_cell_angle_beta 90.000000
_cell_angle_gamma 90.000000
_cell_volume 893.140601
_symmetry_space_group_name_H-M "P 21 21 21"
_symmetry_group_IT_number 19
_symmetry_cell_setting 'orthorhombic'
loop_
_space_group_symop_operation_xyz
x,y,z
1/2-x,-y,1/2+z
1/2+x,1/2-y,-z
-x,1/2+y,1/2-z
loop_
_atom_site_type_symbol
_atom_site_label
_atom_site_fract_x
_atom_site_fract_y
_atom_site_fract_z
Si Si1 0.036103 0.219969 0.462165
Si Si2 0.112347 0.674632 0.522062
Si Si3 0.251341 0.550142 0.889343
Si Si4 0.994969 0.385914 0.553360
Si Si5 0.321546 0.978069 0.402782
Si Si6 0.238820 0.822454 0.626431
O O1 0.178728 0.200223 0.396146
O O2 0.994369 0.210758 0.778611
O O3 0.000459 0.307142 0.375025
O O4 0.949995 0.163933 0.276680
O O5 0.165863 0.604877 0.699230
O O6 0.215767 0.740969 0.486067
O O7 0.311427 0.499130 0.637033
O O8 0.357932 0.595424 0.063793
O O9 0.934947 0.469211 0.490673
O O10 0.894779 0.359944 0.789762
O O11 0.296180 0.986133 0.074135
O O12 0.313879 0.889664 0.475041
#
# Coordination Sequence:
#
# PCOD9314639 Si02
#       6
#     4   4   4   4   4   4
#     4  11  24  44  74 104 145 183 245 305 365 434
#     4  11  25  45  70 106 142 192 246 302 368 444
#     4  12  28  48  72 104 152 201 245 298 379 453
#     4  10  24  48  71 107 147 191 242 309 362 444
#     4  10  22  39  64  97 134 179 232 291 357 414
#     4  10  23  46  73 104 140 192 244 307 363 431
#
# _framework density 26.871469000000001
#
# number of rings (size 3 to 8) (size 9 to 14) (size 15 to 20)
#    0.000    1.333    1.667    2.000    4.667   10.667 
#    3.000    0.000    0.000    0.000    0.000    0.000 
#    0.000    0.000    0.000    0.000    0.000    0.000 
#
# Total GULP energy -133996.867414 kJ/mol
# GULP energy per Si atom -5583.202809 kJ/mol
# Density = 2.681031 g / cm^3
# Si number density = 26.871469 Si / 1000 Ang^3
#
#
#
# Elastic Constant Matrix: (Units=GPa)
#
#
# Indices 1 2 3 4 5 6 
#
# 1 55.0479 32.2253 11.0619 0.0000 0.0000 0.0000
# 2 32.2253 112.7211 33.5039 0.0000 0.0000 0.0000
# 3 11.0619 33.5039 100.4759 0.0000 0.0000 0.0000
# 4 0.0000 0.0000 0.0000 27.9778 0.0000 0.0000
# 5 0.0000 0.0000 0.0000 0.0000 31.2966 0.0000
# 6 0.0000 0.0000 0.0000 0.0000 0.0000 45.9268
#
#
#
# Elastic Compliance Matrix: (Units=1/GPa)
#
#
# Indices 1 2 3 4 5 6 
#
# 1 0.021829 -0.006134 -0.000358 0.000000 0.000000 0.000000
# 2 -0.006134 0.011571 -0.003183 0.000000 0.000000 0.000000
# 3 -0.000358 -0.003183 0.011053 0.000000 0.000000 0.000000
# 4 0.000000 0.000000 0.000000 0.035743 0.000000 0.000000
# 5 0.000000 0.000000 0.000000 0.000000 0.031952 0.000000
# 6 0.000000 0.000000 0.000000 0.000000 0.000000 0.021774
#
#
# Mechanical properties :
#
#
# Convention : Reuss Voigt Hill
#
# Bulk Modulus (GPa) = 39.83533 46.86969 43.35251
# Shear Modulus (GPa) = 30.93285 33.80381 32.36833
#
# Velocity S-wave (km/s) = 3.39653 3.55065 3.47444
# Velocity P-wave (km/s) = 5.49895 5.85573 5.68014
#
# Compressibility (1/GPa) = 0.02510335
#
# Stress axis : x y z
#
# Youngs Moduli (GPa) = 45.81085 86.42105 90.46952
#
# Poissons Ratio (x) = 0.53013 0.03237
# Poissons Ratio (y) = 0.28101 0.28797
# Poissons Ratio (z) = 0.01639 0.27509
#
# Static dielectric constant tensor:
#      x y z
#    x 2.128110 0.000000 0.000000 
#    y 0.000000 2.149250 0.000000 
#    z 0.000000 0.000000 2.058770 
# 
# From -- ./inp_files/431.got.cif
#   From: 2010.05.17/outbox.cif.g08.bks.cpg/sg19_1_cif.got.tgz:431.got - 2010.06.03 22:46:19.
