data_PCOD9314622
_publ_section_title
;
Structure prediction by ZEFSAII (Michael W. Deem and Ramdas Pophale) SiO2 
 PCOD9314622
Probable space group: P 21 21 21
;
_chemical_formula_sum "Si O2"
_cell_formula_units_Z 20
_cell_length_a 8.730388
_cell_length_b 13.622803
_cell_length_c 6.002947
_cell_angle_alpha 90.000000
_cell_angle_beta 90.000000
_cell_angle_gamma 90.000000
_cell_volume 713.944629
_symmetry_space_group_name_H-M "P 21 21 21"
_symmetry_group_IT_number 19
_symmetry_cell_setting 'orthorhombic'
loop_
_space_group_symop_operation_xyz
x,y,z
1/2-x,-y,1/2+z
1/2+x,1/2-y,-z
-x,1/2+y,1/2-z
loop_
_atom_site_type_symbol
_atom_site_label
_atom_site_fract_x
_atom_site_fract_y
_atom_site_fract_z
Si Si1 0.524949 0.615613 0.613593
Si Si2 0.484913 0.786083 0.312199
Si Si3 0.579476 0.416549 0.808190
Si Si4 0.790622 0.770792 0.072851
Si Si5 0.736035 0.040176 0.174883
O O1 0.570638 0.717062 0.494649
O O2 0.614435 0.528709 0.738457
O O3 0.400874 0.656091 0.791175
O O4 0.434812 0.566528 0.407543
O O5 0.408148 0.876732 0.439525
O O6 0.619749 0.802196 0.135628
O O7 0.348198 0.732167 0.179796
O O8 0.675781 0.339360 0.662171
O O9 0.397183 0.405887 0.772451
O O10 0.789374 0.002171 0.924532
#
# Coordination Sequence:
#
# PCOD9314622 Si02
#       5
#     4   4   4   4   4
#     4  10  24  44  73 105 148 200 263 321 390 476
#     4  11  26  45  74 110 157 197 263 328 401 481
#     4  10  24  44  72 104 148 200 257 319 397 471
#     4  11  26  45  71 111 153 203 251 329 397 483
#     4  10  22  38  74 108 140 192 266 321 377 471
#
# _framework density 28.013373999999999
#
# number of rings (size 3 to 8) (size 9 to 14) (size 15 to 20)
#    0.000    1.600    2.000    0.000   14.000    1.600 
#    3.600    0.000    0.000    0.000    0.000    0.000 
#    0.000    0.000    0.000    0.000    0.000    0.000 
#
# Total GULP energy -111480.617728 kJ/mol
# GULP energy per Si atom -5574.030886 kJ/mol
# Density = 2.794961 g / cm^3
# Si number density = 28.013374 Si / 1000 Ang^3
#
#
#
# Elastic Constant Matrix: (Units=GPa)
#
#
# Indices 1 2 3 4 5 6 
#
# 1 54.3193 28.5937 49.5106 0.0000 0.0000 0.0000
# 2 28.5937 129.1908 84.4369 0.0000 0.0000 0.0000
# 3 49.5106 84.4369 191.1608 0.0000 0.0000 0.0000
# 4 0.0000 0.0000 0.0000 80.0173 0.0000 0.0000
# 5 0.0000 0.0000 0.0000 0.0000 44.0528 0.0000
# 6 0.0000 0.0000 0.0000 0.0000 0.0000 34.2579
#
#
#
# Elastic Compliance Matrix: (Units=1/GPa)
#
#
# Indices 1 2 3 4 5 6 
#
# 1 0.024388 -0.001785 -0.005528 0.000000 0.000000 0.000000
# 2 -0.001785 0.011013 -0.004402 0.000000 0.000000 0.000000
# 3 -0.005528 -0.004402 0.008607 0.000000 0.000000 0.000000
# 4 0.000000 0.000000 0.000000 0.012497 0.000000 0.000000
# 5 0.000000 0.000000 0.000000 0.000000 0.022700 0.000000
# 6 0.000000 0.000000 0.000000 0.000000 0.000000 0.029190
#
#
# Mechanical properties :
#
#
# Convention : Reuss Voigt Hill
#
# Bulk Modulus (GPa) = 48.59538 77.75037 63.17287
# Shear Modulus (GPa) = 36.05296 45.80757 40.93027
#
# Velocity S-wave (km/s) = 3.59136 4.04815 3.82658
# Velocity P-wave (km/s) = 5.88065 7.04734 6.49026
#
# Compressibility (1/GPa) = 0.02057809
#
# Stress axis : x y z
#
# Youngs Moduli (GPa) = 41.00400 90.80477 116.17853
#
# Poissons Ratio (x) = 0.16205 0.64226
# Poissons Ratio (y) = 0.07318 0.51143
# Poissons Ratio (z) = 0.22668 0.39973
#
# Static dielectric constant tensor:
#      x y z
#    x 2.164600 0.000000 0.000000 
#    y 0.000000 2.640090 0.000000 
#    z 0.000000 0.000000 2.129910 
# 
# From -- ./inp_files/873.got.cif
#   From: 2010.05.17/outbox.cif.g08.bks.cpg/sg19_1_cif.got.tgz:873.got - 2010.06.03 22:46:19.
