data_PCOD9314783
_publ_section_title
;
Structure prediction by ZEFSAII (Michael W. Deem and Ramdas Pophale) SiO2 
 PCOD9314783
Probable space group: P 21 21 21
;
_chemical_formula_sum "Si O2"
_cell_formula_units_Z 32
_cell_length_a 4.701471
_cell_length_b 15.671028
_cell_length_c 16.445645
_cell_angle_alpha 90.000000
_cell_angle_beta 90.000000
_cell_angle_gamma 90.000000
_cell_volume 1211.663874
_symmetry_space_group_name_H-M "P 21 21 21"
_symmetry_group_IT_number 19
_symmetry_cell_setting 'orthorhombic'
loop_
_space_group_symop_operation_xyz
x,y,z
1/2-x,-y,1/2+z
1/2+x,1/2-y,-z
-x,1/2+y,1/2-z
loop_
_atom_site_type_symbol
_atom_site_label
_atom_site_fract_x
_atom_site_fract_y
_atom_site_fract_z
Si Si1 0.201244 0.425200 0.083883
Si Si2 0.957650 0.427727 0.502338
Si Si3 0.260051 0.052503 0.781609
Si Si4 0.265976 0.552262 0.252318
Si Si5 0.700505 0.251091 0.944010
Si Si6 0.962344 0.304029 0.641683
Si Si7 0.966925 0.316151 0.354322
Si Si8 0.078113 0.927079 0.582321
O O1 0.342213 0.516008 0.060970
O O2 0.313226 0.330185 0.107275
O O3 0.903678 0.434679 0.131496
O O4 0.129580 0.402358 0.990107
O O5 0.589619 0.126748 0.571705
O O6 0.834736 0.360469 0.567805
O O7 0.755344 0.493835 0.454454
O O8 0.339902 0.124814 0.717313
O O9 0.926622 0.031093 0.787927
O O10 0.433010 0.967685 0.751890
O O11 0.378535 0.634838 0.206109
O O12 0.386550 0.548522 0.342048
O O13 0.742658 0.341882 0.900123
O O14 0.374855 0.242825 0.971090
O O15 0.711416 0.246408 0.677222
O O16 0.207992 0.240197 0.611172
#
# Coordination Sequence:
#
# PCOD9314783 Si02
#       8
#     4   4   4   4   4   4   4   4
#     4  11  25  44  74 106 144 195 248 312 376 456
#     4  12  24  48  78 102 148 200 262 306 376 456
#     4  12  26  49  75 108 150 198 255 305 385 459
#     4  12  26  49  75 108 150 198 255 305 385 459
#     4  10  22  42  62 102 136 172 236 298 362 424
#     4  12  28  49  74 112 153 198 253 316 378 445
#     4  12  28  49  74 112 153 198 253 316 378 445
#     4  11  25  44  74 106 144 195 248 312 376 456
#
# _framework density 26.409963000000001
#
# number of rings (size 3 to 8) (size 9 to 14) (size 15 to 20)
#    0.000    0.500    3.750    3.750    5.250    0.000 
#    9.000    0.000    0.000    0.000    0.000    0.000 
#    0.000    0.000    0.000    0.000    0.000    0.000 
#
# Total GULP energy -179029.374323 kJ/mol
# GULP energy per Si atom -5594.667948 kJ/mol
# Density = 2.634985 g / cm^3
# Si number density = 26.409963 Si / 1000 Ang^3
#
#
#
# Elastic Constant Matrix: (Units=GPa)
#
#
# Indices 1 2 3 4 5 6 
#
# 1 68.2057 14.8456 -32.6967 0.0000 0.0000 0.0000
# 2 14.8456 130.1616 10.9967 0.0000 0.0000 0.0000
# 3 -32.6967 10.9967 64.9980 0.0000 0.0000 0.0000
# 4 0.0000 0.0000 0.0000 37.4693 0.0000 0.0000
# 5 0.0000 0.0000 0.0000 0.0000 -1.0889 0.0000
# 6 0.0000 0.0000 0.0000 0.0000 0.0000 47.0639
#
#
#
# Elastic Compliance Matrix: (Units=1/GPa)
#
#
# Indices 1 2 3 4 5 6 
#
# 1 0.020609 -0.003273 0.010921 0.000000 0.000000 0.000000
# 2 -0.003273 0.008314 -0.003053 0.000000 0.000000 0.000000
# 3 0.010921 -0.003053 0.021395 0.000000 0.000000 0.000000
# 4 0.000000 0.000000 0.000000 0.026689 0.000000 0.000000
# 5 0.000000 0.000000 0.000000 0.000000 -0.918396 0.000000
# 6 0.000000 0.000000 0.000000 0.000000 0.000000 0.021248
#
#
# Mechanical properties :
#
#
# Convention : Reuss Voigt Hill
#
# Bulk Modulus (GPa) = 16.80437 27.73961 22.27199
# Shear Modulus (GPa) = -6.17670 34.70351 14.26340
#
# Velocity S-wave (km/s) = -1.53096 3.62889 2.32648
# Velocity P-wave (km/s) = 1.80321 5.29950 3.95830
#
# Compressibility (1/GPa) = 0.05950833
#
# Stress axis : x y z
#
# Youngs Moduli (GPa) = 48.52143 120.27837 46.73891
#
# Poissons Ratio (x) = 0.39371 -0.51044
# Poissons Ratio (y) = 0.15882 0.14270
# Poissons Ratio (z) = -0.52991 0.36724
#
# Static dielectric constant tensor:
#      x y z
#    x 2.063120 0.000000 0.000000 
#    y 0.000000 2.546680 0.000000 
#    z 0.000000 0.000000 2.157380 
# 
# From -- ./inp_files/6491.got.cif
#   From: 2010.05.17/outbox.cif.g08.bks.cpg/sg19_4_cif.got.tgz:6491.got - 2010.06.03 22:46:19.
