data_PCOD9314815
_publ_section_title
;
Structure prediction by ZEFSAII (Michael W. Deem and Ramdas Pophale) SiO2 
 PCOD9314815
Probable space group: P 21 21 21
;
_chemical_formula_sum "Si O2"
_cell_formula_units_Z 32
_cell_length_a 12.119664
_cell_length_b 11.034058
_cell_length_c 10.766845
_cell_angle_alpha 90.000000
_cell_angle_beta 90.000000
_cell_angle_gamma 90.000000
_cell_volume 1439.840228
_symmetry_space_group_name_H-M "P 21 21 21"
_symmetry_group_IT_number 19
_symmetry_cell_setting 'orthorhombic'
loop_
_space_group_symop_operation_xyz
x,y,z
1/2-x,-y,1/2+z
1/2+x,1/2-y,-z
-x,1/2+y,1/2-z
loop_
_atom_site_type_symbol
_atom_site_label
_atom_site_fract_x
_atom_site_fract_y
_atom_site_fract_z
Si Si1 0.292190 0.431468 0.448517
Si Si2 0.753153 0.284126 0.812912
Si Si3 0.935668 0.562099 0.211337
Si Si4 0.823496 0.990305 0.269263
Si Si5 0.421762 0.726885 0.996848
Si Si6 0.105948 0.930949 0.888968
Si Si7 0.966198 0.583435 0.833071
Si Si8 0.318626 0.073848 0.981136
O O1 0.308144 0.460933 0.592345
O O2 0.247638 0.530682 0.349621
O O3 0.192589 0.334184 0.458376
O O4 0.411246 0.403866 0.388476
O O5 0.651383 0.377972 0.803116
O O6 0.710952 0.150200 0.787421
O O7 0.839203 0.334402 0.708814
O O8 0.796639 0.298821 0.953427
O O9 0.946704 0.667659 0.104534
O O10 0.883846 0.442673 0.146728
O O11 0.051437 0.521658 0.263952
O O12 0.522450 0.634255 0.016920
O O13 0.409907 0.788965 0.132986
O O14 0.042035 0.031249 0.805080
O O15 0.208276 0.996011 0.956100
O O16 0.895882 0.490791 0.916755
#
# Coordination Sequence:
#
# PCOD9314815 Si02
#       8
#     4   4   4   4   4   4   4   4
#     4  12  25  45  68 104 142 186 231 293 362 421
#     4  10  22  42  68  95 139 185 223 297 363 403
#     4  10  22  42  66  98 140 183 233 289 352 428
#     4  12  25  45  69 101 146 176 240 293 346 424
#     4  11  22  40  71  96 133 192 223 283 369 417
#     4  10  22  42  70 100 135 184 241 280 353 441
#     4  10  22  43  65  99 142 178 233 295 339 429
#     4   9  20  41  67  93 133 180 226 284 348 421
#
# _framework density 22.224685999999998
#
# number of rings (size 3 to 8) (size 9 to 14) (size 15 to 20)
#    0.000    1.500    3.750    1.500    5.250    0.000 
#    6.750    1.250    0.000    0.000    0.000    0.000 
#    0.000    0.000    0.000    0.000    0.000    0.000 
#
# Total GULP energy -178360.768136 kJ/mol
# GULP energy per Si atom -5573.774004 kJ/mol
# Density = 2.217410 g / cm^3
# Si number density = 22.224686 Si / 1000 Ang^3
#
#
#
# Elastic Constant Matrix: (Units=GPa)
#
#
# Indices 1 2 3 4 5 6 
#
# 1 126.6633 32.1856 37.7884 0.0000 0.0000 0.0000
# 2 32.1856 30.6546 11.9830 0.0000 0.0000 0.0000
# 3 37.7884 11.9830 34.4375 0.0000 0.0000 0.0000
# 4 0.0000 0.0000 0.0000 14.5650 0.0000 0.0000
# 5 0.0000 0.0000 0.0000 0.0000 12.4624 0.0000
# 6 0.0000 0.0000 0.0000 0.0000 0.0000 25.7403
#
#
#
# Elastic Compliance Matrix: (Units=1/GPa)
#
#
# Indices 1 2 3 4 5 6 
#
# 1 0.013983 -0.010051 -0.011846 0.000000 0.000000 0.000000
# 2 -0.010051 0.044981 -0.004623 0.000000 0.000000 0.000000
# 3 -0.011846 -0.004623 0.043646 0.000000 0.000000 0.000000
# 4 0.000000 0.000000 0.000000 0.068658 0.000000 0.000000
# 5 0.000000 0.000000 0.000000 0.000000 0.080241 0.000000
# 6 0.000000 0.000000 0.000000 0.000000 0.000000 0.038850
#
#
# Mechanical properties :
#
#
# Convention : Reuss Voigt Hill
#
# Bulk Modulus (GPa) = 20.17356 39.51883 29.84619
# Shear Modulus (GPa) = 13.89186 17.87344 15.88265
#
# Velocity S-wave (km/s) = 2.50284 2.83895 2.67618
# Velocity P-wave (km/s) = 4.17721 5.34474 4.79663
#
# Compressibility (1/GPa) = 0.04956983
#
# Stress axis : x y z
#
# Youngs Moduli (GPa) = 71.51489 22.23138 22.91157
#
# Poissons Ratio (x) = 0.22344 0.27142
# Poissons Ratio (y) = 0.71877 0.10593
# Poissons Ratio (z) = 0.84720 0.10278
#
# Static dielectric constant tensor:
#      x y z
#    x 1.833560 0.000000 0.000000 
#    y 0.000000 1.865580 0.000000 
#    z 0.000000 0.000000 1.911600 
# 
# From -- ./inp_files/5088.got.cif
#   From: 2010.05.17/outbox.cif.g08.bks.cpg/sg19_3_cif.got.tgz:5088.got - 2010.06.03 22:46:19.
