data_PCOD9314836
_publ_section_title
;
Structure prediction by ZEFSAII (Michael W. Deem and Ramdas Pophale) SiO2 
 PCOD9314836
Probable space group: P 21 21 21
;
_chemical_formula_sum "Si O2"
_cell_formula_units_Z 28
_cell_length_a 7.713637
_cell_length_b 13.340165
_cell_length_c 10.863472
_cell_angle_alpha 90.000000
_cell_angle_beta 90.000000
_cell_angle_gamma 90.000000
_cell_volume 1117.864200
_symmetry_space_group_name_H-M "P 21 21 21"
_symmetry_group_IT_number 19
_symmetry_cell_setting 'orthorhombic'
loop_
_space_group_symop_operation_xyz
x,y,z
1/2-x,-y,1/2+z
1/2+x,1/2-y,-z
-x,1/2+y,1/2-z
loop_
_atom_site_type_symbol
_atom_site_label
_atom_site_fract_x
_atom_site_fract_y
_atom_site_fract_z
Si Si1 0.676793 0.725619 0.803952
Si Si2 0.639257 0.935316 0.404696
Si Si3 0.055524 0.588135 0.073623
Si Si4 0.056879 0.755387 0.450917
Si Si5 0.579762 0.795433 0.169454
Si Si6 0.325803 0.044323 0.527815
Si Si7 0.227862 0.848808 0.658980
O O1 0.655096 0.693316 0.662450
O O2 0.879077 0.735221 0.833343
O O3 0.577162 0.830649 0.818185
O O4 0.611383 0.643203 0.900392
O O5 0.636834 0.851696 0.511223
O O6 0.606425 0.876651 0.277745
O O7 0.817296 0.996101 0.401153
O O8 0.475094 0.005039 0.437731
O O9 0.127865 0.650877 0.956391
O O10 0.860403 0.558577 0.037957
O O11 0.062285 0.825593 0.570774
O O12 0.869322 0.724227 0.403020
O O13 0.684089 0.696766 0.209070
O O14 0.287885 0.961015 0.634660
#
# Coordination Sequence:
#
# PCOD9314836 Si02
#       7
#     4   4   4   4   4   4   4
#     4  11  25  45  65 104 145 178 238 292 363 430
#     4  10  24  47  72 101 141 184 245 295 354 444
#     4  11  27  45  71 105 141 190 230 303 365 426
#     4  10  22  42  69 103 134 185 233 294 357 422
#     4  10  25  46  72 105 139 194 232 298 369 422
#     4  10  25  45  68 105 139 186 241 290 359 429
#     4  10  22  44  73  99 139 187 237 294 349 435
#
# _framework density 25.047767
#
# number of rings (size 3 to 8) (size 9 to 14) (size 15 to 20)
#    0.000    1.714    0.000    2.571   14.000    1.143 
#   18.000    0.000    0.000    0.000    0.000    0.000 
#    0.000    0.000    0.000    0.000    0.000    0.000 
#
# Total GULP energy -156887.175172 kJ/mol
# GULP energy per Si atom -5603.113399 kJ/mol
# Density = 2.499076 g / cm^3
# Si number density = 25.047767 Si / 1000 Ang^3
#
#
#
# Elastic Constant Matrix: (Units=GPa)
#
#
# Indices 1 2 3 4 5 6 
#
# 1 89.5078 32.0860 13.0492 0.0000 0.0000 0.0000
# 2 32.0860 90.6059 12.5471 0.0000 0.0000 0.0000
# 3 13.0492 12.5471 83.1539 0.0000 0.0000 0.0000
# 4 0.0000 0.0000 0.0000 46.0779 0.0000 0.0000
# 5 0.0000 0.0000 0.0000 0.0000 35.5017 0.0000
# 6 0.0000 0.0000 0.0000 0.0000 0.0000 47.8255
#
#
#
# Elastic Compliance Matrix: (Units=1/GPa)
#
#
# Indices 1 2 3 4 5 6 
#
# 1 0.012947 -0.004396 -0.001369 0.000000 0.000000 0.000000
# 2 -0.004396 0.012765 -0.001236 0.000000 0.000000 0.000000
# 3 -0.001369 -0.001236 0.012427 0.000000 0.000000 0.000000
# 4 0.000000 0.000000 0.000000 0.021702 0.000000 0.000000
# 5 0.000000 0.000000 0.000000 0.000000 0.028168 0.000000
# 6 0.000000 0.000000 0.000000 0.000000 0.000000 0.020909
#
#
# Mechanical properties :
#
#
# Convention : Reuss Voigt Hill
#
# Bulk Modulus (GPa) = 41.42760 42.07022 41.74891
# Shear Modulus (GPa) = 38.17800 39.58669 38.88235
#
# Velocity S-wave (km/s) = 3.90835 3.97980 3.94423
# Velocity P-wave (km/s) = 6.07801 6.16043 6.11936
#
# Compressibility (1/GPa) = 0.02413850
#
# Stress axis : x y z
#
# Youngs Moduli (GPa) = 77.23559 78.34182 80.46860
#
# Poissons Ratio (x) = 0.34435 0.11013
# Poissons Ratio (y) = 0.33949 0.09948
# Poissons Ratio (z) = 0.10570 0.09685
#
# Static dielectric constant tensor:
#      x y z
#    x 2.002240 0.000000 0.000000 
#    y 0.000000 1.969840 0.000000 
#    z 0.000000 0.000000 2.035110 
# 
# From -- ./inp_files/3460.got.cif
#   From: 2010.05.17/outbox.cif.g08.bks.cpg/sg19_2_cif.got.tgz:3460.got - 2010.06.03 22:46:19.
