data_PCOD9314688
_publ_section_title
;
Structure prediction by ZEFSAII (Michael W. Deem and Ramdas Pophale) SiO2 
 PCOD9314688
Probable space group: P 21 21 21
;
_chemical_formula_sum "Si O2"
_cell_formula_units_Z 32
_cell_length_a 14.358780
_cell_length_b 18.140986
_cell_length_c 5.567237
_cell_angle_alpha 90.000000
_cell_angle_beta 90.000000
_cell_angle_gamma 90.000000
_cell_volume 1450.167405
_symmetry_space_group_name_H-M "P 21 21 21"
_symmetry_group_IT_number 19
_symmetry_cell_setting 'orthorhombic'
loop_
_space_group_symop_operation_xyz
x,y,z
1/2-x,-y,1/2+z
1/2+x,1/2-y,-z
-x,1/2+y,1/2-z
loop_
_atom_site_type_symbol
_atom_site_label
_atom_site_fract_x
_atom_site_fract_y
_atom_site_fract_z
Si Si1 0.899248 0.033603 0.442891
Si Si2 0.708026 0.221761 0.361589
Si Si3 0.240642 0.576358 0.397616
Si Si4 0.351988 0.322653 0.283837
Si Si5 0.840995 0.334985 0.257195
Si Si6 0.789761 0.471300 0.547809
Si Si7 0.995689 0.287980 0.624535
Si Si8 0.555720 0.566329 0.372299
O O1 0.857183 0.040308 0.178609
O O2 0.901804 0.116305 0.545430
O O3 0.817249 0.985761 0.567481
O O4 0.992389 0.988252 0.475328
O O5 0.720516 0.136007 0.291332
O O6 0.775943 0.228331 0.587517
O O7 0.764448 0.274772 0.178825
O O8 0.600922 0.239253 0.405655
O O9 0.210932 0.627555 0.614870
O O10 0.435103 0.267868 0.210517
O O11 0.790471 0.387078 0.455133
O O12 0.933604 0.299888 0.382724
O O13 0.873943 0.389168 0.045569
O O14 0.770454 0.513941 0.293810
O O15 0.892196 0.479697 0.664592
O O16 0.001027 0.368066 0.746896
#
# Coordination Sequence:
#
# PCOD9314688 Si02
#       8
#     4   4   4   4   4   4   4   4
#     4  11  23  37  65  97 135 181 228 290 354 425
#     4  10  22  41  67  93 130 183 233 289 367 421
#     4  11  21  39  62  94 134 178 228 290 358 426
#     4  10  23  41  59  98 137 171 237 293 345 435
#     4  10  23  41  67  97 139 178 241 289 356 430
#     4  11  23  46  70  99 140 186 234 292 352 424
#     4  10  22  40  65  93 135 180 234 294 363 423
#     4  11  23  41  67 103 134 185 237 291 353 432
#
# _framework density 22.066417000000001
#
# number of rings (size 3 to 8) (size 9 to 14) (size 15 to 20)
#    0.000    1.500    3.750    0.750    1.750    3.000 
#    0.000    0.000    0.000    0.000    0.000    0.000 
#    0.000    0.000    0.000    0.000    0.000    0.000 
#
# Total GULP energy -178249.430317 kJ/mol
# GULP energy per Si atom -5570.294697 kJ/mol
# Density = 2.201619 g / cm^3
# Si number density = 22.066417 Si / 1000 Ang^3
#
#
#
# Elastic Constant Matrix: (Units=GPa)
#
#
# Indices 1 2 3 4 5 6 
#
# 1 121.7893 41.1419 19.0848 0.0000 0.0000 0.0000
# 2 41.1419 66.8534 14.0350 0.0000 0.0000 0.0000
# 3 19.0848 14.0350 59.7327 0.0000 0.0000 0.0000
# 4 0.0000 0.0000 0.0000 26.6578 0.0000 0.0000
# 5 0.0000 0.0000 0.0000 0.0000 20.0984 0.0000
# 6 0.0000 0.0000 0.0000 0.0000 0.0000 40.1358
#
#
#
# Elastic Compliance Matrix: (Units=1/GPa)
#
#
# Indices 1 2 3 4 5 6 
#
# 1 0.010577 -0.006100 -0.001946 0.000000 0.000000 0.000000
# 2 -0.006100 0.019253 -0.002575 0.000000 0.000000 0.000000
# 3 -0.001946 -0.002575 0.017968 0.000000 0.000000 0.000000
# 4 0.000000 0.000000 0.000000 0.037512 0.000000 0.000000
# 5 0.000000 0.000000 0.000000 0.000000 0.049755 0.000000
# 6 0.000000 0.000000 0.000000 0.000000 0.000000 0.024915
#
#
# Mechanical properties :
#
#
# Convention : Reuss Voigt Hill
#
# Bulk Modulus (GPa) = 37.65689 44.09985 40.87837
# Shear Modulus (GPa) = 26.30556 28.98600 27.64578
#
# Velocity S-wave (km/s) = 3.45644 3.62827 3.54339
# Velocity P-wave (km/s) = 5.74731 6.13032 5.94190
#
# Compressibility (1/GPa) = 0.02655556
#
# Stress axis : x y z
#
# Youngs Moduli (GPa) = 94.54827 51.94054 55.65475
#
# Poissons Ratio (x) = 0.31686 0.10830
# Poissons Ratio (y) = 0.57678 0.14329
# Poissons Ratio (z) = 0.18398 0.13373
#
# Static dielectric constant tensor:
#      x y z
#    x 1.846380 0.000000 0.000000 
#    y 0.000000 1.853770 0.000000 
#    z 0.000000 0.000000 1.937140 
# 
# From -- ./inp_files/1614.got.cif
#   From: 2010.05.17/outbox.cif.g08.bks.cpg/sg19_1_cif.got.tgz:1614.got - 2010.06.03 22:46:19.
