data_PCOD9314278
_publ_section_title
;
Structure prediction by ZEFSAII (Michael W. Deem and Ramdas Pophale) SiO2 
 PCOD9314278
Probable space group: P 21 21 21
;
_chemical_formula_sum "Si O2"
_cell_formula_units_Z 28
_cell_length_a 15.817456
_cell_length_b 14.132836
_cell_length_c 6.321959
_cell_angle_alpha 90.000000
_cell_angle_beta 90.000000
_cell_angle_gamma 90.000000
_cell_volume 1413.245559
_symmetry_space_group_name_H-M "P 21 21 21"
_symmetry_group_IT_number 19
_symmetry_cell_setting 'orthorhombic'
loop_
_space_group_symop_operation_xyz
x,y,z
1/2-x,-y,1/2+z
1/2+x,1/2-y,-z
-x,1/2+y,1/2-z
loop_
_atom_site_type_symbol
_atom_site_label
_atom_site_fract_x
_atom_site_fract_y
_atom_site_fract_z
Si Si1 0.049715 0.077554 0.842929
Si Si2 0.204783 0.381194 0.363537
Si Si3 0.660470 0.287596 0.905972
Si Si4 0.204084 0.729706 0.242560
Si Si5 0.667158 0.439450 0.544580
Si Si6 0.640554 0.927829 0.445716
Si Si7 0.646097 0.575307 0.889103
O O1 0.078981 0.164421 0.991111
O O2 0.086433 0.980156 0.946990
O O3 0.098713 0.092841 0.624868
O O4 0.949685 0.075160 0.833981
O O5 0.151822 0.312651 0.209526
O O6 0.240526 0.323707 0.565251
O O7 0.154067 0.471673 0.442018
O O8 0.284998 0.414068 0.224521
O O9 0.685181 0.360335 0.721010
O O10 0.732034 0.278017 0.087148
O O11 0.151056 0.653966 0.377595
O O12 0.149480 0.811736 0.129196
O O13 0.629756 0.531172 0.659381
O O14 0.757511 0.456960 0.438734
#
# Coordination Sequence:
#
# PCOD9314278 Si02
#       7
#     4   4   4   4   4   4   4
#     4  11  24  39  62 102 138 163 221 272 320 392
#     4  11  22  44  71  87 126 178 224 264 330 382
#     4  10  21  38  68  97 126 172 208 271 323 388
#     4  11  22  42  69  92 124 171 226 261 326 395
#     4  11  19  37  63  94 135 166 203 262 337 388
#     4  11  26  43  65  94 126 180 226 273 317 383
#     4  11  20  35  66  94 129 170 204 261 333 388
#
# _framework density 19.812553000000001
#
# number of rings (size 3 to 8) (size 9 to 14) (size 15 to 20)
#    0.000    1.143    5.714    0.857    0.000    3.429 
#    0.000    4.286    0.000    0.000    0.000    0.000 
#    0.000    0.000    0.000    0.000    0.000    0.000 
#
# Total GULP energy -156369.004279 kJ/mol
# GULP energy per Si atom -5584.607296 kJ/mol
# Density = 1.976746 g / cm^3
# Si number density = 19.812553 Si / 1000 Ang^3
#
#
#
# Elastic Constant Matrix: (Units=GPa)
#
#
# Indices 1 2 3 4 5 6 
#
# 1 35.1752 10.2315 -7.1999 0.0000 0.0000 0.0000
# 2 10.2315 101.7330 18.1074 0.0000 0.0000 0.0000
# 3 -7.1999 18.1074 61.1838 0.0000 0.0000 0.0000
# 4 0.0000 0.0000 0.0000 27.2934 0.0000 0.0000
# 5 0.0000 0.0000 0.0000 0.0000 13.4643 0.0000
# 6 0.0000 0.0000 0.0000 0.0000 0.0000 12.6748
#
#
#
# Elastic Compliance Matrix: (Units=1/GPa)
#
#
# Indices 1 2 3 4 5 6 
#
# 1 0.030542 -0.003918 0.004753 0.000000 0.000000 0.000000
# 2 -0.003918 0.010879 -0.003681 0.000000 0.000000 0.000000
# 3 0.004753 -0.003681 0.017993 0.000000 0.000000 0.000000
# 4 0.000000 0.000000 0.000000 0.036639 0.000000 0.000000
# 5 0.000000 0.000000 0.000000 0.000000 0.074270 0.000000
# 6 0.000000 0.000000 0.000000 0.000000 0.000000 0.078897
#
#
# Mechanical properties :
#
#
# Convention : Reuss Voigt Hill
#
# Bulk Modulus (GPa) = 18.61382 26.70781 22.66082
# Shear Modulus (GPa) = 18.32729 22.48334 20.40532
#
# Velocity S-wave (km/s) = 3.04474 3.37234 3.21272
# Velocity P-wave (km/s) = 4.66647 5.35472 5.02240
#
# Compressibility (1/GPa) = 0.05372352
#
# Stress axis : x y z
#
# Youngs Moduli (GPa) = 32.74221 91.92207 55.57763
#
# Poissons Ratio (x) = 0.36012 -0.26419
# Poissons Ratio (y) = 0.12827 0.20456
# Poissons Ratio (z) = -0.15564 0.33833
#
# Static dielectric constant tensor:
#      x y z
#    x 1.650490 0.000000 0.000000 
#    y 0.000000 1.728150 0.000000 
#    z 0.000000 0.000000 1.710520 
# 
# From -- ./inp_files/1473.got.cif
#   From: 2010.05.17/outbox.cif.g08.bks.cpg/sg19_1_cif.got.tgz:1473.got - 2010.06.03 22:46:19.
