data_PCOD9314374
_publ_section_title
;
Structure prediction by ZEFSAII (Michael W. Deem and Ramdas Pophale) SiO2 
 PCOD9314374
Probable space group: P 21 21 21
;
_chemical_formula_sum "Si O2"
_cell_formula_units_Z 28
_cell_length_a 16.899096
_cell_length_b 7.180624
_cell_length_c 11.242981
_cell_angle_alpha 90.000000
_cell_angle_beta 90.000000
_cell_angle_gamma 90.000000
_cell_volume 1364.291383
_symmetry_space_group_name_H-M "P 21 21 21"
_symmetry_group_IT_number 19
_symmetry_cell_setting 'orthorhombic'
loop_
_space_group_symop_operation_xyz
x,y,z
1/2-x,-y,1/2+z
1/2+x,1/2-y,-z
-x,1/2+y,1/2-z
loop_
_atom_site_type_symbol
_atom_site_label
_atom_site_fract_x
_atom_site_fract_y
_atom_site_fract_z
Si Si1 0.031912 0.834722 0.901957
Si Si2 0.547247 0.068116 0.164038
Si Si3 0.205743 0.808485 0.354956
Si Si4 0.168380 0.210317 0.251377
Si Si5 0.366893 0.870536 0.489740
Si Si6 0.883199 0.982169 0.044774
Si Si7 0.791474 0.980140 0.810569
O O1 0.024503 0.613118 0.910668
O O2 0.113027 0.919367 0.950654
O O3 0.018184 0.880888 0.762470
O O4 0.963883 0.936463 0.977515
O O5 0.626305 0.018227 0.238511
O O6 0.572577 0.240703 0.083565
O O7 0.278750 0.820269 0.447049
O O8 0.133329 0.692220 0.411336
O O9 0.238604 0.684840 0.244913
O O10 0.185821 0.014444 0.313171
O O11 0.124530 0.344651 0.343922
O O12 0.246261 0.327445 0.213655
O O13 0.123917 0.166943 0.128595
O O14 0.813651 0.946359 0.947640
#
# Coordination Sequence:
#
# PCOD9314374 Si02
#       7
#     4   4   4   4   4   4   4
#     4  11  22  41  65  92 125 170 216 262 318 375
#     4  10  21  40  65  92 123 162 215 268 310 371
#     4  10  22  40  66  94 124 161 217 264 317 379
#     4  11  23  40  62  95 123 167 210 251 329 382
#     4  11  23  41  64  97 126 167 216 262 319 381
#     4  10  23  41  60  92 131 165 206 267 319 373
#     4   9  20  39  64  90 128 156 204 270 312 371
#
# _framework density 20.523475000000001
#
# number of rings (size 3 to 8) (size 9 to 14) (size 15 to 20)
#    0.000    1.714    2.857    0.857    2.000    3.429 
#    5.143    0.000    0.000    0.000    0.000    0.000 
#    0.000    0.000    0.000    0.000    0.000    0.000 
#
# Total GULP energy -156405.600660 kJ/mol
# GULP energy per Si atom -5585.914309 kJ/mol
# Density = 2.047676 g / cm^3
# Si number density = 20.523475 Si / 1000 Ang^3
#
#
#
# Elastic Constant Matrix: (Units=GPa)
#
#
# Indices 1 2 3 4 5 6 
#
# 1 22.5984 8.5770 11.7797 0.0000 0.0000 0.0000
# 2 8.5770 96.4628 28.3209 0.0000 0.0000 0.0000
# 3 11.7797 28.3209 110.2096 0.0000 0.0000 0.0000
# 4 0.0000 0.0000 0.0000 17.3857 0.0000 0.0000
# 5 0.0000 0.0000 0.0000 0.0000 18.7670 0.0000
# 6 0.0000 0.0000 0.0000 0.0000 0.0000 20.9054
#
#
#
# Elastic Compliance Matrix: (Units=1/GPa)
#
#
# Indices 1 2 3 4 5 6 
#
# 1 0.047633 -0.002964 -0.004329 0.000000 0.000000 0.000000
# 2 -0.002964 0.011397 -0.002612 0.000000 0.000000 0.000000
# 3 -0.004329 -0.002612 0.010208 0.000000 0.000000 0.000000
# 4 0.000000 0.000000 0.000000 0.057518 0.000000 0.000000
# 5 0.000000 0.000000 0.000000 0.000000 0.053285 0.000000
# 6 0.000000 0.000000 0.000000 0.000000 0.000000 0.047835
#
#
# Mechanical properties :
#
#
# Convention : Reuss Voigt Hill
#
# Bulk Modulus (GPa) = 20.23216 36.29176 28.26196
# Shear Modulus (GPa) = 18.92778 23.45116 21.18947
#
# Velocity S-wave (km/s) = 3.04015 3.38398 3.21666
# Velocity P-wave (km/s) = 4.71199 5.74368 5.25322
#
# Compressibility (1/GPa) = 0.04942627
#
# Stress axis : x y z
#
# Youngs Moduli (GPa) = 20.99398 87.74167 97.96650
#
# Poissons Ratio (x) = 0.26008 0.42414
# Poissons Ratio (y) = 0.06223 0.25588
# Poissons Ratio (z) = 0.09089 0.22917
#
# Static dielectric constant tensor:
#      x y z
#    x 1.732080 0.000000 0.000000 
#    y 0.000000 1.724650 0.000000 
#    z 0.000000 0.000000 1.719990 
# 
# From -- ./inp_files/1758.got.cif
#   From: 2010.05.17/outbox.cif.g08.bks.cpg/sg19_1_cif.got.tgz:1758.got - 2010.06.03 22:46:19.
