data_PCOD9314058
_publ_section_title
;
Structure prediction by ZEFSAII (Michael W. Deem and Ramdas Pophale) SiO2 
 PCOD9314058
Probable space group: P 21 21 21
;
_chemical_formula_sum "Si O2"
_cell_formula_units_Z 28
_cell_length_a 8.050203
_cell_length_b 7.650805
_cell_length_c 16.578465
_cell_angle_alpha 90.000000
_cell_angle_beta 90.000000
_cell_angle_gamma 90.000000
_cell_volume 1021.076502
_symmetry_space_group_name_H-M "P 21 21 21"
_symmetry_group_IT_number 19
_symmetry_cell_setting 'orthorhombic'
loop_
_space_group_symop_operation_xyz
x,y,z
1/2-x,-y,1/2+z
1/2+x,1/2-y,-z
-x,1/2+y,1/2-z
loop_
_atom_site_type_symbol
_atom_site_label
_atom_site_fract_x
_atom_site_fract_y
_atom_site_fract_z
Si Si1 0.271849 0.506721 0.329214
Si Si2 0.054878 0.995424 0.802121
Si Si3 0.827348 0.208499 0.403970
Si Si4 0.542916 0.716719 0.591280
Si Si5 0.886410 0.625701 0.187562
Si Si6 0.333399 0.329764 0.082261
Si Si7 0.007218 0.695105 0.933889
O O1 0.409012 0.538428 0.260943
O O2 0.141896 0.653558 0.351326
O O3 0.174797 0.326815 0.308720
O O4 0.375099 0.464154 0.410524
O O5 0.981679 0.159957 0.851965
O O6 0.063224 0.844082 0.870365
O O7 0.239511 0.978575 0.764911
O O8 0.681440 0.348185 0.412310
O O9 0.915424 0.169666 0.319238
O O10 0.958992 0.250848 0.474542
O O11 0.726184 0.032686 0.426989
O O12 0.599085 0.519906 0.614356
O O13 0.346497 0.748306 0.604408
O O14 0.594529 0.756506 0.500188
#
# Coordination Sequence:
#
# PCOD9314058 Si02
#       7
#     4   4   4   4   4   4   4
#     4  11  24  45  70 102 141 202 236 297 366 443
#     4  10  23  42  69 101 146 187 243 291 363 439
#     4  10  20  41  72 109 139 184 241 312 363 423
#     4  11  23  45  71 103 143 184 246 304 364 424
#     4  10  24  43  68 101 139 180 240 296 355 435
#     4  10  22  44  69 106 145 185 244 313 360 429
#     4  10  20  40  71 102 141 182 242 295 361 437
#
# _framework density 27.422039999999999
#
# number of rings (size 3 to 8) (size 9 to 14) (size 15 to 20)
#    0.000    1.714    1.429    2.571    6.000    0.000 
#   12.857    1.429    0.000    0.000    0.000    0.000 
#    0.000    0.000    0.000    0.000    0.000    0.000 
#
# Total GULP energy -156295.383334 kJ/mol
# GULP energy per Si atom -5581.977976 kJ/mol
# Density = 2.735963 g / cm^3
# Si number density = 27.422040 Si / 1000 Ang^3
#
#
#
# Elastic Constant Matrix: (Units=GPa)
#
#
# Indices 1 2 3 4 5 6 
#
# 1 96.3769 9.4783 22.0502 0.0000 0.0000 0.0000
# 2 9.4783 105.0944 26.9709 0.0000 0.0000 0.0000
# 3 22.0502 26.9709 109.2830 0.0000 0.0000 0.0000
# 4 0.0000 0.0000 0.0000 32.7408 0.0000 0.0000
# 5 0.0000 0.0000 0.0000 0.0000 40.8844 0.0000
# 6 0.0000 0.0000 0.0000 0.0000 0.0000 50.1800
#
#
#
# Elastic Compliance Matrix: (Units=1/GPa)
#
#
# Indices 1 2 3 4 5 6 
#
# 1 0.010898 -0.000447 -0.002089 0.000000 0.000000 0.000000
# 2 -0.000447 0.010177 -0.002422 0.000000 0.000000 0.000000
# 3 -0.002089 -0.002422 0.010170 0.000000 0.000000 0.000000
# 4 0.000000 0.000000 0.000000 0.030543 0.000000 0.000000
# 5 0.000000 0.000000 0.000000 0.000000 0.024459 0.000000
# 6 0.000000 0.000000 0.000000 0.000000 0.000000 0.019928
#
#
# Mechanical properties :
#
#
# Convention : Reuss Voigt Hill
#
# Bulk Modulus (GPa) = 46.88129 47.52811 47.20470
# Shear Modulus (GPa) = 40.58483 41.57803 41.08143
#
# Velocity S-wave (km/s) = 3.85126 3.89810 3.87475
# Velocity P-wave (km/s) = 6.07533 6.13433 6.10490
#
# Compressibility (1/GPa) = 0.02133047
#
# Stress axis : x y z
#
# Youngs Moduli (GPa) = 91.76226 98.26081 98.33239
#
# Poissons Ratio (x) = 0.04391 0.20537
# Poissons Ratio (y) = 0.04100 0.23811
# Poissons Ratio (z) = 0.19165 0.23794
#
# Static dielectric constant tensor:
#      x y z
#    x 2.321520 0.000000 0.000000 
#    y 0.000000 2.198150 0.000000 
#    z 0.000000 0.000000 2.171290 
# 
# From -- ./inp_files/6577.got.cif
#   From: 2010.05.17/outbox.cif.g08.bks.cpg/sg19_4_cif.got.tgz:6577.got - 2010.06.03 22:46:19.
