data_PCOD9314923
_publ_section_title
;
Structure prediction by ZEFSAII (Michael W. Deem and Ramdas Pophale) SiO2 
 PCOD9314923
Probable space group: P 21 21 21
;
_chemical_formula_sum "Si O2"
_cell_formula_units_Z 16
_cell_length_a 5.429358
_cell_length_b 11.356517
_cell_length_c 8.471701
_cell_angle_alpha 90.000000
_cell_angle_beta 90.000000
_cell_angle_gamma 90.000000
_cell_volume 522.353193
_symmetry_space_group_name_H-M "P 21 21 21"
_symmetry_group_IT_number 19
_symmetry_cell_setting 'orthorhombic'
loop_
_space_group_symop_operation_xyz
x,y,z
1/2-x,-y,1/2+z
1/2+x,1/2-y,-z
-x,1/2+y,1/2-z
loop_
_atom_site_type_symbol
_atom_site_label
_atom_site_fract_x
_atom_site_fract_y
_atom_site_fract_z
Si Si1 0.732632 0.030333 0.144883
Si Si2 0.123978 0.976071 0.955275
Si Si3 0.176353 0.719197 0.853034
Si Si4 0.822346 0.286965 0.153161
O O1 0.763465 0.160331 0.068798
O O2 0.571925 0.020404 0.304305
O O3 0.665136 0.906817 0.058174
O O4 0.025664 0.001300 0.134277
O O5 0.302656 0.088444 0.935891
O O6 0.191039 0.839214 0.949614
O O7 0.419247 0.724619 0.743102
O O8 0.923058 0.718923 0.758881
#
# Coordination Sequence:
#
# PCOD9314923 Si02
#       4
#     4   4   4   4
#     4  10  23  44  69 106 144 188 242 298 360 430
#     4  10  23  44  75 106 146 194 244 300 362 430
#     4  10  22  44  69 100 140 189 239 295 359 430
#     4  10  22  44  69 100 140 189 239 295 359 430
#
# _framework density 30.630614999999999
#
# number of rings (size 3 to 8) (size 9 to 14) (size 15 to 20)
#    0.000    2.000    0.000    1.500    0.000    8.000 
#    0.000   32.500    0.000    0.000    0.000    0.000 
#    0.000    0.000    0.000    0.000    0.000    0.000 
#
# Total GULP energy -89199.448478 kJ/mol
# GULP energy per Si atom -5574.965530 kJ/mol
# Density = 3.056090 g / cm^3
# Si number density = 30.630615 Si / 1000 Ang^3
#
#
#
# Elastic Constant Matrix: (Units=GPa)
#
#
# Indices 1 2 3 4 5 6 
#
# 1 144.9443 25.3142 56.8417 0.0000 0.0000 0.0000
# 2 25.3142 344.8326 51.2755 0.0000 0.0000 0.0000
# 3 56.8417 51.2755 65.6437 0.0000 0.0000 0.0000
# 4 0.0000 0.0000 0.0000 44.2901 0.0000 0.0000
# 5 0.0000 0.0000 0.0000 0.0000 88.8735 0.0000
# 6 0.0000 0.0000 0.0000 0.0000 0.0000 50.0395
#
#
#
# Elastic Compliance Matrix: (Units=1/GPa)
#
#
# Indices 1 2 3 4 5 6 
#
# 1 0.010579 0.000662 -0.009678 0.000000 0.000000 0.000000
# 2 0.000662 0.003323 -0.003169 0.000000 0.000000 0.000000
# 3 -0.009678 -0.003169 0.026089 0.000000 0.000000 0.000000
# 4 0.000000 0.000000 0.000000 0.022578 0.000000 0.000000
# 5 0.000000 0.000000 0.000000 0.000000 0.011252 0.000000
# 6 0.000000 0.000000 0.000000 0.000000 0.000000 0.019984
#
#
# Mechanical properties :
#
#
# Convention : Reuss Voigt Hill
#
# Bulk Modulus (GPa) = 64.01221 91.36483 77.68852
# Shear Modulus (GPa) = 40.52498 64.77325 52.64911
#
# Velocity S-wave (km/s) = 3.64128 4.60353 4.15039
# Velocity P-wave (km/s) = 6.21467 7.62557 6.95598
#
# Compressibility (1/GPa) = 0.01562202
#
# Stress axis : x y z
#
# Youngs Moduli (GPa) = 94.52919 300.97504 38.33015
#
# Poissons Ratio (x) = -0.19938 0.37095
# Poissons Ratio (y) = -0.06262 0.12147
# Poissons Ratio (z) = 0.91483 0.95377
#
# Static dielectric constant tensor:
#      x y z
#    x 2.759560 0.000000 0.000000 
#    y 0.000000 2.459820 0.000000 
#    z 0.000000 0.000000 2.363100 
# 
# From -- ./inp_files/4408.got.cif
#   From: 2010.05.17/outbox.cif.g08.bks.cpg/sg19_3_cif.got.tgz:4408.got - 2010.06.03 22:46:19.
