data_PCOD9314637
_publ_section_title
;
Structure prediction by ZEFSAII (Michael W. Deem and Ramdas Pophale) SiO2 
 PCOD9314637
Probable space group: P 21 21 21
;
_chemical_formula_sum "Si O2"
_cell_formula_units_Z 28
_cell_length_a 15.042535
_cell_length_b 5.013777
_cell_length_c 18.653183
_cell_angle_alpha 90.000000
_cell_angle_beta 90.000000
_cell_angle_gamma 90.000000
_cell_volume 1406.821495
_symmetry_space_group_name_H-M "P 21 21 21"
_symmetry_group_IT_number 19
_symmetry_cell_setting 'orthorhombic'
loop_
_space_group_symop_operation_xyz
x,y,z
1/2-x,-y,1/2+z
1/2+x,1/2-y,-z
-x,1/2+y,1/2-z
loop_
_atom_site_type_symbol
_atom_site_label
_atom_site_fract_x
_atom_site_fract_y
_atom_site_fract_z
Si Si1 0.298372 0.700090 0.515039
Si Si2 0.150838 0.790788 0.090724
Si Si3 0.181699 0.516536 0.630786
Si Si4 0.690979 0.390377 0.145869
Si Si5 0.948489 0.109330 0.272282
Si Si6 0.238775 0.377791 0.275062
Si Si7 0.497231 0.088872 0.300553
O O1 0.346153 0.414516 0.523869
O O2 0.203778 0.661983 0.555870
O O3 0.351990 0.910415 0.563664
O O4 0.292404 0.807807 0.435703
O O5 0.246999 0.726797 0.127351
O O6 0.077836 0.708699 0.148399
O O7 0.216394 0.688062 0.698453
O O8 0.082262 0.432774 0.647549
O O9 0.706889 0.126128 0.192697
O O10 0.592386 0.504374 0.158993
O O11 0.755137 0.624022 0.173861
O O12 0.860455 0.978874 0.238311
O O13 0.980451 0.371138 0.230048
O O14 0.491120 0.378479 0.264636
#
# Coordination Sequence:
#
# PCOD9314637 Si02
#       7
#     4   4   4   4   4   4   4
#     4  10  22  39  64  85 127 173 209 237 326 388
#     4   9  21  38  65  81 120 173 204 242 324 384
#     4   9  22  38  65  88 123 169 206 252 314 388
#     4  12  23  41  62 100 128 167 206 272 317 383
#     4  11  22  38  63  96 117 155 220 272 302 374
#     4  11  23  39  66  87 127 164 209 261 330 368
#     4  12  23  37  63  99 126 157 216 268 309 367
#
# _framework density 19.903023000000001
#
# number of rings (size 3 to 8) (size 9 to 14) (size 15 to 20)
#    0.857    0.571    2.857    2.571    6.000    0.000 
#    0.000    4.286    3.143    0.000    0.000    0.000 
#    0.000    0.000    0.000    0.000    0.000    0.000 
#
# Total GULP energy -156263.423811 kJ/mol
# GULP energy per Si atom -5580.836565 kJ/mol
# Density = 1.985772 g / cm^3
# Si number density = 19.903023 Si / 1000 Ang^3
#
#
#
# Elastic Constant Matrix: (Units=GPa)
#
#
# Indices 1 2 3 4 5 6 
#
# 1 52.0438 -2.5150 15.8182 0.0000 0.0000 0.0000
# 2 -2.5150 67.7275 -12.5656 0.0000 0.0000 0.0000
# 3 15.8182 -12.5656 55.3555 0.0000 0.0000 0.0000
# 4 0.0000 0.0000 0.0000 20.7962 0.0000 0.0000
# 5 0.0000 0.0000 0.0000 0.0000 21.0084 0.0000
# 6 0.0000 0.0000 0.0000 0.0000 0.0000 16.5217
#
#
#
# Elastic Compliance Matrix: (Units=1/GPa)
#
#
# Indices 1 2 3 4 5 6 
#
# 1 0.021050 -0.000349 -0.006094 0.000000 0.000000 0.000000
# 2 -0.000349 0.015420 0.003600 0.000000 0.000000 0.000000
# 3 -0.006094 0.003600 0.020624 0.000000 0.000000 0.000000
# 4 0.000000 0.000000 0.000000 0.048086 0.000000 0.000000
# 5 0.000000 0.000000 0.000000 0.000000 0.047600 0.000000
# 6 0.000000 0.000000 0.000000 0.000000 0.000000 0.060526
#
#
# Mechanical properties :
#
#
# Convention : Reuss Voigt Hill
#
# Bulk Modulus (GPa) = 19.45256 19.62242 19.53749
# Shear Modulus (GPa) = 21.17491 23.29120 22.23306
#
# Velocity S-wave (km/s) = 3.26529 3.42458 3.34588
# Velocity P-wave (km/s) = 4.90011 5.05148 4.97637
#
# Compressibility (1/GPa) = 0.05140711
#
# Stress axis : x y z
#
# Youngs Moduli (GPa) = 47.50579 64.85072 48.48765
#
# Poissons Ratio (x) = 0.02264 0.29550
# Poissons Ratio (y) = 0.01658 -0.17456
# Poissons Ratio (z) = 0.28952 -0.23347
#
# Static dielectric constant tensor:
#      x y z
#    x 1.708620 0.000000 0.000000 
#    y 0.000000 1.711330 0.000000 
#    z 0.000000 0.000000 1.704620 
# 
# From -- ./inp_files/6771.got.cif
#   From: 2010.05.17/outbox.cif.g08.bks.cpg/sg19_4_cif.got.tgz:6771.got - 2010.06.03 22:46:19.
