data_PCOD9314268
_publ_section_title
;
Structure prediction by ZEFSAII (Michael W. Deem and Ramdas Pophale) SiO2 
 PCOD9314268
Probable space group: P 21 21 21
;
_chemical_formula_sum "Si O2"
_cell_formula_units_Z 28
_cell_length_a 17.097377
_cell_length_b 7.253522
_cell_length_c 8.180778
_cell_angle_alpha 90.000000
_cell_angle_beta 90.000000
_cell_angle_gamma 90.000000
_cell_volume 1014.549002
_symmetry_space_group_name_H-M "P 21 21 21"
_symmetry_group_IT_number 19
_symmetry_cell_setting 'orthorhombic'
loop_
_space_group_symop_operation_xyz
x,y,z
1/2-x,-y,1/2+z
1/2+x,1/2-y,-z
-x,1/2+y,1/2-z
loop_
_atom_site_type_symbol
_atom_site_label
_atom_site_fract_x
_atom_site_fract_y
_atom_site_fract_z
Si Si1 0.422790 0.725377 0.537474
Si Si2 0.170578 0.483319 0.740775
Si Si3 0.104488 0.877401 0.765769
Si Si4 0.035565 0.409917 0.506945
Si Si5 0.307200 0.233126 0.774835
Si Si6 0.442050 0.991807 0.902159
Si Si7 0.208488 0.070387 0.036216
O O1 0.378938 0.633659 0.377374
O O2 0.468727 0.555936 0.612242
O O3 0.488595 0.894552 0.529530
O O4 0.348844 0.801189 0.637816
O O5 0.157319 0.696521 0.775272
O O6 0.121391 0.457186 0.574404
O O7 0.261582 0.422801 0.738672
O O8 0.085469 0.961027 0.588942
O O9 0.020830 0.834102 0.847753
O O10 0.150562 0.007802 0.890847
O O11 0.050577 0.229558 0.396709
O O12 0.266425 0.102849 0.638917
O O13 0.393066 0.136831 0.785655
O O14 0.276323 0.180396 0.953092
#
# Coordination Sequence:
#
# PCOD9314268 Si02
#       7
#     4   4   4   4   4   4   4
#     4  10  21  38  65  95 129 164 226 269 319 387
#     4  11  19  37  64  96 133 168 219 268 324 397
#     4  11  20  36  70  98 125 166 226 269 321 395
#     4  11  18  36  68  96 122 166 222 268 316 393
#     4  11  25  43  64  93 140 177 215 277 337 386
#     4  12  22  40  67 100 128 174 221 274 332 385
#     4  10  23  44  64  96 133 179 217 271 329 395
#
# _framework density 27.598469999999999
#
# number of rings (size 3 to 8) (size 9 to 14) (size 15 to 20)
#    0.000    1.143    4.286    4.286    0.000    1.143 
#    7.714    0.000    0.000    0.000    0.000    0.000 
#    0.000    0.000    0.000    0.000    0.000    0.000 
#
# Total GULP energy -156174.605870 kJ/mol
# GULP energy per Si atom -5577.664495 kJ/mol
# Density = 2.753566 g / cm^3
# Si number density = 27.598470 Si / 1000 Ang^3
#
#
#
# Elastic Constant Matrix: (Units=GPa)
#
#
# Indices 1 2 3 4 5 6 
#
# 1 73.5234 12.8660 11.3612 0.0000 0.0000 0.0000
# 2 12.8660 132.3930 29.9187 0.0000 0.0000 0.0000
# 3 11.3612 29.9187 59.7369 0.0000 0.0000 0.0000
# 4 0.0000 0.0000 0.0000 32.7459 0.0000 0.0000
# 5 0.0000 0.0000 0.0000 0.0000 37.8693 0.0000
# 6 0.0000 0.0000 0.0000 0.0000 0.0000 45.1799
#
#
#
# Elastic Compliance Matrix: (Units=1/GPa)
#
#
# Indices 1 2 3 4 5 6 
#
# 1 0.014100 -0.000862 -0.002250 0.000000 0.000000 0.000000
# 2 -0.000862 0.008570 -0.004128 0.000000 0.000000 0.000000
# 3 -0.002250 -0.004128 0.019236 0.000000 0.000000 0.000000
# 4 0.000000 0.000000 0.000000 0.030538 0.000000 0.000000
# 5 0.000000 0.000000 0.000000 0.000000 0.026407 0.000000
# 6 0.000000 0.000000 0.000000 0.000000 0.000000 0.022134
#
#
# Mechanical properties :
#
#
# Convention : Reuss Voigt Hill
#
# Bulk Modulus (GPa) = 36.46290 41.54945 39.00618
# Shear Modulus (GPa) = 34.57686 37.25951 35.91819
#
# Velocity S-wave (km/s) = 3.54341 3.67830 3.61148
# Velocity P-wave (km/s) = 5.47555 5.75565 5.61734
#
# Compressibility (1/GPa) = 0.02742513
#
# Stress axis : x y z
#
# Youngs Moduli (GPa) = 70.92405 116.68690 51.98695
#
# Poissons Ratio (x) = 0.10056 0.11697
# Poissons Ratio (y) = 0.06112 0.21462
# Poissons Ratio (z) = 0.15958 0.48172
#
# Static dielectric constant tensor:
#      x y z
#    x 2.260490 0.000000 0.000000 
#    y 0.000000 2.175080 0.000000 
#    z 0.000000 0.000000 2.341220 
# 
# From -- ./inp_files/4174.got.cif
#   From: 2010.05.17/outbox.cif.g08.bks.cpg/sg19_3_cif.got.tgz:4174.got - 2010.06.03 22:46:19.
