data_PCOD9314222
_publ_section_title
;
Structure prediction by ZEFSAII (Michael W. Deem and Ramdas Pophale) SiO2 
 PCOD9314222
Probable space group: P 21 21 21
;
_chemical_formula_sum "Si O2"
_cell_formula_units_Z 32
_cell_length_a 18.844296
_cell_length_b 12.966883
_cell_length_c 5.424633
_cell_angle_alpha 90.000000
_cell_angle_beta 90.000000
_cell_angle_gamma 90.000000
_cell_volume 1325.518737
_symmetry_space_group_name_H-M "P 21 21 21"
_symmetry_group_IT_number 19
_symmetry_cell_setting 'orthorhombic'
loop_
_space_group_symop_operation_xyz
x,y,z
1/2-x,-y,1/2+z
1/2+x,1/2-y,-z
-x,1/2+y,1/2-z
loop_
_atom_site_type_symbol
_atom_site_label
_atom_site_fract_x
_atom_site_fract_y
_atom_site_fract_z
Si Si1 0.206855 0.506499 0.528759
Si Si2 0.787251 0.583833 0.705378
Si Si3 0.269646 0.855981 0.802819
Si Si4 0.379217 0.125244 0.807045
Si Si5 0.850090 0.208166 0.829622
Si Si6 0.500488 0.480376 0.690247
Si Si7 0.972320 0.229040 0.523682
Si Si8 0.438450 0.583456 0.187828
O O1 0.242357 0.478031 0.268544
O O2 0.174026 0.620370 0.483455
O O3 0.145300 0.430469 0.628845
O O4 0.812255 0.632293 0.451516
O O5 0.781887 0.459588 0.704754
O O6 0.704263 0.616057 0.723570
O O7 0.816119 0.631707 0.954269
O O8 0.219645 0.755982 0.798681
O O9 0.419056 0.019232 0.831613
O O10 0.419317 0.188503 0.599041
O O11 0.387343 0.194564 0.046351
O O12 0.914646 0.162517 0.676912
O O13 0.499263 0.357419 0.663648
O O14 0.461024 0.540553 0.459969
O O15 0.472573 0.519258 0.956365
O O16 0.031975 0.299214 0.653414
#
# Coordination Sequence:
#
# PCOD9314222 Si02
#       8
#     4   4   4   4   4   4   4   4
#     4  12  28  47  70  95 136 185 234 282 327 408
#     4   9  17  31  52  81 127 153 204 257 308 378
#     4   9  18  31  54  85 114 165 204 257 307 387
#     4  10  21  37  64  98 129 170 220 267 341 410
#     4  11  21  39  70  91 128 172 227 263 347 401
#     4  11  23  39  68 105 133 172 221 288 343 410
#     4  11  22  39  71  99 133 176 215 286 350 407
#     4  11  24  45  69 100 138 173 235 282 339 411
#
# _framework density 24.141493000000001
#
# number of rings (size 3 to 8) (size 9 to 14) (size 15 to 20)
#    0.000    1.500    3.750    1.500    1.750    0.000 
#    2.250    0.000   11.000    0.000    0.000    0.000 
#    0.000    0.000    0.000    0.000    0.000    0.000 
#
# Total GULP energy -178544.046509 kJ/mol
# GULP energy per Si atom -5579.501453 kJ/mol
# Density = 2.408655 g / cm^3
# Si number density = 24.141493 Si / 1000 Ang^3
#
#
#
# Elastic Constant Matrix: (Units=GPa)
#
#
# Indices 1 2 3 4 5 6 
#
# 1 49.9696 15.2247 9.3130 0.0000 0.0000 0.0000
# 2 15.2247 78.5052 -3.7141 0.0000 0.0000 0.0000
# 3 9.3130 -3.7141 136.0072 0.0000 0.0000 0.0000
# 4 0.0000 0.0000 0.0000 26.4555 0.0000 0.0000
# 5 0.0000 0.0000 0.0000 0.0000 17.2307 0.0000
# 6 0.0000 0.0000 0.0000 0.0000 0.0000 11.7376
#
#
#
# Elastic Compliance Matrix: (Units=1/GPa)
#
#
# Indices 1 2 3 4 5 6 
#
# 1 0.021610 -0.004266 -0.001596 0.000000 0.000000 0.000000
# 2 -0.004266 0.013597 0.000663 0.000000 0.000000 0.000000
# 3 -0.001596 0.000663 0.007480 0.000000 0.000000 0.000000
# 4 0.000000 0.000000 0.000000 0.037799 0.000000 0.000000
# 5 0.000000 0.000000 0.000000 0.000000 0.058036 0.000000
# 6 0.000000 0.000000 0.000000 0.000000 0.000000 0.085196
#
#
# Mechanical properties :
#
#
# Convention : Reuss Voigt Hill
#
# Bulk Modulus (GPa) = 30.97112 34.01434 32.49273
# Shear Modulus (GPa) = 20.41831 27.32868 23.87349
#
# Velocity S-wave (km/s) = 2.91138 3.36820 3.14809
# Velocity P-wave (km/s) = 4.91512 5.40801 5.16744
#
# Compressibility (1/GPa) = 0.03228814
#
# Stress axis : x y z
#
# Youngs Moduli (GPa) = 46.27591 73.54691 133.69044
#
# Poissons Ratio (x) = 0.31377 0.21340
# Poissons Ratio (y) = 0.19743 -0.08869
# Poissons Ratio (z) = 0.07387 -0.04879
#
# Static dielectric constant tensor:
#      x y z
#    x 1.930630 0.000000 0.000000 
#    y 0.000000 1.959380 0.000000 
#    z 0.000000 0.000000 2.182550 
# 
# From -- ./inp_files/1979.got.cif
#   From: 2010.05.17/outbox.cif.g08.bks.cpg/sg19_1_cif.got.tgz:1979.got - 2010.06.03 22:46:19.
