data_PCOD9314525
_publ_section_title
;
Structure prediction by ZEFSAII (Michael W. Deem and Ramdas Pophale) SiO2 
 PCOD9314525
Probable space group: P 21 21 21
;
_chemical_formula_sum "Si O2"
_cell_formula_units_Z 32
_cell_length_a 8.554964
_cell_length_b 14.314611
_cell_length_c 12.392051
_cell_angle_alpha 90.000000
_cell_angle_beta 90.000000
_cell_angle_gamma 90.000000
_cell_volume 1517.542732
_symmetry_space_group_name_H-M "P 21 21 21"
_symmetry_group_IT_number 19
_symmetry_cell_setting 'orthorhombic'
loop_
_space_group_symop_operation_xyz
x,y,z
1/2-x,-y,1/2+z
1/2+x,1/2-y,-z
-x,1/2+y,1/2-z
loop_
_atom_site_type_symbol
_atom_site_label
_atom_site_fract_x
_atom_site_fract_y
_atom_site_fract_z
Si Si1 0.101004 0.302654 0.703438
Si Si2 0.961375 0.724902 0.022360
Si Si3 0.305239 0.243731 0.907886
Si Si4 0.788176 0.063151 0.439535
Si Si5 0.239936 0.213611 0.266013
Si Si6 0.501497 0.068196 0.585592
Si Si7 0.575250 0.110271 0.821952
Si Si8 0.582467 0.370365 0.933963
O O1 0.204932 0.268206 0.802339
O O2 0.177065 0.396656 0.655617
O O3 0.098396 0.233105 0.600020
O O4 0.920850 0.312770 0.737403
O O5 0.082642 0.641770 0.037858
O O6 0.827934 0.713279 0.112987
O O7 0.038205 0.826683 0.048449
O O8 0.440700 0.171301 0.876386
O O9 0.404580 0.333618 0.946596
O O10 0.193363 0.195062 0.994287
O O11 0.677658 0.054440 0.542644
O O12 0.862280 0.967362 0.401780
O O13 0.207905 0.317460 0.219146
O O14 0.136225 0.147585 0.189249
O O15 0.503928 0.065034 0.714188
O O16 0.405999 0.980178 0.540446
#
# Coordination Sequence:
#
# PCOD9314525 Si02
#       8
#     4   4   4   4   4   4   4   4
#     4  11  21  40  67  99 126 176 221 276 337 390
#     4  10  21  43  68  97 130 174 220 277 332 393
#     4  11  25  42  71  93 137 178 221 276 338 401
#     4  11  23  42  66  97 132 177 220 272 340 396
#     4  10  22  40  70  95 137 171 223 278 332 404
#     4  10  22  40  67  92 132 169 220 273 326 399
#     4  10  22  44  62  97 130 181 217 273 332 396
#     4  11  24  45  65  98 132 178 222 277 339 409
#
# _framework density 21.086721000000001
#
# number of rings (size 3 to 8) (size 9 to 14) (size 15 to 20)
#    0.000    1.500    0.000    6.750    5.250    1.000 
#   18.000    1.250    0.000    0.000    0.000    0.000 
#    0.000    0.000    0.000    0.000    0.000    0.000 
#
# Total GULP energy -178924.343803 kJ/mol
# GULP energy per Si atom -5591.385744 kJ/mol
# Density = 2.103873 g / cm^3
# Si number density = 21.086721 Si / 1000 Ang^3
#
#
#
# Elastic Constant Matrix: (Units=GPa)
#
#
# Indices 1 2 3 4 5 6 
#
# 1 85.2620 28.9642 5.9568 0.0000 0.0000 0.0000
# 2 28.9642 66.1229 2.2189 0.0000 0.0000 0.0000
# 3 5.9568 2.2189 61.3744 0.0000 0.0000 0.0000
# 4 0.0000 0.0000 0.0000 11.0931 0.0000 0.0000
# 5 0.0000 0.0000 0.0000 0.0000 39.0770 0.0000
# 6 0.0000 0.0000 0.0000 0.0000 0.0000 23.5134
#
#
#
# Elastic Compliance Matrix: (Units=1/GPa)
#
#
# Indices 1 2 3 4 5 6 
#
# 1 0.013856 -0.006032 -0.001127 0.000000 0.000000 0.000000
# 2 -0.006032 0.017767 -0.000057 0.000000 0.000000 0.000000
# 3 -0.001127 -0.000057 0.016405 0.000000 0.000000 0.000000
# 4 0.000000 0.000000 0.000000 0.090146 0.000000 0.000000
# 5 0.000000 0.000000 0.000000 0.000000 0.025590 0.000000
# 6 0.000000 0.000000 0.000000 0.000000 0.000000 0.042529
#
#
# Mechanical properties :
#
#
# Convention : Reuss Voigt Hill
#
# Bulk Modulus (GPa) = 29.76399 31.89323 30.82861
# Shear Modulus (GPa) = 21.55872 26.44465 24.00169
#
# Velocity S-wave (km/s) = 3.20094 3.54516 3.37744
# Velocity P-wave (km/s) = 5.27324 5.64935 5.46453
#
# Compressibility (1/GPa) = 0.03359765
#
# Stress axis : x y z
#
# Youngs Moduli (GPa) = 72.16924 56.28293 60.95752
#
# Poissons Ratio (x) = 0.33948 0.06869
# Poissons Ratio (y) = 0.43531 0.00347
# Poissons Ratio (z) = 0.08132 0.00320
#
# Static dielectric constant tensor:
#      x y z
#    x 1.748900 0.000000 0.000000 
#    y 0.000000 1.766440 0.000000 
#    z 0.000000 0.000000 1.766720 
# 
# From -- ./inp_files/4748.got.cif
#   From: 2010.05.17/outbox.cif.g08.bks.cpg/sg19_3_cif.got.tgz:4748.got - 2010.06.03 22:46:19.
