data_PCOD9314196
_publ_section_title
;
Structure prediction by ZEFSAII (Michael W. Deem and Ramdas Pophale) SiO2 
 PCOD9314196
Probable space group: P 21 21 21
;
_chemical_formula_sum "Si O2"
_cell_formula_units_Z 24
_cell_length_a 23.754004
_cell_length_b 9.302563
_cell_length_c 5.155990
_cell_angle_alpha 90.000000
_cell_angle_beta 90.000000
_cell_angle_gamma 90.000000
_cell_volume 1139.335190
_symmetry_space_group_name_H-M "P 21 21 21"
_symmetry_group_IT_number 19
_symmetry_cell_setting 'orthorhombic'
loop_
_space_group_symop_operation_xyz
x,y,z
1/2-x,-y,1/2+z
1/2+x,1/2-y,-z
-x,1/2+y,1/2-z
loop_
_atom_site_type_symbol
_atom_site_label
_atom_site_fract_x
_atom_site_fract_y
_atom_site_fract_z
Si Si1 0.253671 0.678399 0.144834
Si Si2 0.962155 0.033748 0.990720
Si Si3 0.350544 0.743895 0.539459
Si Si4 0.024182 0.337395 0.992978
Si Si5 0.770415 0.578443 0.211899
Si Si6 0.833907 0.029255 0.083189
O O1 0.303515 0.747786 0.315981
O O2 0.193143 0.664330 0.274107
O O3 0.246476 0.769601 0.885706
O O4 0.282690 0.524795 0.095558
O O5 0.986974 0.945082 0.746971
O O6 0.973601 0.936133 0.247280
O O7 0.894253 0.046132 0.953720
O O8 0.985039 0.196457 0.015460
O O9 0.413799 0.731679 0.444451
O O10 0.334550 0.882913 0.711325
O O11 0.342064 0.600199 0.710384
O O12 0.738145 0.519697 0.461225
#
# Coordination Sequence:
#
# PCOD9314196 Si02
#       6
#     4   4   4   4   4   4
#     4  11  19  37  64  99 123 171 210 275 318 386
#     4  11  24  46  69 101 132 176 226 281 332 402
#     4  10  21  39  66  88 130 178 209 259 335 392
#     4  11  24  46  72  98 133 176 228 278 335 396
#     4  11  23  40  56  89 135 174 212 254 320 399
#     4  10  21  36  67  97 127 161 225 269 324 385
#
# _framework density 21.064916
#
# number of rings (size 3 to 8) (size 9 to 14) (size 15 to 20)
#    0.000    1.333    5.000    1.000    0.000    0.000 
#    3.000    1.667    0.000    0.000    0.000    0.000 
#    0.000    0.000    0.000    0.000    0.000    0.000 
#
# Total GULP energy -133813.520240 kJ/mol
# GULP energy per Si atom -5575.563343 kJ/mol
# Density = 2.101697 g / cm^3
# Si number density = 21.064916 Si / 1000 Ang^3
#
#
#
# Elastic Constant Matrix: (Units=GPa)
#
#
# Indices 1 2 3 4 5 6 
#
# 1 62.7756 34.4865 11.5614 0.0000 0.0000 0.0000
# 2 34.4865 80.1553 29.2216 0.0000 0.0000 0.0000
# 3 11.5614 29.2216 97.6844 0.0000 0.0000 0.0000
# 4 0.0000 0.0000 0.0000 40.0303 0.0000 0.0000
# 5 0.0000 0.0000 0.0000 0.0000 18.5186 0.0000
# 6 0.0000 0.0000 0.0000 0.0000 0.0000 27.2426
#
#
#
# Elastic Compliance Matrix: (Units=1/GPa)
#
#
# Indices 1 2 3 4 5 6 
#
# 1 0.020865 -0.009066 0.000242 0.000000 0.000000 0.000000
# 2 -0.009066 0.017942 -0.004294 0.000000 0.000000 0.000000
# 3 0.000242 -0.004294 0.011493 0.000000 0.000000 0.000000
# 4 0.000000 0.000000 0.000000 0.024981 0.000000 0.000000
# 5 0.000000 0.000000 0.000000 0.000000 0.054000 0.000000
# 6 0.000000 0.000000 0.000000 0.000000 0.000000 0.036707
#
#
# Mechanical properties :
#
#
# Convention : Reuss Voigt Hill
#
# Bulk Modulus (GPa) = 41.55368 43.46158 42.50763
# Shear Modulus (GPa) = 24.96947 28.18136 26.57541
#
# Velocity S-wave (km/s) = 3.44664 3.66161 3.55575
# Velocity P-wave (km/s) = 5.96728 6.20915 6.08941
#
# Compressibility (1/GPa) = 0.02406526
#
# Stress axis : x y z
#
# Youngs Moduli (GPa) = 47.92620 55.73599 87.00997
#
# Poissons Ratio (x) = 0.50528 -0.02109
# Poissons Ratio (y) = 0.43448 0.37364
# Poissons Ratio (z) = -0.01162 0.23934
#
# Static dielectric constant tensor:
#      x y z
#    x 1.739400 0.000000 0.000000 
#    y 0.000000 1.827840 0.000000 
#    z 0.000000 0.000000 1.854310 
# 
# From -- ./inp_files/2104.got.cif
#   From: 2010.05.17/outbox.cif.g08.bks.cpg/sg19_2_cif.got.tgz:2104.got - 2010.06.03 22:46:19.
