data_PCOD9314719
_publ_section_title
;
Structure prediction by ZEFSAII (Michael W. Deem and Ramdas Pophale) SiO2 
 PCOD9314719
Probable space group: P 21 21 21
;
_chemical_formula_sum "Si O2"
_cell_formula_units_Z 28
_cell_length_a 5.153039
_cell_length_b 28.411267
_cell_length_c 7.256825
_cell_angle_alpha 90.000000
_cell_angle_beta 90.000000
_cell_angle_gamma 90.000000
_cell_volume 1062.430870
_symmetry_space_group_name_H-M "P 21 21 21"
_symmetry_group_IT_number 19
_symmetry_cell_setting 'orthorhombic'
loop_
_space_group_symop_operation_xyz
x,y,z
1/2-x,-y,1/2+z
1/2+x,1/2-y,-z
-x,1/2+y,1/2-z
loop_
_atom_site_type_symbol
_atom_site_label
_atom_site_fract_x
_atom_site_fract_y
_atom_site_fract_z
Si Si1 0.479257 0.306862 0.007153
Si Si2 0.996090 0.856805 0.019553
Si Si3 0.306338 0.446936 0.352351
Si Si4 0.017481 0.774078 0.270919
Si Si5 0.523686 0.472229 0.728583
Si Si6 0.808119 0.602696 0.653694
Si Si7 0.023655 0.413396 0.829429
O O1 0.700502 0.285794 0.144242
O O2 0.535271 0.361360 0.024049
O O3 0.199747 0.296161 0.093672
O O4 0.509569 0.281764 0.808422
O O5 0.970277 0.802190 0.080762
O O6 0.233549 0.875149 0.148056
O O7 0.775970 0.894110 0.086489
O O8 0.012310 0.867895 0.803398
O O9 0.462093 0.472982 0.512748
O O10 0.052208 0.477588 0.312950
O O11 0.509904 0.441751 0.186954
O O12 0.801040 0.449796 0.763566
O O13 0.298473 0.436950 0.797938
O O14 0.545752 0.595966 0.539988
#
# Coordination Sequence:
#
# PCOD9314719 Si02
#       7
#     4   4   4   4   4   4   4
#     4   9  18  32  58  95 114 159 203 248 301 371
#     4  10  22  41  62  90 124 164 207 252 315 371
#     4  11  23  40  65  86 125 162 212 256 317 370
#     4   9  17  33  60  87 125 152 203 252 301 365
#     4  11  26  42  60  92 122 162 209 264 309 369
#     4  11  22  39  66  88 126 163 209 252 314 373
#     4  11  26  41  61  92 126 158 211 256 309 371
#
# _framework density 26.354658000000001
#
# number of rings (size 3 to 8) (size 9 to 14) (size 15 to 20)
#    0.000    1.714    2.857    0.857    6.000    0.000 
#    0.000    0.000    0.000   17.143    0.000    0.000 
#    0.000    0.000    0.000    0.000    0.000    0.000 
#
# Total GULP energy -156724.623860 kJ/mol
# GULP energy per Si atom -5597.307995 kJ/mol
# Density = 2.629467 g / cm^3
# Si number density = 26.354658 Si / 1000 Ang^3
#
#
#
# Elastic Constant Matrix: (Units=GPa)
#
#
# Indices 1 2 3 4 5 6 
#
# 1 67.4334 18.6268 20.1102 0.0000 0.0000 0.0000
# 2 18.6268 40.0461 -9.6975 0.0000 0.0000 0.0000
# 3 20.1102 -9.6975 60.3784 0.0000 0.0000 0.0000
# 4 0.0000 0.0000 0.0000 25.2309 0.0000 0.0000
# 5 0.0000 0.0000 0.0000 0.0000 26.2828 0.0000
# 6 0.0000 0.0000 0.0000 0.0000 0.0000 24.6566
#
#
#
# Elastic Compliance Matrix: (Units=1/GPa)
#
#
# Indices 1 2 3 4 5 6 
#
# 1 0.020694 -0.011752 -0.008780 0.000000 0.000000 0.000000
# 2 -0.011752 0.032655 0.009159 0.000000 0.000000 0.000000
# 3 -0.008780 0.009159 0.020958 0.000000 0.000000 0.000000
# 4 0.000000 0.000000 0.000000 0.039634 0.000000 0.000000
# 5 0.000000 0.000000 0.000000 0.000000 0.038048 0.000000
# 6 0.000000 0.000000 0.000000 0.000000 0.000000 0.040557
#
#
# Mechanical properties :
#
#
# Convention : Reuss Voigt Hill
#
# Bulk Modulus (GPa) = 19.39431 25.10408 22.24920
# Shear Modulus (GPa) = 21.50742 24.48863 22.99802
#
# Velocity S-wave (km/s) = 2.85980 3.05158 2.95725
# Velocity P-wave (km/s) = 4.27546 4.68640 4.48564
#
# Compressibility (1/GPa) = 0.05156151
#
# Stress axis : x y z
#
# Youngs Moduli (GPa) = 48.32333 30.62295 47.71538
#
# Poissons Ratio (x) = 0.35987 0.41894
# Poissons Ratio (y) = 0.56788 -0.43702
# Poissons Ratio (z) = 0.42428 -0.28047
#
# Static dielectric constant tensor:
#      x y z
#    x 2.044490 0.000000 0.000000 
#    y 0.000000 2.149560 0.000000 
#    z 0.000000 0.000000 2.053470 
# 
# From -- ./inp_files/2462.got.cif
#   From: 2010.05.17/outbox.cif.g08.bks.cpg/sg19_2_cif.got.tgz:2462.got - 2010.06.03 22:46:19.
