data_PCOD9314359
_publ_section_title
;
Structure prediction by ZEFSAII (Michael W. Deem and Ramdas Pophale) SiO2 
 PCOD9314359
Probable space group: P 21 21 21
;
_chemical_formula_sum "Si O2"
_cell_formula_units_Z 24
_cell_length_a 8.426780
_cell_length_b 9.217360
_cell_length_c 11.506521
_cell_angle_alpha 90.000000
_cell_angle_beta 90.000000
_cell_angle_gamma 90.000000
_cell_volume 893.742150
_symmetry_space_group_name_H-M "P 21 21 21"
_symmetry_group_IT_number 19
_symmetry_cell_setting 'orthorhombic'
loop_
_space_group_symop_operation_xyz
x,y,z
1/2-x,-y,1/2+z
1/2+x,1/2-y,-z
-x,1/2+y,1/2-z
loop_
_atom_site_type_symbol
_atom_site_label
_atom_site_fract_x
_atom_site_fract_y
_atom_site_fract_z
Si Si1 0.893002 0.505875 0.640314
Si Si2 0.249114 0.115000 0.561798
Si Si3 0.920046 0.127650 0.664220
Si Si4 0.223494 0.225764 0.135785
Si Si5 0.121434 0.766421 0.274825
Si Si6 0.670137 0.950056 0.547646
O O1 0.779246 0.390867 0.575272
O O2 0.764710 0.630803 0.677100
O O3 0.009880 0.499134 0.751095
O O4 0.017115 0.524831 0.532367
O O5 0.261118 0.945800 0.608281
O O6 0.373373 0.204654 0.638544
O O7 0.077636 0.177864 0.596897
O O8 0.846688 0.229063 0.764126
O O9 0.796896 0.074263 0.567732
O O10 0.053841 0.289027 0.175455
O O11 0.257535 0.312179 0.018442
O O12 0.143424 0.603084 0.320218
#
# Coordination Sequence:
#
# PCOD9314359 Si02
#       6
#     4   4   4   4   4   4
#     4  10  21  40  62  99 128 172 219 277 326 401
#     4  11  22  38  66  93 131 169 224 274 327 400
#     4  10  25  37  67  99 135 167 235 273 334 398
#     4  11  23  40  67  95 130 175 222 270 341 394
#     4  11  21  36  66  95 127 168 225 275 323 398
#     4  11  20  39  68  93 129 173 221 269 335 397
#
# _framework density 26.853384999999999
#
# number of rings (size 3 to 8) (size 9 to 14) (size 15 to 20)
#    0.000    1.333    3.333    2.000    7.000    0.000 
#    0.000    0.000   22.000    0.000    0.000    0.000 
#    0.000    0.000    0.000    0.000    0.000    0.000 
#
# Total GULP energy -134018.903743 kJ/mol
# GULP energy per Si atom -5584.120989 kJ/mol
# Density = 2.679227 g / cm^3
# Si number density = 26.853385 Si / 1000 Ang^3
#
#
#
# Elastic Constant Matrix: (Units=GPa)
#
#
# Indices 1 2 3 4 5 6 
#
# 1 124.4175 22.7417 21.6168 0.0000 0.0000 0.0000
# 2 22.7417 91.8985 37.9428 0.0000 0.0000 0.0000
# 3 21.6168 37.9428 115.1830 0.0000 0.0000 0.0000
# 4 0.0000 0.0000 0.0000 60.5777 0.0000 0.0000
# 5 0.0000 0.0000 0.0000 0.0000 52.9959 0.0000
# 6 0.0000 0.0000 0.0000 0.0000 0.0000 28.2258
#
#
#
# Elastic Compliance Matrix: (Units=1/GPa)
#
#
# Indices 1 2 3 4 5 6 
#
# 1 0.008526 -0.001677 -0.001048 0.000000 0.000000 0.000000
# 2 -0.001677 0.012925 -0.003943 0.000000 0.000000 0.000000
# 3 -0.001048 -0.003943 0.010177 0.000000 0.000000 0.000000
# 4 0.000000 0.000000 0.000000 0.016508 0.000000 0.000000
# 5 0.000000 0.000000 0.000000 0.000000 0.018869 0.000000
# 6 0.000000 0.000000 0.000000 0.000000 0.000000 0.035429
#
#
# Mechanical properties :
#
#
# Convention : Reuss Voigt Hill
#
# Bulk Modulus (GPa) = 54.66725 55.12238 54.89482
# Shear Modulus (GPa) = 41.02857 44.97307 43.00082
#
# Velocity S-wave (km/s) = 3.91304 4.09683 4.00599
# Velocity P-wave (km/s) = 6.38888 6.55365 6.47179
#
# Compressibility (1/GPa) = 0.01829249
#
# Stress axis : x y z
#
# Youngs Moduli (GPa) = 117.28747 77.37227 98.25865
#
# Poissons Ratio (x) = 0.12978 0.10293
# Poissons Ratio (y) = 0.19674 0.38741
# Poissons Ratio (z) = 0.12287 0.30506
#
# Static dielectric constant tensor:
#      x y z
#    x 2.197860 0.000000 0.000000 
#    y 0.000000 2.246360 0.000000 
#    z 0.000000 0.000000 2.124990 
# 
# From -- ./inp_files/4556.got.cif
#   From: 2010.05.17/outbox.cif.g08.bks.cpg/sg19_3_cif.got.tgz:4556.got - 2010.06.03 22:46:19.
