data_PCOD9314340
_publ_section_title
;
Structure prediction by ZEFSAII (Michael W. Deem and Ramdas Pophale) SiO2 
 PCOD9314340
Probable space group: P 21 21 21
;
_chemical_formula_sum "Si O2"
_cell_formula_units_Z 32
_cell_length_a 18.717877
_cell_length_b 10.455200
_cell_length_c 7.266485
_cell_angle_alpha 90.000000
_cell_angle_beta 90.000000
_cell_angle_gamma 90.000000
_cell_volume 1422.044921
_symmetry_space_group_name_H-M "P 21 21 21"
_symmetry_group_IT_number 19
_symmetry_cell_setting 'orthorhombic'
loop_
_space_group_symop_operation_xyz
x,y,z
1/2-x,-y,1/2+z
1/2+x,1/2-y,-z
-x,1/2+y,1/2-z
loop_
_atom_site_type_symbol
_atom_site_label
_atom_site_fract_x
_atom_site_fract_y
_atom_site_fract_z
Si Si1 0.826173 0.857257 0.826386
Si Si2 0.713440 0.779507 0.351823
Si Si3 0.821993 0.627374 0.563979
Si Si4 0.019109 0.197688 0.957222
Si Si5 0.614831 0.817731 0.697623
Si Si6 0.810137 0.998537 0.440433
Si Si7 0.481104 0.581644 0.161764
Si Si8 0.132837 0.845297 0.971706
O O1 0.827708 0.945054 0.640894
O O2 0.817659 0.712853 0.750213
O O3 0.755928 0.901929 0.931316
O O4 0.902677 0.884953 0.917340
O O5 0.755278 0.658247 0.434215
O O6 0.664763 0.831712 0.519115
O O7 0.663564 0.753158 0.178776
O O8 0.829873 0.477124 0.582664
O O9 0.899168 0.673097 0.485752
O O10 0.015319 0.331589 0.846898
O O11 0.964528 0.199953 0.125185
O O12 0.994790 0.072164 0.834953
O O13 0.625001 0.937232 0.833340
O O14 0.777674 0.878983 0.330211
O O15 0.857072 0.300043 0.320252
O O16 0.548082 0.635325 0.048749
#
# Coordination Sequence:
#
# PCOD9314340 Si02
#       8
#     4   4   4   4   4   4   4   4
#     4  10  21  39  68  94 136 174 219 293 335 406
#     4  11  23  44  67  97 142 170 224 296 332 406
#     4   9  22  44  63  97 138 175 227 279 343 409
#     4  10  22  45  68  97 140 178 230 286 335 420
#     4  12  24  42  71 101 133 179 230 286 332 420
#     4  11  21  39  66 102 129 172 230 280 349 386
#     4  10  22  44  69  96 138 186 220 281 353 401
#     4  11  25  43  70  98 130 190 228 261 361 416
#
# _framework density 22.502806
#
# number of rings (size 3 to 8) (size 9 to 14) (size 15 to 20)
#    0.000    1.500    3.750    1.500    3.500    0.000 
#   13.500    0.000    0.000    0.000    0.000    0.000 
#    0.000    0.000    0.000    0.000    0.000    0.000 
#
# Total GULP energy -178739.039861 kJ/mol
# GULP energy per Si atom -5585.594996 kJ/mol
# Density = 2.245159 g / cm^3
# Si number density = 22.502806 Si / 1000 Ang^3
#
#
#
# Elastic Constant Matrix: (Units=GPa)
#
#
# Indices 1 2 3 4 5 6 
#
# 1 75.6228 4.9605 11.1862 0.0000 0.0000 0.0000
# 2 4.9605 97.4474 26.4563 0.0000 0.0000 0.0000
# 3 11.1862 26.4563 71.9130 0.0000 0.0000 0.0000
# 4 0.0000 0.0000 0.0000 22.5905 0.0000 0.0000
# 5 0.0000 0.0000 0.0000 0.0000 39.3625 0.0000
# 6 0.0000 0.0000 0.0000 0.0000 0.0000 34.2049
#
#
#
# Elastic Compliance Matrix: (Units=1/GPa)
#
#
# Indices 1 2 3 4 5 6 
#
# 1 0.013536 -0.000130 -0.002058 0.000000 0.000000 0.000000
# 2 -0.000130 0.011402 -0.004174 0.000000 0.000000 0.000000
# 3 -0.002058 -0.004174 0.015761 0.000000 0.000000 0.000000
# 4 0.000000 0.000000 0.000000 0.044266 0.000000 0.000000
# 5 0.000000 0.000000 0.000000 0.000000 0.025405 0.000000
# 6 0.000000 0.000000 0.000000 0.000000 0.000000 0.029236
#
#
# Mechanical properties :
#
#
# Convention : Reuss Voigt Hill
#
# Bulk Modulus (GPa) = 35.74629 36.68768 36.21699
# Shear Modulus (GPa) = 30.92977 32.72359 31.82668
#
# Velocity S-wave (km/s) = 3.71143 3.81753 3.76485
# Velocity P-wave (km/s) = 5.85542 5.98084 5.91846
#
# Compressibility (1/GPa) = 0.02797493
#
# Stress axis : x y z
#
# Youngs Moduli (GPa) = 73.87461 87.70464 63.44577
#
# Poissons Ratio (x) = 0.01144 0.13055
# Poissons Ratio (y) = 0.00964 0.26485
# Poissons Ratio (z) = 0.15201 0.36611
#
# Static dielectric constant tensor:
#      x y z
#    x 1.830500 0.000000 0.000000 
#    y 0.000000 1.888170 0.000000 
#    z 0.000000 0.000000 1.813690 
# 
# From -- ./inp_files/4260.got.cif
#   From: 2010.05.17/outbox.cif.g08.bks.cpg/sg19_3_cif.got.tgz:4260.got - 2010.06.03 22:46:19.
