data_PCOD9314219
_publ_section_title
;
Structure prediction by ZEFSAII (Michael W. Deem and Ramdas Pophale) SiO2 
 PCOD9314219
Probable space group: P 21 21 21
;
_chemical_formula_sum "Si O2"
_cell_formula_units_Z 32
_cell_length_a 18.186461
_cell_length_b 12.179205
_cell_length_c 5.321841
_cell_angle_alpha 90.000000
_cell_angle_beta 90.000000
_cell_angle_gamma 90.000000
_cell_volume 1178.769883
_symmetry_space_group_name_H-M "P 21 21 21"
_symmetry_group_IT_number 19
_symmetry_cell_setting 'orthorhombic'
loop_
_space_group_symop_operation_xyz
x,y,z
1/2-x,-y,1/2+z
1/2+x,1/2-y,-z
-x,1/2+y,1/2-z
loop_
_atom_site_type_symbol
_atom_site_label
_atom_site_fract_x
_atom_site_fract_y
_atom_site_fract_z
Si Si1 0.936236 0.918750 0.195811
Si Si2 0.511056 0.300238 0.243148
Si Si3 0.731205 0.568149 0.476943
Si Si4 0.611305 0.567158 0.814968
Si Si5 0.614145 0.082792 0.191367
Si Si6 0.150078 0.712492 0.971549
Si Si7 0.733012 0.819447 0.523707
Si Si8 0.074379 0.163614 0.254671
O O1 0.917577 0.979584 0.452708
O O2 0.904329 0.792717 0.227938
O O3 0.024060 0.911545 0.169263
O O4 0.895473 0.970634 0.960459
O O5 0.557054 0.185919 0.224463
O O6 0.431668 0.294489 0.362950
O O7 0.556415 0.366018 0.457004
O O8 0.509666 0.337129 0.953881
O O9 0.743221 0.496774 0.228679
O O10 0.643603 0.585671 0.536910
O O11 0.759137 0.692695 0.493821
O O12 0.621389 0.436750 0.856661
O O13 0.653915 0.654633 0.986106
O O14 0.696362 0.114600 0.120855
O O15 0.202023 0.660374 0.756609
O O16 0.174502 0.673747 0.248457
#
# Coordination Sequence:
#
# PCOD9314219 Si02
#       8
#     4   4   4   4   4   4   4   4
#     4  10  22  39  62  90 125 167 216 274 314 383
#     4  10  21  39  61  86 128 158 218 273 307 385
#     4  11  26  37  54  87 135 169 207 244 322 410
#     4  11  24  41  66  93 136 175 216 272 327 396
#     4  10  21  37  63  85 128 159 219 266 318 368
#     4  11  22  41  62  92 130 172 217 262 329 400
#     4  11  24  38  62  90 126 177 214 255 336 402
#     4  10  22  36  62  91 120 167 211 270 321 370
#
# _framework density 27.146941999999999
#
# number of rings (size 3 to 8) (size 9 to 14) (size 15 to 20)
#    0.000    1.500    2.500    3.000   12.250    4.000 
#    0.000    0.000    0.000    0.000    0.000   17.500 
#    0.000    0.000    0.000    0.000    0.000    0.000 
#
# Total GULP energy -178784.492225 kJ/mol
# GULP energy per Si atom -5587.015382 kJ/mol
# Density = 2.708515 g / cm^3
# Si number density = 27.146942 Si / 1000 Ang^3
#
#
#
# Elastic Constant Matrix: (Units=GPa)
#
#
# Indices 1 2 3 4 5 6 
#
# 1 60.2532 13.9539 16.0607 0.0000 0.0000 0.0000
# 2 13.9539 105.3313 14.2622 0.0000 0.0000 0.0000
# 3 16.0607 14.2622 208.6151 0.0000 0.0000 0.0000
# 4 0.0000 0.0000 0.0000 30.0421 0.0000 0.0000
# 5 0.0000 0.0000 0.0000 0.0000 41.8599 0.0000
# 6 0.0000 0.0000 0.0000 0.0000 0.0000 37.9911
#
#
#
# Elastic Compliance Matrix: (Units=1/GPa)
#
#
# Indices 1 2 3 4 5 6 
#
# 1 0.017412 -0.002145 -0.001194 0.000000 0.000000 0.000000
# 2 -0.002145 0.009847 -0.000508 0.000000 0.000000 0.000000
# 3 -0.001194 -0.000508 0.004920 0.000000 0.000000 0.000000
# 4 0.000000 0.000000 0.000000 0.033287 0.000000 0.000000
# 5 0.000000 0.000000 0.000000 0.000000 0.023889 0.000000
# 6 0.000000 0.000000 0.000000 0.000000 0.000000 0.026322
#
#
# Mechanical properties :
#
#
# Convention : Reuss Voigt Hill
#
# Bulk Modulus (GPa) = 40.84157 51.41702 46.12930
# Shear Modulus (GPa) = 38.01367 43.97348 40.99358
#
# Velocity S-wave (km/s) = 3.74611 4.02908 3.89017
# Velocity P-wave (km/s) = 5.81278 6.37385 6.09977
#
# Compressibility (1/GPa) = 0.02448486
#
# Stress axis : x y z
#
# Youngs Moduli (GPa) = 57.43302 101.55577 203.24542
#
# Poissons Ratio (x) = 0.21783 0.24264
# Poissons Ratio (y) = 0.12319 0.10326
# Poissons Ratio (z) = 0.06857 0.05160
#
# Static dielectric constant tensor:
#      x y z
#    x 2.182080 0.000000 0.000000 
#    y 0.000000 2.201380 0.000000 
#    z 0.000000 0.000000 2.161880 
# 
# From -- ./inp_files/1808.got.cif
#   From: 2010.05.17/outbox.cif.g08.bks.cpg/sg19_1_cif.got.tgz:1808.got - 2010.06.03 22:46:19.
