data_PCOD9314443
_publ_section_title
;
Structure prediction by ZEFSAII (Michael W. Deem and Ramdas Pophale) SiO2 
 PCOD9314443
Probable space group: P 21 21 21
;
_chemical_formula_sum "Si O2"
_cell_formula_units_Z 12
_cell_length_a 7.339058
_cell_length_b 6.769308
_cell_length_c 9.443450
_cell_angle_alpha 90.000000
_cell_angle_beta 90.000000
_cell_angle_gamma 90.000000
_cell_volume 469.153845
_symmetry_space_group_name_H-M "P 21 21 21"
_symmetry_group_IT_number 19
_symmetry_cell_setting 'orthorhombic'
loop_
_space_group_symop_operation_xyz
x,y,z
1/2-x,-y,1/2+z
1/2+x,1/2-y,-z
-x,1/2+y,1/2-z
loop_
_atom_site_type_symbol
_atom_site_label
_atom_site_fract_x
_atom_site_fract_y
_atom_site_fract_z
Si Si1 0.136662 0.546640 0.933953
Si Si2 0.690085 0.643697 0.290893
Si Si3 0.532894 0.525831 0.005583
O O1 0.135581 0.076186 0.123098
O O2 0.045225 0.733257 0.014109
O O3 0.319921 0.474986 0.006573
O O4 0.982825 0.390692 0.894400
O O5 0.703163 0.851798 0.212241
O O6 0.641200 0.504058 0.154346
#
# Coordination Sequence:
#
# PCOD9314443 Si02
#       3
#     4   4   4
#     4  10  21  41  67  92 131 162 215 268 312 380
#     4  10  22  42  66  98 126 174 212 262 332 368
#     4  10  21  41  67  92 131 162 215 268 312 380
#
# _framework density 25.577967000000001
#
# number of rings (size 3 to 8) (size 9 to 14) (size 15 to 20)
#    2.000    0.000    3.333    0.000    0.000    8.000 
#   12.000    0.000    0.000    0.000    0.000    0.000 
#    0.000    0.000    0.000    0.000    0.000    0.000 
#
# Total GULP energy -67085.398813 kJ/mol
# GULP energy per Si atom -5590.449901 kJ/mol
# Density = 2.551975 g / cm^3
# Si number density = 25.577967 Si / 1000 Ang^3
#
#
#
# Elastic Constant Matrix: (Units=GPa)
#
#
# Indices 1 2 3 4 5 6 
#
# 1 97.0014 14.7779 26.5516 0.0000 0.0000 0.0000
# 2 14.7779 70.2799 20.3206 0.0000 0.0000 0.0000
# 3 26.5516 20.3206 89.1696 0.0000 0.0000 0.0000
# 4 0.0000 0.0000 0.0000 54.7317 0.0000 0.0000
# 5 0.0000 0.0000 0.0000 0.0000 54.9467 0.0000
# 6 0.0000 0.0000 0.0000 0.0000 0.0000 50.7271
#
#
#
# Elastic Compliance Matrix: (Units=1/GPa)
#
#
# Indices 1 2 3 4 5 6 
#
# 1 0.011372 -0.001512 -0.003042 0.000000 0.000000 0.000000
# 2 -0.001512 0.015433 -0.003067 0.000000 0.000000 0.000000
# 3 -0.003042 -0.003067 0.012819 0.000000 0.000000 0.000000
# 4 0.000000 0.000000 0.000000 0.018271 0.000000 0.000000
# 5 0.000000 0.000000 0.000000 0.000000 0.018199 0.000000
# 6 0.000000 0.000000 0.000000 0.000000 0.000000 0.019713
#
#
# Mechanical properties :
#
#
# Convention : Reuss Voigt Hill
#
# Bulk Modulus (GPa) = 41.01058 42.19455 41.60256
# Shear Modulus (GPa) = 41.95434 45.06782 43.51108
#
# Velocity S-wave (km/s) = 4.05440 4.20215 4.12893
# Velocity P-wave (km/s) = 6.16327 6.33058 6.24749
#
# Compressibility (1/GPa) = 0.02438395
#
# Stress axis : x y z
#
# Youngs Moduli (GPa) = 87.93514 64.79425 78.00793
#
# Poissons Ratio (x) = 0.09795 0.23728
# Poissons Ratio (y) = 0.13294 0.23925
# Poissons Ratio (z) = 0.26747 0.19872
#
# Static dielectric constant tensor:
#      x y z
#    x 1.914550 0.000000 0.000000 
#    y 0.000000 2.063490 0.000000 
#    z 0.000000 0.000000 2.025370 
# 
# From -- ./inp_files/2528.got.cif
#   From: 2010.05.17/outbox.cif.g08.bks.cpg/sg19_2_cif.got.tgz:2528.got - 2010.06.03 22:46:19.
