data_PCOD9314862
_publ_section_title
;
Structure prediction by ZEFSAII (Michael W. Deem and Ramdas Pophale) SiO2 
 PCOD9314862
Probable space group: P 21 21 21
;
_chemical_formula_sum "Si O2"
_cell_formula_units_Z 32
_cell_length_a 5.542577
_cell_length_b 14.295851
_cell_length_c 17.852354
_cell_angle_alpha 90.000000
_cell_angle_beta 90.000000
_cell_angle_gamma 90.000000
_cell_volume 1414.546532
_symmetry_space_group_name_H-M "P 21 21 21"
_symmetry_group_IT_number 19
_symmetry_cell_setting 'orthorhombic'
loop_
_space_group_symop_operation_xyz
x,y,z
1/2-x,-y,1/2+z
1/2+x,1/2-y,-z
-x,1/2+y,1/2-z
loop_
_atom_site_type_symbol
_atom_site_label
_atom_site_fract_x
_atom_site_fract_y
_atom_site_fract_z
Si Si1 0.991013 0.956666 0.204376
Si Si2 0.626443 0.593601 0.281784
Si Si3 0.162327 0.468956 0.921041
Si Si4 0.437033 0.835150 0.069207
Si Si5 0.623491 0.200809 0.974060
Si Si6 0.967162 0.773438 0.300021
Si Si7 0.561119 0.248927 0.595053
Si Si8 0.212067 0.635526 0.210106
O O1 0.892611 0.985991 0.121949
O O2 0.876947 0.038581 0.255878
O O3 0.267216 0.988490 0.214032
O O4 0.923373 0.859796 0.244059
O O5 0.461782 0.591563 0.355804
O O6 0.801515 0.681249 0.291889
O O7 0.492822 0.612294 0.203186
O O8 0.998773 0.556934 0.943145
O O9 0.193965 0.399262 0.989946
O O10 0.171747 0.820495 0.104399
O O11 0.672119 0.791681 0.111305
O O12 0.426640 0.781099 0.990644
O O13 0.556781 0.196806 0.885899
O O14 0.370407 0.238507 0.011535
O O15 0.209117 0.724491 0.267486
O O16 0.459567 0.334922 0.643210
#
# Coordination Sequence:
#
# PCOD9314862 Si02
#       8
#     4   4   4   4   4   4   4   4
#     4  10  24  41  65 100 134 177 236 287 358 415
#     4  10  22  43  64  96 133 173 235 286 347 423
#     4  11  24  42  69  98 135 184 235 292 350 423
#     4  10  24  41  69  97 136 178 231 282 346 422
#     4  12  26  47  72  99 142 188 233 288 355 421
#     4  11  24  43  69 100 138 185 236 292 355 427
#     4  10  23  44  65 102 134 181 227 280 354 413
#     4  10  23  39  67  94 136 176 223 297 339 422
#
# _framework density 22.622091999999999
#
# number of rings (size 3 to 8) (size 9 to 14) (size 15 to 20)
#    0.000    1.500    1.250    3.000   10.500    1.000 
#    0.000    0.000    0.000    0.000    0.000    0.000 
#    0.000    0.000    0.000    0.000    0.000    0.000 
#
# Total GULP energy -178156.497060 kJ/mol
# GULP energy per Si atom -5567.390533 kJ/mol
# Density = 2.257060 g / cm^3
# Si number density = 22.622092 Si / 1000 Ang^3
#
#
#
# Elastic Constant Matrix: (Units=GPa)
#
#
# Indices 1 2 3 4 5 6 
#
# 1 80.5710 15.5566 28.1267 0.0000 0.0000 0.0000
# 2 15.5566 104.5867 6.1544 0.0000 0.0000 0.0000
# 3 28.1267 6.1544 80.4015 0.0000 0.0000 0.0000
# 4 0.0000 0.0000 0.0000 28.7183 0.0000 0.0000
# 5 0.0000 0.0000 0.0000 0.0000 22.8623 0.0000
# 6 0.0000 0.0000 0.0000 0.0000 0.0000 35.0407
#
#
#
# Elastic Compliance Matrix: (Units=1/GPa)
#
#
# Indices 1 2 3 4 5 6 
#
# 1 0.014492 -0.001866 -0.004927 0.000000 0.000000 0.000000
# 2 -0.001866 0.009845 -0.000101 0.000000 0.000000 0.000000
# 3 -0.004927 -0.000101 0.014169 0.000000 0.000000 0.000000
# 4 0.000000 0.000000 0.000000 0.034821 0.000000 0.000000
# 5 0.000000 0.000000 0.000000 0.000000 0.043740 0.000000
# 6 0.000000 0.000000 0.000000 0.000000 0.000000 0.028538
#
#
# Mechanical properties :
#
#
# Convention : Reuss Voigt Hill
#
# Bulk Modulus (GPa) = 40.45529 40.58161 40.51845
# Shear Modulus (GPa) = 29.82748 31.70569 30.76658
#
# Velocity S-wave (km/s) = 3.63507 3.74777 3.69185
# Velocity P-wave (km/s) = 5.96156 6.05851 6.01023
#
# Compressibility (1/GPa) = 0.02471865
#
# Stress axis : x y z
#
# Youngs Moduli (GPa) = 69.00591 101.57561 70.57753
#
# Poissons Ratio (x) = 0.18950 0.34772
# Poissons Ratio (y) = 0.12874 0.00712
# Poissons Ratio (z) = 0.33997 0.01025
#
# Static dielectric constant tensor:
#      x y z
#    x 2.167060 0.000000 0.000000 
#    y 0.000000 1.838970 0.000000 
#    z 0.000000 0.000000 1.876510 
# 
# From -- ./inp_files/1796.got.cif
#   From: 2010.05.17/outbox.cif.g08.bks.cpg/sg19_1_cif.got.tgz:1796.got - 2010.06.03 22:46:19.
