data_PCOD9314996
_publ_section_title
;
Structure prediction by ZEFSAII (Michael W. Deem and Ramdas Pophale) SiO2 
 PCOD9314996
Probable space group: P 21 21 21
;
_chemical_formula_sum "Si O2"
_cell_formula_units_Z 32
_cell_length_a 5.346852
_cell_length_b 12.741831
_cell_length_c 19.263191
_cell_angle_alpha 90.000000
_cell_angle_beta 90.000000
_cell_angle_gamma 90.000000
_cell_volume 1312.375863
_symmetry_space_group_name_H-M "P 21 21 21"
_symmetry_group_IT_number 19
_symmetry_cell_setting 'orthorhombic'
loop_
_space_group_symop_operation_xyz
x,y,z
1/2-x,-y,1/2+z
1/2+x,1/2-y,-z
-x,1/2+y,1/2-z
loop_
_atom_site_type_symbol
_atom_site_label
_atom_site_fract_x
_atom_site_fract_y
_atom_site_fract_z
Si Si1 0.938145 0.702914 0.532071
Si Si2 0.657531 0.530747 0.220351
Si Si3 0.847687 0.055389 0.644878
Si Si4 0.933816 0.771041 0.829665
Si Si5 0.877407 0.285683 0.461123
Si Si6 0.719311 0.515173 0.458130
Si Si7 0.721688 0.306696 0.177541
Si Si8 0.937129 0.621822 0.333865
O O1 0.709147 0.779873 0.505119
O O2 0.807832 0.589038 0.519840
O O3 0.970921 0.708026 0.614881
O O4 0.516670 0.482215 0.288290
O O5 0.502650 0.606026 0.169885
O O6 0.778344 0.428852 0.186825
O O7 0.845173 0.612103 0.255772
O O8 0.856792 0.181828 0.651862
O O9 0.617267 0.978884 0.656694
O O10 0.954485 0.031253 0.567534
O O11 0.712916 0.750972 0.884846
O O12 0.863286 0.743279 0.750380
O O13 0.638451 0.258312 0.510390
O O14 0.888071 0.411727 0.458789
O O15 0.748379 0.597099 0.394887
O O16 0.949720 0.234677 0.155270
#
# Coordination Sequence:
#
# PCOD9314996 Si02
#       8
#     4   4   4   4   4   4   4   4
#     4  12  27  47  73 107 148 195 243 304 369 432
#     4  10  23  39  65 104 138 182 242 308 364 422
#     4   9  20  41  66  96 134 198 237 294 371 441
#     4  10  23  45  71 102 151 189 250 305 378 448
#     4  11  28  50  78 111 149 198 246 306 380 451
#     4  10  24  44  70 102 142 198 246 296 372 452
#     4  11  24  45  67 110 140 188 254 305 367 440
#     4  11  21  41  72  96 146 196 242 298 375 448
#
# _framework density 24.383257
#
# number of rings (size 3 to 8) (size 9 to 14) (size 15 to 20)
#    0.000    1.500    2.500    1.500    8.750    1.000 
#    2.250    0.000    0.000    0.000    0.000    0.000 
#    0.000    0.000    0.000    0.000    0.000    0.000 
#
# Total GULP energy -178463.597245 kJ/mol
# GULP energy per Si atom -5576.987414 kJ/mol
# Density = 2.432776 g / cm^3
# Si number density = 24.383257 Si / 1000 Ang^3
#
#
#
# Elastic Constant Matrix: (Units=GPa)
#
#
# Indices 1 2 3 4 5 6 
#
# 1 48.3690 18.6238 4.5592 0.0000 0.0000 0.0000
# 2 18.6238 153.2839 28.0150 0.0000 0.0000 0.0000
# 3 4.5592 28.0150 98.3435 0.0000 0.0000 0.0000
# 4 0.0000 0.0000 0.0000 30.8729 0.0000 0.0000
# 5 0.0000 0.0000 0.0000 0.0000 21.8730 0.0000
# 6 0.0000 0.0000 0.0000 0.0000 0.0000 8.2236
#
#
#
# Elastic Compliance Matrix: (Units=1/GPa)
#
#
# Indices 1 2 3 4 5 6 
#
# 1 0.021696 -0.002587 -0.000269 0.000000 0.000000 0.000000
# 2 -0.002587 0.007191 -0.001928 0.000000 0.000000 0.000000
# 3 -0.000269 -0.001928 0.010730 0.000000 0.000000 0.000000
# 4 0.000000 0.000000 0.000000 0.032391 0.000000 0.000000
# 5 0.000000 0.000000 0.000000 0.000000 0.045718 0.000000
# 6 0.000000 0.000000 0.000000 0.000000 0.000000 0.121601
#
#
# Mechanical properties :
#
#
# Convention : Reuss Voigt Hill
#
# Bulk Modulus (GPa) = 33.27982 44.71026 38.99504
# Shear Modulus (GPa) = 19.31163 28.78048 24.04606
#
# Velocity S-wave (km/s) = 2.81731 3.43933 3.14374
# Velocity P-wave (km/s) = 4.92557 5.84365 5.40414
#
# Compressibility (1/GPa) = 0.03004824
#
# Stress axis : x y z
#
# Youngs Moduli (GPa) = 46.09187 139.07049 93.19440
#
# Poissons Ratio (x) = 0.35976 0.02506
# Poissons Ratio (y) = 0.11923 0.17972
# Poissons Ratio (z) = 0.01239 0.26819
#
# Static dielectric constant tensor:
#      x y z
#    x 2.041270 0.000000 0.000000 
#    y 0.000000 2.070240 0.000000 
#    z 0.000000 0.000000 2.072610 
# 
# From -- ./inp_files/6948.got.cif
#   From: 2010.05.17/outbox.cif.g08.bks.cpg/sg19_4_cif.got.tgz:6948.got - 2010.06.03 22:46:19.
