data_PCOD9314402
_publ_section_title
;
Structure prediction by ZEFSAII (Michael W. Deem and Ramdas Pophale) SiO2 
 PCOD9314402
Probable space group: P 21 21 21
;
_chemical_formula_sum "Si O2"
_cell_formula_units_Z 24
_cell_length_a 5.041362
_cell_length_b 24.563393
_cell_length_c 7.352336
_cell_angle_alpha 90.000000
_cell_angle_beta 90.000000
_cell_angle_gamma 90.000000
_cell_volume 910.461501
_symmetry_space_group_name_H-M "P 21 21 21"
_symmetry_group_IT_number 19
_symmetry_cell_setting 'orthorhombic'
loop_
_space_group_symop_operation_xyz
x,y,z
1/2-x,-y,1/2+z
1/2+x,1/2-y,-z
-x,1/2+y,1/2-z
loop_
_atom_site_type_symbol
_atom_site_label
_atom_site_fract_x
_atom_site_fract_y
_atom_site_fract_z
Si Si1 0.536589 0.465642 0.584483
Si Si2 0.614764 0.263967 0.887394
Si Si3 0.464882 0.601884 0.189801
Si Si4 0.315859 0.874530 0.490368
Si Si5 0.691557 0.939231 0.290299
Si Si6 0.998849 0.334502 0.343325
O O1 0.830045 0.444378 0.618882
O O2 0.994796 0.573066 0.544002
O O3 0.438911 0.522347 0.666831
O O4 0.473436 0.466378 0.371283
O O5 0.543706 0.327473 0.890667
O O6 0.579940 0.226532 0.711055
O O7 0.413960 0.239568 0.038350
O O8 0.526705 0.653097 0.056520
O O9 0.552841 0.612778 0.395099
O O10 0.172524 0.579144 0.160263
O O11 0.244996 0.849901 0.291214
O O12 0.793109 0.880431 0.222553
#
# Coordination Sequence:
#
# PCOD9314402 Si02
#       6
#     4   4   4   4   4   4
#     4  11  26  42  65  99 133 175 227 276 328 410
#     4  10  21  40  70  98 127 174 227 267 338 404
#     4  11  26  43  65 101 134 172 224 274 336 400
#     4  11  23  42  71  96 132 181 220 277 340 396
#     4  11  23  42  68  93 137 176 224 277 339 391
#     4  10  23  45  65  97 137 174 220 281 335 393
#
# _framework density 26.360258999999999
#
# number of rings (size 3 to 8) (size 9 to 14) (size 15 to 20)
#    0.000    1.333    3.333    1.000    7.000    0.000 
#    0.000   10.000    0.000    0.000    0.000    0.000 
#    0.000    0.000    0.000    0.000    0.000    0.000 
#
# Total GULP energy -134502.959015 kJ/mol
# GULP energy per Si atom -5604.289959 kJ/mol
# Density = 2.630026 g / cm^3
# Si number density = 26.360259 Si / 1000 Ang^3
#
#
#
# Elastic Constant Matrix: (Units=GPa)
#
#
# Indices 1 2 3 4 5 6 
#
# 1 44.1433 12.9231 9.3126 0.0000 0.0000 0.0000
# 2 12.9231 77.5961 2.2401 0.0000 0.0000 0.0000
# 3 9.3126 2.2401 90.8061 0.0000 0.0000 0.0000
# 4 0.0000 0.0000 0.0000 41.2306 0.0000 0.0000
# 5 0.0000 0.0000 0.0000 0.0000 38.0146 0.0000
# 6 0.0000 0.0000 0.0000 0.0000 0.0000 40.2709
#
#
#
# Elastic Compliance Matrix: (Units=1/GPa)
#
#
# Indices 1 2 3 4 5 6 
#
# 1 0.024325 -0.003982 -0.002396 0.000000 0.000000 0.000000
# 2 -0.003982 0.013548 0.000074 0.000000 0.000000 0.000000
# 3 -0.002396 0.000074 0.011256 0.000000 0.000000 0.000000
# 4 0.000000 0.000000 0.000000 0.024254 0.000000 0.000000
# 5 0.000000 0.000000 0.000000 0.000000 0.026306 0.000000
# 6 0.000000 0.000000 0.000000 0.000000 0.000000 0.024832
#
#
# Mechanical properties :
#
#
# Convention : Reuss Voigt Hill
#
# Bulk Modulus (GPa) = 27.38147 29.05524 28.21835
# Shear Modulus (GPa) = 33.48900 36.44122 34.96511
#
# Velocity S-wave (km/s) = 3.56818 3.72214 3.64597
# Velocity P-wave (km/s) = 5.23315 5.43311 5.33407
#
# Compressibility (1/GPa) = 0.03652105
#
# Stress axis : x y z
#
# Youngs Moduli (GPa) = 41.11041 73.81016 88.83829
#
# Poissons Ratio (x) = 0.29391 0.21289
# Poissons Ratio (y) = 0.16370 -0.00659
# Poissons Ratio (z) = 0.09852 -0.00547
#
# Static dielectric constant tensor:
#      x y z
#    x 2.058990 0.000000 0.000000 
#    y 0.000000 2.105690 0.000000 
#    z 0.000000 0.000000 2.051240 
# 
# From -- ./inp_files/2101.got.cif
#   From: 2010.05.17/outbox.cif.g08.bks.cpg/sg19_2_cif.got.tgz:2101.got - 2010.06.03 22:46:19.
