data_PCOD9314676
_publ_section_title
;
Structure prediction by ZEFSAII (Michael W. Deem and Ramdas Pophale) SiO2 
 PCOD9314676
Probable space group: P 21 21 21
;
_chemical_formula_sum "Si O2"
_cell_formula_units_Z 28
_cell_length_a 12.614265
_cell_length_b 7.954882
_cell_length_c 12.612049
_cell_angle_alpha 90.000000
_cell_angle_beta 90.000000
_cell_angle_gamma 90.000000
_cell_volume 1265.555926
_symmetry_space_group_name_H-M "P 21 21 21"
_symmetry_group_IT_number 19
_symmetry_cell_setting 'orthorhombic'
loop_
_space_group_symop_operation_xyz
x,y,z
1/2-x,-y,1/2+z
1/2+x,1/2-y,-z
-x,1/2+y,1/2-z
loop_
_atom_site_type_symbol
_atom_site_label
_atom_site_fract_x
_atom_site_fract_y
_atom_site_fract_z
Si Si1 0.541392 0.058708 0.908356
Si Si2 0.032618 0.146004 0.595076
Si Si3 0.772837 0.195090 0.918472
Si Si4 0.398225 0.549387 0.950155
Si Si5 0.297941 0.305987 0.320735
Si Si6 0.438627 0.199299 0.705803
Si Si7 0.722459 0.481757 0.293340
O O1 0.656230 0.124844 0.944637
O O2 0.491637 0.182325 0.821089
O O3 0.552275 0.882397 0.844905
O O4 0.472557 0.005003 0.009447
O O5 0.080765 0.311575 0.540782
O O6 0.911750 0.176049 0.627317
O O7 0.107252 0.097067 0.692679
O O8 0.800243 0.127393 0.799979
O O9 0.763404 0.393717 0.895020
O O10 0.862037 0.124942 0.996985
O O11 0.296191 0.608215 0.883449
O O12 0.498432 0.571663 0.872533
O O13 0.271286 0.108705 0.305272
O O14 0.316637 0.148491 0.711650
#
# Coordination Sequence:
#
# PCOD9314676 Si02
#       7
#     4   4   4   4   4   4   4
#     4  11  21  40  68  94 129 173 214 268 328 384
#     4  11  24  40  68  89 129 173 217 258 332 394
#     4  10  22  40  64  94 131 161 210 270 323 378
#     4  11  22  42  70  90 125 178 209 265 330 386
#     4  10  23  44  62  91 136 160 214 270 320 384
#     4  11  22  41  66  97 127 169 221 270 319 392
#     4  10  24  41  60  95 131 164 217 269 318 388
#
# _framework density 22.124663999999999
#
# number of rings (size 3 to 8) (size 9 to 14) (size 15 to 20)
#    0.857    0.571    2.857    3.429    4.000    2.286 
#    0.000    0.000    0.000    0.000    0.000    0.000 
#    0.000    0.000    0.000    0.000    0.000    0.000 
#
# Total GULP energy -156429.967764 kJ/mol
# GULP energy per Si atom -5586.784563 kJ/mol
# Density = 2.207431 g / cm^3
# Si number density = 22.124664 Si / 1000 Ang^3
#
#
#
# Elastic Constant Matrix: (Units=GPa)
#
#
# Indices 1 2 3 4 5 6 
#
# 1 75.6089 2.3969 7.1180 0.0000 0.0000 0.0000
# 2 2.3969 39.2362 -7.9885 0.0000 0.0000 0.0000
# 3 7.1180 -7.9885 26.5967 0.0000 0.0000 0.0000
# 4 0.0000 0.0000 0.0000 21.7339 0.0000 0.0000
# 5 0.0000 0.0000 0.0000 0.0000 19.2441 0.0000
# 6 0.0000 0.0000 0.0000 0.0000 0.0000 23.7149
#
#
#
# Elastic Compliance Matrix: (Units=1/GPa)
#
#
# Indices 1 2 3 4 5 6 
#
# 1 0.013671 -0.001683 -0.004164 0.000000 0.000000 0.000000
# 2 -0.001683 0.027354 0.008666 0.000000 0.000000 0.000000
# 3 -0.004164 0.008666 0.041316 0.000000 0.000000 0.000000
# 4 0.000000 0.000000 0.000000 0.046011 0.000000 0.000000
# 5 0.000000 0.000000 0.000000 0.000000 0.051964 0.000000
# 6 0.000000 0.000000 0.000000 0.000000 0.000000 0.042168
#
#
# Mechanical properties :
#
#
# Convention : Reuss Voigt Hill
#
# Bulk Modulus (GPa) = 11.36629 16.05494 13.71062
# Shear Modulus (GPa) = 20.31096 22.26628 21.28862
#
# Velocity S-wave (km/s) = 3.03318 3.17582 3.10532
# Velocity P-wave (km/s) = 4.17318 4.55194 4.36667
#
# Compressibility (1/GPa) = 0.08797944
#
# Stress axis : x y z
#
# Youngs Moduli (GPa) = 73.14567 36.55780 24.20364
#
# Poissons Ratio (x) = 0.06153 0.10079
# Poissons Ratio (y) = 0.12310 -0.20976
# Poissons Ratio (z) = 0.30460 -0.31682
#
# Static dielectric constant tensor:
#      x y z
#    x 1.760130 0.000000 0.000000 
#    y 0.000000 1.820110 0.000000 
#    z 0.000000 0.000000 1.809860 
# 
# From -- ./inp_files/6068.got.cif
#   From: 2010.05.17/outbox.cif.g08.bks.cpg/sg19_4_cif.got.tgz:6068.got - 2010.06.03 22:46:19.
