data_PCOD9314552
_publ_section_title
;
Structure prediction by ZEFSAII (Michael W. Deem and Ramdas Pophale) SiO2 
 PCOD9314552
Probable space group: P 21 21 21
;
_chemical_formula_sum "Si O2"
_cell_formula_units_Z 28
_cell_length_a 9.695089
_cell_length_b 25.058743
_cell_length_c 5.441660
_cell_angle_alpha 90.000000
_cell_angle_beta 90.000000
_cell_angle_gamma 90.000000
_cell_volume 1322.033577
_symmetry_space_group_name_H-M "P 21 21 21"
_symmetry_group_IT_number 19
_symmetry_cell_setting 'orthorhombic'
loop_
_space_group_symop_operation_xyz
x,y,z
1/2-x,-y,1/2+z
1/2+x,1/2-y,-z
-x,1/2+y,1/2-z
loop_
_atom_site_type_symbol
_atom_site_label
_atom_site_fract_x
_atom_site_fract_y
_atom_site_fract_z
Si Si1 0.999930 0.372425 0.499769
Si Si2 0.362084 0.707048 0.615330
Si Si3 0.715238 0.100356 0.120126
Si Si4 0.284734 0.100337 0.880354
Si Si5 0.637967 0.707056 0.384259
Si Si6 0.999981 0.046127 0.000302
Si Si7 0.499984 0.520568 0.499703
O O1 0.877579 0.404750 0.365966
O O2 0.920461 0.332288 0.679506
O O3 0.079408 0.332327 0.319877
O O4 0.122300 0.404722 0.633657
O O5 0.294781 0.663438 0.433050
O O6 0.500007 0.732819 0.499749
O O7 0.250051 0.749989 0.692681
O O8 0.869791 0.081085 0.088962
O O9 0.627218 0.060639 0.944934
O O10 0.372803 0.060641 0.055554
O O11 0.130183 0.081076 0.911626
O O12 0.294802 0.163419 0.933511
O O13 0.968844 0.013368 0.747148
O O14 0.031119 0.013375 0.253468
#
# Coordination Sequence:
#
# PCOD9314552 Si02
#       7
#     4   4   4   4   4   4   4
#     4  10  21  44  73  94 146 191 234 293 386 426
#     4  10  23  43  70  97 136 182 233 297 365 438
#     4  11  24  45  69 101 143 187 239 304 362 440
#     4  11  24  45  69 101 143 187 239 304 362 440
#     4  10  23  43  70  97 136 182 233 297 365 438
#     4  12  29  40  73 110 141 186 254 299 350 436
#     4  12  24  46  70 100 145 195 238 296 372 426
#
# _framework density 21.179493000000001
#
# number of rings (size 3 to 8) (size 9 to 14) (size 15 to 20)
#    0.000    1.143    4.286    2.571    6.000    4.571 
#    0.000    0.000    0.000    0.000    0.000    0.000 
#    0.000    0.000    0.000    0.000    0.000    0.000 
#
# Total GULP energy -155964.014769 kJ/mol
# GULP energy per Si atom -5570.143385 kJ/mol
# Density = 2.113129 g / cm^3
# Si number density = 21.179493 Si / 1000 Ang^3
#
#
#
# Elastic Constant Matrix: (Units=GPa)
#
#
# Indices 1 2 3 4 5 6 
#
# 1 177.2138 64.6624 29.4448 0.0000 0.0000 0.0000
# 2 64.6624 74.0849 22.5873 0.0000 0.0000 0.0000
# 3 29.4448 22.5873 94.9707 0.0000 0.0000 0.0000
# 4 0.0000 0.0000 0.0000 2.8019 0.0000 0.0000
# 5 0.0000 0.0000 0.0000 0.0000 21.5613 0.0000
# 6 0.0000 0.0000 0.0000 0.0000 0.0000 41.6400
#
#
#
# Elastic Compliance Matrix: (Units=1/GPa)
#
#
# Indices 1 2 3 4 5 6 
#
# 1 0.008354 -0.007010 -0.000923 0.000000 0.000000 0.000000
# 2 -0.007010 0.020436 -0.002687 0.000000 0.000000 0.000000
# 3 -0.000923 -0.002687 0.011455 0.000000 0.000000 0.000000
# 4 0.000000 0.000000 0.000000 0.356902 0.000000 0.000000
# 5 0.000000 0.000000 0.000000 0.000000 0.046379 0.000000
# 6 0.000000 0.000000 0.000000 0.000000 0.000000 0.024015
#
#
# Mechanical properties :
#
#
# Convention : Reuss Voigt Hill
#
# Bulk Modulus (GPa) = 52.61844 64.40650 58.51247
# Shear Modulus (GPa) = 10.09863 28.50562 19.30213
#
# Velocity S-wave (km/s) = 2.18597 3.67264 3.02215
# Velocity P-wave (km/s) = 5.59189 6.96134 6.31385
#
# Compressibility (1/GPa) = 0.01900475
#
# Stress axis : x y z
#
# Youngs Moduli (GPa) = 119.70060 48.93346 87.30023
#
# Poissons Ratio (x) = 0.34304 0.08056
# Poissons Ratio (y) = 0.83914 0.23457
# Poissons Ratio (z) = 0.11046 0.13148
#
# Static dielectric constant tensor:
#      x y z
#    x 1.776360 0.000000 0.000000 
#    y 0.000000 1.758330 0.000000 
#    z 0.000000 0.000000 1.929670 
# 
# From -- ./inp_files/511.got.cif
#   From: 2010.05.17/outbox.cif.g08.bks.cpg/sg19_1_cif.got.tgz:511.got - 2010.06.03 22:46:19.
