data_PCOD9314521
_publ_section_title
;
Structure prediction by ZEFSAII (Michael W. Deem and Ramdas Pophale) SiO2 
 PCOD9314521
Probable space group: P 21 21 21
;
_chemical_formula_sum "Si O2"
_cell_formula_units_Z 28
_cell_length_a 5.911733
_cell_length_b 16.848259
_cell_length_c 13.336252
_cell_angle_alpha 90.000000
_cell_angle_beta 90.000000
_cell_angle_gamma 90.000000
_cell_volume 1328.322823
_symmetry_space_group_name_H-M "P 21 21 21"
_symmetry_group_IT_number 19
_symmetry_cell_setting 'orthorhombic'
loop_
_space_group_symop_operation_xyz
x,y,z
1/2-x,-y,1/2+z
1/2+x,1/2-y,-z
-x,1/2+y,1/2-z
loop_
_atom_site_type_symbol
_atom_site_label
_atom_site_fract_x
_atom_site_fract_y
_atom_site_fract_z
Si Si1 0.534644 0.054278 0.447728
Si Si2 0.753887 0.769984 0.272302
Si Si3 0.306373 0.715392 0.964460
Si Si4 0.077192 0.668286 0.386259
Si Si5 0.535471 0.109664 0.224754
Si Si6 0.203181 0.389282 0.072351
Si Si7 0.193106 0.949033 0.536357
O O1 0.671752 0.125202 0.497946
O O2 0.480155 0.078630 0.334143
O O3 0.675182 0.973165 0.446173
O O4 0.308633 0.031615 0.508467
O O5 0.801181 0.778393 0.155628
O O6 0.579512 0.696941 0.286297
O O7 0.695359 0.851757 0.327226
O O8 0.975133 0.745876 0.337097
O O9 0.555231 0.752193 0.999461
O O10 0.200124 0.622983 0.295289
O O11 0.246986 0.671968 0.480125
O O12 0.879206 0.614937 0.430899
O O13 0.460806 0.050913 0.135649
O O14 0.942662 0.413711 0.058091
#
# Coordination Sequence:
#
# PCOD9314521 Si02
#       7
#     4   4   4   4   4   4   4
#     4  11  24  44  69  99 145 187 239 302 364 438
#     4  11  24  40  71 103 136 192 242 301 367 439
#     4  12  28  51  75 106 144 196 250 303 364 444
#     4   9  21  39  64  97 137 178 235 298 366 434
#     4  10  21  43  67  97 141 188 236 296 370 439
#     4  10  24  40  66 104 141 182 240 305 372 437
#     4   9  22  41  64 100 136 183 228 299 365 437
#
# _framework density 21.079211999999998
#
# number of rings (size 3 to 8) (size 9 to 14) (size 15 to 20)
#    0.000    1.714    1.429    0.857    8.000    8.000 
#    0.000    0.000    0.000    0.000    0.000    0.000 
#    0.000    0.000    0.000    0.000    0.000    0.000 
#
# Total GULP energy -156018.687957 kJ/mol
# GULP energy per Si atom -5572.095998 kJ/mol
# Density = 2.103123 g / cm^3
# Si number density = 21.079212 Si / 1000 Ang^3
#
#
#
# Elastic Constant Matrix: (Units=GPa)
#
#
# Indices 1 2 3 4 5 6 
#
# 1 69.7039 35.1176 21.1767 0.0000 0.0000 0.0000
# 2 35.1176 94.2257 52.9425 0.0000 0.0000 0.0000
# 3 21.1767 52.9425 104.9142 0.0000 0.0000 0.0000
# 4 0.0000 0.0000 0.0000 38.9816 0.0000 0.0000
# 5 0.0000 0.0000 0.0000 0.0000 22.1643 0.0000
# 6 0.0000 0.0000 0.0000 0.0000 0.0000 33.1512
#
#
#
# Elastic Compliance Matrix: (Units=1/GPa)
#
#
# Indices 1 2 3 4 5 6 
#
# 1 0.017672 -0.006395 -0.000340 0.000000 0.000000 0.000000
# 2 -0.006395 0.017127 -0.007352 0.000000 0.000000 0.000000
# 3 -0.000340 -0.007352 0.013310 0.000000 0.000000 0.000000
# 4 0.000000 0.000000 0.000000 0.025653 0.000000 0.000000
# 5 0.000000 0.000000 0.000000 0.000000 0.045118 0.000000
# 6 0.000000 0.000000 0.000000 0.000000 0.000000 0.030165
#
#
# Mechanical properties :
#
#
# Convention : Reuss Voigt Hill
#
# Bulk Modulus (GPa) = 50.16302 54.14638 52.15470
# Shear Modulus (GPa) = 27.19410 29.49989 28.34699
#
# Velocity S-wave (km/s) = 3.59568 3.74502 3.67111
# Velocity P-wave (km/s) = 6.40996 6.66656 6.53952
#
# Compressibility (1/GPa) = 0.01993500
#
# Stress axis : x y z
#
# Youngs Moduli (GPa) = 56.58793 58.38691 75.13058
#
# Poissons Ratio (x) = 0.37340 0.02553
# Poissons Ratio (y) = 0.36189 0.55236
# Poissons Ratio (z) = 0.01923 0.42926
#
# Static dielectric constant tensor:
#      x y z
#    x 1.878820 0.000000 0.000000 
#    y 0.000000 1.792250 0.000000 
#    z 0.000000 0.000000 1.769360 
# 
# From -- ./inp_files/4481.got.cif
#   From: 2010.05.17/outbox.cif.g08.bks.cpg/sg19_3_cif.got.tgz:4481.got - 2010.06.03 22:46:19.
