data_PCOD9314363
_publ_section_title
;
Structure prediction by ZEFSAII (Michael W. Deem and Ramdas Pophale) SiO2 
 PCOD9314363
Probable space group: P 21 21 21
;
_chemical_formula_sum "Si O2"
_cell_formula_units_Z 16
_cell_length_a 4.915411
_cell_length_b 7.814040
_cell_length_c 19.318954
_cell_angle_alpha 90.000000
_cell_angle_beta 90.000000
_cell_angle_gamma 90.000000
_cell_volume 742.025919
_symmetry_space_group_name_H-M "P 21 21 21"
_symmetry_group_IT_number 19
_symmetry_cell_setting 'orthorhombic'
loop_
_space_group_symop_operation_xyz
x,y,z
1/2-x,-y,1/2+z
1/2+x,1/2-y,-z
-x,1/2+y,1/2-z
loop_
_atom_site_type_symbol
_atom_site_label
_atom_site_fract_x
_atom_site_fract_y
_atom_site_fract_z
Si Si1 0.452907 0.834906 0.914097
Si Si2 0.870907 0.906033 0.697379
Si Si3 0.454202 0.901282 0.067970
Si Si4 0.612446 0.536748 0.723159
O O1 0.655381 0.672725 0.917250
O O2 0.150818 0.758464 0.914979
O O3 0.493471 0.948709 0.846854
O O4 0.489813 0.935638 0.986515
O O5 0.734520 0.722281 0.707248
O O6 0.639685 0.037599 0.723951
O O7 0.961486 0.948703 0.619472
O O8 0.139084 0.930577 0.743696
#
# Coordination Sequence:
#
# PCOD9314363 Si02
#       4
#     4   4   4   4
#     4  10  21  40  64  88 119 158 198 243 298 357
#     4  12  24  40  63  90 122 158 201 249 297 353
#     4  10  21  40  64  88 119 158 198 243 298 357
#     4  12  24  40  63  90 122 158 201 249 297 353
#
# _framework density 21.562588999999999
#
# number of rings (size 3 to 8) (size 9 to 14) (size 15 to 20)
#    0.000    1.000    0.000    9.000    0.000    0.000 
#    0.000   12.500    0.000    0.000    0.000    0.000 
#    0.000    0.000    0.000    0.000    0.000    0.000 
#
# Total GULP energy -89546.541021 kJ/mol
# GULP energy per Si atom -5596.658814 kJ/mol
# Density = 2.151351 g / cm^3
# Si number density = 21.562589 Si / 1000 Ang^3
#
#
#
# Elastic Constant Matrix: (Units=GPa)
#
#
# Indices 1 2 3 4 5 6 
#
# 1 83.8970 -9.3833 18.1255 0.0000 0.0000 0.0000
# 2 -9.3833 26.8432 -9.2643 0.0000 0.0000 0.0000
# 3 18.1255 -9.2643 106.0428 0.0000 0.0000 0.0000
# 4 0.0000 0.0000 0.0000 31.2396 0.0000 0.0000
# 5 0.0000 0.0000 0.0000 0.0000 34.6818 0.0000
# 6 0.0000 0.0000 0.0000 0.0000 0.0000 30.6111
#
#
#
# Elastic Compliance Matrix: (Units=1/GPa)
#
#
# Indices 1 2 3 4 5 6 
#
# 1 0.012745 0.003818 -0.001845 0.000000 0.000000 0.000000
# 2 0.003818 0.039556 0.002803 0.000000 0.000000 0.000000
# 3 -0.001845 0.002803 0.009990 0.000000 0.000000 0.000000
# 4 0.000000 0.000000 0.000000 0.032011 0.000000 0.000000
# 5 0.000000 0.000000 0.000000 0.000000 0.028834 0.000000
# 6 0.000000 0.000000 0.000000 0.000000 0.000000 0.032668
#
#
# Mechanical properties :
#
#
# Convention : Reuss Voigt Hill
#
# Bulk Modulus (GPa) = 13.91903 23.97099 18.94501
# Shear Modulus (GPa) = 29.37756 33.79349 31.58553
#
# Velocity S-wave (km/s) = 3.69512 3.96312 3.83146
# Velocity P-wave (km/s) = 4.96733 5.66417 5.32716
#
# Compressibility (1/GPa) = 0.07184410
#
# Stress axis : x y z
#
# Youngs Moduli (GPa) = 78.46208 25.28091 100.09632
#
# Poissons Ratio (x) = -0.09653 0.18466
# Poissons Ratio (y) = -0.29960 -0.28057
# Poissons Ratio (z) = 0.14475 -0.07086
#
# Static dielectric constant tensor:
#      x y z
#    x 1.752160 0.000000 0.000000 
#    y 0.000000 1.768630 0.000000 
#    z 0.000000 0.000000 1.793540 
# 
# From -- ./inp_files/35.got.cif
#   From: 2010.05.17/outbox.cif.g08.bks.cpg/sg19_1_cif.got.tgz:35.got - 2010.06.03 22:46:19.
