data_PCOD9314999
_publ_section_title
;
Structure prediction by ZEFSAII (Michael W. Deem and Ramdas Pophale) SiO2 
 PCOD9314999
Probable space group: P 21 21 21
;
_chemical_formula_sum "Si O2"
_cell_formula_units_Z 28
_cell_length_a 13.546754
_cell_length_b 8.376756
_cell_length_c 11.886807
_cell_angle_alpha 90.000000
_cell_angle_beta 90.000000
_cell_angle_gamma 90.000000
_cell_volume 1348.889336
_symmetry_space_group_name_H-M "P 21 21 21"
_symmetry_group_IT_number 19
_symmetry_cell_setting 'orthorhombic'
loop_
_space_group_symop_operation_xyz
x,y,z
1/2-x,-y,1/2+z
1/2+x,1/2-y,-z
-x,1/2+y,1/2-z
loop_
_atom_site_type_symbol
_atom_site_label
_atom_site_fract_x
_atom_site_fract_y
_atom_site_fract_z
Si Si1 0.204381 0.153228 0.590336
Si Si2 0.938334 0.422763 0.045525
Si Si3 0.641946 0.444569 0.776668
Si Si4 0.085191 0.531349 0.878440
Si Si5 0.032559 0.560450 0.452106
Si Si6 0.978036 0.853661 0.832145
Si Si7 0.287977 0.653943 0.869515
O O1 0.128604 0.272369 0.650238
O O2 0.244980 0.250726 0.482814
O O3 0.138544 0.015429 0.533449
O O4 0.280840 0.072629 0.674442
O O5 0.917306 0.482935 0.170902
O O6 0.922132 0.235235 0.036351
O O7 0.046337 0.475574 0.999996
O O8 0.563708 0.416537 0.875583
O O9 0.693648 0.283582 0.728820
O O10 0.022718 0.426387 0.790873
O O11 0.201007 0.526439 0.852225
O O12 0.055282 0.714005 0.854796
O O13 0.007464 0.488874 0.573990
O O14 0.109338 0.435844 0.396252
#
# Coordination Sequence:
#
# PCOD9314999 Si02
#       7
#     4   4   4   4   4   4   4
#     4   9  22  43  62  97 131 174 219 272 329 399
#     4  10  24  42  64  95 130 169 223 273 333 397
#     4  11  23  43  69  93 135 178 216 279 334 394
#     4  11  23  43  65  95 132 174 223 275 332 395
#     4  11  23  43  63 100 131 170 222 273 334 400
#     4  10  23  39  67  93 132 173 218 273 332 394
#     4  10  24  41  66  99 131 178 221 273 336 397
#
# _framework density 20.757821
#
# number of rings (size 3 to 8) (size 9 to 14) (size 15 to 20)
#    0.000    1.714    0.000    3.429    8.000    2.286 
#    7.714    0.000    0.000    0.000    0.000    0.000 
#    0.000    0.000    0.000    0.000    0.000    0.000 
#
# Total GULP energy -156430.628251 kJ/mol
# GULP energy per Si atom -5586.808152 kJ/mol
# Density = 2.071058 g / cm^3
# Si number density = 20.757821 Si / 1000 Ang^3
#
#
#
# Elastic Constant Matrix: (Units=GPa)
#
#
# Indices 1 2 3 4 5 6 
#
# 1 51.0350 -8.2863 22.4510 0.0000 0.0000 0.0000
# 2 -8.2863 71.5596 12.4905 0.0000 0.0000 0.0000
# 3 22.4510 12.4905 65.9930 0.0000 0.0000 0.0000
# 4 0.0000 0.0000 0.0000 22.1075 0.0000 0.0000
# 5 0.0000 0.0000 0.0000 0.0000 20.9959 0.0000
# 6 0.0000 0.0000 0.0000 0.0000 0.0000 23.2769
#
#
#
# Elastic Compliance Matrix: (Units=1/GPa)
#
#
# Indices 1 2 3 4 5 6 
#
# 1 0.024315 0.004405 -0.009106 0.000000 0.000000 0.000000
# 2 0.004405 0.015250 -0.004385 0.000000 0.000000 0.000000
# 3 -0.009106 -0.004385 0.019081 0.000000 0.000000 0.000000
# 4 0.000000 0.000000 0.000000 0.045234 0.000000 0.000000
# 5 0.000000 0.000000 0.000000 0.000000 0.047628 0.000000
# 6 0.000000 0.000000 0.000000 0.000000 0.000000 0.042961
#
#
# Mechanical properties :
#
#
# Convention : Reuss Voigt Hill
#
# Bulk Modulus (GPa) = 24.70688 26.87755 25.79222
# Shear Modulus (GPa) = 22.11095 24.07155 23.09125
#
# Velocity S-wave (km/s) = 3.26726 3.40904 3.33890
# Velocity P-wave (km/s) = 5.11484 5.33589 5.22653
#
# Compressibility (1/GPa) = 0.04047455
#
# Stress axis : x y z
#
# Youngs Moduli (GPa) = 41.12610 65.57450 52.40834
#
# Poissons Ratio (x) = -0.28886 0.47723
# Poissons Ratio (y) = -0.18116 0.22981
# Poissons Ratio (z) = 0.37449 0.28754
#
# Static dielectric constant tensor:
#      x y z
#    x 1.771940 0.000000 0.000000 
#    y 0.000000 1.740390 0.000000 
#    z 0.000000 0.000000 1.733900 
# 
# From -- ./inp_files/4946.got.cif
#   From: 2010.05.17/outbox.cif.g08.bks.cpg/sg19_3_cif.got.tgz:4946.got - 2010.06.03 22:46:19.
