data_PCOD9314930
_publ_section_title
;
Structure prediction by ZEFSAII (Michael W. Deem and Ramdas Pophale) SiO2 
 PCOD9314930
Probable space group: P 21 21 21
;
_chemical_formula_sum "Si O2"
_cell_formula_units_Z 28
_cell_length_a 5.539371
_cell_length_b 21.246996
_cell_length_c 8.780296
_cell_angle_alpha 90.000000
_cell_angle_beta 90.000000
_cell_angle_gamma 90.000000
_cell_volume 1033.396880
_symmetry_space_group_name_H-M "P 21 21 21"
_symmetry_group_IT_number 19
_symmetry_cell_setting 'orthorhombic'
loop_
_space_group_symop_operation_xyz
x,y,z
1/2-x,-y,1/2+z
1/2+x,1/2-y,-z
-x,1/2+y,1/2-z
loop_
_atom_site_type_symbol
_atom_site_label
_atom_site_fract_x
_atom_site_fract_y
_atom_site_fract_z
Si Si1 0.055039 0.647301 0.953247
Si Si2 0.239181 0.071545 0.771559
Si Si3 0.244785 0.112492 0.260574
Si Si4 0.496293 0.987921 0.539275
Si Si5 0.916288 0.787449 0.860802
Si Si6 0.393693 0.593144 0.485227
Si Si7 0.663448 0.779370 0.554523
O O1 0.984235 0.607727 0.803818
O O2 0.958834 0.718285 0.925345
O O3 0.907210 0.611700 0.084951
O O4 0.325373 0.662146 0.013003
O O5 0.399653 0.109447 0.892389
O O6 0.416592 0.045512 0.641865
O O7 0.147493 0.015402 0.881058
O O8 0.076673 0.072498 0.144145
O O9 0.346300 0.185319 0.277051
O O10 0.498543 0.089864 0.184634
O O11 0.770378 0.974431 0.492306
O O12 0.703430 0.782016 0.736219
O O13 0.211958 0.650448 0.503388
O O14 0.400365 0.757882 0.504040
#
# Coordination Sequence:
#
# PCOD9314930 Si02
#       7
#     4   4   4   4   4   4   4
#     4  12  24  45  70 108 149 200 251 319 383 473
#     4  11  27  47  75 110 145 199 257 321 399 473
#     4  10  22  44  70 102 146 196 247 309 389 456
#     4  11  25  49  76 106 149 193 255 326 395 471
#     4  11  25  41  73 105 155 199 256 318 392 469
#     4  10  25  45  74 105 143 199 256 319 393 467
#     4  11  26  43  76 114 157 206 258 322 395 473
#
# _framework density 27.095108
#
# number of rings (size 3 to 8) (size 9 to 14) (size 15 to 20)
#    0.000    1.143    1.429    3.429   12.000    4.571 
#    0.000    1.429    0.000    0.000    0.000    0.000 
#    0.000    0.000    0.000    0.000    0.000    0.000 
#
# Total GULP energy -156330.785834 kJ/mol
# GULP energy per Si atom -5583.242351 kJ/mol
# Density = 2.703344 g / cm^3
# Si number density = 27.095108 Si / 1000 Ang^3
#
#
#
# Elastic Constant Matrix: (Units=GPa)
#
#
# Indices 1 2 3 4 5 6 
#
# 1 84.2295 41.8957 27.5645 0.0000 0.0000 0.0000
# 2 41.8957 91.5391 57.4180 0.0000 0.0000 0.0000
# 3 27.5645 57.4180 116.1341 0.0000 0.0000 0.0000
# 4 0.0000 0.0000 0.0000 53.0023 0.0000 0.0000
# 5 0.0000 0.0000 0.0000 0.0000 32.5820 0.0000
# 6 0.0000 0.0000 0.0000 0.0000 0.0000 55.1995
#
#
#
# Elastic Compliance Matrix: (Units=1/GPa)
#
#
# Indices 1 2 3 4 5 6 
#
# 1 0.015377 -0.006883 -0.000247 0.000000 0.000000 0.000000
# 2 -0.006883 0.018916 -0.007719 0.000000 0.000000 0.000000
# 3 -0.000247 -0.007719 0.012485 0.000000 0.000000 0.000000
# 4 0.000000 0.000000 0.000000 0.018867 0.000000 0.000000
# 5 0.000000 0.000000 0.000000 0.000000 0.030692 0.000000
# 6 0.000000 0.000000 0.000000 0.000000 0.000000 0.018116
#
#
# Mechanical properties :
#
#
# Convention : Reuss Voigt Hill
#
# Bulk Modulus (GPa) = 58.54216 60.62879 59.58547
# Shear Modulus (GPa) = 33.36823 39.15838 36.26331
#
# Velocity S-wave (km/s) = 3.51311 3.80573 3.66234
# Velocity P-wave (km/s) = 6.17325 6.46036 6.31844
#
# Compressibility (1/GPa) = 0.01708171
#
# Stress axis : x y z
#
# Youngs Moduli (GPa) = 65.03406 52.86544 80.09310
#
# Poissons Ratio (x) = 0.36386 0.01976
# Poissons Ratio (y) = 0.44762 0.61821
# Poissons Ratio (z) = 0.01604 0.40805
#
# Static dielectric constant tensor:
#      x y z
#    x 2.179760 0.000000 0.000000 
#    y 0.000000 2.179790 0.000000 
#    z 0.000000 0.000000 2.132400 
# 
# From -- ./inp_files/2424.got.cif
#   From: 2010.05.17/outbox.cif.g08.bks.cpg/sg19_2_cif.got.tgz:2424.got - 2010.06.03 22:46:19.
