data_PCOD9314648
_publ_section_title
;
Structure prediction by ZEFSAII (Michael W. Deem and Ramdas Pophale) SiO2 
 PCOD9314648
Probable space group: P 21 21 21
;
_chemical_formula_sum "Si O2"
_cell_formula_units_Z 28
_cell_length_a 5.589681
_cell_length_b 21.430573
_cell_length_c 9.465203
_cell_angle_alpha 90.000000
_cell_angle_beta 90.000000
_cell_angle_gamma 90.000000
_cell_volume 1133.837299
_symmetry_space_group_name_H-M "P 21 21 21"
_symmetry_group_IT_number 19
_symmetry_cell_setting 'orthorhombic'
loop_
_space_group_symop_operation_xyz
x,y,z
1/2-x,-y,1/2+z
1/2+x,1/2-y,-z
-x,1/2+y,1/2-z
loop_
_atom_site_type_symbol
_atom_site_label
_atom_site_fract_x
_atom_site_fract_y
_atom_site_fract_z
Si Si1 0.362605 0.748408 0.083211
Si Si2 0.016145 0.374155 0.523788
Si Si3 0.274506 0.211043 0.017920
Si Si4 0.182837 0.112432 0.250792
Si Si5 0.800451 0.363670 0.255698
Si Si6 0.958260 0.510162 0.847963
Si Si7 0.679008 0.975640 0.857938
O O1 0.357365 0.675762 0.127061
O O2 0.362059 0.805832 0.189118
O O3 0.114486 0.751191 0.997673
O O4 0.747731 0.374263 0.585375
O O5 0.029108 0.356656 0.359796
O O6 0.121682 0.441411 0.548383
O O7 0.324092 0.154753 0.906044
O O8 0.026616 0.249714 0.982058
O O9 0.211469 0.175245 0.163079
O O10 0.936014 0.075800 0.254866
O O11 0.358567 0.057596 0.196359
O O12 0.708265 0.432246 0.298138
O O13 0.191820 0.521779 0.748961
O O14 0.999612 0.505043 0.016894
#
# Coordination Sequence:
#
# PCOD9314648 Si02
#       7
#     4   4   4   4   4   4   4
#     4  10  22  39  68 104 140 181 242 313 369 436
#     4  10  23  44  73 105 137 197 254 326 381 459
#     4  12  32  53  79 116 165 217 265 330 412 481
#     4  11  27  47  74 107 159 195 260 332 394 471
#     4  11  25  46  75 108 152 196 264 315 387 482
#     4  11  27  45  72 118 146 211 254 330 397 484
#     4  11  26  44  77 104 157 195 265 320 406 471
#
# _framework density 24.694900000000001
#
# number of rings (size 3 to 8) (size 9 to 14) (size 15 to 20)
#    0.000    1.143    1.429    1.714   14.000    5.714 
#    0.000    0.000    0.000    0.000    0.000    0.000 
#    0.000    0.000    0.000    0.000    0.000    0.000 
#
# Total GULP energy -155998.698189 kJ/mol
# GULP energy per Si atom -5571.382078 kJ/mol
# Density = 2.463869 g / cm^3
# Si number density = 24.694900 Si / 1000 Ang^3
#
#
#
# Elastic Constant Matrix: (Units=GPa)
#
#
# Indices 1 2 3 4 5 6 
#
# 1 84.9706 23.6840 25.0252 0.0000 0.0000 0.0000
# 2 23.6840 79.5591 13.2104 0.0000 0.0000 0.0000
# 3 25.0252 13.2104 103.7914 0.0000 0.0000 0.0000
# 4 0.0000 0.0000 0.0000 30.9408 0.0000 0.0000
# 5 0.0000 0.0000 0.0000 0.0000 26.3645 0.0000
# 6 0.0000 0.0000 0.0000 0.0000 0.0000 42.8048
#
#
#
# Elastic Compliance Matrix: (Units=1/GPa)
#
#
# Indices 1 2 3 4 5 6 
#
# 1 0.013598 -0.003579 -0.002823 0.000000 0.000000 0.000000
# 2 -0.003579 0.013783 -0.000891 0.000000 0.000000 0.000000
# 3 -0.002823 -0.000891 0.010429 0.000000 0.000000 0.000000
# 4 0.000000 0.000000 0.000000 0.032320 0.000000 0.000000
# 5 0.000000 0.000000 0.000000 0.000000 0.037930 0.000000
# 6 0.000000 0.000000 0.000000 0.000000 0.000000 0.023362
#
#
# Mechanical properties :
#
#
# Convention : Reuss Voigt Hill
#
# Bulk Modulus (GPa) = 43.06183 43.57337 43.31760
# Shear Modulus (GPa) = 32.52062 33.78212 33.15137
#
# Velocity S-wave (km/s) = 3.63284 3.70263 3.66790
# Velocity P-wave (km/s) = 5.92217 5.99686 5.95963
#
# Compressibility (1/GPa) = 0.02322242
#
# Stress axis : x y z
#
# Youngs Moduli (GPa) = 73.54101 72.55444 95.88817
#
# Poissons Ratio (x) = 0.25969 0.27070
# Poissons Ratio (y) = 0.26322 0.08546
# Poissons Ratio (z) = 0.20761 0.06466
#
# Static dielectric constant tensor:
#      x y z
#    x 2.087980 0.000000 0.000000 
#    y 0.000000 2.048490 0.000000 
#    z 0.000000 0.000000 1.985870 
# 
# From -- ./inp_files/2423.got.cif
#   From: 2010.05.17/outbox.cif.g08.bks.cpg/sg19_2_cif.got.tgz:2423.got - 2010.06.03 22:46:19.
