data_PCOD9314133
_publ_section_title
;
Structure prediction by ZEFSAII (Michael W. Deem and Ramdas Pophale) SiO2 
 PCOD9314133
Probable space group: P 21 21 21
;
_chemical_formula_sum "Si O2"
_cell_formula_units_Z 32
_cell_length_a 5.355701
_cell_length_b 17.396780
_cell_length_c 13.930778
_cell_angle_alpha 90.000000
_cell_angle_beta 90.000000
_cell_angle_gamma 90.000000
_cell_volume 1297.957780
_symmetry_space_group_name_H-M "P 21 21 21"
_symmetry_group_IT_number 19
_symmetry_cell_setting 'orthorhombic'
loop_
_space_group_symop_operation_xyz
x,y,z
1/2-x,-y,1/2+z
1/2+x,1/2-y,-z
-x,1/2+y,1/2-z
loop_
_atom_site_type_symbol
_atom_site_label
_atom_site_fract_x
_atom_site_fract_y
_atom_site_fract_z
Si Si1 0.548418 0.969373 0.708884
Si Si2 0.462266 0.796965 0.019803
Si Si3 0.556050 0.779285 0.449404
Si Si4 0.811015 0.403186 0.630648
Si Si5 0.940669 0.832622 0.701290
Si Si6 0.583995 0.438680 0.114298
Si Si7 0.153593 0.954840 0.562793
Si Si8 0.926918 0.088402 0.682122
O O1 0.356504 0.947979 0.792178
O O2 0.419566 0.979952 0.605897
O O3 0.706174 0.889813 0.704847
O O4 0.679390 0.051106 0.728721
O O5 0.546631 0.835084 0.120562
O O6 0.716215 0.758817 0.976261
O O7 0.349919 0.865047 0.952386
O O8 0.831017 0.749063 0.480022
O O9 0.448875 0.750130 0.346214
O O10 0.566997 0.871493 0.439998
O O11 0.942509 0.337537 0.693505
O O12 0.003900 0.471913 0.605197
O O13 0.100866 0.877745 0.620821
O O14 0.603598 0.414599 0.225130
O O15 0.834505 0.442582 0.049431
O O16 0.979613 0.020302 0.605623
#
# Coordination Sequence:
#
# PCOD9314133 Si02
#       8
#     4   4   4   4   4   4   4   4
#     4  10  21  41  77 104 145 192 248 320 388 456
#     4  12  32  53  75 110 162 218 260 327 398 467
#     4  12  28  47  71 110 155 202 248 320 405 463
#     4  11  25  46  77 111 148 209 265 320 394 464
#     4  10  22  45  66 106 146 192 246 311 391 463
#     4  12  23  45  74 110 145 196 262 317 385 464
#     4  10  20  43  67 103 148 185 240 320 384 454
#     4  11  25  44  71 114 145 194 267 319 375 475
#
# _framework density 24.654115999999998
#
# number of rings (size 3 to 8) (size 9 to 14) (size 15 to 20)
#    0.000    1.000    6.250    0.750    7.000    2.000 
#    0.000    0.000    0.000    0.000    0.000    0.000 
#    0.000    0.000    0.000    0.000    0.000    0.000 
#
# Total GULP energy -178370.252548 kJ/mol
# GULP energy per Si atom -5574.070392 kJ/mol
# Density = 2.459800 g / cm^3
# Si number density = 24.654116 Si / 1000 Ang^3
#
#
#
# Elastic Constant Matrix: (Units=GPa)
#
#
# Indices 1 2 3 4 5 6 
#
# 1 86.7272 17.8209 11.0805 0.0000 0.0000 0.0000
# 2 17.8209 123.1585 24.9909 0.0000 0.0000 0.0000
# 3 11.0805 24.9909 83.0264 0.0000 0.0000 0.0000
# 4 0.0000 0.0000 0.0000 42.0201 0.0000 0.0000
# 5 0.0000 0.0000 0.0000 0.0000 17.3596 0.0000
# 6 0.0000 0.0000 0.0000 0.0000 0.0000 20.8068
#
#
#
# Elastic Compliance Matrix: (Units=1/GPa)
#
#
# Indices 1 2 3 4 5 6 
#
# 1 0.011986 -0.001501 -0.001148 0.000000 0.000000 0.000000
# 2 -0.001501 0.008836 -0.002459 0.000000 0.000000 0.000000
# 3 -0.001148 -0.002459 0.012938 0.000000 0.000000 0.000000
# 4 0.000000 0.000000 0.000000 0.023798 0.000000 0.000000
# 5 0.000000 0.000000 0.000000 0.000000 0.057605 0.000000
# 6 0.000000 0.000000 0.000000 0.000000 0.000000 0.048061
#
#
# Mechanical properties :
#
#
# Convention : Reuss Voigt Hill
#
# Bulk Modulus (GPa) = 42.47612 44.52184 43.49898
# Shear Modulus (GPa) = 27.58048 31.97195 29.77621
#
# Velocity S-wave (km/s) = 3.34832 3.60505 3.47905
# Velocity P-wave (km/s) = 5.67579 5.95200 5.81553
#
# Compressibility (1/GPa) = 0.02354264
#
# Stress axis : x y z
#
# Youngs Moduli (GPa) = 83.43377 113.17475 77.29320
#
# Poissons Ratio (x) = 0.16992 0.08870
# Poissons Ratio (y) = 0.12527 0.19008
# Poissons Ratio (z) = 0.09575 0.27832
#
# Static dielectric constant tensor:
#      x y z
#    x 2.027510 0.000000 0.000000 
#    y 0.000000 2.074830 0.000000 
#    z 0.000000 0.000000 1.992040 
# 
# From -- ./inp_files/5731.got.cif
#   From: 2010.05.17/outbox.cif.g08.bks.cpg/sg19_3_cif.got.tgz:5731.got - 2010.06.03 22:46:19.
