data_PCOD9314542
_publ_section_title
;
Structure prediction by ZEFSAII (Michael W. Deem and Ramdas Pophale) SiO2 
 PCOD9314542
Probable space group: P 21 21 21
;
_chemical_formula_sum "Si O2"
_cell_formula_units_Z 16
_cell_length_a 7.022169
_cell_length_b 9.783030
_cell_length_c 8.724006
_cell_angle_alpha 90.000000
_cell_angle_beta 90.000000
_cell_angle_gamma 90.000000
_cell_volume 599.322549
_symmetry_space_group_name_H-M "P 21 21 21"
_symmetry_group_IT_number 19
_symmetry_cell_setting 'orthorhombic'
loop_
_space_group_symop_operation_xyz
x,y,z
1/2-x,-y,1/2+z
1/2+x,1/2-y,-z
-x,1/2+y,1/2-z
loop_
_atom_site_type_symbol
_atom_site_label
_atom_site_fract_x
_atom_site_fract_y
_atom_site_fract_z
Si Si1 0.343664 0.006433 0.304471
Si Si2 0.297416 0.557439 0.999809
Si Si3 0.405244 0.221812 0.706402
Si Si4 0.447054 0.118530 0.019299
O O1 0.541658 0.997286 0.389506
O O2 0.286821 0.870770 0.212673
O O3 0.177043 0.996493 0.428672
O O4 0.348732 0.131451 0.184987
O O5 0.162683 0.655296 0.101367
O O6 0.153842 0.441150 0.943258
O O7 0.420882 0.638406 0.872286
O O8 0.455886 0.234384 0.888248
#
# Coordination Sequence:
#
# PCOD9314542 Si02
#       4
#     4   4   4   4
#     4  10  21  44  61  97 134 165 222 266 325 394
#     4  12  22  43  70  93 133 174 218 276 319 391
#     4  10  23  41  66 100 121 179 221 256 337 387
#     4  10  22  42  63  98 134 172 215 270 325 390
#
# _framework density 26.696809999999999
#
# number of rings (size 3 to 8) (size 9 to 14) (size 15 to 20)
#    1.500    0.000    2.500    3.000    0.000    0.000 
#    4.500    0.000    0.000    0.000    0.000    0.000 
#    0.000    0.000    0.000    0.000    0.000    0.000 
#
# Total GULP energy -89337.629135 kJ/mol
# GULP energy per Si atom -5583.601821 kJ/mol
# Density = 2.663605 g / cm^3
# Si number density = 26.696810 Si / 1000 Ang^3
#
#
#
# Elastic Constant Matrix: (Units=GPa)
#
#
# Indices 1 2 3 4 5 6 
#
# 1 152.7675 34.6535 29.9112 0.0000 0.0000 0.0000
# 2 34.6535 38.5867 11.8362 0.0000 0.0000 0.0000
# 3 29.9112 11.8362 110.1294 0.0000 0.0000 0.0000
# 4 0.0000 0.0000 0.0000 23.6747 0.0000 0.0000
# 5 0.0000 0.0000 0.0000 0.0000 45.1433 0.0000
# 6 0.0000 0.0000 0.0000 0.0000 0.0000 57.0501
#
#
#
# Elastic Compliance Matrix: (Units=1/GPa)
#
#
# Indices 1 2 3 4 5 6 
#
# 1 0.008463 -0.007131 -0.001532 0.000000 0.000000 0.000000
# 2 -0.007131 0.032807 -0.001589 0.000000 0.000000 0.000000
# 3 -0.001532 -0.001589 0.009667 0.000000 0.000000 0.000000
# 4 0.000000 0.000000 0.000000 0.042239 0.000000 0.000000
# 5 0.000000 0.000000 0.000000 0.000000 0.022152 0.000000
# 6 0.000000 0.000000 0.000000 0.000000 0.000000 0.017528
#
#
# Mechanical properties :
#
#
# Convention : Reuss Voigt Hill
#
# Bulk Modulus (GPa) = 32.85891 50.47618 41.66755
# Shear Modulus (GPa) = 30.57994 40.17914 35.37954
#
# Velocity S-wave (km/s) = 3.38813 3.88366 3.64433
# Velocity P-wave (km/s) = 5.25745 6.24970 5.77492
#
# Compressibility (1/GPa) = 0.03043314
#
# Stress axis : x y z
#
# Youngs Moduli (GPa) = 118.15545 30.48127 103.44256
#
# Poissons Ratio (x) = 0.21735 0.15850
# Poissons Ratio (y) = 0.84253 0.16440
# Poissons Ratio (z) = 0.18105 0.04844
#
# Static dielectric constant tensor:
#      x y z
#    x 2.026140 0.000000 0.000000 
#    y 0.000000 2.229100 0.000000 
#    z 0.000000 0.000000 2.114420 
# 
# From -- ./inp_files/793.got.cif
#   From: 2010.05.17/outbox.cif.g08.bks.cpg/sg19_1_cif.got.tgz:793.got - 2010.06.03 22:46:19.
