data_PCOD9314120
_publ_section_title
;
Structure prediction by ZEFSAII (Michael W. Deem and Ramdas Pophale) SiO2 
 PCOD9314120
Probable space group: P 21 21 21
;
_chemical_formula_sum "Si O2"
_cell_formula_units_Z 32
_cell_length_a 12.120260
_cell_length_b 10.501993
_cell_length_c 10.816254
_cell_angle_alpha 90.000000
_cell_angle_beta 90.000000
_cell_angle_gamma 90.000000
_cell_volume 1376.767286
_symmetry_space_group_name_H-M "P 21 21 21"
_symmetry_group_IT_number 19
_symmetry_cell_setting 'orthorhombic'
loop_
_space_group_symop_operation_xyz
x,y,z
1/2-x,-y,1/2+z
1/2+x,1/2-y,-z
-x,1/2+y,1/2-z
loop_
_atom_site_type_symbol
_atom_site_label
_atom_site_fract_x
_atom_site_fract_y
_atom_site_fract_z
Si Si1 0.574182 0.025441 0.256728
Si Si2 0.569721 0.183101 0.710813
Si Si3 0.186495 0.533203 0.198651
Si Si4 0.439260 0.104848 0.487143
Si Si5 0.282357 0.717640 0.377184
Si Si6 0.750730 0.776928 0.013340
Si Si7 0.323528 0.868043 0.608271
Si Si8 0.655853 0.419492 0.317488
O O1 0.391164 0.636138 0.339836
O O2 0.473146 0.943665 0.205908
O O3 0.693325 0.964499 0.286084
O O4 0.533200 0.085946 0.385844
O O5 0.468040 0.172027 0.618229
O O6 0.670087 0.166066 0.614624
O O7 0.597342 0.308168 0.787790
O O8 0.584121 0.061075 0.798861
O O9 0.186603 0.631542 0.315431
O O10 0.200331 0.615256 0.074939
O O11 0.345921 0.193014 0.428170
O O12 0.393410 0.967427 0.526076
O O13 0.280180 0.755894 0.518832
O O14 0.290348 0.846939 0.298527
O O15 0.819761 0.675661 0.930861
O O16 0.221724 0.950010 0.660043
#
# Coordination Sequence:
#
# PCOD9314120 Si02
#       8
#     4   4   4   4   4   4   4   4
#     4  10  20  42  70  97 120 178 225 273 311 400
#     4  12  25  42  66  99 133 181 213 266 356 381
#     4   9  23  41  66  94 134 169 221 278 319 391
#     4  11  23  44  68  93 134 173 222 274 331 404
#     4   9  21  43  62  98 129 163 225 269 321 382
#     4  10  23  44  66  96 135 174 220 276 330 401
#     4  11  25  40  64  98 136 164 219 278 326 405
#     4  10  20  42  70  93 129 170 217 274 334 380
#
# _framework density 23.242853
#
# number of rings (size 3 to 8) (size 9 to 14) (size 15 to 20)
#    0.750    1.000    2.500    0.750    5.250    3.000 
#    4.500    0.000    0.000    0.000    0.000    0.000 
#    0.000    0.000    0.000    0.000    0.000    0.000 
#
# Total GULP energy -178734.978925 kJ/mol
# GULP energy per Si atom -5585.468091 kJ/mol
# Density = 2.318995 g / cm^3
# Si number density = 23.242853 Si / 1000 Ang^3
#
#
#
# Elastic Constant Matrix: (Units=GPa)
#
#
# Indices 1 2 3 4 5 6 
#
# 1 38.9173 8.8325 -1.7488 0.0000 0.0000 0.0000
# 2 8.8325 63.9721 15.3660 0.0000 0.0000 0.0000
# 3 -1.7488 15.3660 41.0521 0.0000 0.0000 0.0000
# 4 0.0000 0.0000 0.0000 20.8769 0.0000 0.0000
# 5 0.0000 0.0000 0.0000 0.0000 31.7715 0.0000
# 6 0.0000 0.0000 0.0000 0.0000 0.0000 31.6510
#
#
#
# Elastic Compliance Matrix: (Units=1/GPa)
#
#
# Indices 1 2 3 4 5 6 
#
# 1 0.026812 -0.004369 0.002778 0.000000 0.000000 0.000000
# 2 -0.004369 0.017888 -0.006882 0.000000 0.000000 0.000000
# 3 0.002778 -0.006882 0.027053 0.000000 0.000000 0.000000
# 4 0.000000 0.000000 0.000000 0.047900 0.000000 0.000000
# 5 0.000000 0.000000 0.000000 0.000000 0.031475 0.000000
# 6 0.000000 0.000000 0.000000 0.000000 0.000000 0.031595
#
#
# Mechanical properties :
#
#
# Convention : Reuss Voigt Hill
#
# Bulk Modulus (GPa) = 18.24585 20.98232 19.61408
# Shear Modulus (GPa) = 22.94231 24.95933 23.95082
#
# Velocity S-wave (km/s) = 3.14517 3.28052 3.21356
# Velocity P-wave (km/s) = 4.58875 4.83695 4.71448
#
# Compressibility (1/GPa) = 0.05480700
#
# Stress axis : x y z
#
# Youngs Moduli (GPa) = 37.29690 55.90341 36.96382
#
# Poissons Ratio (x) = 0.24424 -0.10267
# Poissons Ratio (y) = 0.16295 0.25437
# Poissons Ratio (z) = -0.10359 0.38471
#
# Static dielectric constant tensor:
#      x y z
#    x 1.863850 0.000000 0.000000 
#    y 0.000000 1.889780 0.000000 
#    z 0.000000 0.000000 1.919060 
# 
# From -- ./inp_files/5046.got.cif
#   From: 2010.05.17/outbox.cif.g08.bks.cpg/sg19_3_cif.got.tgz:5046.got - 2010.06.03 22:46:19.
