data_PCOD9314463
_publ_section_title
;
Structure prediction by ZEFSAII (Michael W. Deem and Ramdas Pophale) SiO2 
 PCOD9314463
Probable space group: P 21 21 21
;
_chemical_formula_sum "Si O2"
_cell_formula_units_Z 28
_cell_length_a 8.841965
_cell_length_b 15.976882
_cell_length_c 7.485560
_cell_angle_alpha 90.000000
_cell_angle_beta 90.000000
_cell_angle_gamma 90.000000
_cell_volume 1057.462840
_symmetry_space_group_name_H-M "P 21 21 21"
_symmetry_group_IT_number 19
_symmetry_cell_setting 'orthorhombic'
loop_
_space_group_symop_operation_xyz
x,y,z
1/2-x,-y,1/2+z
1/2+x,1/2-y,-z
-x,1/2+y,1/2-z
loop_
_atom_site_type_symbol
_atom_site_label
_atom_site_fract_x
_atom_site_fract_y
_atom_site_fract_z
Si Si1 0.734081 0.924225 0.337245
Si Si2 0.782037 0.499081 0.816808
Si Si3 0.701193 0.822555 0.010362
Si Si4 0.009634 0.039756 0.342875
Si Si5 0.685092 0.686656 0.730311
Si Si6 0.521590 0.086622 0.364201
Si Si7 0.415758 0.695548 0.455140
O O1 0.784217 0.874456 0.511901
O O2 0.891763 0.968840 0.280826
O O3 0.626030 0.003418 0.346100
O O4 0.669314 0.851205 0.211088
O O5 0.629484 0.443707 0.813341
O O6 0.719785 0.590428 0.765664
O O7 0.862095 0.459546 0.638594
O O8 0.906440 0.507759 0.973895
O O9 0.588457 0.880329 0.895367
O O10 0.686824 0.732231 0.923707
O O11 0.873900 0.854488 0.986003
O O12 0.528816 0.703451 0.622460
O O13 0.823078 0.725532 0.615342
O O14 0.492088 0.151535 0.201746
#
# Coordination Sequence:
#
# PCOD9314463 Si02
#       7
#     4   4   4   4   4   4   4
#     4  11  20  45  70  95 137 182 248 282 338 449
#     4  12  23  45  66 107 139 171 244 298 358 402
#     4  10  24  44  68 102 133 194 233 281 366 433
#     4  11  25  43  71 101 138 186 238 300 347 416
#     4  11  27  43  69 102 148 185 230 302 364 432
#     4  10  21  41  73  97 134 184 241 286 348 432
#     4  11  24  47  65 104 143 190 240 285 373 432
#
# _framework density 26.478469
#
# number of rings (size 3 to 8) (size 9 to 14) (size 15 to 20)
#    0.000    1.143    4.286    0.857    4.000    3.429 
#    0.000    0.000    0.000    0.000    0.000    0.000 
#    0.000    0.000    0.000    0.000    0.000    0.000 
#
# Total GULP energy -156387.796247 kJ/mol
# GULP energy per Si atom -5585.278437 kJ/mol
# Density = 2.641820 g / cm^3
# Si number density = 26.478469 Si / 1000 Ang^3
#
#
#
# Elastic Constant Matrix: (Units=GPa)
#
#
# Indices 1 2 3 4 5 6 
#
# 1 92.1457 31.3603 13.6034 0.0000 0.0000 0.0000
# 2 31.3603 81.1521 4.6572 0.0000 0.0000 0.0000
# 3 13.6034 4.6572 62.3412 0.0000 0.0000 0.0000
# 4 0.0000 0.0000 0.0000 38.6107 0.0000 0.0000
# 5 0.0000 0.0000 0.0000 0.0000 37.4100 0.0000
# 6 0.0000 0.0000 0.0000 0.0000 0.0000 35.7363
#
#
#
# Elastic Compliance Matrix: (Units=1/GPa)
#
#
# Indices 1 2 3 4 5 6 
#
# 1 0.012856 -0.004828 -0.002445 0.000000 0.000000 0.000000
# 2 -0.004828 0.014189 -0.000006 0.000000 0.000000 0.000000
# 3 -0.002445 -0.000006 0.016575 0.000000 0.000000 0.000000
# 4 0.000000 0.000000 0.000000 0.025900 0.000000 0.000000
# 5 0.000000 0.000000 0.000000 0.000000 0.026731 0.000000
# 6 0.000000 0.000000 0.000000 0.000000 0.000000 0.027983
#
#
# Mechanical properties :
#
#
# Convention : Reuss Voigt Hill
#
# Bulk Modulus (GPa) = 34.40975 37.20896 35.80936
# Shear Modulus (GPa) = 33.67499 34.75260 34.21379
#
# Velocity S-wave (km/s) = 3.57008 3.62675 3.59853
# Velocity P-wave (km/s) = 5.47883 5.62324 5.55150
#
# Compressibility (1/GPa) = 0.02906153
#
# Stress axis : x y z
#
# Youngs Moduli (GPa) = 77.78233 70.47912 60.33296
#
# Poissons Ratio (x) = 0.34027 0.14750
# Poissons Ratio (y) = 0.37553 0.00039
# Poissons Ratio (z) = 0.19015 0.00046
#
# Static dielectric constant tensor:
#      x y z
#    x 2.136910 0.000000 0.000000 
#    y 0.000000 2.013880 0.000000 
#    z 0.000000 0.000000 2.253170 
# 
# From -- ./inp_files/2978.got.cif
#   From: 2010.05.17/outbox.cif.g08.bks.cpg/sg19_2_cif.got.tgz:2978.got - 2010.06.03 22:46:19.
