data_PCOD9314473
_publ_section_title
;
Structure prediction by ZEFSAII (Michael W. Deem and Ramdas Pophale) SiO2 
 PCOD9314473
Probable space group: P 21 21 21
;
_chemical_formula_sum "Si O2"
_cell_formula_units_Z 24
_cell_length_a 7.327375
_cell_length_b 22.817850
_cell_length_c 5.405071
_cell_angle_alpha 90.000000
_cell_angle_beta 90.000000
_cell_angle_gamma 90.000000
_cell_volume 903.700541
_symmetry_space_group_name_H-M "P 21 21 21"
_symmetry_group_IT_number 19
_symmetry_cell_setting 'orthorhombic'
loop_
_space_group_symop_operation_xyz
x,y,z
1/2-x,-y,1/2+z
1/2+x,1/2-y,-z
-x,1/2+y,1/2-z
loop_
_atom_site_type_symbol
_atom_site_label
_atom_site_fract_x
_atom_site_fract_y
_atom_site_fract_z
Si Si1 0.707918 0.963932 0.951003
Si Si2 0.618651 0.449231 0.222968
Si Si3 0.388591 0.720376 0.689254
Si Si4 0.575872 0.581380 0.043974
Si Si5 0.031865 0.663957 0.584166
Si Si6 0.756252 0.309689 0.469560
O O1 0.505874 0.946859 0.029378
O O2 0.858481 0.912614 0.954265
O O3 0.773027 0.002675 0.191057
O O4 0.821806 0.427247 0.280458
O O5 0.522031 0.403648 0.034683
O O6 0.616449 0.517752 0.159585
O O7 0.438857 0.781025 0.552533
O O8 0.578760 0.693942 0.774330
O O9 0.247370 0.675925 0.564125
O O10 0.273169 0.746147 0.918350
O O11 0.669762 0.639445 0.151669
O O12 0.934583 0.671494 0.851829
#
# Coordination Sequence:
#
# PCOD9314473 Si02
#       6
#     4   4   4   4   4   4
#     4  10  21  42  64  94 136 180 225 278 342 422
#     4  10  22  40  64  98 132 172 221 281 343 418
#     4  12  23  44  66  96 130 180 221 290 330 418
#     4  10  22  40  64  98 132 172 221 281 343 418
#     4  11  24  42  67  95 134 172 230 279 347 404
#     4  11  24  42  67  95 134 172 230 279 347 404
#
# _framework density 26.557469000000001
#
# number of rings (size 3 to 8) (size 9 to 14) (size 15 to 20)
#    0.000    1.333    3.333    2.000    2.333    0.000 
#    6.000    6.667    0.000    0.000    0.000    0.000 
#    0.000    0.000    0.000    0.000    0.000    0.000 
#
# Total GULP energy -134084.243652 kJ/mol
# GULP energy per Si atom -5586.843485 kJ/mol
# Density = 2.649702 g / cm^3
# Si number density = 26.557469 Si / 1000 Ang^3
#
#
#
# Elastic Constant Matrix: (Units=GPa)
#
#
# Indices 1 2 3 4 5 6 
#
# 1 99.9828 31.7184 13.7004 0.0000 0.0000 0.0000
# 2 31.7184 120.4134 19.7692 0.0000 0.0000 0.0000
# 3 13.7004 19.7692 56.6696 0.0000 0.0000 0.0000
# 4 0.0000 0.0000 0.0000 32.4327 0.0000 0.0000
# 5 0.0000 0.0000 0.0000 0.0000 26.7779 0.0000
# 6 0.0000 0.0000 0.0000 0.0000 0.0000 53.8740
#
#
#
# Elastic Compliance Matrix: (Units=1/GPa)
#
#
# Indices 1 2 3 4 5 6 
#
# 1 0.011077 -0.002629 -0.001761 0.000000 0.000000 0.000000
# 2 -0.002629 0.009433 -0.002655 0.000000 0.000000 0.000000
# 3 -0.001761 -0.002655 0.018998 0.000000 0.000000 0.000000
# 4 0.000000 0.000000 0.000000 0.030833 0.000000 0.000000
# 5 0.000000 0.000000 0.000000 0.000000 0.037344 0.000000
# 6 0.000000 0.000000 0.000000 0.000000 0.000000 0.018562
#
#
# Mechanical properties :
#
#
# Convention : Reuss Voigt Hill
#
# Bulk Modulus (GPa) = 39.34148 45.27132 42.30640
# Shear Modulus (GPa) = 33.59993 36.74210 35.17102
#
# Velocity S-wave (km/s) = 3.56079 3.72357 3.64309
# Velocity P-wave (km/s) = 5.63485 5.96408 5.80180
#
# Compressibility (1/GPa) = 0.02541847
#
# Stress axis : x y z
#
# Youngs Moduli (GPa) = 90.27766 106.00986 52.63667
#
# Poissons Ratio (x) = 0.27867 0.09269
# Poissons Ratio (y) = 0.23731 0.13976
# Poissons Ratio (z) = 0.15897 0.28148
#
# Static dielectric constant tensor:
#      x y z
#    x 2.065470 0.000000 0.000000 
#    y 0.000000 2.195060 0.000000 
#    z 0.000000 0.000000 2.189110 
# 
# From -- ./inp_files/503.got.cif
#   From: 2010.05.17/outbox.cif.g08.bks.cpg/sg19_1_cif.got.tgz:503.got - 2010.06.03 22:46:19.
