data_PCOD9314000
_publ_section_title
;
Structure prediction by ZEFSAII (Michael W. Deem and Ramdas Pophale) SiO2 
 PCOD9314000
Probable space group: P 21 21 21
;
_chemical_formula_sum "Si O2"
_cell_formula_units_Z 32
_cell_length_a 5.160736
_cell_length_b 8.316203
_cell_length_c 28.763844
_cell_angle_alpha 90.000000
_cell_angle_beta 90.000000
_cell_angle_gamma 90.000000
_cell_volume 1234.478839
_symmetry_space_group_name_H-M "P 21 21 21"
_symmetry_group_IT_number 19
_symmetry_cell_setting 'orthorhombic'
loop_
_space_group_symop_operation_xyz
x,y,z
1/2-x,-y,1/2+z
1/2+x,1/2-y,-z
-x,1/2+y,1/2-z
loop_
_atom_site_type_symbol
_atom_site_label
_atom_site_fract_x
_atom_site_fract_y
_atom_site_fract_z
Si Si1 0.416404 0.367154 0.058374
Si Si2 0.207357 0.512978 0.972058
Si Si3 0.301898 0.879247 0.966269
Si Si4 0.946565 0.549198 0.735168
Si Si5 0.561953 0.824474 0.871761
Si Si6 0.585317 0.813113 0.600185
Si Si7 0.555533 0.154249 0.812432
Si Si8 0.054134 0.716090 0.822750
O O1 0.165163 0.280569 0.080053
O O2 0.551775 0.545035 0.059375
O O3 0.652838 0.275171 0.082902
O O4 0.342612 0.378332 0.004029
O O5 0.261754 0.698600 0.982420
O O6 0.342240 0.483480 0.922485
O O7 0.908443 0.511790 0.990739
O O8 0.511736 0.868074 0.925106
O O9 0.659437 0.617853 0.726436
O O10 0.965880 0.374565 0.711060
O O11 0.159460 0.659045 0.708646
O O12 0.015333 0.564699 0.789163
O O13 0.325179 0.730790 0.848286
O O14 0.824824 0.732807 0.859920
O O15 0.560393 0.996489 0.845353
O O16 0.538617 0.799352 0.655086
#
# Coordination Sequence:
#
# PCOD9314000 Si02
#       8
#     4   4   4   4   4   4   4   4
#     4  12  24  44  70  94 133 183 234 285 340 414
#     4  12  27  45  67 104 140 190 231 300 353 409
#     4  12  26  45  72  98 146 188 243 288 363 419
#     4  10  21  40  65  93 129 169 210 270 341 420
#     4  10  22  39  69  96 127 178 226 274 333 431
#     4  12  26  43  70 103 135 177 246 292 340 414
#     4  10  20  39  67  93 129 172 217 274 339 403
#     4  10  22  41  64  97 127 169 223 271 347 412
#
# _framework density 25.921870999999999
#
# number of rings (size 3 to 8) (size 9 to 14) (size 15 to 20)
#    0.000    1.000    3.750    2.250    7.000    0.000 
#    4.500    0.000    0.000    0.000    0.000    0.000 
#    0.000    0.000    0.000    0.000    0.000    0.000 
#
# Total GULP energy -178721.442723 kJ/mol
# GULP energy per Si atom -5585.045085 kJ/mol
# Density = 2.586287 g / cm^3
# Si number density = 25.921871 Si / 1000 Ang^3
#
#
#
# Elastic Constant Matrix: (Units=GPa)
#
#
# Indices 1 2 3 4 5 6 
#
# 1 124.1303 41.3614 2.5374 0.0000 0.0000 0.0000
# 2 41.3614 70.6706 18.8483 0.0000 0.0000 0.0000
# 3 2.5374 18.8483 60.3905 0.0000 0.0000 0.0000
# 4 0.0000 0.0000 0.0000 52.4214 0.0000 0.0000
# 5 0.0000 0.0000 0.0000 0.0000 17.4483 0.0000
# 6 0.0000 0.0000 0.0000 0.0000 0.0000 18.0939
#
#
#
# Elastic Compliance Matrix: (Units=1/GPa)
#
#
# Indices 1 2 3 4 5 6 
#
# 1 0.010140 -0.006350 0.001556 0.000000 0.000000 0.000000
# 2 -0.006350 0.019411 -0.005792 0.000000 0.000000 0.000000
# 3 0.001556 -0.005792 0.018301 0.000000 0.000000 0.000000
# 4 0.000000 0.000000 0.000000 0.019076 0.000000 0.000000
# 5 0.000000 0.000000 0.000000 0.000000 0.057312 0.000000
# 6 0.000000 0.000000 0.000000 0.000000 0.000000 0.055267
#
#
# Mechanical properties :
#
#
# Convention : Reuss Voigt Hill
#
# Bulk Modulus (GPa) = 37.47939 42.29840 39.88890
# Shear Modulus (GPa) = 23.85812 30.42234 27.14023
#
# Velocity S-wave (km/s) = 3.03708 3.42953 3.23925
# Velocity P-wave (km/s) = 5.17575 5.65997 5.42327
#
# Compressibility (1/GPa) = 0.02668133
#
# Stress axis : x y z
#
# Youngs Moduli (GPa) = 98.61958 51.51718 54.64149
#
# Poissons Ratio (x) = 0.32711 -0.08501
# Poissons Ratio (y) = 0.62619 0.31646
# Poissons Ratio (z) = -0.15342 0.29836
#
# Static dielectric constant tensor:
#      x y z
#    x 2.127620 0.000000 0.000000 
#    y 0.000000 2.127180 0.000000 
#    z 0.000000 0.000000 2.047290 
# 
# From -- ./inp_files/7557.got.cif
#   From: 2010.05.17/outbox.cif.g08.bks.cpg/sg19_4_cif.got.tgz:7557.got - 2010.06.03 22:46:19.
