data_PCOD9314252
_publ_section_title
;
Structure prediction by ZEFSAII (Michael W. Deem and Ramdas Pophale) SiO2 
 PCOD9314252
Probable space group: P 21 21 21
;
_chemical_formula_sum "Si O2"
_cell_formula_units_Z 28
_cell_length_a 26.084483
_cell_length_b 6.964380
_cell_length_c 6.113314
_cell_angle_alpha 90.000000
_cell_angle_beta 90.000000
_cell_angle_gamma 90.000000
_cell_volume 1110.558387
_symmetry_space_group_name_H-M "P 21 21 21"
_symmetry_group_IT_number 19
_symmetry_cell_setting 'orthorhombic'
loop_
_space_group_symop_operation_xyz
x,y,z
1/2-x,-y,1/2+z
1/2+x,1/2-y,-z
-x,1/2+y,1/2-z
loop_
_atom_site_type_symbol
_atom_site_label
_atom_site_fract_x
_atom_site_fract_y
_atom_site_fract_z
Si Si1 0.653428 0.193522 0.939609
Si Si2 0.161300 0.990663 0.710117
Si Si3 0.767847 0.052635 0.366635
Si Si4 0.770224 0.624679 0.115596
Si Si5 0.490622 0.588629 0.432976
Si Si6 0.939416 0.598299 0.277943
Si Si7 0.070306 0.768490 0.894407
O O1 0.671405 0.972254 0.926351
O O2 0.707325 0.266237 0.827637
O O3 0.609138 0.259807 0.775028
O O4 0.643723 0.311435 0.164077
O O5 0.116375 0.836981 0.740076
O O6 0.182212 0.996198 0.462363
O O7 0.212236 0.924663 0.833482
O O8 0.743005 0.981777 0.605800
O O9 0.740408 0.258831 0.391819
O O10 0.531720 0.457271 0.559482
O O11 0.478245 0.778449 0.571871
O O12 0.439625 0.458387 0.413485
O O13 0.517370 0.654071 0.212619
O O14 0.923622 0.397103 0.389339
#
# Coordination Sequence:
#
# PCOD9314252 Si02
#       7
#     4   4   4   4   4   4   4
#     4  10  22  40  61  92 128 175 214 278 337 414
#     4  11  22  39  62  94 130 172 217 271 344 416
#     4  10  21  38  62  89 129 173 220 269 333 402
#     4  11  21  39  63  90 132 172 219 274 331 413
#     4  12  23  46  69 100 131 179 224 294 347 418
#     4  11  24  42  70  95 137 171 231 281 355 412
#     4  11  25  42  69 100 133 176 227 287 351 421
#
# _framework density 25.212541999999999
#
# number of rings (size 3 to 8) (size 9 to 14) (size 15 to 20)
#    0.000    1.143    5.714    0.857    2.000    0.000 
#    0.000    0.000   15.714    0.000    0.000    0.000 
#    0.000    0.000    0.000    0.000    0.000    0.000 
#
# Total GULP energy -155872.573356 kJ/mol
# GULP energy per Si atom -5566.877620 kJ/mol
# Density = 2.515516 g / cm^3
# Si number density = 25.212542 Si / 1000 Ang^3
#
#
#
# Elastic Constant Matrix: (Units=GPa)
#
#
# Indices 1 2 3 4 5 6 
#
# 1 59.7705 -7.8615 16.3405 0.0000 0.0000 0.0000
# 2 -7.8615 42.6808 15.0820 0.0000 0.0000 0.0000
# 3 16.3405 15.0820 72.6855 0.0000 0.0000 0.0000
# 4 0.0000 0.0000 0.0000 1.6048 0.0000 0.0000
# 5 0.0000 0.0000 0.0000 0.0000 42.8438 0.0000
# 6 0.0000 0.0000 0.0000 0.0000 0.0000 40.1495
#
#
#
# Elastic Compliance Matrix: (Units=1/GPa)
#
#
# Indices 1 2 3 4 5 6 
#
# 1 0.018905 0.005378 -0.005366 0.000000 0.000000 0.000000
# 2 0.005378 0.026814 -0.006773 0.000000 0.000000 0.000000
# 3 -0.005366 -0.006773 0.016370 0.000000 0.000000 0.000000
# 4 0.000000 0.000000 0.000000 0.623134 0.000000 0.000000
# 5 0.000000 0.000000 0.000000 0.000000 0.023341 0.000000
# 6 0.000000 0.000000 0.000000 0.000000 0.000000 0.024907
#
#
# Mechanical properties :
#
#
# Convention : Reuss Voigt Hill
#
# Bulk Modulus (GPa) = 20.58998 24.69541 22.64270
# Shear Modulus (GPa) = 6.55153 27.02466 16.78810
#
# Velocity S-wave (km/s) = 1.61374 3.27750 2.58323
# Velocity P-wave (km/s) = 3.41416 4.91313 4.23056
#
# Compressibility (1/GPa) = 0.04856730
#
# Stress axis : x y z
#
# Youngs Moduli (GPa) = 52.89586 37.29431 61.08882
#
# Poissons Ratio (x) = -0.20058 0.32781
# Poissons Ratio (y) = -0.28449 0.41375
# Poissons Ratio (z) = 0.28384 0.25259
#
# Static dielectric constant tensor:
#      x y z
#    x 2.040970 0.000000 0.000000 
#    y 0.000000 2.368190 0.000000 
#    z 0.000000 0.000000 2.051330 
# 
# From -- ./inp_files/628.got.cif
#   From: 2010.05.17/outbox.cif.g08.bks.cpg/sg19_1_cif.got.tgz:628.got - 2010.06.03 22:46:19.
