data_PCOD9314792
_publ_section_title
;
Structure prediction by ZEFSAII (Michael W. Deem and Ramdas Pophale) SiO2 
 PCOD9314792
Probable space group: P 21 21 21
;
_chemical_formula_sum "Si O2"
_cell_formula_units_Z 32
_cell_length_a 8.399178
_cell_length_b 8.607641
_cell_length_c 20.307614
_cell_angle_alpha 90.000000
_cell_angle_beta 90.000000
_cell_angle_gamma 90.000000
_cell_volume 1468.181781
_symmetry_space_group_name_H-M "P 21 21 21"
_symmetry_group_IT_number 19
_symmetry_cell_setting 'orthorhombic'
loop_
_space_group_symop_operation_xyz
x,y,z
1/2-x,-y,1/2+z
1/2+x,1/2-y,-z
-x,1/2+y,1/2-z
loop_
_atom_site_type_symbol
_atom_site_label
_atom_site_fract_x
_atom_site_fract_y
_atom_site_fract_z
Si Si1 0.315812 0.881810 0.679069
Si Si2 0.890181 0.075849 0.978982
Si Si3 0.181653 0.608126 0.284887
Si Si4 0.302364 0.434835 0.401722
Si Si5 0.720518 0.578410 0.063032
Si Si6 0.323281 0.938643 0.303339
Si Si7 0.631325 0.561726 0.445801
Si Si8 0.192279 0.535458 0.662864
O O1 0.501654 0.862307 0.693565
O O2 0.273386 0.950403 0.607282
O O3 0.236977 0.712694 0.677663
O O4 0.240271 0.985309 0.736681
O O5 0.880345 0.262565 0.973402
O O6 0.794217 0.011241 0.915300
O O7 0.068359 0.015607 0.965531
O O8 0.817234 0.016216 0.046667
O O9 0.240920 0.461885 0.327883
O O10 0.292045 0.755328 0.300778
O O11 0.199669 0.572143 0.208059
O O12 0.317924 0.256091 0.421601
O O13 0.470356 0.520351 0.408257
O O14 0.767536 0.501874 0.132285
O O15 0.849780 0.555244 0.006458
O O16 0.507589 0.982307 0.315819
#
# Coordination Sequence:
#
# PCOD9314792 Si02
#       8
#     4   4   4   4   4   4   4   4
#     4  11  24  41  63  93 126 162 211 266 318 379
#     4  10  22  42  64  90 123 164 212 260 317 384
#     4  12  24  40  64  93 128 167 211 264 321 381
#     4  12  24  40  64  93 128 167 211 264 321 381
#     4  11  24  41  63  93 126 162 211 266 318 379
#     4  11  23  41  66  90 124 169 212 260 320 388
#     4  11  23  41  66  90 124 169 212 260 320 388
#     4  10  22  42  64  90 123 164 212 260 317 384
#
# _framework density 21.795666000000001
#
# number of rings (size 3 to 8) (size 9 to 14) (size 15 to 20)
#    0.000    1.000    0.000    8.250    0.000    8.000 
#    0.000    1.250    0.000    0.000    0.000    0.000 
#    0.000    0.000    0.000    0.000    0.000    0.000 
#
# Total GULP energy -179085.580209 kJ/mol
# GULP energy per Si atom -5596.424382 kJ/mol
# Density = 2.174606 g / cm^3
# Si number density = 21.795666 Si / 1000 Ang^3
#
#
#
# Elastic Constant Matrix: (Units=GPa)
#
#
# Indices 1 2 3 4 5 6 
#
# 1 26.7633 -15.4682 -11.5545 0.0000 0.0000 0.0000
# 2 -15.4682 19.6071 3.0195 0.0000 0.0000 0.0000
# 3 -11.5545 3.0195 71.4355 0.0000 0.0000 0.0000
# 4 0.0000 0.0000 0.0000 30.3819 0.0000 0.0000
# 5 0.0000 0.0000 0.0000 0.0000 35.8489 0.0000
# 6 0.0000 0.0000 0.0000 0.0000 0.0000 20.8040
#
#
#
# Elastic Compliance Matrix: (Units=1/GPa)
#
#
# Indices 1 2 3 4 5 6 
#
# 1 0.074767 0.057496 0.009663 0.000000 0.000000 0.000000
# 2 0.057496 0.095551 0.005261 0.000000 0.000000 0.000000
# 3 0.009663 0.005261 0.015339 0.000000 0.000000 0.000000
# 4 0.000000 0.000000 0.000000 0.032914 0.000000 0.000000
# 5 0.000000 0.000000 0.000000 0.000000 0.027895 0.000000
# 6 0.000000 0.000000 0.000000 0.000000 0.000000 0.048068
#
#
# Mechanical properties :
#
#
# Convention : Reuss Voigt Hill
#
# Bulk Modulus (GPa) = 3.02574 7.75550 5.39062
# Shear Modulus (GPa) = 19.24116 26.86089 23.05102
#
# Velocity S-wave (km/s) = 2.97441 3.51436 3.25560
# Velocity P-wave (km/s) = 3.63145 4.47589 4.07560
#
# Compressibility (1/GPa) = 0.33049789
#
# Stress axis : x y z
#
# Youngs Moduli (GPa) = 13.37489 10.46560 65.19226
#
# Poissons Ratio (x) = -0.60173 -0.62996
# Poissons Ratio (y) = -0.76901 -0.34298
# Poissons Ratio (z) = -0.12924 -0.05506
#
# Static dielectric constant tensor:
#      x y z
#    x 1.780730 0.000000 0.000000 
#    y 0.000000 1.757640 0.000000 
#    z 0.000000 0.000000 1.794330 
# 
# From -- ./inp_files/7054.got.cif
#   From: 2010.05.17/outbox.cif.g08.bks.cpg/sg19_4_cif.got.tgz:7054.got - 2010.06.03 22:46:19.
