data_PCOD9314728
_publ_section_title
;
Structure prediction by ZEFSAII (Michael W. Deem and Ramdas Pophale) SiO2 
 PCOD9314728
Probable space group: P 21 21 21
;
_chemical_formula_sum "Si O2"
_cell_formula_units_Z 24
_cell_length_a 4.852703
_cell_length_b 8.120102
_cell_length_c 22.665533
_cell_angle_alpha 90.000000
_cell_angle_beta 90.000000
_cell_angle_gamma 90.000000
_cell_volume 893.122711
_symmetry_space_group_name_H-M "P 21 21 21"
_symmetry_group_IT_number 19
_symmetry_cell_setting 'orthorhombic'
loop_
_space_group_symop_operation_xyz
x,y,z
1/2-x,-y,1/2+z
1/2+x,1/2-y,-z
-x,1/2+y,1/2-z
loop_
_atom_site_type_symbol
_atom_site_label
_atom_site_fract_x
_atom_site_fract_y
_atom_site_fract_z
Si Si1 0.994024 0.862847 0.601972
Si Si2 0.511559 0.170667 0.857446
Si Si3 0.235518 0.726543 0.239154
Si Si4 0.345100 0.041449 0.513903
Si Si5 0.646340 0.890307 0.937959
Si Si6 0.247068 0.390811 0.310957
O O1 0.234071 0.799824 0.646645
O O2 0.734110 0.738606 0.599597
O O3 0.850613 0.025560 0.628889
O O4 0.181934 0.892827 0.544608
O O5 0.354278 0.163407 0.795762
O O6 0.659652 0.007856 0.881678
O O7 0.221622 0.545511 0.266377
O O8 0.533055 0.767297 0.215708
O O9 0.030546 0.787958 0.188406
O O10 0.654140 0.031364 0.489077
O O11 0.305002 0.195761 0.558454
O O12 0.169638 0.093927 0.457425
#
# Coordination Sequence:
#
# PCOD9314728 Si02
#       6
#     4   4   4   4   4   4
#     4  11  23  41  64  94 129 166 214 266 318 379
#     4  11  23  41  64  94 129 166 214 266 318 379
#     4  11  23  42  65  94 130 169 214 265 319 379
#     4  10  22  41  64  92 126 163 209 263 316 376
#     4  10  22  41  64  92 126 163 209 263 316 376
#     4  11  23  42  65  94 130 169 214 265 319 379
#
# _framework density 26.872004
#
# number of rings (size 3 to 8) (size 9 to 14) (size 15 to 20)
#    0.000    1.333    0.000    7.000    0.000    4.000 
#    0.000   13.333    0.000    0.000    0.000    0.000 
#    0.000    0.000    0.000    0.000    0.000    0.000 
#
# Total GULP energy -134330.469766 kJ/mol
# GULP energy per Si atom -5597.102907 kJ/mol
# Density = 2.681084 g / cm^3
# Si number density = 26.872004 Si / 1000 Ang^3
#
#
#
# Elastic Constant Matrix: (Units=GPa)
#
#
# Indices 1 2 3 4 5 6 
#
# 1 84.5631 26.2528 -3.3634 0.0000 0.0000 0.0000
# 2 26.2528 78.6629 14.7352 0.0000 0.0000 0.0000
# 3 -3.3634 14.7352 34.7267 0.0000 0.0000 0.0000
# 4 0.0000 0.0000 0.0000 39.3538 0.0000 0.0000
# 5 0.0000 0.0000 0.0000 0.0000 40.5312 0.0000
# 6 0.0000 0.0000 0.0000 0.0000 0.0000 30.2301
#
#
#
# Elastic Compliance Matrix: (Units=1/GPa)
#
#
# Indices 1 2 3 4 5 6 
#
# 1 0.013577 -0.005190 0.003517 0.000000 0.000000 0.000000
# 2 -0.005190 0.015794 -0.007204 0.000000 0.000000 0.000000
# 3 0.003517 -0.007204 0.032194 0.000000 0.000000 0.000000
# 4 0.000000 0.000000 0.000000 0.025411 0.000000 0.000000
# 5 0.000000 0.000000 0.000000 0.000000 0.024672 0.000000
# 6 0.000000 0.000000 0.000000 0.000000 0.000000 0.033080
#
#
# Mechanical properties :
#
#
# Convention : Reuss Voigt Hill
#
# Bulk Modulus (GPa) = 22.82569 30.35575 26.59072
# Shear Modulus (GPa) = 28.23508 32.71155 30.47331
#
# Velocity S-wave (km/s) = 3.24500 3.49278 3.37117
# Velocity P-wave (km/s) = 4.74897 5.25233 5.00698
#
# Compressibility (1/GPa) = 0.04381029
#
# Stress axis : x y z
#
# Youngs Moduli (GPa) = 73.65623 63.31503 31.06179
#
# Poissons Ratio (x) = 0.32860 -0.10925
# Poissons Ratio (y) = 0.38226 0.22378
# Poissons Ratio (z) = -0.25906 0.45614
#
# Static dielectric constant tensor:
#      x y z
#    x 1.994080 0.000000 0.000000 
#    y 0.000000 2.125050 0.000000 
#    z 0.000000 0.000000 2.190390 
# 
# From -- ./inp_files/7253.got.cif
#   From: 2010.05.17/outbox.cif.g08.bks.cpg/sg19_4_cif.got.tgz:7253.got - 2010.06.03 22:46:19.
