data_PCOD9314614
_publ_section_title
;
Structure prediction by ZEFSAII (Michael W. Deem and Ramdas Pophale) SiO2 
 PCOD9314614
Probable space group: P 21 21 21
;
_chemical_formula_sum "Si O2"
_cell_formula_units_Z 32
_cell_length_a 11.669622
_cell_length_b 23.132777
_cell_length_c 6.017891
_cell_angle_alpha 90.000000
_cell_angle_beta 90.000000
_cell_angle_gamma 90.000000
_cell_volume 1624.534270
_symmetry_space_group_name_H-M "P 21 21 21"
_symmetry_group_IT_number 19
_symmetry_cell_setting 'orthorhombic'
loop_
_space_group_symop_operation_xyz
x,y,z
1/2-x,-y,1/2+z
1/2+x,1/2-y,-z
-x,1/2+y,1/2-z
loop_
_atom_site_type_symbol
_atom_site_label
_atom_site_fract_x
_atom_site_fract_y
_atom_site_fract_z
Si Si1 0.953160 0.432327 0.775247
Si Si2 0.250001 0.876689 0.999998
Si Si3 0.931164 0.653913 0.345925
Si Si4 0.568837 0.653911 0.654076
Si Si5 0.499997 0.250000 0.182237
Si Si6 0.115996 0.655540 0.968952
Si Si7 0.953164 0.567674 0.724753
Si Si8 0.115992 0.344460 0.531048
O O1 0.842300 0.414694 0.631346
O O2 0.972530 0.500001 0.750001
O O3 0.058937 0.396213 0.673074
O O4 0.930788 0.406906 0.021544
O O5 0.175613 0.841522 0.179095
O O6 0.342305 0.914691 0.131347
O O7 0.324385 0.841521 0.820897
O O8 0.934413 0.704096 0.528304
O O9 0.930793 0.593096 0.478456
O O10 0.046049 0.657819 0.199265
O O11 0.565590 0.704095 0.471698
O O12 0.453950 0.657817 0.800730
O O13 0.414238 0.286192 0.335670
O O14 0.585753 0.213808 0.335678
O O15 0.250002 0.648257 0.000006
O O16 0.058943 0.603787 0.826926
#
# Coordination Sequence:
#
# PCOD9314614 Si02
#       8
#     4   4   4   4   4   4   4   4
#     4  10  23  41  66  98 129 171 215 266 330 386
#     4  10  22  38  66  94 138 162 212 266 330 390
#     4  10  22  44  61  98 134 165 216 267 326 392
#     4  10  22  44  61  98 134 165 216 267 326 392
#     4  10  22  44  64  96 128 174 216 268 324 386
#     4  10  23  46  63  96 130 171 222 266 324 390
#     4  10  23  41  66  98 129 171 215 266 330 386
#     4  10  23  46  63  96 130 171 222 266 324 390
#
# _framework density 19.697952000000001
#
# number of rings (size 3 to 8) (size 9 to 14) (size 15 to 20)
#    0.000    2.000    0.000    1.500    3.500    7.000 
#   58.500    0.000    0.000    0.000    0.000    0.000 
#    0.000    0.000    0.000    0.000    0.000    0.000 
#
# Total GULP energy -178899.060172 kJ/mol
# GULP energy per Si atom -5590.595630 kJ/mol
# Density = 1.965312 g / cm^3
# Si number density = 19.697952 Si / 1000 Ang^3
#
#
#
# Elastic Constant Matrix: (Units=GPa)
#
#
# Indices 1 2 3 4 5 6 
#
# 1 180.0207 52.4106 60.9577 0.0000 0.0000 0.0000
# 2 52.4106 111.5519 48.7559 0.0000 0.0000 0.0000
# 3 60.9577 48.7559 122.0027 0.0000 0.0000 0.0000
# 4 0.0000 0.0000 0.0000 10.0069 0.0000 0.0000
# 5 0.0000 0.0000 0.0000 0.0000 16.7454 0.0000
# 6 0.0000 0.0000 0.0000 0.0000 0.0000 9.0856
#
#
#
# Elastic Compliance Matrix: (Units=1/GPa)
#
#
# Indices 1 2 3 4 5 6 
#
# 1 0.007091 -0.002160 -0.002680 0.000000 0.000000 0.000000
# 2 -0.002160 0.011520 -0.003524 0.000000 0.000000 0.000000
# 3 -0.002680 -0.003524 0.010944 0.000000 0.000000 0.000000
# 4 0.000000 0.000000 0.000000 0.099931 0.000000 0.000000
# 5 0.000000 0.000000 0.000000 0.000000 0.059718 0.000000
# 6 0.000000 0.000000 0.000000 0.000000 0.000000 0.110065
#
#
# Mechanical properties :
#
#
# Convention : Reuss Voigt Hill
#
# Bulk Modulus (GPa) = 77.96580 81.98039 79.97310
# Shear Modulus (GPa) = 15.61169 23.93098 19.77134
#
# Velocity S-wave (km/s) = 2.81829 3.48932 3.17160
# Velocity P-wave (km/s) = 7.08921 7.61202 7.35526
#
# Compressibility (1/GPa) = 0.01282614
#
# Stress axis : x y z
#
# Youngs Moduli (GPa) = 141.01771 86.80694 91.37585
#
# Poissons Ratio (x) = 0.18755 0.24486
# Poissons Ratio (y) = 0.30467 0.32203
# Poissons Ratio (z) = 0.37789 0.30592
#
# Static dielectric constant tensor:
#      x y z
#    x 1.656520 0.000000 0.000000 
#    y 0.000000 1.685330 0.000000 
#    z 0.000000 0.000000 1.717130 
# 
# From -- ./inp_files/1222.got.cif
#   From: 2010.05.17/outbox.cif.g08.bks.cpg/sg19_1_cif.got.tgz:1222.got - 2010.06.03 22:46:19.
