data_PCOD9314576
_publ_section_title
;
Structure prediction by ZEFSAII (Michael W. Deem and Ramdas Pophale) SiO2 
 PCOD9314576
Probable space group: P 21 21 21
;
_chemical_formula_sum "Si O2"
_cell_formula_units_Z 28
_cell_length_a 15.454746
_cell_length_b 7.536606
_cell_length_c 9.765861
_cell_angle_alpha 90.000000
_cell_angle_beta 90.000000
_cell_angle_gamma 90.000000
_cell_volume 1137.491663
_symmetry_space_group_name_H-M "P 21 21 21"
_symmetry_group_IT_number 19
_symmetry_cell_setting 'orthorhombic'
loop_
_space_group_symop_operation_xyz
x,y,z
1/2-x,-y,1/2+z
1/2+x,1/2-y,-z
-x,1/2+y,1/2-z
loop_
_atom_site_type_symbol
_atom_site_label
_atom_site_fract_x
_atom_site_fract_y
_atom_site_fract_z
Si Si1 0.389538 0.174682 0.789800
Si Si2 0.109743 0.342330 0.831028
Si Si3 0.758417 0.916711 0.230237
Si Si4 0.183566 0.792911 0.002818
Si Si5 0.990295 0.196944 0.596682
Si Si6 0.248573 0.825481 0.516564
Si Si7 0.071785 0.234072 0.297313
O O1 0.349382 0.255446 0.652266
O O2 0.330027 0.223437 0.916627
O O3 0.488088 0.235284 0.796351
O O4 0.389056 0.960700 0.768734
O O5 0.190165 0.426724 0.744986
O O6 0.050609 0.500382 0.891653
O O7 0.160689 0.240442 0.950947
O O8 0.049833 0.233614 0.727318
O O9 0.733793 0.859861 0.075500
O O10 0.733114 0.763112 0.338002
O O11 0.861684 0.893781 0.228838
O O12 0.095288 0.821415 0.915232
O O13 0.243285 0.963447 0.017160
O O14 0.041782 0.226656 0.455616
#
# Coordination Sequence:
#
# PCOD9314576 Si02
#       7
#     4   4   4   4   4   4   4
#     4  11  26  42  72 101 139 185 232 291 351 419
#     4  11  27  43  70 102 140 184 237 288 351 425
#     4  11  26  45  70 103 140 177 238 286 351 420
#     4  10  21  47  68  98 134 180 233 282 352 420
#     4  10  25  45  70  99 142 184 230 292 353 419
#     4  12  24  42  70 101 135 182 230 293 343 420
#     4  11  25  44  70 102 140 184 234 290 351 419
#
# _framework density 24.615565
#
# number of rings (size 3 to 8) (size 9 to 14) (size 15 to 20)
#    0.000    1.143    2.857    0.857    8.000    5.714 
#    0.000    0.000    0.000    0.000    0.000    0.000 
#    0.000    0.000    0.000    0.000    0.000    0.000 
#
# Total GULP energy -156759.062678 kJ/mol
# GULP energy per Si atom -5598.537953 kJ/mol
# Density = 2.455954 g / cm^3
# Si number density = 24.615565 Si / 1000 Ang^3
#
#
#
# Elastic Constant Matrix: (Units=GPa)
#
#
# Indices 1 2 3 4 5 6 
#
# 1 129.8036 11.0383 32.4047 0.0000 0.0000 0.0000
# 2 11.0383 61.8579 1.5505 0.0000 0.0000 0.0000
# 3 32.4047 1.5505 69.0926 0.0000 0.0000 0.0000
# 4 0.0000 0.0000 0.0000 23.6760 0.0000 0.0000
# 5 0.0000 0.0000 0.0000 0.0000 44.3517 0.0000
# 6 0.0000 0.0000 0.0000 0.0000 0.0000 46.9164
#
#
#
# Elastic Compliance Matrix: (Units=1/GPa)
#
#
# Indices 1 2 3 4 5 6 
#
# 1 0.008859 -0.001477 -0.004122 0.000000 0.000000 0.000000
# 2 -0.001477 0.016422 0.000324 0.000000 0.000000 0.000000
# 3 -0.004122 0.000324 0.016399 0.000000 0.000000 0.000000
# 4 0.000000 0.000000 0.000000 0.042237 0.000000 0.000000
# 5 0.000000 0.000000 0.000000 0.000000 0.022547 0.000000
# 6 0.000000 0.000000 0.000000 0.000000 0.000000 0.021315
#
#
# Mechanical properties :
#
#
# Convention : Reuss Voigt Hill
#
# Bulk Modulus (GPa) = 32.12329 38.97123 35.54726
# Shear Modulus (GPa) = 33.62398 37.37285 35.49841
#
# Velocity S-wave (km/s) = 3.69990 3.90071 3.80164
# Velocity P-wave (km/s) = 5.59738 6.01280 5.80881
#
# Compressibility (1/GPa) = 0.03113006
#
# Stress axis : x y z
#
# Youngs Moduli (GPa) = 112.88591 60.89537 60.97909
#
# Poissons Ratio (x) = 0.08997 0.25133
# Poissons Ratio (y) = 0.16679 -0.01978
# Poissons Ratio (z) = 0.46526 -0.01976
#
# Static dielectric constant tensor:
#      x y z
#    x 1.958920 0.000000 0.000000 
#    y 0.000000 2.064990 0.000000 
#    z 0.000000 0.000000 1.889180 
# 
# From -- ./inp_files/3855.got.cif
#   From: 2010.05.17/outbox.cif.g08.bks.cpg/sg19_2_cif.got.tgz:3855.got - 2010.06.03 22:46:19.
