data_PCOD9314429
_publ_section_title
;
Structure prediction by ZEFSAII (Michael W. Deem and Ramdas Pophale) SiO2 
 PCOD9314429
Probable space group: P 21 21 21
;
_chemical_formula_sum "Si O2"
_cell_formula_units_Z 32
_cell_length_a 11.901821
_cell_length_b 9.078100
_cell_length_c 13.982087
_cell_angle_alpha 90.000000
_cell_angle_beta 90.000000
_cell_angle_gamma 90.000000
_cell_volume 1510.707470
_symmetry_space_group_name_H-M "P 21 21 21"
_symmetry_group_IT_number 19
_symmetry_cell_setting 'orthorhombic'
loop_
_space_group_symop_operation_xyz
x,y,z
1/2-x,-y,1/2+z
1/2+x,1/2-y,-z
-x,1/2+y,1/2-z
loop_
_atom_site_type_symbol
_atom_site_label
_atom_site_fract_x
_atom_site_fract_y
_atom_site_fract_z
Si Si1 0.330187 0.807084 0.121964
Si Si2 0.410890 0.127192 0.117603
Si Si3 0.646125 0.159916 0.181223
Si Si4 0.850316 0.249485 0.076472
Si Si5 0.077376 0.924904 0.136805
Si Si6 0.094337 0.461563 0.518338
Si Si7 0.688999 0.878383 0.293075
Si Si8 0.937363 0.764455 0.297418
O O1 0.376849 0.723379 0.214347
O O2 0.199982 0.851612 0.133556
O O3 0.349640 0.696584 0.033891
O O4 0.400516 0.954699 0.119392
O O5 0.540758 0.170050 0.111640
O O6 0.361347 0.213713 0.209038
O O7 0.340115 0.175440 0.025491
O O8 0.744563 0.264066 0.143353
O O9 0.674830 0.989210 0.204901
O O10 0.965395 0.299325 0.125372
O O11 0.852820 0.073837 0.057936
O O12 0.992960 0.819562 0.197677
O O13 0.081741 0.087508 0.187703
O O14 0.028630 0.942650 0.028700
O O15 0.119446 0.548416 0.617928
O O16 0.821507 0.853297 0.312990
#
# Coordination Sequence:
#
# PCOD9314429 Si02
#       8
#     4   4   4   4   4   4   4   4
#     4  11  23  45  64  99 135 173 223 275 335 400
#     4  11  24  39  67  98 134 173 220 280 331 399
#     4  11  23  44  67  93 134 178 224 266 347 406
#     4  10  23  41  63  99 120 179 221 270 331 390
#     4  11  23  42  68  99 131 172 229 277 326 402
#     4   9  23  39  62  93 133 170 213 270 342 385
#     4  10  21  41  65  92 132 178 218 270 334 397
#     4  11  22  41  68  95 129 169 228 278 326 391
#
# _framework density 21.182129
#
# number of rings (size 3 to 8) (size 9 to 14) (size 15 to 20)
#    0.000    1.500    2.500    2.250    5.250    3.000 
#    0.000    2.500    0.000    0.000    0.000    0.000 
#    0.000    0.000    0.000    0.000    0.000    0.000 
#
# Total GULP energy -178290.367939 kJ/mol
# GULP energy per Si atom -5571.573998 kJ/mol
# Density = 2.113392 g / cm^3
# Si number density = 21.182129 Si / 1000 Ang^3
#
#
#
# Elastic Constant Matrix: (Units=GPa)
#
#
# Indices 1 2 3 4 5 6 
#
# 1 84.7969 12.2356 20.6926 0.0000 0.0000 0.0000
# 2 12.2356 84.5505 0.8886 0.0000 0.0000 0.0000
# 3 20.6926 0.8886 47.2593 0.0000 0.0000 0.0000
# 4 0.0000 0.0000 0.0000 19.4555 0.0000 0.0000
# 5 0.0000 0.0000 0.0000 0.0000 31.1612 0.0000
# 6 0.0000 0.0000 0.0000 0.0000 0.0000 26.3891
#
#
#
# Elastic Compliance Matrix: (Units=1/GPa)
#
#
# Indices 1 2 3 4 5 6 
#
# 1 0.013500 -0.001892 -0.005875 0.000000 0.000000 0.000000
# 2 -0.001892 0.012095 0.000601 0.000000 0.000000 0.000000
# 3 -0.005875 0.000601 0.023721 0.000000 0.000000 0.000000
# 4 0.000000 0.000000 0.000000 0.051399 0.000000 0.000000
# 5 0.000000 0.000000 0.000000 0.000000 0.032091 0.000000
# 6 0.000000 0.000000 0.000000 0.000000 0.000000 0.037894
#
#
# Mechanical properties :
#
#
# Convention : Reuss Voigt Hill
#
# Bulk Modulus (GPa) = 28.58526 31.58223 30.08375
# Shear Modulus (GPa) = 25.42026 27.58717 26.50371
#
# Velocity S-wave (km/s) = 3.46798 3.61276 3.54111
# Velocity P-wave (km/s) = 5.43692 5.68726 5.56350
#
# Compressibility (1/GPa) = 0.03498306
#
# Stress axis : x y z
#
# Youngs Moduli (GPa) = 74.07644 82.68082 42.15667
#
# Poissons Ratio (x) = 0.15642 0.24768
# Poissons Ratio (y) = 0.14014 -0.02533
# Poissons Ratio (z) = 0.43522 -0.04969
#
# Static dielectric constant tensor:
#      x y z
#    x 1.787810 0.000000 0.000000 
#    y 0.000000 1.813600 0.000000 
#    z 0.000000 0.000000 1.795180 
# 
# From -- ./inp_files/6116.got.cif
#   From: 2010.05.17/outbox.cif.g08.bks.cpg/sg19_4_cif.got.tgz:6116.got - 2010.06.03 22:46:19.
