data_PCOD9314009
_publ_section_title
;
Structure prediction by ZEFSAII (Michael W. Deem and Ramdas Pophale) SiO2 
 PCOD9314009
Probable space group: P 21 21 21
;
_chemical_formula_sum "Si O2"
_cell_formula_units_Z 32
_cell_length_a 12.646379
_cell_length_b 8.257885
_cell_length_c 13.838013
_cell_angle_alpha 90.000000
_cell_angle_beta 90.000000
_cell_angle_gamma 90.000000
_cell_volume 1445.136126
_symmetry_space_group_name_H-M "P 21 21 21"
_symmetry_group_IT_number 19
_symmetry_cell_setting 'orthorhombic'
loop_
_space_group_symop_operation_xyz
x,y,z
1/2-x,-y,1/2+z
1/2+x,1/2-y,-z
-x,1/2+y,1/2-z
loop_
_atom_site_type_symbol
_atom_site_label
_atom_site_fract_x
_atom_site_fract_y
_atom_site_fract_z
Si Si1 0.566419 0.291651 0.365567
Si Si2 0.496495 0.069504 0.533672
Si Si3 0.264575 0.310876 0.157597
Si Si4 0.367789 0.192840 0.803987
Si Si5 0.932031 0.932300 0.240094
Si Si6 0.280394 0.386552 0.951679
Si Si7 0.731124 0.542941 0.887251
Si Si8 0.604820 0.026728 0.206023
O O1 0.501778 0.182879 0.441130
O O2 0.677871 0.332517 0.417941
O O3 0.499156 0.451064 0.341223
O O4 0.587404 0.192553 0.265898
O O5 0.522922 0.139941 0.639981
O O6 0.374843 0.014159 0.549563
O O7 0.599136 0.950902 0.527655
O O8 0.165454 0.325953 0.227702
O O9 0.357896 0.402549 0.210782
O O10 0.285902 0.127565 0.131885
O O11 0.231021 0.392816 0.056993
O O12 0.474391 0.091572 0.816133
O O13 0.398688 0.380123 0.774980
O O14 0.301718 0.212792 0.901689
O O15 0.305496 0.112344 0.716699
O O16 0.199042 0.464274 0.874088
#
# Coordination Sequence:
#
# PCOD9314009 Si02
#       8
#     4   4   4   4   4   4   4   4
#     4  12  26  48  70 103 148 191 240 294 366 438
#     4  10  23  42  74 100 138 179 244 296 350 427
#     4  12  23  44  73 102 146 184 239 291 366 429
#     4  10  20  43  67 100 139 177 235 295 348 418
#     4  10  20  39  70 101 132 184 225 296 353 410
#     4  11  23  45  70 108 138 192 237 301 361 425
#     4  11  25  46  66 105 137 190 239 293 356 428
#     4  12  26  47  74 101 148 193 233 304 370 435
#
# _framework density 22.143243999999999
#
# number of rings (size 3 to 8) (size 9 to 14) (size 15 to 20)
#    0.000    1.000    5.000    3.000    1.750    2.000 
#   15.750    0.000    0.000    0.000    0.000    0.000 
#    0.000    0.000    0.000    0.000    0.000    0.000 
#
# Total GULP energy -178362.451083 kJ/mol
# GULP energy per Si atom -5573.826596 kJ/mol
# Density = 2.209284 g / cm^3
# Si number density = 22.143244 Si / 1000 Ang^3
#
#
#
# Elastic Constant Matrix: (Units=GPa)
#
#
# Indices 1 2 3 4 5 6 
#
# 1 104.2511 16.6552 19.8131 0.0000 0.0000 0.0000
# 2 16.6552 49.4234 8.2210 0.0000 0.0000 0.0000
# 3 19.8131 8.2210 72.0428 0.0000 0.0000 0.0000
# 4 0.0000 0.0000 0.0000 15.4264 0.0000 0.0000
# 5 0.0000 0.0000 0.0000 0.0000 20.7315 0.0000
# 6 0.0000 0.0000 0.0000 0.0000 0.0000 30.7007
#
#
#
# Elastic Compliance Matrix: (Units=1/GPa)
#
#
# Indices 1 2 3 4 5 6 
#
# 1 0.010579 -0.003141 -0.002551 0.000000 0.000000 0.000000
# 2 -0.003141 0.021557 -0.001596 0.000000 0.000000 0.000000
# 3 -0.002551 -0.001596 0.014764 0.000000 0.000000 0.000000
# 4 0.000000 0.000000 0.000000 0.064824 0.000000 0.000000
# 5 0.000000 0.000000 0.000000 0.000000 0.048236 0.000000
# 6 0.000000 0.000000 0.000000 0.000000 0.000000 0.032573
#
#
# Mechanical properties :
#
#
# Convention : Reuss Voigt Hill
#
# Bulk Modulus (GPa) = 30.93608 35.01065 32.97337
# Shear Modulus (GPa) = 22.94806 25.44023 24.19415
#
# Velocity S-wave (km/s) = 3.22272 3.39321 3.30907
# Velocity P-wave (km/s) = 5.27723 5.58544 5.43352
#
# Compressibility (1/GPa) = 0.03232471
#
# Stress axis : x y z
#
# Youngs Moduli (GPa) = 94.52875 46.38818 67.73069
#
# Poissons Ratio (x) = 0.14569 0.17278
# Poissons Ratio (y) = 0.29688 0.10811
# Poissons Ratio (z) = 0.24114 0.07405
#
# Static dielectric constant tensor:
#      x y z
#    x 1.885890 0.000000 0.000000 
#    y 0.000000 1.825560 0.000000 
#    z 0.000000 0.000000 1.828890 
# 
# From -- ./inp_files/6132.got.cif
#   From: 2010.05.17/outbox.cif.g08.bks.cpg/sg19_4_cif.got.tgz:6132.got - 2010.06.03 22:46:19.
