data_PCOD9314784
_publ_section_title
;
Structure prediction by ZEFSAII (Michael W. Deem and Ramdas Pophale) SiO2 
 PCOD9314784
Probable space group: P 21 21 21
;
_chemical_formula_sum "Si O2"
_cell_formula_units_Z 20
_cell_length_a 9.654095
_cell_length_b 10.466339
_cell_length_c 7.206967
_cell_angle_alpha 90.000000
_cell_angle_beta 90.000000
_cell_angle_gamma 90.000000
_cell_volume 728.213790
_symmetry_space_group_name_H-M "P 21 21 21"
_symmetry_group_IT_number 19
_symmetry_cell_setting 'orthorhombic'
loop_
_space_group_symop_operation_xyz
x,y,z
1/2-x,-y,1/2+z
1/2+x,1/2-y,-z
-x,1/2+y,1/2-z
loop_
_atom_site_type_symbol
_atom_site_label
_atom_site_fract_x
_atom_site_fract_y
_atom_site_fract_z
Si Si1 0.455741 0.231743 0.345654
Si Si2 0.226007 0.299457 0.815573
Si Si3 0.699554 0.934295 0.366960
Si Si4 0.060284 0.983442 0.114832
Si Si5 0.366516 0.073743 0.998055
O O1 0.608454 0.279621 0.291656
O O2 0.348032 0.343072 0.300658
O O3 0.452895 0.163022 0.541284
O O4 0.431271 0.117202 0.193636
O O5 0.244660 0.426529 0.695549
O O6 0.342352 0.204345 0.883689
O O7 0.184420 0.359774 0.016549
O O8 0.566529 0.950603 0.503992
O O9 0.211736 0.025817 0.044519
O O10 0.061545 0.009219 0.336481
#
# Coordination Sequence:
#
# PCOD9314784 Si02
#       5
#     4   4   4   4   4
#     4  10  22  42  62  88 128 162 208 260 304 366
#     4  10  23  41  62  91 126 160 205 259 308 366
#     4  10  23  41  62  91 126 160 205 259 308 366
#     4  11  22  40  64  93 123 165 210 252 309 370
#     4  11  22  40  64  93 123 165 210 252 309 370
#
# _framework density 27.464462000000001
#
# number of rings (size 3 to 8) (size 9 to 14) (size 15 to 20)
#    0.000    1.600    4.000    0.000    5.600    0.000 
#    0.000    8.000    0.000    0.000    0.000    0.000 
#    0.000    0.000    0.000    0.000    0.000    0.000 
#
# Total GULP energy -111848.069750 kJ/mol
# GULP energy per Si atom -5592.403488 kJ/mol
# Density = 2.740195 g / cm^3
# Si number density = 27.464462 Si / 1000 Ang^3
#
#
#
# Elastic Constant Matrix: (Units=GPa)
#
#
# Indices 1 2 3 4 5 6 
#
# 1 77.9306 7.2294 32.0358 0.0000 0.0000 0.0000
# 2 7.2294 49.1743 -14.1481 0.0000 0.0000 0.0000
# 3 32.0358 -14.1481 104.1553 0.0000 0.0000 0.0000
# 4 0.0000 0.0000 0.0000 35.2717 0.0000 0.0000
# 5 0.0000 0.0000 0.0000 0.0000 39.5107 0.0000
# 6 0.0000 0.0000 0.0000 0.0000 0.0000 24.0150
#
#
#
# Elastic Compliance Matrix: (Units=1/GPa)
#
#
# Indices 1 2 3 4 5 6 
#
# 1 0.015328 -0.003757 -0.005225 0.000000 0.000000 0.000000
# 2 -0.003757 0.022084 0.004155 0.000000 0.000000 0.000000
# 3 -0.005225 0.004155 0.011773 0.000000 0.000000 0.000000
# 4 0.000000 0.000000 0.000000 0.028351 0.000000 0.000000
# 5 0.000000 0.000000 0.000000 0.000000 0.025310 0.000000
# 6 0.000000 0.000000 0.000000 0.000000 0.000000 0.041641
#
#
# Mechanical properties :
#
#
# Convention : Reuss Voigt Hill
#
# Bulk Modulus (GPa) = 25.29620 31.27714 28.28667
# Shear Modulus (GPa) = 29.88353 33.50236 31.69295
#
# Velocity S-wave (km/s) = 3.30218 3.49642 3.40069
# Velocity P-wave (km/s) = 4.87542 5.26430 5.07359
#
# Compressibility (1/GPa) = 0.03953162
#
# Stress axis : x y z
#
# Youngs Moduli (GPa) = 65.23869 45.28235 84.94321
#
# Poissons Ratio (x) = 0.17012 0.44383
# Poissons Ratio (y) = 0.24509 -0.35296
# Poissons Ratio (z) = 0.34087 -0.18816
#
# Static dielectric constant tensor:
#      x y z
#    x 2.243420 0.000000 0.000000 
#    y 0.000000 2.204740 0.000000 
#    z 0.000000 0.000000 2.203110 
# 
# From -- ./inp_files/780.got.cif
#   From: 2010.05.17/outbox.cif.g08.bks.cpg/sg19_1_cif.got.tgz:780.got - 2010.06.03 22:46:19.
