data_PCOD9314632
_publ_section_title
;
Structure prediction by ZEFSAII (Michael W. Deem and Ramdas Pophale) SiO2 
 PCOD9314632
Probable space group: P 21 21 21
;
_chemical_formula_sum "Si O2"
_cell_formula_units_Z 28
_cell_length_a 8.285784
_cell_length_b 28.038513
_cell_length_c 5.457627
_cell_angle_alpha 90.000000
_cell_angle_beta 90.000000
_cell_angle_gamma 90.000000
_cell_volume 1267.921703
_symmetry_space_group_name_H-M "P 21 21 21"
_symmetry_group_IT_number 19
_symmetry_cell_setting 'orthorhombic'
loop_
_space_group_symop_operation_xyz
x,y,z
1/2-x,-y,1/2+z
1/2+x,1/2-y,-z
-x,1/2+y,1/2-z
loop_
_atom_site_type_symbol
_atom_site_label
_atom_site_fract_x
_atom_site_fract_y
_atom_site_fract_z
Si Si1 0.943797 0.400426 0.429471
Si Si2 0.065082 0.097629 0.601615
Si Si3 0.059864 0.842462 0.583438
Si Si4 0.251896 0.469641 0.399813
Si Si5 0.414771 0.306418 0.628184
Si Si6 0.892010 0.763223 0.832958
Si Si7 0.392306 0.826667 0.466859
O O1 0.752313 0.416227 0.457436
O O2 0.987958 0.376573 0.690951
O O3 0.086953 0.438402 0.385683
O O4 0.945352 0.366540 0.185071
O O5 0.921374 0.059730 0.584275
O O6 0.995880 0.144988 0.464099
O O7 0.079786 0.120191 0.872580
O O8 0.244203 0.828791 0.650493
O O9 0.963947 0.793669 0.611504
O O10 0.240961 0.500105 0.649345
O O11 0.489068 0.257187 0.533544
O O12 0.232985 0.299737 0.550248
O O13 0.442024 0.308544 0.918200
O O14 0.831447 0.712795 0.725190
#
# Coordination Sequence:
#
# PCOD9314632 Si02
#       7
#     4   4   4   4   4   4   4
#     4  11  25  47  74 102 142 182 226 289 359 425
#     4  10  25  45  69 101 139 189 227 290 362 424
#     4  11  23  42  67  97 140 188 239 279 340 412
#     4  12  29  49  78 111 138 171 236 295 366 447
#     4  11  22  40  62  93 142 187 246 290 343 405
#     4  11  24  34  60  95 139 193 245 299 326 395
#     4  10  22  39  62  93 138 186 243 284 342 406
#
# _framework density 22.083382
#
# number of rings (size 3 to 8) (size 9 to 14) (size 15 to 20)
#    0.000    1.143    1.429    3.429   10.000    2.286 
#    0.000    0.000    0.000    0.000    0.000    0.000 
#    0.000    0.000    0.000    0.000    0.000    0.000 
#
# Total GULP energy -155884.045373 kJ/mol
# GULP energy per Si atom -5567.287335 kJ/mol
# Density = 2.203312 g / cm^3
# Si number density = 22.083382 Si / 1000 Ang^3
#
#
#
# Elastic Constant Matrix: (Units=GPa)
#
#
# Indices 1 2 3 4 5 6 
#
# 1 98.4937 54.3764 5.3542 0.0000 0.0000 0.0000
# 2 54.3764 89.4317 31.6097 0.0000 0.0000 0.0000
# 3 5.3542 31.6097 72.6929 0.0000 0.0000 0.0000
# 4 0.0000 0.0000 0.0000 36.0562 0.0000 0.0000
# 5 0.0000 0.0000 0.0000 0.0000 28.6363 0.0000
# 6 0.0000 0.0000 0.0000 0.0000 0.0000 43.9154
#
#
#
# Elastic Compliance Matrix: (Units=1/GPa)
#
#
# Indices 1 2 3 4 5 6 
#
# 1 0.016050 -0.011037 0.003617 0.000000 0.000000 0.000000
# 2 -0.011037 0.020802 -0.008233 0.000000 0.000000 0.000000
# 3 0.003617 -0.008233 0.017070 0.000000 0.000000 0.000000
# 4 0.000000 0.000000 0.000000 0.027734 0.000000 0.000000
# 5 0.000000 0.000000 0.000000 0.000000 0.034921 0.000000
# 6 0.000000 0.000000 0.000000 0.000000 0.000000 0.022771
#
#
# Mechanical properties :
#
#
# Convention : Reuss Voigt Hill
#
# Bulk Modulus (GPa) = 44.21487 49.25544 46.73515
# Shear Modulus (GPa) = 28.05958 33.00678 30.53318
#
# Velocity S-wave (km/s) = 3.56844 3.87026 3.72241
# Velocity P-wave (km/s) = 6.08635 6.50573 6.29953
#
# Compressibility (1/GPa) = 0.02261683
#
# Stress axis : x y z
#
# Youngs Moduli (GPa) = 62.30675 48.07152 58.58231
#
# Poissons Ratio (x) = 0.53057 -0.21190
# Poissons Ratio (y) = 0.68768 0.48229
# Poissons Ratio (z) = -0.22538 0.39576
#
# Static dielectric constant tensor:
#      x y z
#    x 1.920190 0.000000 0.000000 
#    y 0.000000 1.772290 0.000000 
#    z 0.000000 0.000000 1.928870 
# 
# From -- ./inp_files/528.got.cif
#   From: 2010.05.17/outbox.cif.g08.bks.cpg/sg19_1_cif.got.tgz:528.got - 2010.06.03 22:46:19.
