data_PCOD9314522
_publ_section_title
;
Structure prediction by ZEFSAII (Michael W. Deem and Ramdas Pophale) SiO2 
 PCOD9314522
Probable space group: P 21 21 21
;
_chemical_formula_sum "Si O2"
_cell_formula_units_Z 24
_cell_length_a 30.217636
_cell_length_b 6.914243
_cell_length_c 5.107800
_cell_angle_alpha 90.000000
_cell_angle_beta 90.000000
_cell_angle_gamma 90.000000
_cell_volume 1067.183269
_symmetry_space_group_name_H-M "P 21 21 21"
_symmetry_group_IT_number 19
_symmetry_cell_setting 'orthorhombic'
loop_
_space_group_symop_operation_xyz
x,y,z
1/2-x,-y,1/2+z
1/2+x,1/2-y,-z
-x,1/2+y,1/2-z
loop_
_atom_site_type_symbol
_atom_site_label
_atom_site_fract_x
_atom_site_fract_y
_atom_site_fract_z
Si Si1 0.604106 0.366380 0.592483
Si Si2 0.278843 0.505942 0.626249
Si Si3 0.354959 0.202584 0.613165
Si Si4 0.948559 0.168294 0.559048
Si Si5 0.349092 0.796865 0.408670
Si Si6 0.477669 0.102253 0.943771
O O1 0.630916 0.253208 0.372794
O O2 0.554256 0.415134 0.517282
O O3 0.625712 0.580151 0.642029
O O4 0.613034 0.269814 0.871041
O O5 0.255057 0.556915 0.897843
O O6 0.314668 0.339358 0.678858
O O7 0.306548 0.681333 0.499797
O O8 0.395996 0.316856 0.484822
O O9 0.340121 0.027177 0.424107
O O10 0.968358 0.321024 0.346832
O O11 0.962269 0.238848 0.846866
O O12 0.972930 0.968852 0.494476
#
# Coordination Sequence:
#
# PCOD9314522 Si02
#       6
#     4   4   4   4   4   4
#     4   9  19  40  66  86 127 172 208 243 318 378
#     4  12  28  42  66 102 127 158 222 276 329 389
#     4   9  24  43  68  87 130 173 211 254 332 383
#     4  11  23  39  63  94 130 170 213 260 314 375
#     4  10  21  43  68  90 126 169 208 263 315 391
#     4  11  21  39  61  97 130 166 214 260 300 378
#
# _framework density 22.489107000000001
#
# number of rings (size 3 to 8) (size 9 to 14) (size 15 to 20)
#    1.000    0.667    1.667    2.000    2.333    4.000 
#    0.000    0.000    0.000    0.000    0.000    0.000 
#    0.000    0.000    0.000    0.000    0.000    0.000 
#
# Total GULP energy -134042.025908 kJ/mol
# GULP energy per Si atom -5585.084413 kJ/mol
# Density = 2.243792 g / cm^3
# Si number density = 22.489107 Si / 1000 Ang^3
#
#
#
# Elastic Constant Matrix: (Units=GPa)
#
#
# Indices 1 2 3 4 5 6 
#
# 1 97.7160 32.8552 8.7241 0.0000 0.0000 0.0000
# 2 32.8552 43.6861 2.0827 0.0000 0.0000 0.0000
# 3 8.7241 2.0827 66.7651 0.0000 0.0000 0.0000
# 4 0.0000 0.0000 0.0000 18.1006 0.0000 0.0000
# 5 0.0000 0.0000 0.0000 0.0000 26.4185 0.0000
# 6 0.0000 0.0000 0.0000 0.0000 0.0000 35.6239
#
#
#
# Elastic Compliance Matrix: (Units=1/GPa)
#
#
# Indices 1 2 3 4 5 6 
#
# 1 0.013843 -0.010340 -0.001486 0.000000 0.000000 0.000000
# 2 -0.010340 0.030648 0.000395 0.000000 0.000000 0.000000
# 3 -0.001486 0.000395 0.015160 0.000000 0.000000 0.000000
# 4 0.000000 0.000000 0.000000 0.055247 0.000000 0.000000
# 5 0.000000 0.000000 0.000000 0.000000 0.037852 0.000000
# 6 0.000000 0.000000 0.000000 0.000000 0.000000 0.028071
#
#
# Mechanical properties :
#
#
# Convention : Reuss Voigt Hill
#
# Bulk Modulus (GPa) = 27.18251 32.83237 30.00744
# Shear Modulus (GPa) = 23.15381 26.99561 25.07471
#
# Velocity S-wave (km/s) = 3.21215 3.46842 3.34274
# Velocity P-wave (km/s) = 5.08630 5.53812 5.31701
#
# Compressibility (1/GPa) = 0.03678837
#
# Stress axis : x y z
#
# Youngs Moduli (GPa) = 72.23785 32.62815 65.96410
#
# Poissons Ratio (x) = 0.33738 0.09804
# Poissons Ratio (y) = 0.74696 -0.02606
# Poissons Ratio (z) = 0.10737 -0.01289
#
# Static dielectric constant tensor:
#      x y z
#    x 1.846920 0.000000 0.000000 
#    y 0.000000 1.869960 0.000000 
#    z 0.000000 0.000000 1.815090 
# 
# From -- ./inp_files/2234.got.cif
#   From: 2010.05.17/outbox.cif.g08.bks.cpg/sg19_2_cif.got.tgz:2234.got - 2010.06.03 22:46:19.
