data_PCOD9314074
_publ_section_title
;
Structure prediction by ZEFSAII (Michael W. Deem and Ramdas Pophale) SiO2 
 PCOD9314074
Probable space group: P 21 21 21
;
_chemical_formula_sum "Si O2"
_cell_formula_units_Z 32
_cell_length_a 15.542902
_cell_length_b 5.648211
_cell_length_c 15.423179
_cell_angle_alpha 90.000000
_cell_angle_beta 90.000000
_cell_angle_gamma 90.000000
_cell_volume 1353.994562
_symmetry_space_group_name_H-M "P 21 21 21"
_symmetry_group_IT_number 19
_symmetry_cell_setting 'orthorhombic'
loop_
_space_group_symop_operation_xyz
x,y,z
1/2-x,-y,1/2+z
1/2+x,1/2-y,-z
-x,1/2+y,1/2-z
loop_
_atom_site_type_symbol
_atom_site_label
_atom_site_fract_x
_atom_site_fract_y
_atom_site_fract_z
Si Si1 0.807886 0.650191 0.827069
Si Si2 0.108765 0.482657 0.796989
Si Si3 0.683115 0.966559 0.472886
Si Si4 0.551609 0.742461 0.363994
Si Si5 0.500880 0.427522 0.865214
Si Si6 0.679748 0.419950 0.940365
Si Si7 0.740554 0.711280 0.107988
Si Si8 0.418162 0.930216 0.827449
O O1 0.878833 0.446598 0.829319
O O2 0.714767 0.560306 0.855868
O O3 0.820784 0.800836 0.740746
O O4 0.830350 0.812889 0.909696
O O5 0.054123 0.558610 0.711734
O O6 0.159553 0.699017 0.838414
O O7 0.042764 0.366750 0.864240
O O8 0.595516 0.824225 0.453738
O O9 0.764961 0.819823 0.437979
O O10 0.713080 0.059746 0.564950
O O11 0.578558 0.400639 0.933026
O O12 0.457811 0.689925 0.872359
O O13 0.545246 0.422702 0.769744
O O14 0.445075 0.186062 0.865495
O O15 0.709170 0.550336 0.028207
O O16 0.815434 0.592355 0.163499
#
# Coordination Sequence:
#
# PCOD9314074 Si02
#       8
#     4   4   4   4   4   4   4   4
#     4   9  20  38  67  96 132 178 226 288 348 428
#     4  11  22  39  68 102 138 179 239 293 354 439
#     4   9  22  43  62  93 138 185 225 280 362 427
#     4  10  20  41  65 100 135 182 230 286 356 430
#     4  10  24  48  75 101 137 191 247 298 357 429
#     4  10  23  45  68  97 137 185 234 283 374 437
#     4  11  26  44  65 107 140 184 238 300 368 431
#     4  10  25  46  74 106 137 184 251 310 347 411
#
# _framework density 23.633773999999999
#
# number of rings (size 3 to 8) (size 9 to 14) (size 15 to 20)
#    0.000    2.000    1.250    0.000   10.500    3.000 
#    9.000    0.000    0.000    0.000    0.000    0.000 
#    0.000    0.000    0.000    0.000    0.000    0.000 
#
# Total GULP energy -178779.509153 kJ/mol
# GULP energy per Si atom -5586.859661 kJ/mol
# Density = 2.357998 g / cm^3
# Si number density = 23.633774 Si / 1000 Ang^3
#
#
#
# Elastic Constant Matrix: (Units=GPa)
#
#
# Indices 1 2 3 4 5 6 
#
# 1 99.5043 22.4369 27.0102 0.0000 0.0000 0.0000
# 2 22.4369 87.1878 21.6958 0.0000 0.0000 0.0000
# 3 27.0102 21.6958 68.9907 0.0000 0.0000 0.0000
# 4 0.0000 0.0000 0.0000 33.9323 0.0000 0.0000
# 5 0.0000 0.0000 0.0000 0.0000 35.6310 0.0000
# 6 0.0000 0.0000 0.0000 0.0000 0.0000 37.0983
#
#
#
# Elastic Compliance Matrix: (Units=1/GPa)
#
#
# Indices 1 2 3 4 5 6 
#
# 1 0.011559 -0.002005 -0.003895 0.000000 0.000000 0.000000
# 2 -0.002005 0.012791 -0.003237 0.000000 0.000000 0.000000
# 3 -0.003895 -0.003237 0.017038 0.000000 0.000000 0.000000
# 4 0.000000 0.000000 0.000000 0.029470 0.000000 0.000000
# 5 0.000000 0.000000 0.000000 0.000000 0.028065 0.000000
# 6 0.000000 0.000000 0.000000 0.000000 0.000000 0.026955
#
#
# Mechanical properties :
#
#
# Convention : Reuss Voigt Hill
#
# Bulk Modulus (GPa) = 43.26618 44.21873 43.74245
# Shear Modulus (GPa) = 32.92531 33.63499 33.28015
#
# Velocity S-wave (km/s) = 3.73654 3.77659 3.75662
# Velocity P-wave (km/s) = 6.07966 6.14552 6.11268
#
# Compressibility (1/GPa) = 0.02311274
#
# Stress axis : x y z
#
# Youngs Moduli (GPa) = 86.51069 78.17903 58.69368
#
# Poissons Ratio (x) = 0.15679 0.22860
# Poissons Ratio (y) = 0.17349 0.19001
# Poissons Ratio (z) = 0.33695 0.25309
#
# Static dielectric constant tensor:
#      x y z
#    x 1.861630 0.000000 0.000000 
#    y 0.000000 1.919690 0.000000 
#    z 0.000000 0.000000 1.893950 
# 
# From -- ./inp_files/6799.got.cif
#   From: 2010.05.17/outbox.cif.g08.bks.cpg/sg19_4_cif.got.tgz:6799.got - 2010.06.03 22:46:19.
