data_PCOD9314864
_publ_section_title
;
Structure prediction by ZEFSAII (Michael W. Deem and Ramdas Pophale) SiO2 
 PCOD9314864
Probable space group: P 21 21 21
;
_chemical_formula_sum "Si O2"
_cell_formula_units_Z 28
_cell_length_a 7.959784
_cell_length_b 28.251173
_cell_length_c 4.840302
_cell_angle_alpha 90.000000
_cell_angle_beta 90.000000
_cell_angle_gamma 90.000000
_cell_volume 1088.454368
_symmetry_space_group_name_H-M "P 21 21 21"
_symmetry_group_IT_number 19
_symmetry_cell_setting 'orthorhombic'
loop_
_space_group_symop_operation_xyz
x,y,z
1/2-x,-y,1/2+z
1/2+x,1/2-y,-z
-x,1/2+y,1/2-z
loop_
_atom_site_type_symbol
_atom_site_label
_atom_site_fract_x
_atom_site_fract_y
_atom_site_fract_z
Si Si1 0.072427 0.777457 0.078611
Si Si2 0.068651 0.133474 0.022941
Si Si3 0.404573 0.449933 0.681111
Si Si4 0.106916 0.240961 0.941372
Si Si5 0.114289 0.883006 0.135545
Si Si6 0.247600 0.411470 0.166436
Si Si7 0.151681 0.984140 0.993391
O O1 0.222817 0.756445 0.263590
O O2 0.921579 0.776115 0.303452
O O3 0.115015 0.831449 0.000321
O O4 0.028811 0.750210 0.800445
O O5 0.092107 0.188803 0.075179
O O6 0.894802 0.127829 0.851839
O O7 0.232543 0.117244 0.853723
O O8 0.027317 0.096100 0.267115
O O9 0.329751 0.448927 0.378647
O O10 0.254137 0.563219 0.372177
O O11 0.502376 0.492524 0.828329
O O12 0.129451 0.928915 0.945467
O O13 0.931384 0.890653 0.267032
O O14 0.308452 0.990727 0.205644
#
# Coordination Sequence:
#
# PCOD9314864 Si02
#       7
#     4   4   4   4   4   4   4
#     4  11  27  45  69 107 135 188 241 289 363 427
#     4   9  23  46  67 100 138 184 228 288 355 415
#     4  10  22  43  65 102 138 180 227 280 354 411
#     4  11  25  43  72  97 144 181 232 298 354 428
#     4  11  25  47  71 105 138 189 239 292 349 434
#     4  10  24  42  68  99 141 174 228 294 338 419
#     4  12  24  44  74 102 142 190 235 289 355 428
#
# _framework density 25.724554000000001
#
# number of rings (size 3 to 8) (size 9 to 14) (size 15 to 20)
#    0.857    0.571    1.429    2.571    6.000    4.571 
#    5.143    0.000    0.000    0.000    0.000    0.000 
#    0.000    0.000    0.000    0.000    0.000    0.000 
#
# Total GULP energy -156631.640216 kJ/mol
# GULP energy per Si atom -5593.987151 kJ/mol
# Density = 2.566600 g / cm^3
# Si number density = 25.724554 Si / 1000 Ang^3
#
#
#
# Elastic Constant Matrix: (Units=GPa)
#
#
# Indices 1 2 3 4 5 6 
#
# 1 132.0877 18.9969 13.9593 0.0000 0.0000 0.0000
# 2 18.9969 121.5703 30.8708 0.0000 0.0000 0.0000
# 3 13.9593 30.8708 82.2753 0.0000 0.0000 0.0000
# 4 0.0000 0.0000 0.0000 8.1219 0.0000 0.0000
# 5 0.0000 0.0000 0.0000 0.0000 23.1931 0.0000
# 6 0.0000 0.0000 0.0000 0.0000 0.0000 33.5909
#
#
#
# Elastic Compliance Matrix: (Units=1/GPa)
#
#
# Indices 1 2 3 4 5 6 
#
# 1 0.007813 -0.000977 -0.000959 0.000000 0.000000 0.000000
# 2 -0.000977 0.009214 -0.003291 0.000000 0.000000 0.000000
# 3 -0.000959 -0.003291 0.013552 0.000000 0.000000 0.000000
# 4 0.000000 0.000000 0.000000 0.123124 0.000000 0.000000
# 5 0.000000 0.000000 0.000000 0.000000 0.043116 0.000000
# 6 0.000000 0.000000 0.000000 0.000000 0.000000 0.029770
#
#
# Mechanical properties :
#
#
# Convention : Reuss Voigt Hill
#
# Bulk Modulus (GPa) = 49.69301 51.50972 50.60137
# Shear Modulus (GPa) = 20.51266 31.12161 25.81714
#
# Velocity S-wave (km/s) = 2.82688 3.48199 3.17140
# Velocity P-wave (km/s) = 5.47853 6.01936 5.75530
#
# Compressibility (1/GPa) = 0.02012355
#
# Stress axis : x y z
#
# Youngs Moduli (GPa) = 127.99808 108.52766 73.78984
#
# Poissons Ratio (x) = 0.10607 0.07075
# Poissons Ratio (y) = 0.12510 0.24288
# Poissons Ratio (z) = 0.12273 0.35722
#
# Static dielectric constant tensor:
#      x y z
#    x 2.136380 0.000000 0.000000 
#    y 0.000000 1.997370 0.000000 
#    z 0.000000 0.000000 1.958430 
# 
# From -- ./inp_files/598.got.cif
#   From: 2010.05.17/outbox.cif.g08.bks.cpg/sg19_1_cif.got.tgz:598.got - 2010.06.03 22:46:19.
