data_PCOD9314010
_publ_section_title
;
Structure prediction by ZEFSAII (Michael W. Deem and Ramdas Pophale) SiO2 
 PCOD9314010
Probable space group: P 21 21 21
;
_chemical_formula_sum "Si O2"
_cell_formula_units_Z 24
_cell_length_a 14.820176
_cell_length_b 12.996740
_cell_length_c 5.665283
_cell_angle_alpha 90.000000
_cell_angle_beta 90.000000
_cell_angle_gamma 90.000000
_cell_volume 1091.212674
_symmetry_space_group_name_H-M "P 21 21 21"
_symmetry_group_IT_number 19
_symmetry_cell_setting 'orthorhombic'
loop_
_space_group_symop_operation_xyz
x,y,z
1/2-x,-y,1/2+z
1/2+x,1/2-y,-z
-x,1/2+y,1/2-z
loop_
_atom_site_type_symbol
_atom_site_label
_atom_site_fract_x
_atom_site_fract_y
_atom_site_fract_z
Si Si1 0.725463 0.944499 0.719432
Si Si2 0.139608 0.970080 0.083970
Si Si3 0.564229 0.381781 0.284018
Si Si4 0.456974 0.496892 0.630356
Si Si5 0.145803 0.297871 0.984663
Si Si6 0.278112 0.845695 0.856066
O O1 0.785044 0.841237 0.710762
O O2 0.752314 0.003612 0.474805
O O3 0.616885 0.939330 0.709135
O O4 0.191454 0.865543 0.019921
O O5 0.102867 0.017663 0.842335
O O6 0.052379 0.973969 0.251529
O O7 0.210857 0.051588 0.193049
O O8 0.474458 0.420385 0.410720
O O9 0.632658 0.346316 0.486109
O O10 0.575788 0.290317 0.096419
O O11 0.412605 0.605216 0.563984
O O12 0.210974 0.250892 0.185395
#
# Coordination Sequence:
#
# PCOD9314010 Si02
#       6
#     4   4   4   4   4   4
#     4  10  24  46  77  98 143 198 240 298 374 430
#     4  10  20  39  70  96 141 180 232 291 371 425
#     4  10  22  41  71  99 140 183 233 294 370 430
#     4  10  24  43  72 103 140 189 239 312 359 437
#     4  10  24  43  73 100 141 190 243 295 366 451
#     4  10  20  40  67  98 131 186 229 286 364 437
#
# _framework density 21.993880000000001
#
# number of rings (size 3 to 8) (size 9 to 14) (size 15 to 20)
#    0.000    2.000    1.667    0.000    9.333    0.000 
#    0.000   13.333    0.000    0.000    0.000    0.000 
#    0.000    0.000    0.000    0.000    0.000    0.000 
#
# Total GULP energy -133764.597840 kJ/mol
# GULP energy per Si atom -5573.524910 kJ/mol
# Density = 2.194382 g / cm^3
# Si number density = 21.993880 Si / 1000 Ang^3
#
#
#
# Elastic Constant Matrix: (Units=GPa)
#
#
# Indices 1 2 3 4 5 6 
#
# 1 103.6836 43.5725 10.3592 0.0000 0.0000 0.0000
# 2 43.5725 81.6556 8.0351 0.0000 0.0000 0.0000
# 3 10.3592 8.0351 57.7367 0.0000 0.0000 0.0000
# 4 0.0000 0.0000 0.0000 38.5018 0.0000 0.0000
# 5 0.0000 0.0000 0.0000 0.0000 41.6011 0.0000
# 6 0.0000 0.0000 0.0000 0.0000 0.0000 30.7729
#
#
#
# Elastic Compliance Matrix: (Units=1/GPa)
#
#
# Indices 1 2 3 4 5 6 
#
# 1 0.012534 -0.006557 -0.001336 0.000000 0.000000 0.000000
# 2 -0.006557 0.015847 -0.001029 0.000000 0.000000 0.000000
# 3 -0.001336 -0.001029 0.017703 0.000000 0.000000 0.000000
# 4 0.000000 0.000000 0.000000 0.025973 0.000000 0.000000
# 5 0.000000 0.000000 0.000000 0.000000 0.024038 0.000000
# 6 0.000000 0.000000 0.000000 0.000000 0.000000 0.032496
#
#
# Mechanical properties :
#
#
# Convention : Reuss Voigt Hill
#
# Bulk Modulus (GPa) = 35.41158 40.77883 38.09520
# Shear Modulus (GPa) = 32.08281 34.24911 33.16596
#
# Velocity S-wave (km/s) = 3.82346 3.95043 3.88746
# Velocity P-wave (km/s) = 5.96887 6.27608 6.12440
#
# Compressibility (1/GPa) = 0.02823935
#
# Stress axis : x y z
#
# Youngs Moduli (GPa) = 79.78536 63.10537 56.48772
#
# Poissons Ratio (x) = 0.41376 0.07549
# Poissons Ratio (y) = 0.52312 0.05812
# Poissons Ratio (z) = 0.10662 0.06493
#
# Static dielectric constant tensor:
#      x y z
#    x 1.856410 0.000000 0.000000 
#    y 0.000000 1.828930 0.000000 
#    z 0.000000 0.000000 1.887080 
# 
# From -- ./inp_files/897.got.cif
#   From: 2010.05.17/outbox.cif.g08.bks.cpg/sg19_1_cif.got.tgz:897.got - 2010.06.03 22:46:19.
