data_PCOD9314134
_publ_section_title
;
Structure prediction by ZEFSAII (Michael W. Deem and Ramdas Pophale) SiO2 
 PCOD9314134
Probable space group: P 21 21 21
;
_chemical_formula_sum "Si O2"
_cell_formula_units_Z 28
_cell_length_a 10.742758
_cell_length_b 9.540975
_cell_length_c 11.473317
_cell_angle_alpha 90.000000
_cell_angle_beta 90.000000
_cell_angle_gamma 90.000000
_cell_volume 1175.973522
_symmetry_space_group_name_H-M "P 21 21 21"
_symmetry_group_IT_number 19
_symmetry_cell_setting 'orthorhombic'
loop_
_space_group_symop_operation_xyz
x,y,z
1/2-x,-y,1/2+z
1/2+x,1/2-y,-z
-x,1/2+y,1/2-z
loop_
_atom_site_type_symbol
_atom_site_label
_atom_site_fract_x
_atom_site_fract_y
_atom_site_fract_z
Si Si1 0.458465 0.695301 0.306006
Si Si2 0.434200 0.028705 0.842335
Si Si3 0.467977 0.173787 0.459110
Si Si4 0.848351 0.034325 0.522510
Si Si5 0.907732 0.778031 0.196915
Si Si6 0.720880 0.830640 0.378178
Si Si7 0.683954 0.394990 0.045024
O O1 0.474722 0.670127 0.169823
O O2 0.404354 0.557515 0.370624
O O3 0.589576 0.754482 0.357374
O O4 0.364755 0.820666 0.337494
O O5 0.471194 0.154733 0.757981
O O6 0.324324 0.062729 0.929867
O O7 0.397035 0.886457 0.777872
O O8 0.555495 0.995210 0.917129
O O9 0.366597 0.300564 0.458651
O O10 0.567618 0.205217 0.560031
O O11 0.399111 0.028048 0.482929
O O12 0.723915 0.963334 0.466758
O O13 0.788303 0.854398 0.253622
O O14 0.811878 0.722860 0.446431
#
# Coordination Sequence:
#
# PCOD9314134 Si02
#       7
#     4   4   4   4   4   4   4
#     4  11  22  43  65  95 137 175 220 268 340 406
#     4  10  20  43  67  99 127 170 220 273 328 400
#     4  11  23  40  61 101 131 169 216 280 331 385
#     4   9  21  42  65  91 133 167 224 273 325 397
#     4  10  22  41  67  97 133 171 222 272 333 399
#     4  10  21  43  68  91 127 184 221 269 333 406
#     4  11  23  42  71  98 130 176 223 277 340 395
#
# _framework density 23.81006
#
# number of rings (size 3 to 8) (size 9 to 14) (size 15 to 20)
#    0.000    1.714    1.429    2.571    0.000    0.000 
#   15.429   11.429    0.000    0.000    0.000    0.000 
#    0.000    0.000    0.000    0.000    0.000    0.000 
#
# Total GULP energy -156586.404944 kJ/mol
# GULP energy per Si atom -5592.371605 kJ/mol
# Density = 2.375587 g / cm^3
# Si number density = 23.810060 Si / 1000 Ang^3
#
#
#
# Elastic Constant Matrix: (Units=GPa)
#
#
# Indices 1 2 3 4 5 6 
#
# 1 46.5740 -9.6543 -5.3461 0.0000 0.0000 0.0000
# 2 -9.6543 99.7218 5.7545 0.0000 0.0000 0.0000
# 3 -5.3461 5.7545 87.5215 0.0000 0.0000 0.0000
# 4 0.0000 0.0000 0.0000 17.6024 0.0000 0.0000
# 5 0.0000 0.0000 0.0000 0.0000 35.1128 0.0000
# 6 0.0000 0.0000 0.0000 0.0000 0.0000 22.9125
#
#
#
# Elastic Compliance Matrix: (Units=1/GPa)
#
#
# Indices 1 2 3 4 5 6 
#
# 1 0.022038 0.002064 0.001210 0.000000 0.000000 0.000000
# 2 0.002064 0.010259 -0.000548 0.000000 0.000000 0.000000
# 3 0.001210 -0.000548 0.011536 0.000000 0.000000 0.000000
# 4 0.000000 0.000000 0.000000 0.056810 0.000000 0.000000
# 5 0.000000 0.000000 0.000000 0.000000 0.028480 0.000000
# 6 0.000000 0.000000 0.000000 0.000000 0.000000 0.043644
#
#
# Mechanical properties :
#
#
# Convention : Reuss Voigt Hill
#
# Bulk Modulus (GPa) = 20.29041 23.92507 22.10774
# Shear Modulus (GPa) = 27.21173 31.32975 29.27074
#
# Velocity S-wave (km/s) = 3.38430 3.63136 3.51000
# Velocity P-wave (km/s) = 4.87971 5.25856 5.07267
#
# Compressibility (1/GPa) = 0.04928436
#
# Stress axis : x y z
#
# Youngs Moduli (GPa) = 45.37630 97.47214 86.68694
#
# Poissons Ratio (x) = -0.20115 -0.10493
# Poissons Ratio (y) = -0.09364 0.04755
# Poissons Ratio (z) = -0.05493 0.05346
#
# Static dielectric constant tensor:
#      x y z
#    x 1.926670 0.000000 0.000000 
#    y 0.000000 1.930570 0.000000 
#    z 0.000000 0.000000 1.932290 
# 
# From -- ./inp_files/4589.got.cif
#   From: 2010.05.17/outbox.cif.g08.bks.cpg/sg19_3_cif.got.tgz:4589.got - 2010.06.03 22:46:19.
