data_PCOD9314015
_publ_section_title
;
Structure prediction by ZEFSAII (Michael W. Deem and Ramdas Pophale) SiO2 
 PCOD9314015
Probable space group: P 21 21 21
;
_chemical_formula_sum "Si O2"
_cell_formula_units_Z 20
_cell_length_a 7.611292
_cell_length_b 13.987240
_cell_length_c 9.640704
_cell_angle_alpha 90.000000
_cell_angle_beta 90.000000
_cell_angle_gamma 90.000000
_cell_volume 1026.358679
_symmetry_space_group_name_H-M "P 21 21 21"
_symmetry_group_IT_number 19
_symmetry_cell_setting 'orthorhombic'
loop_
_space_group_symop_operation_xyz
x,y,z
1/2-x,-y,1/2+z
1/2+x,1/2-y,-z
-x,1/2+y,1/2-z
loop_
_atom_site_type_symbol
_atom_site_label
_atom_site_fract_x
_atom_site_fract_y
_atom_site_fract_z
Si Si1 0.677580 0.695286 0.919484
Si Si2 0.223981 0.320140 0.079721
Si Si3 0.065744 0.946694 0.296755
Si Si4 0.375362 0.813991 0.344589
Si Si5 0.387265 0.830497 0.812154
O O1 0.571461 0.605816 0.852986
O O2 0.849602 0.700462 0.820100
O O3 0.559805 0.786223 0.883864
O O4 0.732368 0.681835 0.076020
O O5 0.428127 0.336263 0.110088
O O6 0.156965 0.233412 0.178614
O O7 0.104751 0.410296 0.120744
O O8 0.189842 0.280195 0.926008
O O9 0.234623 0.898608 0.373584
O O10 0.084334 0.058758 0.282177
#
# Coordination Sequence:
#
# PCOD9314015 Si02
#       5
#     4   4   4   4   4
#     4   9  22  39  59  91 119 162 196 247 309 343
#     4  11  20  40  63  84 123 158 199 252 296 361
#     4   9  23  37  61  90 117 157 209 232 306 361
#     4  10  20  40  60  87 115 157 203 242 299 356
#     4  11  21  42  61  86 132 154 199 259 296 363
#
# _framework density 19.486364999999999
#
# number of rings (size 3 to 8) (size 9 to 14) (size 15 to 20)
#    1.200    0.800    2.000    1.200    2.800    0.000 
#    7.200    4.000    0.000    0.000    0.000    0.000 
#    0.000    0.000    0.000    0.000    0.000    0.000 
#
# Total GULP energy -111489.924580 kJ/mol
# GULP energy per Si atom -5574.496229 kJ/mol
# Density = 1.944201 g / cm^3
# Si number density = 19.486365 Si / 1000 Ang^3
#
#
#
# Elastic Constant Matrix: (Units=GPa)
#
#
# Indices 1 2 3 4 5 6 
#
# 1 100.8828 13.8736 -32.7124 0.0000 0.0000 0.0000
# 2 13.8736 66.8117 0.0364 0.0000 0.0000 0.0000
# 3 -32.7124 0.0364 32.8102 0.0000 0.0000 0.0000
# 4 0.0000 0.0000 0.0000 9.0776 0.0000 0.0000
# 5 0.0000 0.0000 0.0000 0.0000 17.7005 0.0000
# 6 0.0000 0.0000 0.0000 0.0000 0.0000 17.5451
#
#
#
# Elastic Compliance Matrix: (Units=1/GPa)
#
#
# Indices 1 2 3 4 5 6 
#
# 1 0.015297 -0.003185 0.015255 0.000000 0.000000 0.000000
# 2 -0.003185 0.015631 -0.003193 0.000000 0.000000 0.000000
# 3 0.015255 -0.003193 0.045691 0.000000 0.000000 0.000000
# 4 0.000000 0.000000 0.000000 0.110162 0.000000 0.000000
# 5 0.000000 0.000000 0.000000 0.000000 0.056495 0.000000
# 6 0.000000 0.000000 0.000000 0.000000 0.000000 0.056996
#
#
# Mechanical properties :
#
#
# Convention : Reuss Voigt Hill
#
# Bulk Modulus (GPa) = 10.59611 18.09999 14.34805
# Shear Modulus (GPa) = 15.92485 23.48512 19.70498
#
# Velocity S-wave (km/s) = 2.86183 3.47538 3.18342
# Velocity P-wave (km/s) = 4.04593 5.04113 4.57070
#
# Compressibility (1/GPa) = 0.09437423
#
# Stress axis : x y z
#
# Youngs Moduli (GPa) = 65.37193 63.97745 21.88594
#
# Poissons Ratio (x) = 0.20375 -0.33387
# Poissons Ratio (y) = 0.20820 0.06987
# Poissons Ratio (z) = -0.99725 0.20426
#
# Static dielectric constant tensor:
#      x y z
#    x 1.696500 0.000000 0.000000 
#    y 0.000000 1.644570 0.000000 
#    z 0.000000 0.000000 1.689520 
# 
# From -- ./inp_files/2723.got.cif
#   From: 2010.05.17/outbox.cif.g08.bks.cpg/sg19_2_cif.got.tgz:2723.got - 2010.06.03 22:46:19.
