data_PCOD9314759
_publ_section_title
;
Structure prediction by ZEFSAII (Michael W. Deem and Ramdas Pophale) SiO2 
 PCOD9314759
Probable space group: P 21 21 21
;
_chemical_formula_sum "Si O2"
_cell_formula_units_Z 28
_cell_length_a 8.306535
_cell_length_b 8.310095
_cell_length_c 17.885956
_cell_angle_alpha 90.000000
_cell_angle_beta 90.000000
_cell_angle_gamma 90.000000
_cell_volume 1234.633469
_symmetry_space_group_name_H-M "P 21 21 21"
_symmetry_group_IT_number 19
_symmetry_cell_setting 'orthorhombic'
loop_
_space_group_symop_operation_xyz
x,y,z
1/2-x,-y,1/2+z
1/2+x,1/2-y,-z
-x,1/2+y,1/2-z
loop_
_atom_site_type_symbol
_atom_site_label
_atom_site_fract_x
_atom_site_fract_y
_atom_site_fract_z
Si Si1 0.949757 0.736025 0.077191
Si Si2 0.468950 0.062871 0.166922
Si Si3 0.494254 0.178357 0.332417
Si Si4 0.158288 0.527086 0.171596
Si Si5 0.645043 0.305545 0.908060
Si Si6 0.678342 0.549580 0.023396
Si Si7 0.821917 0.032583 0.153909
O O1 0.863764 0.602283 0.026894
O O2 0.826720 0.875203 0.101705
O O3 0.017946 0.650396 0.150563
O O4 0.089510 0.827709 0.033043
O O5 0.493330 0.870740 0.164727
O O6 0.650361 0.122438 0.146158
O O7 0.436843 0.123830 0.250857
O O8 0.312387 0.117133 0.121638
O O9 0.674377 0.114935 0.342080
O O10 0.390576 0.089700 0.395358
O O11 0.150243 0.379611 0.114189
O O12 0.157831 0.482380 0.259047
O O13 0.481708 0.370366 0.869137
O O14 0.642090 0.371849 0.992794
#
# Coordination Sequence:
#
# PCOD9314759 Si02
#       7
#     4   4   4   4   4   4   4
#     4  11  22  42  68  94 136 176 230 275 340 414
#     4  11  22  43  70 102 131 179 227 289 336 409
#     4  11  23  43  70 102 134 176 236 282 350 405
#     4  11  24  42  65 100 135 176 223 287 342 408
#     4  11  25  43  67  99 143 175 230 280 344 413
#     4  11  24  42  68  99 130 190 220 282 342 412
#     4  10  22  41  68  98 127 178 230 281 338 401
#
# _framework density 22.678795999999998
#
# number of rings (size 3 to 8) (size 9 to 14) (size 15 to 20)
#    0.000    1.143    1.429    6.000    2.000    2.286 
#    2.571    1.429    0.000    0.000    0.000    0.000 
#    0.000    0.000    0.000    0.000    0.000    0.000 
#
# Total GULP energy -156546.297250 kJ/mol
# GULP energy per Si atom -5590.939187 kJ/mol
# Density = 2.262718 g / cm^3
# Si number density = 22.678796 Si / 1000 Ang^3
#
#
#
# Elastic Constant Matrix: (Units=GPa)
#
#
# Indices 1 2 3 4 5 6 
#
# 1 96.8891 14.7578 29.0217 0.0000 0.0000 0.0000
# 2 14.7578 21.3021 -0.8756 0.0000 0.0000 0.0000
# 3 29.0217 -0.8756 58.9515 0.0000 0.0000 0.0000
# 4 0.0000 0.0000 0.0000 23.9810 0.0000 0.0000
# 5 0.0000 0.0000 0.0000 0.0000 20.2834 0.0000
# 6 0.0000 0.0000 0.0000 0.0000 0.0000 9.4050
#
#
#
# Elastic Compliance Matrix: (Units=1/GPa)
#
#
# Indices 1 2 3 4 5 6 
#
# 1 0.013934 -0.009942 -0.007008 0.000000 0.000000 0.000000
# 2 -0.009942 0.054065 0.005697 0.000000 0.000000 0.000000
# 3 -0.007008 0.005697 0.020498 0.000000 0.000000 0.000000
# 4 0.000000 0.000000 0.000000 0.041700 0.000000 0.000000
# 5 0.000000 0.000000 0.000000 0.000000 0.049301 0.000000
# 6 0.000000 0.000000 0.000000 0.000000 0.000000 0.106326
#
#
# Mechanical properties :
#
#
# Convention : Reuss Voigt Hill
#
# Bulk Modulus (GPa) = 15.15302 29.21671 22.18487
# Shear Modulus (GPa) = 15.13659 19.68315 17.40987
#
# Velocity S-wave (km/s) = 2.58628 2.94923 2.77369
# Velocity P-wave (km/s) = 3.95152 4.95056 4.47898
#
# Compressibility (1/GPa) = 0.06599344
#
# Stress axis : x y z
#
# Youngs Moduli (GPa) = 71.76522 18.49618 48.78643
#
# Poissons Ratio (x) = 0.18388 0.34187
# Poissons Ratio (y) = 0.71346 -0.27795
# Poissons Ratio (z) = 0.50289 -0.10538
#
# Static dielectric constant tensor:
#      x y z
#    x 1.925090 0.000000 0.000000 
#    y 0.000000 1.829630 0.000000 
#    z 0.000000 0.000000 1.876780 
# 
# From -- ./inp_files/4161.got.cif
#   From: 2010.05.17/outbox.cif.g08.bks.cpg/sg19_3_cif.got.tgz:4161.got - 2010.06.03 22:46:19.
