data_PCOD9314680
_publ_section_title
;
Structure prediction by ZEFSAII (Michael W. Deem and Ramdas Pophale) SiO2 
 PCOD9314680
Probable space group: P 21 21 21
;
_chemical_formula_sum "Si O2"
_cell_formula_units_Z 32
_cell_length_a 9.422612
_cell_length_b 17.086833
_cell_length_c 8.512540
_cell_angle_alpha 90.000000
_cell_angle_beta 90.000000
_cell_angle_gamma 90.000000
_cell_volume 1370.541053
_symmetry_space_group_name_H-M "P 21 21 21"
_symmetry_group_IT_number 19
_symmetry_cell_setting 'orthorhombic'
loop_
_space_group_symop_operation_xyz
x,y,z
1/2-x,-y,1/2+z
1/2+x,1/2-y,-z
-x,1/2+y,1/2-z
loop_
_atom_site_type_symbol
_atom_site_label
_atom_site_fract_x
_atom_site_fract_y
_atom_site_fract_z
Si Si1 0.925159 0.791910 0.350002
Si Si2 0.793059 0.360431 0.291260
Si Si3 0.452586 0.032438 0.500442
Si Si4 0.129332 0.880122 0.712294
Si Si5 0.289541 0.255486 0.417365
Si Si6 0.827090 0.916883 0.569585
Si Si7 0.740041 0.914828 0.927947
Si Si8 0.597796 0.365355 0.010249
O O1 0.851471 0.766698 0.187241
O O2 0.812439 0.848512 0.439254
O O3 0.959820 0.717291 0.457030
O O4 0.074898 0.829552 0.309801
O O5 0.853836 0.441476 0.357848
O O6 0.767733 0.301458 0.434954
O O7 0.655211 0.364310 0.185962
O O8 0.361283 0.054508 0.347739
O O9 0.595074 0.083353 0.484940
O O10 0.496764 0.942341 0.506807
O O11 0.112498 0.795951 0.800186
O O12 0.266036 0.878014 0.602912
O O13 0.989658 0.902042 0.619111
O O14 0.331259 0.339865 0.488746
O O15 0.744111 0.910714 0.737141
O O16 0.816724 0.002073 0.490036
#
# Coordination Sequence:
#
# PCOD9314680 Si02
#       8
#     4   4   4   4   4   4   4   4
#     4  11  23  43  64  97 137 178 235 284 347 420
#     4  11  22  43  69  95 141 180 227 294 348 418
#     4  10  22  40  64  97 138 172 229 282 345 414
#     4   9  21  42  63  92 137 175 228 283 340 417
#     4  10  22  43  68  99 131 185 233 285 352 414
#     4  11  23  43  67  99 143 180 225 297 347 412
#     4  11  23  41  68 100 138 182 228 291 351 418
#     4  11  22  39  67  97 129 184 225 278 348 423
#
# _framework density 23.348445000000002
#
# number of rings (size 3 to 8) (size 9 to 14) (size 15 to 20)
#    0.000    1.500    2.500    2.250    0.000    2.000 
#    4.500    2.500    0.000    0.000    0.000    0.000 
#    0.000    0.000    0.000    0.000    0.000    0.000 
#
# Total GULP energy -178884.551402 kJ/mol
# GULP energy per Si atom -5590.142231 kJ/mol
# Density = 2.329530 g / cm^3
# Si number density = 23.348445 Si / 1000 Ang^3
#
#
#
# Elastic Constant Matrix: (Units=GPa)
#
#
# Indices 1 2 3 4 5 6 
#
# 1 31.5155 6.1280 25.4709 0.0000 0.0000 0.0000
# 2 6.1280 145.2104 48.8861 0.0000 0.0000 0.0000
# 3 25.4709 48.8861 98.8897 0.0000 0.0000 0.0000
# 4 0.0000 0.0000 0.0000 34.2390 0.0000 0.0000
# 5 0.0000 0.0000 0.0000 0.0000 30.0750 0.0000
# 6 0.0000 0.0000 0.0000 0.0000 0.0000 32.3794
#
#
#
# Elastic Compliance Matrix: (Units=1/GPa)
#
#
# Indices 1 2 3 4 5 6 
#
# 1 0.040634 0.002170 -0.011539 0.000000 0.000000 0.000000
# 2 0.002170 0.008377 -0.004700 0.000000 0.000000 0.000000
# 3 -0.011539 -0.004700 0.015408 0.000000 0.000000 0.000000
# 4 0.000000 0.000000 0.000000 0.029206 0.000000 0.000000
# 5 0.000000 0.000000 0.000000 0.000000 0.033250 0.000000
# 6 0.000000 0.000000 0.000000 0.000000 0.000000 0.030884
#
#
# Mechanical properties :
#
#
# Convention : Reuss Voigt Hill
#
# Bulk Modulus (GPa) = 27.56263 48.50954 38.03609
# Shear Modulus (GPa) = 25.25357 32.34738 28.80048
#
# Velocity S-wave (km/s) = 3.29233 3.72616 3.51594
# Velocity P-wave (km/s) = 5.12671 6.27167 5.72787
#
# Compressibility (1/GPa) = 0.03628101
#
# Stress axis : x y z
#
# Youngs Moduli (GPa) = 24.60986 119.36949 64.90201
#
# Poissons Ratio (x) = -0.25901 0.74889
# Poissons Ratio (y) = -0.05340 0.30505
# Poissons Ratio (z) = 0.28397 0.56106
#
# Static dielectric constant tensor:
#      x y z
#    x 1.854770 0.000000 0.000000 
#    y 0.000000 1.901260 0.000000 
#    z 0.000000 0.000000 1.917000 
# 
# From -- ./inp_files/3590.got.cif
#   From: 2010.05.17/outbox.cif.g08.bks.cpg/sg19_2_cif.got.tgz:3590.got - 2010.06.03 22:46:19.
