data_PCOD9314299
_publ_section_title
;
Structure prediction by ZEFSAII (Michael W. Deem and Ramdas Pophale) SiO2 
 PCOD9314299
Probable space group: P 21 21 21
;
_chemical_formula_sum "Si O2"
_cell_formula_units_Z 32
_cell_length_a 5.091258
_cell_length_b 12.670337
_cell_length_c 24.549855
_cell_angle_alpha 90.000000
_cell_angle_beta 90.000000
_cell_angle_gamma 90.000000
_cell_volume 1583.660932
_symmetry_space_group_name_H-M "P 21 21 21"
_symmetry_group_IT_number 19
_symmetry_cell_setting 'orthorhombic'
loop_
_space_group_symop_operation_xyz
x,y,z
1/2-x,-y,1/2+z
1/2+x,1/2-y,-z
-x,1/2+y,1/2-z
loop_
_atom_site_type_symbol
_atom_site_label
_atom_site_fract_x
_atom_site_fract_y
_atom_site_fract_z
Si Si1 0.348805 0.239690 0.035422
Si Si2 0.672984 0.106479 0.180911
Si Si3 0.329126 0.942334 0.612517
Si Si4 0.901695 0.334000 0.203620
Si Si5 0.135038 0.619012 0.029164
Si Si6 0.285488 0.571091 0.612045
Si Si7 0.637850 0.641386 0.954466
Si Si8 0.899936 0.061099 0.772347
O O1 0.239362 0.131776 0.061184
O O2 0.347075 0.330609 0.081247
O O3 0.635823 0.226709 0.010004
O O4 0.379799 0.095929 0.157529
O O5 0.765303 0.222174 0.198063
O O6 0.877541 0.074653 0.133847
O O7 0.692025 0.028305 0.231759
O O8 0.304044 0.063798 0.595296
O O9 0.697909 0.405609 0.236584
O O10 0.959168 0.380901 0.143077
O O11 0.189920 0.342345 0.230445
O O12 0.163946 0.521977 0.069994
O O13 0.158097 0.733968 0.057631
O O14 0.356922 0.616690 0.982042
O O15 0.854017 0.617094 0.000358
O O16 0.122337 0.529583 0.664008
#
# Coordination Sequence:
#
# PCOD9314299 Si02
#       8
#     4   4   4   4   4   4   4   4
#     4  12  24  36  63 100 127 168 210 257 334 397
#     4  12  23  44  65  91 128 168 208 269 334 373
#     4  12  23  40  64  93 133 164 211 271 319 389
#     4  10  22  42  64  87 128 157 206 265 322 365
#     4  10  21  39  63  84 127 171 207 257 313 370
#     4  10  23  40  64  90 130 158 217 260 314 384
#     4  10  22  40  59  90 125 169 208 256 312 377
#     4  10  24  41  64  91 118 171 209 253 324 371
#
# _framework density 20.206347000000001
#
# number of rings (size 3 to 8) (size 9 to 14) (size 15 to 20)
#    0.750    0.500    1.250    5.250    3.500    0.000 
#    4.500    0.000    0.000    0.000    0.000    0.000 
#    0.000    0.000    0.000    0.000    0.000    0.000 
#
# Total GULP energy -178647.684015 kJ/mol
# GULP energy per Si atom -5582.740125 kJ/mol
# Density = 2.016036 g / cm^3
# Si number density = 20.206347 Si / 1000 Ang^3
#
#
#
# Elastic Constant Matrix: (Units=GPa)
#
#
# Indices 1 2 3 4 5 6 
#
# 1 49.4071 -8.1715 -0.7981 0.0000 0.0000 0.0000
# 2 -8.1715 69.5235 16.8226 0.0000 0.0000 0.0000
# 3 -0.7981 16.8226 29.8864 0.0000 0.0000 0.0000
# 4 0.0000 0.0000 0.0000 38.7869 0.0000 0.0000
# 5 0.0000 0.0000 0.0000 0.0000 33.4190 0.0000
# 6 0.0000 0.0000 0.0000 0.0000 0.0000 21.6260
#
#
#
# Elastic Compliance Matrix: (Units=1/GPa)
#
#
# Indices 1 2 3 4 5 6 
#
# 1 0.020664 0.002657 -0.000944 0.000000 0.000000 0.000000
# 2 0.002657 0.016993 -0.009494 0.000000 0.000000 0.000000
# 3 -0.000944 -0.009494 0.038779 0.000000 0.000000 0.000000
# 4 0.000000 0.000000 0.000000 0.025782 0.000000 0.000000
# 5 0.000000 0.000000 0.000000 0.000000 0.029923 0.000000
# 6 0.000000 0.000000 0.000000 0.000000 0.000000 0.046241
#
#
# Mechanical properties :
#
#
# Convention : Reuss Voigt Hill
#
# Bulk Modulus (GPa) = 16.42720 18.28032 17.35376
# Shear Modulus (GPa) = 23.33875 28.16397 25.75136
#
# Velocity S-wave (km/s) = 3.40225 3.73744 3.57377
# Velocity P-wave (km/s) = 4.85604 5.26223 5.06321
#
# Compressibility (1/GPa) = 0.06087465
#
# Stress axis : x y z
#
# Youngs Moduli (GPa) = 48.39274 58.84675 25.78706
#
# Poissons Ratio (x) = -0.15637 0.02434
# Poissons Ratio (y) = -0.12859 0.24483
# Poissons Ratio (z) = 0.04568 0.55871
#
# Static dielectric constant tensor:
#      x y z
#    x 1.715070 0.000000 0.000000 
#    y 0.000000 1.702560 0.000000 
#    z 0.000000 0.000000 1.714940 
# 
# From -- ./inp_files/7303.got.cif
#   From: 2010.05.17/outbox.cif.g08.bks.cpg/sg19_4_cif.got.tgz:7303.got - 2010.06.03 22:46:19.
