data_PCOD9314007
_publ_section_title
;
Structure prediction by ZEFSAII (Michael W. Deem and Ramdas Pophale) SiO2 
 PCOD9314007
Probable space group: P 21 21 21
;
_chemical_formula_sum "Si O2"
_cell_formula_units_Z 32
_cell_length_a 17.580960
_cell_length_b 5.528871
_cell_length_c 15.629211
_cell_angle_alpha 90.000000
_cell_angle_beta 90.000000
_cell_angle_gamma 90.000000
_cell_volume 1519.204007
_symmetry_space_group_name_H-M "P 21 21 21"
_symmetry_group_IT_number 19
_symmetry_cell_setting 'orthorhombic'
loop_
_space_group_symop_operation_xyz
x,y,z
1/2-x,-y,1/2+z
1/2+x,1/2-y,-z
-x,1/2+y,1/2-z
loop_
_atom_site_type_symbol
_atom_site_label
_atom_site_fract_x
_atom_site_fract_y
_atom_site_fract_z
Si Si1 0.671294 0.890721 0.585359
Si Si2 0.448291 0.508858 0.506033
Si Si3 0.400541 0.004585 0.595984
Si Si4 0.188264 0.962662 0.753617
Si Si5 0.403663 0.783854 0.968368
Si Si6 0.779449 0.488987 0.941122
Si Si7 0.365770 0.015086 0.788008
Si Si8 0.664375 0.020070 0.153662
O O1 0.700597 0.703985 0.514092
O O2 0.642099 0.784341 0.675655
O O3 0.593549 0.000215 0.545705
O O4 0.750969 0.011429 0.614188
O O5 0.434517 0.756668 0.557550
O O6 0.535650 0.445657 0.484138
O O7 0.395544 0.528586 0.423161
O O8 0.429068 0.262265 0.559340
O O9 0.310376 0.005046 0.572189
O O10 0.408279 0.996865 0.698690
O O11 0.278505 0.938458 0.772649
O O12 0.164189 0.223681 0.794027
O O13 0.183372 0.953216 0.651351
O O14 0.149326 0.724671 0.792840
O O15 0.397452 0.876348 0.870651
O O16 0.322487 0.784574 0.017243
#
# Coordination Sequence:
#
# PCOD9314007 Si02
#       8
#     4   4   4   4   4   4   4   4
#     4  10  20  39  69  93 135 166 223 272 328 388
#     4  12  27  41  65  95 137 180 211 268 334 399
#     4  11  25  43  67  98 130 171 227 269 323 396
#     4  10  22  39  69  98 124 162 229 277 319 373
#     4  11  24  41  64  94 136 176 216 267 336 394
#     4  10  23  41  69 100 123 172 227 280 320 390
#     4   9  22  38  64  96 126 170 215 271 321 382
#     4  11  21  42  63  94 129 173 212 270 325 388
#
# _framework density 21.063662000000001
#
# number of rings (size 3 to 8) (size 9 to 14) (size 15 to 20)
#    0.000    1.500    2.500    1.500    8.750    3.000 
#    0.000    1.250    0.000    0.000    0.000    0.000 
#    0.000    0.000    0.000    0.000    0.000    0.000 
#
# Total GULP energy -178162.914615 kJ/mol
# GULP energy per Si atom -5567.591082 kJ/mol
# Density = 2.101572 g / cm^3
# Si number density = 21.063662 Si / 1000 Ang^3
#
#
#
# Elastic Constant Matrix: (Units=GPa)
#
#
# Indices 1 2 3 4 5 6 
#
# 1 35.8334 37.4329 6.1970 0.0000 0.0000 0.0000
# 2 37.4329 80.0977 38.0925 0.0000 0.0000 0.0000
# 3 6.1970 38.0925 87.3170 0.0000 0.0000 0.0000
# 4 0.0000 0.0000 0.0000 -18.6252 0.0000 0.0000
# 5 0.0000 0.0000 0.0000 0.0000 9.2356 0.0000
# 6 0.0000 0.0000 0.0000 0.0000 0.0000 20.2334
#
#
#
# Elastic Compliance Matrix: (Units=1/GPa)
#
#
# Indices 1 2 3 4 5 6 
#
# 1 0.061000 -0.033373 0.010230 0.000000 0.000000 0.000000
# 2 -0.033373 0.034011 -0.012469 0.000000 0.000000 0.000000
# 3 0.010230 -0.012469 0.016166 0.000000 0.000000 0.000000
# 4 0.000000 0.000000 0.000000 -0.053691 0.000000 0.000000
# 5 0.000000 0.000000 0.000000 0.000000 0.108277 0.000000
# 6 0.000000 0.000000 0.000000 0.000000 0.000000 0.049423
#
#
# Mechanical properties :
#
#
# Convention : Reuss Voigt Hill
#
# Bulk Modulus (GPa) = 25.02911 40.74365 32.88638
# Shear Modulus (GPa) = 16.68170 10.27047 13.47609
#
# Velocity S-wave (km/s) = 2.81724 2.21054 2.53213
# Velocity P-wave (km/s) = 4.74245 5.08925 4.91891
#
# Compressibility (1/GPa) = 0.03995348
#
# Stress axis : x y z
#
# Youngs Moduli (GPa) = 16.39331 29.40198 61.85746
#
# Poissons Ratio (x) = 0.98123 -0.63280
# Poissons Ratio (y) = 0.54710 0.77131
# Poissons Ratio (z) = -0.16770 0.36662
#
# Static dielectric constant tensor:
#      x y z
#    x 1.864520 0.000000 0.000000 
#    y 0.000000 1.932450 0.000000 
#    z 0.000000 0.000000 1.731670 
# 
# From -- ./inp_files/5743.got.cif
#   From: 2010.05.17/outbox.cif.g08.bks.cpg/sg19_3_cif.got.tgz:5743.got - 2010.06.03 22:46:19.
