data_PCOD9314961
_publ_section_title
;
Structure prediction by ZEFSAII (Michael W. Deem and Ramdas Pophale) SiO2 
 PCOD9314961
Probable space group: P 21 21 21
;
_chemical_formula_sum "Si O2"
_cell_formula_units_Z 32
_cell_length_a 7.952308
_cell_length_b 6.075501
_cell_length_c 31.890810
_cell_angle_alpha 90.000000
_cell_angle_beta 90.000000
_cell_angle_gamma 90.000000
_cell_volume 1540.780733
_symmetry_space_group_name_H-M "P 21 21 21"
_symmetry_group_IT_number 19
_symmetry_cell_setting 'orthorhombic'
loop_
_space_group_symop_operation_xyz
x,y,z
1/2-x,-y,1/2+z
1/2+x,1/2-y,-z
-x,1/2+y,1/2-z
loop_
_atom_site_type_symbol
_atom_site_label
_atom_site_fract_x
_atom_site_fract_y
_atom_site_fract_z
Si Si1 0.788151 0.930207 0.831528
Si Si2 0.887635 0.735644 0.653120
Si Si3 0.767221 0.530302 0.983893
Si Si4 0.535980 0.540819 0.618595
Si Si5 0.436945 0.879197 0.103748
Si Si6 0.412901 0.602531 0.255521
Si Si7 0.728273 0.212737 0.570431
Si Si8 0.068612 0.680385 0.461760
O O1 0.776329 0.894863 0.781793
O O2 0.820199 0.714221 0.859589
O O3 0.623282 0.043880 0.850926
O O4 0.964841 0.059871 0.837177
O O5 0.708028 0.639852 0.638199
O O6 0.856847 0.867898 0.696554
O O7 0.978411 0.898448 0.620486
O O8 0.572983 0.483747 0.976921
O O9 0.840335 0.605478 0.939960
O O10 0.785768 0.679991 0.024759
O O11 0.861595 0.310734 0.998851
O O12 0.585206 0.297192 0.601930
O O13 0.495640 0.667065 0.575118
O O14 0.596447 0.726997 0.091914
O O15 0.491595 0.346844 0.253082
O O16 0.714657 0.956957 0.560343
#
# Coordination Sequence:
#
# PCOD9314961 Si02
#       8
#     4   4   4   4   4   4   4   4
#     4  11  24  43  70 102 132 180 232 285 353 432
#     4  11  23  44  70  97 135 181 225 294 354 430
#     4  11  25  36  62  88 127 179 224 288 340 420
#     4  11  24  42  66  98 133 177 230 287 346 425
#     4  12  22  41  67  93 131 184 227 283 362 421
#     4  10  22  45  75 107 143 185 237 294 364 437
#     4  11  23  40  61  92 132 173 230 287 347 407
#     4  11  23  41  57  91 131 173 229 288 346 412
#
# _framework density 20.768692000000001
#
# number of rings (size 3 to 8) (size 9 to 14) (size 15 to 20)
#    0.000    1.000    3.750    3.000    1.750    5.000 
#    0.000    6.250    0.000    0.000    0.000    0.000 
#    0.000    0.000    0.000    0.000    0.000    0.000 
#
# Total GULP energy -178302.886143 kJ/mol
# GULP energy per Si atom -5571.965192 kJ/mol
# Density = 2.072142 g / cm^3
# Si number density = 20.768692 Si / 1000 Ang^3
#
#
#
# Elastic Constant Matrix: (Units=GPa)
#
#
# Indices 1 2 3 4 5 6 
#
# 1 129.5278 20.4914 97.1261 0.0000 0.0000 0.0000
# 2 20.4914 43.8173 23.0716 0.0000 0.0000 0.0000
# 3 97.1261 23.0716 225.5763 0.0000 0.0000 0.0000
# 4 0.0000 0.0000 0.0000 17.6302 0.0000 0.0000
# 5 0.0000 0.0000 0.0000 0.0000 22.5715 0.0000
# 6 0.0000 0.0000 0.0000 0.0000 0.0000 10.1563
#
#
#
# Elastic Compliance Matrix: (Units=1/GPa)
#
#
# Indices 1 2 3 4 5 6 
#
# 1 0.011762 -0.002995 -0.004758 0.000000 0.000000 0.000000
# 2 -0.002995 0.024884 -0.001255 0.000000 0.000000 0.000000
# 3 -0.004758 -0.001255 0.006610 0.000000 0.000000 0.000000
# 4 0.000000 0.000000 0.000000 0.056721 0.000000 0.000000
# 5 0.000000 0.000000 0.000000 0.000000 0.044304 0.000000
# 6 0.000000 0.000000 0.000000 0.000000 0.000000 0.098461
#
#
# Mechanical properties :
#
#
# Convention : Reuss Voigt Hill
#
# Bulk Modulus (GPa) = 39.62191 75.58884 57.60538
# Shear Modulus (GPa) = 18.57552 27.28710 22.93131
#
# Velocity S-wave (km/s) = 2.99390 3.62865 3.32645
# Velocity P-wave (km/s) = 5.57408 7.35056 6.52308
#
# Compressibility (1/GPa) = 0.02523856
#
# Stress axis : x y z
#
# Youngs Moduli (GPa) = 85.01982 40.18681 151.28301
#
# Poissons Ratio (x) = 0.12037 0.71980
# Poissons Ratio (y) = 0.25466 0.18992
# Poissons Ratio (z) = 0.40452 0.05045
#
# Static dielectric constant tensor:
#      x y z
#    x 1.759470 0.000000 0.000000 
#    y 0.000000 1.906460 0.000000 
#    z 0.000000 0.000000 1.747330 
# 
# From -- ./inp_files/712.got.cif
#   From: 2010.05.17/outbox.cif.g08.bks.cpg/sg19_1_cif.got.tgz:712.got - 2010.06.03 22:46:19.
