data_PCOD9314175
_publ_section_title
;
Structure prediction by ZEFSAII (Michael W. Deem and Ramdas Pophale) SiO2 
 PCOD9314175
Probable space group: P 21 21 21
;
_chemical_formula_sum "Si O2"
_cell_formula_units_Z 24
_cell_length_a 5.489276
_cell_length_b 9.398767
_cell_length_c 18.226528
_cell_angle_alpha 90.000000
_cell_angle_beta 90.000000
_cell_angle_gamma 90.000000
_cell_volume 940.350799
_symmetry_space_group_name_H-M "P 21 21 21"
_symmetry_group_IT_number 19
_symmetry_cell_setting 'orthorhombic'
loop_
_space_group_symop_operation_xyz
x,y,z
1/2-x,-y,1/2+z
1/2+x,1/2-y,-z
-x,1/2+y,1/2-z
loop_
_atom_site_type_symbol
_atom_site_label
_atom_site_fract_x
_atom_site_fract_y
_atom_site_fract_z
Si Si1 0.500004 0.317294 0.101684
Si Si2 0.000078 0.939502 0.016965
Si Si3 0.999993 0.565192 0.767230
Si Si4 0.000006 0.573593 0.241447
Si Si5 0.499998 0.693644 0.651212
Si Si6 0.500079 0.840004 0.083212
O O1 0.500020 0.425464 0.035166
O O2 0.500006 0.384420 0.183987
O O3 0.767651 0.252298 0.105906
O O4 0.232353 0.252304 0.105905
O O5 0.000075 0.805933 0.960713
O O6 0.251543 0.921222 0.061686
O O7 0.748659 0.921193 0.061706
O O8 0.245961 0.476386 0.776088
O O9 0.000022 0.685119 0.829509
O O10 0.754011 0.476402 0.776094
O O11 0.000002 0.480792 0.164223
O O12 0.999994 0.740286 0.265689
#
# Coordination Sequence:
#
# PCOD9314175 Si02
#       6
#     4   4   4   4   4   4
#     4  10  21  36  59  89 123 157 198 250 309 365
#     4  10  21  38  62  92 125 163 208 258 310 363
#     4  10  21  36  59  89 123 157 198 250 309 365
#     4  10  21  36  57  87 122 158 200 250 304 360
#     4  10  21  36  57  87 122 158 200 250 304 360
#     4  10  21  38  62  92 125 163 208 258 310 363
#
# _framework density 25.522392
#
# number of rings (size 3 to 8) (size 9 to 14) (size 15 to 20)
#    0.000    2.000    0.000    3.000    0.000   10.667 
#    0.000    3.333    0.000   20.000    0.000    0.000 
#    0.000    0.000    0.000    0.000    0.000    0.000 
#
# Total GULP energy -133910.066229 kJ/mol
# GULP energy per Si atom -5579.586093 kJ/mol
# Density = 2.546430 g / cm^3
# Si number density = 25.522392 Si / 1000 Ang^3
#
#
#
# Elastic Constant Matrix: (Units=GPa)
#
#
# Indices 1 2 3 4 5 6 
#
# 1 265.2106 18.6011 23.1792 0.0000 0.0000 0.0000
# 2 18.6011 66.1725 21.9484 0.0000 0.0000 0.0000
# 3 23.1792 21.9484 106.3750 0.0000 0.0000 0.0000
# 4 0.0000 0.0000 0.0000 44.0805 0.0000 0.0000
# 5 0.0000 0.0000 0.0000 0.0000 -18.5960 0.0000
# 6 0.0000 0.0000 0.0000 0.0000 0.0000 -28.5733
#
#
#
# Elastic Compliance Matrix: (Units=1/GPa)
#
#
# Indices 1 2 3 4 5 6 
#
# 1 0.003890 -0.000872 -0.000668 0.000000 0.000000 0.000000
# 2 -0.000872 0.016418 -0.003197 0.000000 0.000000 0.000000
# 3 -0.000668 -0.003197 0.010206 0.000000 0.000000 0.000000
# 4 0.000000 0.000000 0.000000 0.022686 0.000000 0.000000
# 5 0.000000 0.000000 0.000000 0.000000 -0.053775 0.000000
# 6 0.000000 0.000000 0.000000 0.000000 0.000000 -0.034998
#
#
# Mechanical properties :
#
#
# Convention : Reuss Voigt Hill
#
# Bulk Modulus (GPa) = 47.53009 62.80173 55.16591
# Shear Modulus (GPa) = -261.97925 24.31752 -118.83087
#
# Velocity S-wave (km/s) = -10.14247 3.09008 -6.83085
# Velocity P-wave (km/s) = 10.88560 6.11485 6.36808
#
# Compressibility (1/GPa) = 0.02103930
#
# Stress axis : x y z
#
# Youngs Moduli (GPa) = 257.06220 60.90989 97.98223
#
# Poissons Ratio (x) = 0.05312 0.06543
# Poissons Ratio (y) = 0.22417 0.31329
# Poissons Ratio (z) = 0.17165 0.19476
#
# Static dielectric constant tensor:
#      x y z
#    x 2.177510 0.000000 0.000000 
#    y 0.000000 2.013780 0.000000 
#    z 0.000000 0.000000 1.967970 
# 
# From -- ./inp_files/4459.got.cif
#   From: 2010.05.17/outbox.cif.g08.bks.cpg/sg19_3_cif.got.tgz:4459.got - 2010.06.03 22:46:19.
