data_PCOD9314787
_publ_section_title
;
Structure prediction by ZEFSAII (Michael W. Deem and Ramdas Pophale) SiO2 
 PCOD9314787
Probable space group: P 21 21 21
;
_chemical_formula_sum "Si O2"
_cell_formula_units_Z 28
_cell_length_a 9.292221
_cell_length_b 14.557952
_cell_length_c 7.592108
_cell_angle_alpha 90.000000
_cell_angle_beta 90.000000
_cell_angle_gamma 90.000000
_cell_volume 1027.027780
_symmetry_space_group_name_H-M "P 21 21 21"
_symmetry_group_IT_number 19
_symmetry_cell_setting 'orthorhombic'
loop_
_space_group_symop_operation_xyz
x,y,z
1/2-x,-y,1/2+z
1/2+x,1/2-y,-z
-x,1/2+y,1/2-z
loop_
_atom_site_type_symbol
_atom_site_label
_atom_site_fract_x
_atom_site_fract_y
_atom_site_fract_z
Si Si1 0.467978 0.022956 0.827129
Si Si2 0.465814 0.238192 0.721103
Si Si3 0.267670 0.701191 0.943702
Si Si4 0.287016 0.069271 0.120938
Si Si5 0.965140 0.652627 0.564300
Si Si6 0.745671 0.923474 0.399712
Si Si7 0.932631 0.840554 0.733848
O O1 0.470735 0.131160 0.774844
O O2 0.637777 0.000114 0.836736
O O3 0.347612 0.978610 0.707948
O O4 0.398157 0.004354 0.017976
O O5 0.138630 0.360068 0.579464
O O6 0.617107 0.271300 0.637721
O O7 0.458631 0.292691 0.903112
O O8 0.228354 0.643863 0.770328
O O9 0.149743 0.742293 0.072078
O O10 0.402443 0.125911 0.231350
O O11 0.199373 0.128666 0.978514
O O12 0.073930 0.565588 0.573614
O O13 0.946588 0.730563 0.711533
O O14 0.834299 0.879590 0.569108
#
# Coordination Sequence:
#
# PCOD9314787 Si02
#       7
#     4   4   4   4   4   4   4
#     4  10  24  43  60  97 133 174 217 281 340 416
#     4  11  23  39  65 100 134 169 237 277 342 400
#     4  11  22  36  64 102 129 173 221 292 330 394
#     4  11  25  41  70  98 134 181 227 277 349 414
#     4  12  21  43  69  99 132 183 229 283 339 400
#     4  10  22  42  62  96 136 169 227 278 337 402
#     4  11  21  40  68  96 134 173 220 286 339 390
#
# _framework density 27.263135999999999
#
# number of rings (size 3 to 8) (size 9 to 14) (size 15 to 20)
#    0.000    1.143    5.714    2.571    6.000    0.000 
#    0.000    5.714    0.000    0.000    0.000    0.000 
#    0.000    0.000    0.000    0.000    0.000    0.000 
#
# Total GULP energy -156384.212713 kJ/mol
# GULP energy per Si atom -5585.150454 kJ/mol
# Density = 2.720108 g / cm^3
# Si number density = 27.263136 Si / 1000 Ang^3
#
#
#
# Elastic Constant Matrix: (Units=GPa)
#
#
# Indices 1 2 3 4 5 6 
#
# 1 156.5316 14.4044 -9.6288 0.0000 0.0000 0.0000
# 2 14.4044 54.8763 -0.6775 0.0000 0.0000 0.0000
# 3 -9.6288 -0.6775 69.0472 0.0000 0.0000 0.0000
# 4 0.0000 0.0000 0.0000 23.5418 0.0000 0.0000
# 5 0.0000 0.0000 0.0000 0.0000 48.5945 0.0000
# 6 0.0000 0.0000 0.0000 0.0000 0.0000 40.2881
#
#
#
# Elastic Compliance Matrix: (Units=1/GPa)
#
#
# Indices 1 2 3 4 5 6 
#
# 1 0.006603 -0.001722 0.000904 0.000000 0.000000 0.000000
# 2 -0.001722 0.018674 -0.000057 0.000000 0.000000 0.000000
# 3 0.000904 -0.000057 0.014608 0.000000 0.000000 0.000000
# 4 0.000000 0.000000 0.000000 0.042478 0.000000 0.000000
# 5 0.000000 0.000000 0.000000 0.000000 0.020578 0.000000
# 6 0.000000 0.000000 0.000000 0.000000 0.000000 0.024821
#
#
# Mechanical properties :
#
#
# Convention : Reuss Voigt Hill
#
# Bulk Modulus (GPa) = 26.22262 32.07236 29.14749
# Shear Modulus (GPa) = 35.15583 40.90867 38.03225
#
# Velocity S-wave (km/s) = 3.59486 3.87785 3.73903
# Velocity P-wave (km/s) = 5.18362 5.64268 5.41801
#
# Compressibility (1/GPa) = 0.03813501
#
# Stress axis : x y z
#
# Youngs Moduli (GPa) = 151.45684 53.55012 68.45407
#
# Poissons Ratio (x) = 0.09221 -0.06187
# Poissons Ratio (y) = 0.26080 0.00389
# Poissons Ratio (z) = -0.13689 0.00305
#
# Static dielectric constant tensor:
#      x y z
#    x 2.192990 0.000000 0.000000 
#    y 0.000000 2.242740 0.000000 
#    z 0.000000 0.000000 2.256640 
# 
# From -- ./inp_files/2950.got.cif
#   From: 2010.05.17/outbox.cif.g08.bks.cpg/sg19_2_cif.got.tgz:2950.got - 2010.06.03 22:46:19.
