data_PCOD9314977
_publ_section_title
;
Structure prediction by ZEFSAII (Michael W. Deem and Ramdas Pophale) SiO2 
 PCOD9314977
Probable space group: P 21 21 21
;
_chemical_formula_sum "Si O2"
_cell_formula_units_Z 32
_cell_length_a 10.831007
_cell_length_b 5.158186
_cell_length_c 21.611467
_cell_angle_alpha 90.000000
_cell_angle_beta 90.000000
_cell_angle_gamma 90.000000
_cell_volume 1207.396974
_symmetry_space_group_name_H-M "P 21 21 21"
_symmetry_group_IT_number 19
_symmetry_cell_setting 'orthorhombic'
loop_
_space_group_symop_operation_xyz
x,y,z
1/2-x,-y,1/2+z
1/2+x,1/2-y,-z
-x,1/2+y,1/2-z
loop_
_atom_site_type_symbol
_atom_site_label
_atom_site_fract_x
_atom_site_fract_y
_atom_site_fract_z
Si Si1 0.803527 0.608789 0.954818
Si Si2 0.280243 0.392428 0.432218
Si Si3 0.494016 0.583414 0.091257
Si Si4 0.638799 0.324456 0.870154
Si Si5 0.937897 0.494338 0.722002
Si Si6 0.821324 0.773931 0.197589
Si Si7 0.069291 0.740104 0.469914
Si Si8 0.604600 0.835040 0.788187
O O1 0.858353 0.799714 0.904610
O O2 0.747140 0.369888 0.919153
O O3 0.713403 0.750066 0.001487
O O4 0.911788 0.522654 0.001724
O O5 0.415498 0.334194 0.407000
O O6 0.197068 0.275703 0.376454
O O7 0.207826 0.652977 0.449690
O O8 0.535289 0.425402 0.150864
O O9 0.486980 0.423563 0.027330
O O10 0.517154 0.292706 0.911687
O O11 0.632101 0.576383 0.826519
O O12 0.650151 0.072964 0.829642
O O13 0.798771 0.375827 0.724639
O O14 0.972893 0.749404 0.761195
O O15 0.954307 0.650982 0.214480
O O16 0.835316 0.072132 0.222872
#
# Coordination Sequence:
#
# PCOD9314977 Si02
#       8
#     4   4   4   4   4   4   4   4
#     4  11  26  41  76 107 152 198 245 319 386 462
#     4  10  22  48  67 106 142 192 250 305 380 458
#     4  10  25  45  70 100 147 189 251 301 383 448
#     4  12  28  47  77 112 160 194 259 319 386 466
#     4  11  29  51  78 109 151 204 261 318 385 468
#     4  11  26  51  79 110 155 205 261 329 385 470
#     4  11  24  42  71 106 144 194 243 307 381 454
#     4  12  28  49  76 114 153 206 258 324 392 454
#
# _framework density 26.503298000000001
#
# number of rings (size 3 to 8) (size 9 to 14) (size 15 to 20)
#    0.000    1.000    2.500    1.500   12.250    2.000 
#    9.000    0.000    0.000    0.000    0.000    0.000 
#    0.000    0.000    0.000    0.000    0.000    0.000 
#
# Total GULP energy -179010.989064 kJ/mol
# GULP energy per Si atom -5594.093408 kJ/mol
# Density = 2.644298 g / cm^3
# Si number density = 26.503298 Si / 1000 Ang^3
#
#
#
# Elastic Constant Matrix: (Units=GPa)
#
#
# Indices 1 2 3 4 5 6 
#
# 1 71.9450 7.4461 28.8239 0.0000 0.0000 0.0000
# 2 7.4461 84.2815 24.9482 0.0000 0.0000 0.0000
# 3 28.8239 24.9482 122.7639 0.0000 0.0000 0.0000
# 4 0.0000 0.0000 0.0000 43.0744 0.0000 0.0000
# 5 0.0000 0.0000 0.0000 0.0000 49.7531 0.0000
# 6 0.0000 0.0000 0.0000 0.0000 0.0000 30.7034
#
#
#
# Elastic Compliance Matrix: (Units=1/GPa)
#
#
# Indices 1 2 3 4 5 6 
#
# 1 0.015350 -0.000308 -0.003542 0.000000 0.000000 0.000000
# 2 -0.000308 0.012631 -0.002495 0.000000 0.000000 0.000000
# 3 -0.003542 -0.002495 0.009484 0.000000 0.000000 0.000000
# 4 0.000000 0.000000 0.000000 0.023216 0.000000 0.000000
# 5 0.000000 0.000000 0.000000 0.000000 0.020099 0.000000
# 6 0.000000 0.000000 0.000000 0.000000 0.000000 0.032570
#
#
# Mechanical properties :
#
#
# Convention : Reuss Voigt Hill
#
# Bulk Modulus (GPa) = 40.35963 44.60296 42.48130
# Shear Modulus (GPa) = 37.23103 39.22430 38.22766
#
# Velocity S-wave (km/s) = 3.75209 3.85122 3.80198
# Velocity P-wave (km/s) = 5.83371 6.05323 5.94448
#
# Compressibility (1/GPa) = 0.02477723
#
# Stress axis : x y z
#
# Youngs Moduli (GPa) = 65.14551 79.17276 105.43866
#
# Poissons Ratio (x) = 0.02437 0.37342
# Poissons Ratio (y) = 0.02005 0.26302
# Poissons Ratio (z) = 0.23072 0.19750
#
# Static dielectric constant tensor:
#      x y z
#    x 2.101880 0.000000 0.000000 
#    y 0.000000 2.091380 0.000000 
#    z 0.000000 0.000000 2.078420 
# 
# From -- ./inp_files/7411.got.cif
#   From: 2010.05.17/outbox.cif.g08.bks.cpg/sg19_4_cif.got.tgz:7411.got - 2010.06.03 22:46:19.
