data_PCOD9314257
_publ_section_title
;
Structure prediction by ZEFSAII (Michael W. Deem and Ramdas Pophale) SiO2 
 PCOD9314257
Probable space group: P 21 21 21
;
_chemical_formula_sum "Si O2"
_cell_formula_units_Z 32
_cell_length_a 9.223923
_cell_length_b 16.885320
_cell_length_c 10.543362
_cell_angle_alpha 90.000000
_cell_angle_beta 90.000000
_cell_angle_gamma 90.000000
_cell_volume 1642.116944
_symmetry_space_group_name_H-M "P 21 21 21"
_symmetry_group_IT_number 19
_symmetry_cell_setting 'orthorhombic'
loop_
_space_group_symop_operation_xyz
x,y,z
1/2-x,-y,1/2+z
1/2+x,1/2-y,-z
-x,1/2+y,1/2-z
loop_
_atom_site_type_symbol
_atom_site_label
_atom_site_fract_x
_atom_site_fract_y
_atom_site_fract_z
Si Si1 0.912434 0.722647 0.946908
Si Si2 0.696837 0.641128 0.773894
Si Si3 0.059517 0.008663 0.133196
Si Si4 0.841026 0.180852 0.744525
Si Si5 0.678800 0.106026 0.526604
Si Si6 0.457086 0.744051 0.672378
Si Si7 0.939414 0.117191 0.342351
Si Si8 0.933499 0.652512 0.554296
O O1 0.759918 0.698165 0.883659
O O2 0.034833 0.724281 0.837713
O O3 0.897604 0.808330 0.009537
O O4 0.961600 0.655489 0.046564
O O5 0.684153 0.554042 0.833130
O O6 0.541863 0.665959 0.716444
O O7 0.808975 0.649164 0.659075
O O8 0.937999 0.960838 0.054148
O O9 0.000866 0.042302 0.266906
O O10 0.098807 0.083639 0.046741
O O11 0.778667 0.114101 0.651186
O O12 0.707284 0.237767 0.778477
O O13 0.916262 0.145237 0.868809
O O14 0.785125 0.098190 0.406069
O O15 0.553497 0.813165 0.737040
O O16 0.445555 0.765992 0.524881
#
# Coordination Sequence:
#
# PCOD9314257 Si02
#       8
#     4   4   4   4   4   4   4   4
#     4  10  21  39  66  91 119 156 217 263 289 366
#     4  11  22  41  64  91 122 166 209 254 311 364
#     4  11  25  38  63  87 130 169 196 257 315 387
#     4  10  21  38  63  91 117 156 202 258 298 361
#     4  11  21  39  66  88 117 163 209 259 299 369
#     4  11  19  40  67  90 120 158 207 255 304 364
#     4  10  22  38  60  94 124 155 209 256 316 357
#     4  10  25  41  59  92 129 159 201 254 314 368
#
# _framework density 19.487041999999999
#
# number of rings (size 3 to 8) (size 9 to 14) (size 15 to 20)
#    0.000    1.500    3.750    0.750    5.250    0.000 
#    2.250    0.000    2.750    0.000    0.000    0.000 
#    0.000    0.000    0.000    0.000    0.000    0.000 
#
# Total GULP energy -178480.216239 kJ/mol
# GULP energy per Si atom -5577.506757 kJ/mol
# Density = 1.944269 g / cm^3
# Si number density = 19.487042 Si / 1000 Ang^3
#
#
#
# Elastic Constant Matrix: (Units=GPa)
#
#
# Indices 1 2 3 4 5 6 
#
# 1 67.0465 4.4925 21.7818 0.0000 0.0000 0.0000
# 2 4.4925 53.6972 12.2887 0.0000 0.0000 0.0000
# 3 21.7818 12.2887 79.5073 0.0000 0.0000 0.0000
# 4 0.0000 0.0000 0.0000 33.5504 0.0000 0.0000
# 5 0.0000 0.0000 0.0000 0.0000 25.0171 0.0000
# 6 0.0000 0.0000 0.0000 0.0000 0.0000 22.2747
#
#
#
# Elastic Compliance Matrix: (Units=1/GPa)
#
#
# Indices 1 2 3 4 5 6 
#
# 1 0.016379 -0.000356 -0.004432 0.000000 0.000000 0.000000
# 2 -0.000356 0.019314 -0.002888 0.000000 0.000000 0.000000
# 3 -0.004432 -0.002888 0.014238 0.000000 0.000000 0.000000
# 4 0.000000 0.000000 0.000000 0.029806 0.000000 0.000000
# 5 0.000000 0.000000 0.000000 0.000000 0.039973 0.000000
# 6 0.000000 0.000000 0.000000 0.000000 0.000000 0.044894
#
#
# Mechanical properties :
#
#
# Convention : Reuss Voigt Hill
#
# Bulk Modulus (GPa) = 28.91936 30.81967 29.86952
# Shear Modulus (GPa) = 26.11232 26.94764 26.52998
#
# Velocity S-wave (km/s) = 3.66455 3.72270 3.69374
# Velocity P-wave (km/s) = 5.72519 5.85899 5.79248
#
# Compressibility (1/GPa) = 0.03457891
#
# Stress axis : x y z
#
# Youngs Moduli (GPa) = 61.05471 51.77713 70.23469
#
# Poissons Ratio (x) = 0.01843 0.31129
# Poissons Ratio (y) = 0.02174 0.20281
# Poissons Ratio (z) = 0.27060 0.14951
#
# Static dielectric constant tensor:
#      x y z
#    x 1.695330 0.000000 0.000000 
#    y 0.000000 1.687870 0.000000 
#    z 0.000000 0.000000 1.709390 
# 
# From -- ./inp_files/4672.got.cif
#   From: 2010.05.17/outbox.cif.g08.bks.cpg/sg19_3_cif.got.tgz:4672.got - 2010.06.03 22:46:19.
