data_PCOD9314279
_publ_section_title
;
Structure prediction by ZEFSAII (Michael W. Deem and Ramdas Pophale) SiO2 
 PCOD9314279
Probable space group: P 21 21 21
;
_chemical_formula_sum "Si O2"
_cell_formula_units_Z 32
_cell_length_a 14.670524
_cell_length_b 11.473244
_cell_length_c 9.245466
_cell_angle_alpha 90.000000
_cell_angle_beta 90.000000
_cell_angle_gamma 90.000000
_cell_volume 1556.182982
_symmetry_space_group_name_H-M "P 21 21 21"
_symmetry_group_IT_number 19
_symmetry_cell_setting 'orthorhombic'
loop_
_space_group_symop_operation_xyz
x,y,z
1/2-x,-y,1/2+z
1/2+x,1/2-y,-z
-x,1/2+y,1/2-z
loop_
_atom_site_type_symbol
_atom_site_label
_atom_site_fract_x
_atom_site_fract_y
_atom_site_fract_z
Si Si1 0.693607 0.508376 0.508221
Si Si2 0.545890 0.061465 0.622601
Si Si3 0.717344 0.722535 0.325605
Si Si4 0.335315 0.120377 0.688630
Si Si5 0.670751 0.970494 0.410250
Si Si6 0.097872 0.184143 0.323131
Si Si7 0.824163 0.095116 0.597969
Si Si8 0.597209 0.875050 0.819932
O O1 0.669927 0.609226 0.392327
O O2 0.777147 0.435804 0.440597
O O3 0.621135 0.411885 0.557278
O O4 0.812694 0.222626 0.671150
O O5 0.440661 0.076655 0.669392
O O6 0.585050 0.190710 0.605663
O O7 0.571504 0.992248 0.477855
O O8 0.611156 0.997566 0.740911
O O9 0.707696 0.575106 0.660858
O O10 0.701722 0.835265 0.427326
O O11 0.822251 0.689310 0.295347
O O12 0.339931 0.261243 0.692913
O O13 0.669229 0.987186 0.237670
O O14 0.743386 0.051174 0.493111
O O15 0.000281 0.158948 0.253747
O O16 0.908770 0.100392 0.490234
#
# Coordination Sequence:
#
# PCOD9314279 Si02
#       8
#     4   4   4   4   4   4   4   4
#     4  12  22  46  62  98 129 186 224 271 345 416
#     4  11  21  45  67  99 132 177 229 283 342 402
#     4  10  21  39  67  92 133 175 227 275 335 416
#     4  11  26  39  73  94 136 185 225 282 347 419
#     4  10  21  38  70  92 137 171 221 285 338 396
#     4  11  22  41  65  93 133 176 219 282 328 411
#     4  10  21  39  64 101 129 175 219 288 329 405
#     4  11  22  41  68  97 133 177 230 274 350 395
#
# _framework density 20.563134000000002
#
# number of rings (size 3 to 8) (size 9 to 14) (size 15 to 20)
#    0.750    0.500    3.750    3.000    0.000    0.000 
#    2.250    0.000    0.000    0.000    0.000    0.000 
#    0.000    0.000    0.000    0.000    0.000    0.000 
#
# Total GULP energy -178138.401948 kJ/mol
# GULP energy per Si atom -5566.825061 kJ/mol
# Density = 2.051633 g / cm^3
# Si number density = 20.563134 Si / 1000 Ang^3
#
#
#
# Elastic Constant Matrix: (Units=GPa)
#
#
# Indices 1 2 3 4 5 6 
#
# 1 28.6893 21.0344 8.0513 0.0000 0.0000 0.0000
# 2 21.0344 130.7781 34.1889 0.0000 0.0000 0.0000
# 3 8.0513 34.1889 98.5522 0.0000 0.0000 0.0000
# 4 0.0000 0.0000 0.0000 43.5296 0.0000 0.0000
# 5 0.0000 0.0000 0.0000 0.0000 24.6950 0.0000
# 6 0.0000 0.0000 0.0000 0.0000 0.0000 25.1440
#
#
#
# Elastic Compliance Matrix: (Units=1/GPa)
#
#
# Indices 1 2 3 4 5 6 
#
# 1 0.039630 -0.006079 -0.001129 0.000000 0.000000 0.000000
# 2 -0.006079 0.009342 -0.002744 0.000000 0.000000 0.000000
# 3 -0.001129 -0.002744 0.011191 0.000000 0.000000 0.000000
# 4 0.000000 0.000000 0.000000 0.022973 0.000000 0.000000
# 5 0.000000 0.000000 0.000000 0.000000 0.040494 0.000000
# 6 0.000000 0.000000 0.000000 0.000000 0.000000 0.039771
#
#
# Mechanical properties :
#
#
# Convention : Reuss Voigt Hill
#
# Bulk Modulus (GPa) = 24.83911 42.72984 33.78447
# Shear Modulus (GPa) = 25.41630 31.65669 28.53649
#
# Velocity S-wave (km/s) = 3.51951 3.92789 3.72929
# Velocity P-wave (km/s) = 5.34992 6.43397 5.91682
#
# Compressibility (1/GPa) = 0.04025910
#
# Stress axis : x y z
#
# Youngs Moduli (GPa) = 25.23339 107.04711 89.35684
#
# Poissons Ratio (x) = 0.65074 0.10086
# Poissons Ratio (y) = 0.15339 0.24520
# Poissons Ratio (z) = 0.02848 0.29375
#
# Static dielectric constant tensor:
#      x y z
#    x 1.795040 0.000000 0.000000 
#    y 0.000000 1.836550 0.000000 
#    z 0.000000 0.000000 1.771250 
# 
# From -- ./inp_files/3927.got.cif
#   From: 2010.05.17/outbox.cif.g08.bks.cpg/sg19_2_cif.got.tgz:3927.got - 2010.06.03 22:46:19.
