data_PCOD9314171
_publ_section_title
;
Structure prediction by ZEFSAII (Michael W. Deem and Ramdas Pophale) SiO2 
 PCOD9314171
Probable space group: P 21 21 21
;
_chemical_formula_sum "Si O2"
_cell_formula_units_Z 24
_cell_length_a 8.222732
_cell_length_b 22.871669
_cell_length_c 5.430116
_cell_angle_alpha 90.000000
_cell_angle_beta 90.000000
_cell_angle_gamma 90.000000
_cell_volume 1021.228909
_symmetry_space_group_name_H-M "P 21 21 21"
_symmetry_group_IT_number 19
_symmetry_cell_setting 'orthorhombic'
loop_
_space_group_symop_operation_xyz
x,y,z
1/2-x,-y,1/2+z
1/2+x,1/2-y,-z
-x,1/2+y,1/2-z
loop_
_atom_site_type_symbol
_atom_site_label
_atom_site_fract_x
_atom_site_fract_y
_atom_site_fract_z
Si Si1 0.094949 0.142517 0.336933
Si Si2 0.317813 0.573158 0.952564
Si Si3 0.111019 0.556413 0.448008
Si Si4 0.885084 0.765242 0.449834
Si Si5 0.404264 0.165691 0.625196
Si Si6 0.580046 0.784012 0.168019
O O1 0.111807 0.205764 0.208961
O O2 0.247306 0.131023 0.519740
O O3 0.045214 0.095721 0.129988
O O4 0.944739 0.157676 0.516735
O O5 0.202515 0.569132 0.707113
O O6 0.423378 0.512834 0.938776
O O7 0.438423 0.628325 0.952951
O O8 0.231198 0.568317 0.217687
O O9 0.713200 0.792964 0.380574
O O10 0.032231 0.811186 0.394885
O O11 0.911691 0.738054 0.714407
O O12 0.383074 0.228342 0.496914
#
# Coordination Sequence:
#
# PCOD9314171 Si02
#       6
#     4   4   4   4   4   4
#     4  10  22  39  61  93 130 165 215 267 328 386
#     4  10  23  44  68  95 124 170 220 267 321 388
#     4  10  23  44  68  94 125 169 222 265 323 386
#     4  10  21  35  60  92 129 171 212 265 323 396
#     4  10  22  39  60  95 128 167 213 269 326 388
#     4  10  21  37  59  93 130 168 214 261 327 392
#
# _framework density 23.501097000000001
#
# number of rings (size 3 to 8) (size 9 to 14) (size 15 to 20)
#    0.000    2.000    0.000    2.000    7.000    2.667 
#    0.000    5.000    0.000    0.000    0.000    0.000 
#    0.000    0.000    0.000    0.000    0.000    0.000 
#
# Total GULP energy -133685.608541 kJ/mol
# GULP energy per Si atom -5570.233689 kJ/mol
# Density = 2.344761 g / cm^3
# Si number density = 23.501097 Si / 1000 Ang^3
#
#
#
# Elastic Constant Matrix: (Units=GPa)
#
#
# Indices 1 2 3 4 5 6 
#
# 1 81.4920 16.7791 28.5589 0.0000 0.0000 0.0000
# 2 16.7791 45.8320 5.8997 0.0000 0.0000 0.0000
# 3 28.5589 5.8997 97.3123 0.0000 0.0000 0.0000
# 4 0.0000 0.0000 0.0000 28.6164 0.0000 0.0000
# 5 0.0000 0.0000 0.0000 0.0000 33.5709 0.0000
# 6 0.0000 0.0000 0.0000 0.0000 0.0000 32.4073
#
#
#
# Elastic Compliance Matrix: (Units=1/GPa)
#
#
# Indices 1 2 3 4 5 6 
#
# 1 0.014678 -0.004857 -0.004013 0.000000 0.000000 0.000000
# 2 -0.004857 0.023598 -0.000005 0.000000 0.000000 0.000000
# 3 -0.004013 -0.000005 0.011454 0.000000 0.000000 0.000000
# 4 0.000000 0.000000 0.000000 0.034945 0.000000 0.000000
# 5 0.000000 0.000000 0.000000 0.000000 0.029788 0.000000
# 6 0.000000 0.000000 0.000000 0.000000 0.000000 0.030857
#
#
# Mechanical properties :
#
#
# Convention : Reuss Voigt Hill
#
# Bulk Modulus (GPa) = 31.27053 36.34575 33.80814
# Shear Modulus (GPa) = 28.78041 30.47885 29.62963
#
# Velocity S-wave (km/s) = 3.50328 3.60517 3.55459
# Velocity P-wave (km/s) = 5.44967 5.72964 5.59141
#
# Compressibility (1/GPa) = 0.03197900
#
# Stress axis : x y z
#
# Youngs Moduli (GPa) = 68.13125 42.37721 87.30379
#
# Poissons Ratio (x) = 0.20582 0.35036
# Poissons Ratio (y) = 0.33090 0.00046
# Poissons Ratio (z) = 0.27342 0.00022
#
# Static dielectric constant tensor:
#      x y z
#    x 2.007030 0.000000 0.000000 
#    y 0.000000 1.899940 0.000000 
#    z 0.000000 0.000000 1.972000 
# 
# From -- ./inp_files/473.got.cif
#   From: 2010.05.17/outbox.cif.g08.bks.cpg/sg19_1_cif.got.tgz:473.got - 2010.06.03 22:46:19.
