data_PCOD9314267
_publ_section_title
;
Structure prediction by ZEFSAII (Michael W. Deem and Ramdas Pophale) SiO2 
 PCOD9314267
Probable space group: P 21 21 21
;
_chemical_formula_sum "Si O2"
_cell_formula_units_Z 28
_cell_length_a 6.871333
_cell_length_b 10.241608
_cell_length_c 19.422734
_cell_angle_alpha 90.000000
_cell_angle_beta 90.000000
_cell_angle_gamma 90.000000
_cell_volume 1366.845752
_symmetry_space_group_name_H-M "P 21 21 21"
_symmetry_group_IT_number 19
_symmetry_cell_setting 'orthorhombic'
loop_
_space_group_symop_operation_xyz
x,y,z
1/2-x,-y,1/2+z
1/2+x,1/2-y,-z
-x,1/2+y,1/2-z
loop_
_atom_site_type_symbol
_atom_site_label
_atom_site_fract_x
_atom_site_fract_y
_atom_site_fract_z
Si Si1 0.193373 0.239768 0.939675
Si Si2 0.102811 0.750783 0.680512
Si Si3 0.944981 0.041904 0.702013
Si Si4 0.593335 0.163975 0.913348
Si Si5 0.786942 0.623787 0.922712
Si Si6 0.377564 0.517485 0.901752
Si Si7 0.361077 0.392103 0.525225
O O1 0.361326 0.142820 0.916210
O O2 0.289025 0.378669 0.922015
O O3 0.007010 0.228429 0.891993
O O4 0.140349 0.247344 0.019465
O O5 0.048332 0.634167 0.731886
O O6 0.325846 0.730706 0.655690
O O7 0.031258 0.893375 0.707481
O O8 0.723700 0.042743 0.671901
O O9 0.072868 0.109509 0.642401
O O10 0.678177 0.020714 0.929403
O O11 0.607814 0.526484 0.908940
O O12 0.684929 0.763701 0.931554
O O13 0.926433 0.599186 0.988731
O O14 0.286778 0.610238 0.960518
#
# Coordination Sequence:
#
# PCOD9314267 Si02
#       7
#     4   4   4   4   4   4   4
#     4  10  21  38  65  95 123 164 206 273 330 377
#     4  11  24  46  65  95 134 169 224 271 321 403
#     4  10  25  42  66  91 129 183 215 263 336 389
#     4  11  22  37  63  98 125 163 220 271 328 388
#     4  11  20  40  61  91 132 169 212 274 325 390
#     4   9  20  39  62  89 129 165 208 263 321 386
#     4  10  22  34  60  97 126 165 215 263 331 381
#
# _framework density 20.485119999999998
#
# number of rings (size 3 to 8) (size 9 to 14) (size 15 to 20)
#    0.000    1.714    2.857    1.714    4.000    1.143 
#    2.571    0.000    0.000    0.000    0.000    0.000 
#    0.000    0.000    0.000    0.000    0.000    0.000 
#
# Total GULP energy -156119.707223 kJ/mol
# GULP energy per Si atom -5575.703829 kJ/mol
# Density = 2.043850 g / cm^3
# Si number density = 20.485120 Si / 1000 Ang^3
#
#
#
# Elastic Constant Matrix: (Units=GPa)
#
#
# Indices 1 2 3 4 5 6 
#
# 1 76.0977 4.8721 5.3011 0.0000 0.0000 0.0000
# 2 4.8721 101.2308 49.5566 0.0000 0.0000 0.0000
# 3 5.3011 49.5566 59.7224 0.0000 0.0000 0.0000
# 4 0.0000 0.0000 0.0000 26.4790 0.0000 0.0000
# 5 0.0000 0.0000 0.0000 0.0000 18.1316 0.0000
# 6 0.0000 0.0000 0.0000 0.0000 0.0000 25.9635
#
#
#
# Elastic Compliance Matrix: (Units=1/GPa)
#
#
# Indices 1 2 3 4 5 6 
#
# 1 0.013223 -0.000104 -0.001087 0.000000 0.000000 0.000000
# 2 -0.000104 0.016637 -0.013796 0.000000 0.000000 0.000000
# 3 -0.001087 -0.013796 0.028288 0.000000 0.000000 0.000000
# 4 0.000000 0.000000 0.000000 0.037766 0.000000 0.000000
# 5 0.000000 0.000000 0.000000 0.000000 0.055152 0.000000
# 6 0.000000 0.000000 0.000000 0.000000 0.000000 0.038516
#
#
# Mechanical properties :
#
#
# Convention : Reuss Voigt Hill
#
# Bulk Modulus (GPa) = 35.49372 39.61228 37.55300
# Shear Modulus (GPa) = 21.83895 25.93622 23.88758
#
# Velocity S-wave (km/s) = 3.26864 3.56209 3.41852
# Velocity P-wave (km/s) = 5.62224 6.02470 5.82695
#
# Compressibility (1/GPa) = 0.02817399
#
# Stress axis : x y z
#
# Youngs Moduli (GPa) = 75.62341 60.10658 35.35033
#
# Poissons Ratio (x) = 0.00626 0.03844
# Poissons Ratio (y) = 0.00787 0.48769
# Poissons Ratio (z) = 0.08223 0.82923
#
# Static dielectric constant tensor:
#      x y z
#    x 1.836720 0.000000 0.000000 
#    y 0.000000 1.765810 0.000000 
#    z 0.000000 0.000000 1.707170 
# 
# From -- ./inp_files/1924.got.cif
#   From: 2010.05.17/outbox.cif.g08.bks.cpg/sg19_1_cif.got.tgz:1924.got - 2010.06.03 22:46:19.
