data_PCOD9314798
_publ_section_title
;
Structure prediction by ZEFSAII (Michael W. Deem and Ramdas Pophale) SiO2 
 PCOD9314798
Probable space group: P 21 21 21
;
_chemical_formula_sum "Si O2"
_cell_formula_units_Z 32
_cell_length_a 5.254476
_cell_length_b 8.754747
_cell_length_c 31.185255
_cell_angle_alpha 90.000000
_cell_angle_beta 90.000000
_cell_angle_gamma 90.000000
_cell_volume 1434.571876
_symmetry_space_group_name_H-M "P 21 21 21"
_symmetry_group_IT_number 19
_symmetry_cell_setting 'orthorhombic'
loop_
_space_group_symop_operation_xyz
x,y,z
1/2-x,-y,1/2+z
1/2+x,1/2-y,-z
-x,1/2+y,1/2-z
loop_
_atom_site_type_symbol
_atom_site_label
_atom_site_fract_x
_atom_site_fract_y
_atom_site_fract_z
Si Si1 0.324004 0.174052 0.115216
Si Si2 0.229619 0.318419 0.022769
Si Si3 0.395196 0.719745 0.840770
Si Si4 0.776570 0.185564 0.479466
Si Si5 0.944478 0.085137 0.187253
Si Si6 0.545221 0.322135 0.199948
Si Si7 0.417661 0.826091 0.109003
Si Si8 0.760773 0.392824 0.736276
O O1 0.268031 0.265559 0.072076
O O2 0.074548 0.128238 0.142475
O O3 0.467301 0.273839 0.151728
O O4 0.451552 0.010377 0.103427
O O5 0.212235 0.501847 0.019663
O O6 0.473372 0.257188 0.996228
O O7 0.273632 0.560749 0.822446
O O8 0.675551 0.694930 0.859417
O O9 0.415496 0.835004 0.801689
O O10 0.176850 0.756024 0.875368
O O11 0.556578 0.245092 0.511834
O O12 0.674800 0.249525 0.434592
O O13 0.125661 0.021252 0.224583
O O14 0.816341 0.237856 0.204387
O O15 0.547473 0.497940 0.211274
O O16 0.382012 0.242907 0.236789
#
# Coordination Sequence:
#
# PCOD9314798 Si02
#       8
#     4   4   4   4   4   4   4   4
#     4  10  24  43  67 104 137 188 231 299 358 429
#     4  12  28  48  79 110 150 193 243 304 370 447
#     4  11  24  42  65  99 135 183 231 288 354 417
#     4  12  26  49  77 109 146 190 243 300 371 448
#     4  10  22  42  64  95 134 187 234 291 351 425
#     4  11  23  42  66  94 142 179 245 293 355 421
#     4  11  24  44  71  99 143 179 233 289 360 429
#     4  11  25  38  65  94 135 189 236 294 351 418
#
# _framework density 22.306304999999998
#
# number of rings (size 3 to 8) (size 9 to 14) (size 15 to 20)
#    0.000    1.000    1.250    4.500    8.750    3.000 
#    0.000    0.000    0.000    0.000    0.000    0.000 
#    0.000    0.000    0.000    0.000    0.000    0.000 
#
# Total GULP energy -178643.346251 kJ/mol
# GULP energy per Si atom -5582.604570 kJ/mol
# Density = 2.225554 g / cm^3
# Si number density = 22.306305 Si / 1000 Ang^3
#
#
#
# Elastic Constant Matrix: (Units=GPa)
#
#
# Indices 1 2 3 4 5 6 
#
# 1 61.4001 32.7620 5.1644 0.0000 0.0000 0.0000
# 2 32.7620 193.9400 60.0805 0.0000 0.0000 0.0000
# 3 5.1644 60.0805 106.2755 0.0000 0.0000 0.0000
# 4 0.0000 0.0000 0.0000 14.5936 0.0000 0.0000
# 5 0.0000 0.0000 0.0000 0.0000 140.2235 0.0000
# 6 0.0000 0.0000 0.0000 0.0000 0.0000 22.8339
#
#
#
# Elastic Compliance Matrix: (Units=1/GPa)
#
#
# Indices 1 2 3 4 5 6 
#
# 1 0.017991 -0.003356 0.001023 0.000000 0.000000 0.000000
# 2 -0.003356 0.006877 -0.003725 0.000000 0.000000 0.000000
# 3 0.001023 -0.003725 0.011465 0.000000 0.000000 0.000000
# 4 0.000000 0.000000 0.000000 0.068523 0.000000 0.000000
# 5 0.000000 0.000000 0.000000 0.000000 0.007131 0.000000
# 6 0.000000 0.000000 0.000000 0.000000 0.000000 0.043795
#
#
# Mechanical properties :
#
#
# Convention : Reuss Voigt Hill
#
# Bulk Modulus (GPa) = 41.29116 61.95880 51.62498
# Shear Modulus (GPa) = 28.41371 53.10413 40.75892
#
# Velocity S-wave (km/s) = 3.57290 4.88451 4.27926
# Velocity P-wave (km/s) = 5.96423 7.72321 6.90000
#
# Compressibility (1/GPa) = 0.02421826
#
# Stress axis : x y z
#
# Youngs Moduli (GPa) = 55.58219 145.41089 87.21843
#
# Poissons Ratio (x) = 0.48803 -0.08923
# Poissons Ratio (y) = 0.18654 0.32486
# Poissons Ratio (z) = -0.05686 0.54161
#
# Static dielectric constant tensor:
#      x y z
#    x 1.933850 0.000000 0.000000 
#    y 0.000000 1.809250 0.000000 
#    z 0.000000 0.000000 1.801510 
# 
# From -- ./inp_files/7530.got.cif
#   From: 2010.05.17/outbox.cif.g08.bks.cpg/sg19_4_cif.got.tgz:7530.got - 2010.06.03 22:46:19.
