data_PCOD9314367
_publ_section_title
;
Structure prediction by ZEFSAII (Michael W. Deem and Ramdas Pophale) SiO2 
 PCOD9314367
Probable space group: P 21 21 21
;
_chemical_formula_sum "Si O2"
_cell_formula_units_Z 32
_cell_length_a 10.983149
_cell_length_b 9.028461
_cell_length_c 15.607645
_cell_angle_alpha 90.000000
_cell_angle_beta 90.000000
_cell_angle_gamma 90.000000
_cell_volume 1547.668631
_symmetry_space_group_name_H-M "P 21 21 21"
_symmetry_group_IT_number 19
_symmetry_cell_setting 'orthorhombic'
loop_
_space_group_symop_operation_xyz
x,y,z
1/2-x,-y,1/2+z
1/2+x,1/2-y,-z
-x,1/2+y,1/2-z
loop_
_atom_site_type_symbol
_atom_site_label
_atom_site_fract_x
_atom_site_fract_y
_atom_site_fract_z
Si Si1 0.069296 0.930118 0.251511
Si Si2 0.977605 0.867687 0.419656
Si Si3 0.389638 0.332780 0.045454
Si Si4 0.772768 0.681197 0.328740
Si Si5 0.674460 0.898033 0.725325
Si Si6 0.798328 0.998565 0.554384
Si Si7 0.576071 0.027703 0.305526
Si Si8 0.598391 0.796517 0.178180
O O1 0.111547 0.758235 0.250176
O O2 0.060414 0.961833 0.354573
O O3 0.167313 0.028325 0.200484
O O4 0.936680 0.984302 0.216868
O O5 0.879432 0.793635 0.356134
O O6 0.914893 0.948858 0.499274
O O7 0.042377 0.730518 0.464691
O O8 0.312911 0.197778 0.087593
O O9 0.460316 0.404872 0.124179
O O10 0.308098 0.469542 0.013033
O O11 0.694911 0.741759 0.249095
O O12 0.752432 0.900876 0.636474
O O13 0.779089 0.940141 0.794700
O O14 0.828857 0.157640 0.593600
O O15 0.504297 0.174625 0.327083
O O16 0.541668 0.949500 0.215515
#
# Coordination Sequence:
#
# PCOD9314367 Si02
#       8
#     4   4   4   4   4   4   4   4
#     4  12  22  42  70 100 127 178 232 269 338 409
#     4  11  22  41  68  97 130 185 213 280 346 396
#     4  10  21  42  64  95 138 174 215 282 337 393
#     4  10  23  40  67  96 132 171 228 266 326 403
#     4  11  24  40  70  98 130 179 226 277 330 403
#     4  10  21  40  64  93 137 168 220 273 338 381
#     4  10  24  41  67  95 134 174 226 270 333 402
#     4  10  23  42  68  96 134 177 220 277 328 399
#
# _framework density 20.676259999999999
#
# number of rings (size 3 to 8) (size 9 to 14) (size 15 to 20)
#    0.000    1.500    2.500    3.000    8.750    0.000 
#    2.250    2.500    0.000    0.000    0.000    0.000 
#    0.000    0.000    0.000    0.000    0.000    0.000 
#
# Total GULP energy -178140.921724 kJ/mol
# GULP energy per Si atom -5566.903804 kJ/mol
# Density = 2.062920 g / cm^3
# Si number density = 20.676260 Si / 1000 Ang^3
#
#
#
# Elastic Constant Matrix: (Units=GPa)
#
#
# Indices 1 2 3 4 5 6 
#
# 1 67.0832 34.2668 15.4316 0.0000 0.0000 0.0000
# 2 34.2668 68.9799 13.7770 0.0000 0.0000 0.0000
# 3 15.4316 13.7770 75.5979 0.0000 0.0000 0.0000
# 4 0.0000 0.0000 0.0000 33.2575 0.0000 0.0000
# 5 0.0000 0.0000 0.0000 0.0000 27.5719 0.0000
# 6 0.0000 0.0000 0.0000 0.0000 0.0000 31.3136
#
#
#
# Elastic Compliance Matrix: (Units=1/GPa)
#
#
# Indices 1 2 3 4 5 6 
#
# 1 0.020388 -0.009648 -0.002404 0.000000 0.000000 0.000000
# 2 -0.009648 0.019610 -0.001604 0.000000 0.000000 0.000000
# 3 -0.002404 -0.001604 0.014011 0.000000 0.000000 0.000000
# 4 0.000000 0.000000 0.000000 0.030068 0.000000 0.000000
# 5 0.000000 0.000000 0.000000 0.000000 0.036269 0.000000
# 6 0.000000 0.000000 0.000000 0.000000 0.000000 0.031935
#
#
# Mechanical properties :
#
#
# Convention : Reuss Voigt Hill
#
# Bulk Modulus (GPa) = 37.45684 37.62353 37.54019
# Shear Modulus (GPa) = 26.52628 28.30763 27.41695
#
# Velocity S-wave (km/s) = 3.58569 3.70413 3.64539
# Velocity P-wave (km/s) = 5.94122 6.04402 5.99284
#
# Compressibility (1/GPa) = 0.02669739
#
# Stress axis : x y z
#
# Youngs Moduli (GPa) = 49.04828 50.99384 71.37311
#
# Poissons Ratio (x) = 0.49199 0.17155
# Poissons Ratio (y) = 0.47322 0.11451
# Poissons Ratio (z) = 0.11789 0.08181
#
# Static dielectric constant tensor:
#      x y z
#    x 1.815170 0.000000 0.000000 
#    y 0.000000 1.760930 0.000000 
#    z 0.000000 0.000000 1.796070 
# 
# From -- ./inp_files/6175.got.cif
#   From: 2010.05.17/outbox.cif.g08.bks.cpg/sg19_4_cif.got.tgz:6175.got - 2010.06.03 22:46:19.
