data_PCOD9314536
_publ_section_title
;
Structure prediction by ZEFSAII (Michael W. Deem and Ramdas Pophale) SiO2 
 PCOD9314536
Probable space group: P 21 21 21
;
_chemical_formula_sum "Si O2"
_cell_formula_units_Z 32
_cell_length_a 8.653521
_cell_length_b 14.581266
_cell_length_c 12.354803
_cell_angle_alpha 90.000000
_cell_angle_beta 90.000000
_cell_angle_gamma 90.000000
_cell_volume 1558.920290
_symmetry_space_group_name_H-M "P 21 21 21"
_symmetry_group_IT_number 19
_symmetry_cell_setting 'orthorhombic'
loop_
_space_group_symop_operation_xyz
x,y,z
1/2-x,-y,1/2+z
1/2+x,1/2-y,-z
-x,1/2+y,1/2-z
loop_
_atom_site_type_symbol
_atom_site_label
_atom_site_fract_x
_atom_site_fract_y
_atom_site_fract_z
Si Si1 0.675814 0.237414 0.417586
Si Si2 0.929162 0.401389 0.682893
Si Si3 0.895283 0.138933 0.582278
Si Si4 0.253933 0.268797 0.227845
Si Si5 0.894237 0.297413 0.222060
Si Si6 0.978318 0.941989 0.577122
Si Si7 0.265090 0.930658 0.421315
Si Si8 0.720773 0.235294 0.022815
O O1 0.559300 0.158924 0.375946
O O2 0.773240 0.199955 0.517188
O O3 0.566170 0.323532 0.443425
O O4 0.793387 0.263916 0.322317
O O5 0.797513 0.329489 0.721112
O O6 0.865546 0.482369 0.608539
O O7 0.995928 0.440299 0.794728
O O8 0.860675 0.158916 0.708351
O O9 0.882702 0.033335 0.551154
O O10 0.281114 0.266884 0.099404
O O11 0.925200 0.793140 0.255663
O O12 0.834282 0.397280 0.183540
O O13 0.851515 0.235512 0.116572
O O14 0.893092 0.849210 0.541428
O O15 0.140896 0.948240 0.515175
O O16 0.352212 0.836513 0.455208
#
# Coordination Sequence:
#
# PCOD9314536 Si02
#       8
#     4   4   4   4   4   4   4   4
#     4  11  24  47  68  96 142 180 230 281 363 409
#     4  11  23  45  68 101 136 185 225 288 349 423
#     4  11  28  42  69 100 139 187 226 296 345 432
#     4  11  23  45  70  98 140 182 234 283 353 410
#     4  10  21  43  72  96 131 183 226 287 341 410
#     4  12  23  45  66 104 139 178 236 287 350 414
#     4  10  23  41  69  99 133 184 223 282 347 417
#     4  10  21  46  68  98 138 179 228 292 346 401
#
# _framework density 20.527028000000001
#
# number of rings (size 3 to 8) (size 9 to 14) (size 15 to 20)
#    0.750    0.500    3.750    1.500    5.250    1.000 
#    9.000    0.000    0.000    0.000    0.000    0.000 
#    0.000    0.000    0.000    0.000    0.000    0.000 
#
# Total GULP energy -178753.556705 kJ/mol
# GULP energy per Si atom -5586.048647 kJ/mol
# Density = 2.048031 g / cm^3
# Si number density = 20.527028 Si / 1000 Ang^3
#
#
#
# Elastic Constant Matrix: (Units=GPa)
#
#
# Indices 1 2 3 4 5 6 
#
# 1 49.4494 21.8483 -3.2792 0.0000 0.0000 0.0000
# 2 21.8483 90.7592 20.8182 0.0000 0.0000 0.0000
# 3 -3.2792 20.8182 67.5172 0.0000 0.0000 0.0000
# 4 0.0000 0.0000 0.0000 15.3195 0.0000 0.0000
# 5 0.0000 0.0000 0.0000 0.0000 33.4054 0.0000
# 6 0.0000 0.0000 0.0000 0.0000 0.0000 24.5788
#
#
#
# Elastic Compliance Matrix: (Units=1/GPa)
#
#
# Indices 1 2 3 4 5 6 
#
# 1 0.023205 -0.006289 0.003066 0.000000 0.000000 0.000000
# 2 -0.006289 0.013561 -0.004487 0.000000 0.000000 0.000000
# 3 0.003066 -0.004487 0.016343 0.000000 0.000000 0.000000
# 4 0.000000 0.000000 0.000000 0.065276 0.000000 0.000000
# 5 0.000000 0.000000 0.000000 0.000000 0.029935 0.000000
# 6 0.000000 0.000000 0.000000 0.000000 0.000000 0.040686
#
#
# Mechanical properties :
#
#
# Convention : Reuss Voigt Hill
#
# Bulk Modulus (GPa) = 26.53254 31.83339 29.18297
# Shear Modulus (GPa) = 23.04249 25.88328 24.46289
#
# Velocity S-wave (km/s) = 3.35407 3.55482 3.45590
# Velocity P-wave (km/s) = 5.28710 5.69128 5.49291
#
# Compressibility (1/GPa) = 0.03768957
#
# Stress axis : x y z
#
# Youngs Moduli (GPa) = 43.09436 73.73851 61.18644
#
# Poissons Ratio (x) = 0.46377 -0.18762
# Poissons Ratio (y) = 0.27104 0.27454
# Poissons Ratio (z) = -0.13214 0.33086
#
# Static dielectric constant tensor:
#      x y z
#    x 1.719460 0.000000 0.000000 
#    y 0.000000 1.737430 0.000000 
#    z 0.000000 0.000000 1.736750 
# 
# From -- ./inp_files/4734.got.cif
#   From: 2010.05.17/outbox.cif.g08.bks.cpg/sg19_3_cif.got.tgz:4734.got - 2010.06.03 22:46:19.
