data_PCOD9314124
_publ_section_title
;
Structure prediction by ZEFSAII (Michael W. Deem and Ramdas Pophale) SiO2 
 PCOD9314124
Probable space group: P 21 21 21
;
_chemical_formula_sum "Si O2"
_cell_formula_units_Z 32
_cell_length_a 6.921178
_cell_length_b 9.673407
_cell_length_c 16.839752
_cell_angle_alpha 90.000000
_cell_angle_beta 90.000000
_cell_angle_gamma 90.000000
_cell_volume 1127.444496
_symmetry_space_group_name_H-M "P 21 21 21"
_symmetry_group_IT_number 19
_symmetry_cell_setting 'orthorhombic'
loop_
_space_group_symop_operation_xyz
x,y,z
1/2-x,-y,1/2+z
1/2+x,1/2-y,-z
-x,1/2+y,1/2-z
loop_
_atom_site_type_symbol
_atom_site_label
_atom_site_fract_x
_atom_site_fract_y
_atom_site_fract_z
Si Si1 0.966996 0.684171 0.310435
Si Si2 0.517558 0.584803 0.571098
Si Si3 0.033081 0.603743 0.705693
Si Si4 0.221270 0.505258 0.409265
Si Si5 0.952092 0.655721 0.531904
Si Si6 0.161807 0.035312 0.646355
Si Si7 0.385434 0.806320 0.875692
Si Si8 0.965017 0.812777 0.839288
O O1 0.163552 0.614198 0.340834
O O2 0.814375 0.587152 0.359741
O O3 0.571623 0.772826 0.232825
O O4 0.946646 0.680024 0.216569
O O5 0.472258 0.659473 0.655712
O O6 0.739117 0.597754 0.543591
O O7 0.429211 0.698928 0.512307
O O8 0.019853 0.673744 0.621700
O O9 0.851371 0.546603 0.756724
O O10 0.490348 0.420435 0.575970
O O11 0.106266 0.560135 0.486550
O O12 0.123943 0.355679 0.395325
O O13 0.452853 0.491254 0.394838
O O14 0.182405 0.198950 0.625296
O O15 0.156373 0.846597 0.889364
O O16 0.870745 0.955665 0.812371
#
# Coordination Sequence:
#
# PCOD9314124 Si02
#       8
#     4   4   4   4   4   4   4   4
#     4  11  22  46  78 116 155 197 265 350 388 471
#     4  11  26  48  81 108 161 210 261 324 397 491
#     4  10  20  42  80 113 156 201 268 329 404 470
#     4  10  25  46  75 113 159 211 264 320 406 493
#     4  11  25  52  70 113 159 213 258 325 403 479
#     4   9  21  44  78 112 151 202 266 331 400 462
#     4  11  20  48  76 118 153 202 269 334 395 475
#     4   9  19  38  74 113 150 196 251 337 381 473
#
# _framework density 28.382771000000002
#
# number of rings (size 3 to 8) (size 9 to 14) (size 15 to 20)
#    0.750    1.000    2.500    0.750    0.000    4.000 
#   13.500    6.250    0.000    0.000    0.000    0.000 
#    0.000    0.000    0.000    0.000    0.000    0.000 
#
# Total GULP energy -178665.073117 kJ/mol
# GULP energy per Si atom -5583.283535 kJ/mol
# Density = 2.831817 g / cm^3
# Si number density = 28.382771 Si / 1000 Ang^3
#
#
#
# Elastic Constant Matrix: (Units=GPa)
#
#
# Indices 1 2 3 4 5 6 
#
# 1 106.9884 57.4886 28.8501 0.0000 0.0000 0.0000
# 2 57.4886 238.5450 40.6919 0.0000 0.0000 0.0000
# 3 28.8501 40.6919 93.2167 0.0000 0.0000 0.0000
# 4 0.0000 0.0000 0.0000 38.8891 0.0000 0.0000
# 5 0.0000 0.0000 0.0000 0.0000 28.6081 0.0000
# 6 0.0000 0.0000 0.0000 0.0000 0.0000 50.4388
#
#
#
# Elastic Compliance Matrix: (Units=1/GPa)
#
#
# Indices 1 2 3 4 5 6 
#
# 1 0.011245 -0.002287 -0.002482 0.000000 0.000000 0.000000
# 2 -0.002287 0.004994 -0.001472 0.000000 0.000000 0.000000
# 3 -0.002482 -0.001472 0.012139 0.000000 0.000000 0.000000
# 4 0.000000 0.000000 0.000000 0.025714 0.000000 0.000000
# 5 0.000000 0.000000 0.000000 0.000000 0.034955 0.000000
# 6 0.000000 0.000000 0.000000 0.000000 0.000000 0.019826
#
#
# Mechanical properties :
#
#
# Convention : Reuss Voigt Hill
#
# Bulk Modulus (GPa) = 62.91070 76.97903 69.94486
# Shear Modulus (GPa) = 39.47774 44.36852 41.92313
#
# Velocity S-wave (km/s) = 3.73353 3.95805 3.84743
# Velocity P-wave (km/s) = 6.38740 6.93317 6.66587
#
# Compressibility (1/GPa) = 0.01589555
#
# Stress axis : x y z
#
# Youngs Moduli (GPa) = 88.93039 200.22763 82.38147
#
# Poissons Ratio (x) = 0.45783 0.20447
# Poissons Ratio (y) = 0.20334 0.12131
# Poissons Ratio (z) = 0.22073 0.29483
#
# Static dielectric constant tensor:
#      x y z
#    x 2.316180 0.000000 0.000000 
#    y 0.000000 2.206960 0.000000 
#    z 0.000000 0.000000 2.336210 
# 
# From -- ./inp_files/7302.got.cif
#   From: 2010.05.17/outbox.cif.g08.bks.cpg/sg19_4_cif.got.tgz:7302.got - 2010.06.03 22:46:19.
