data_PCOD9314170
_publ_section_title
;
Structure prediction by ZEFSAII (Michael W. Deem and Ramdas Pophale) SiO2 
 PCOD9314170
Probable space group: P 21 21 21
;
_chemical_formula_sum "Si O2"
_cell_formula_units_Z 20
_cell_length_a 8.498628
_cell_length_b 11.638706
_cell_length_c 7.854208
_cell_angle_alpha 90.000000
_cell_angle_beta 90.000000
_cell_angle_gamma 90.000000
_cell_volume 776.883533
_symmetry_space_group_name_H-M "P 21 21 21"
_symmetry_group_IT_number 19
_symmetry_cell_setting 'orthorhombic'
loop_
_space_group_symop_operation_xyz
x,y,z
1/2-x,-y,1/2+z
1/2+x,1/2-y,-z
-x,1/2+y,1/2-z
loop_
_atom_site_type_symbol
_atom_site_label
_atom_site_fract_x
_atom_site_fract_y
_atom_site_fract_z
Si Si1 0.294214 0.364429 0.930261
Si Si2 0.031161 0.956907 0.641486
Si Si3 0.279852 0.114726 0.820821
Si Si4 0.146243 0.715119 0.789168
Si Si5 0.996058 0.220564 0.359817
O O1 0.226266 0.233602 0.911300
O O2 0.435865 0.361622 0.793721
O O3 0.157212 0.451942 0.884069
O O4 0.344710 0.368163 0.125603
O O5 0.113774 0.951560 0.456264
O O6 0.066215 0.832566 0.727601
O O7 0.136882 0.041550 0.753849
O O8 0.392107 0.163980 0.671998
O O9 0.323825 0.745921 0.843729
O O10 0.051784 0.675028 0.955871
#
# Coordination Sequence:
#
# PCOD9314170 Si02
#       5
#     4   4   4   4   4
#     4   9  20  39  60  89 126 162 203 263 314 359
#     4  11  19  38  65  89 127 161 209 261 306 377
#     4   9  21  35  62  95 118 162 211 247 311 373
#     4  11  19  35  60  88 124 161 205 250 307 369
#     4  10  21  35  59  91 119 162 206 245 312 366
#
# _framework density 25.743884999999999
#
# number of rings (size 3 to 8) (size 9 to 14) (size 15 to 20)
#    1.200    0.800    2.000    2.400    0.000    0.000 
#    0.000    0.000    4.400    4.800    0.000    0.000 
#    0.000    0.000    0.000    0.000    0.000    0.000 
#
# Total GULP energy -112002.355242 kJ/mol
# GULP energy per Si atom -5600.117762 kJ/mol
# Density = 2.568529 g / cm^3
# Si number density = 25.743885 Si / 1000 Ang^3
#
#
#
# Elastic Constant Matrix: (Units=GPa)
#
#
# Indices 1 2 3 4 5 6 
#
# 1 136.6409 4.0000 52.4661 0.0000 0.0000 0.0000
# 2 4.0000 53.8096 20.5161 0.0000 0.0000 0.0000
# 3 52.4661 20.5161 186.3640 0.0000 0.0000 0.0000
# 4 0.0000 0.0000 0.0000 42.8714 0.0000 0.0000
# 5 0.0000 0.0000 0.0000 0.0000 47.1791 0.0000
# 6 0.0000 0.0000 0.0000 0.0000 0.0000 29.6141
#
#
#
# Elastic Compliance Matrix: (Units=1/GPa)
#
#
# Indices 1 2 3 4 5 6 
#
# 1 0.008210 0.000283 -0.002342 0.000000 0.000000 0.000000
# 2 0.000283 0.019408 -0.002216 0.000000 0.000000 0.000000
# 3 -0.002342 -0.002216 0.006269 0.000000 0.000000 0.000000
# 4 0.000000 0.000000 0.000000 0.023326 0.000000 0.000000
# 5 0.000000 0.000000 0.000000 0.000000 0.021196 0.000000
# 6 0.000000 0.000000 0.000000 0.000000 0.000000 0.033768
#
#
# Mechanical properties :
#
#
# Convention : Reuss Voigt Hill
#
# Bulk Modulus (GPa) = 39.47047 58.97543 49.22295
# Shear Modulus (GPa) = 38.70795 43.92172 41.31484
#
# Velocity S-wave (km/s) = 3.88181 4.13498 4.01039
# Velocity P-wave (km/s) = 5.95454 6.76429 6.37229
#
# Compressibility (1/GPa) = 0.02533540
#
# Stress axis : x y z
#
# Youngs Moduli (GPa) = 121.80914 51.52518 159.50906
#
# Poissons Ratio (x) = -0.01457 0.37362
# Poissons Ratio (y) = -0.03445 0.35350
# Poissons Ratio (z) = 0.28532 0.11419
#
# Static dielectric constant tensor:
#      x y z
#    x 1.962470 0.000000 0.000000 
#    y 0.000000 2.141240 0.000000 
#    z 0.000000 0.000000 2.016130 
# 
# From -- ./inp_files/2699.got.cif
#   From: 2010.05.17/outbox.cif.g08.bks.cpg/sg19_2_cif.got.tgz:2699.got - 2010.06.03 22:46:19.
