data_PCOD9314559
_publ_section_title
;
Structure prediction by ZEFSAII (Michael W. Deem and Ramdas Pophale) SiO2 
 PCOD9314559
Probable space group: P 21 21 21
;
_chemical_formula_sum "Si O2"
_cell_formula_units_Z 28
_cell_length_a 9.636840
_cell_length_b 11.669195
_cell_length_c 13.342478
_cell_angle_alpha 90.000000
_cell_angle_beta 90.000000
_cell_angle_gamma 90.000000
_cell_volume 1500.417224
_symmetry_space_group_name_H-M "P 21 21 21"
_symmetry_group_IT_number 19
_symmetry_cell_setting 'orthorhombic'
loop_
_space_group_symop_operation_xyz
x,y,z
1/2-x,-y,1/2+z
1/2+x,1/2-y,-z
-x,1/2+y,1/2-z
loop_
_atom_site_type_symbol
_atom_site_label
_atom_site_fract_x
_atom_site_fract_y
_atom_site_fract_z
Si Si1 0.876977 0.498159 0.290539
Si Si2 0.280269 0.833021 0.356557
Si Si3 0.492943 0.030652 0.381801
Si Si4 0.140666 0.416859 0.409443
Si Si5 0.620361 0.077683 0.168018
Si Si6 0.804828 0.648284 0.107620
Si Si7 0.343666 0.050798 0.042081
O O1 0.794067 0.394285 0.237264
O O2 0.879023 0.596959 0.206356
O O3 0.787262 0.541933 0.384173
O O4 0.023825 0.454988 0.329586
O O5 0.308801 0.701402 0.339043
O O6 0.186674 0.858545 0.454131
O O7 0.421127 0.905588 0.375833
O O8 0.581548 0.049013 0.481571
O O9 0.582450 0.050053 0.282628
O O10 0.359140 0.116417 0.382305
O O11 0.279408 0.483923 0.380630
O O12 0.167083 0.281180 0.405676
O O13 0.477596 0.079199 0.106204
O O14 0.856276 0.571494 0.014272
#
# Coordination Sequence:
#
# PCOD9314559 Si02
#       7
#     4   4   4   4   4   4   4
#     4  10  21  46  66  94 132 181 209 267 343 380
#     4  10  24  43  69  91 139 177 215 269 335 398
#     4  10  24  46  64  98 131 182 210 269 351 380
#     4  12  27  41  72 105 129 164 239 275 313 405
#     4  12  27  40  72 104 128 174 228 277 320 405
#     4  10  24  43  71  91 137 180 212 271 337 396
#     4  10  21  45  68  91 134 182 211 262 351 378
#
# _framework density 18.661476
#
# number of rings (size 3 to 8) (size 9 to 14) (size 15 to 20)
#    0.000    1.714    5.714    0.000   10.000    2.286 
#    2.571    0.000    0.000    0.000    0.000    0.000 
#    0.000    0.000    0.000    0.000    0.000    0.000 
#
# Total GULP energy -156410.898514 kJ/mol
# GULP energy per Si atom -5586.103518 kJ/mol
# Density = 1.861900 g / cm^3
# Si number density = 18.661476 Si / 1000 Ang^3
#
#
#
# Elastic Constant Matrix: (Units=GPa)
#
#
# Indices 1 2 3 4 5 6 
#
# 1 35.0993 -0.3329 4.9193 0.0000 0.0000 0.0000
# 2 -0.3329 79.3462 17.5645 0.0000 0.0000 0.0000
# 3 4.9193 17.5645 95.4957 0.0000 0.0000 0.0000
# 4 0.0000 0.0000 0.0000 6.7097 0.0000 0.0000
# 5 0.0000 0.0000 0.0000 0.0000 19.1266 0.0000
# 6 0.0000 0.0000 0.0000 0.0000 0.0000 14.5167
#
#
#
# Elastic Compliance Matrix: (Units=1/GPa)
#
#
# Indices 1 2 3 4 5 6 
#
# 1 0.028714 0.000467 -0.001565 0.000000 0.000000 0.000000
# 2 0.000467 0.013146 -0.002442 0.000000 0.000000 0.000000
# 3 -0.001565 -0.002442 0.011001 0.000000 0.000000 0.000000
# 4 0.000000 0.000000 0.000000 0.149038 0.000000 0.000000
# 5 0.000000 0.000000 0.000000 0.000000 0.052283 0.000000
# 6 0.000000 0.000000 0.000000 0.000000 0.000000 0.068886
#
#
# Mechanical properties :
#
#
# Convention : Reuss Voigt Hill
#
# Bulk Modulus (GPa) = 21.84300 28.24921 25.04611
# Shear Modulus (GPa) = 14.47560 20.58996 17.53278
#
# Velocity S-wave (km/s) = 2.78815 3.32526 3.06848
# Velocity P-wave (km/s) = 4.70056 5.46934 5.09946
#
# Compressibility (1/GPa) = 0.04578126
#
# Stress axis : x y z
#
# Youngs Moduli (GPa) = 34.82575 76.07165 90.89722
#
# Poissons Ratio (x) = -0.03552 0.14226
# Poissons Ratio (y) = -0.01626 0.22196
# Poissons Ratio (z) = 0.05450 0.18576
#
# Static dielectric constant tensor:
#      x y z
#    x 1.637860 0.000000 0.000000 
#    y 0.000000 1.616030 0.000000 
#    z 0.000000 0.000000 1.636950 
# 
# From -- ./inp_files/4606.got.cif
#   From: 2010.05.17/outbox.cif.g08.bks.cpg/sg19_3_cif.got.tgz:4606.got - 2010.06.03 22:46:19.
