data_PCOD9314100
_publ_section_title
;
Structure prediction by ZEFSAII (Michael W. Deem and Ramdas Pophale) SiO2 
 PCOD9314100
Probable space group: P 21 21 21
;
_chemical_formula_sum "Si O2"
_cell_formula_units_Z 28
_cell_length_a 8.639060
_cell_length_b 24.680501
_cell_length_c 4.972602
_cell_angle_alpha 90.000000
_cell_angle_beta 90.000000
_cell_angle_gamma 90.000000
_cell_volume 1060.239944
_symmetry_space_group_name_H-M "P 21 21 21"
_symmetry_group_IT_number 19
_symmetry_cell_setting 'orthorhombic'
loop_
_space_group_symop_operation_xyz
x,y,z
1/2-x,-y,1/2+z
1/2+x,1/2-y,-z
-x,1/2+y,1/2-z
loop_
_atom_site_type_symbol
_atom_site_label
_atom_site_fract_x
_atom_site_fract_y
_atom_site_fract_z
Si Si1 0.370984 0.728986 0.190926
Si Si2 0.535756 0.993594 0.461978
Si Si3 0.153938 0.562782 0.035077
Si Si4 0.319323 0.080175 0.637309
Si Si5 0.700874 0.358681 0.899391
Si Si6 0.559323 0.817911 0.973093
Si Si7 0.009502 0.826072 0.325961
O O1 0.385914 0.697134 0.468610
O O2 0.173163 0.815973 0.482005
O O3 0.469996 0.697682 0.962470
O O4 0.196686 0.722830 0.094557
O O5 0.673992 0.038636 0.480008
O O6 0.377044 0.021170 0.558256
O O7 0.590852 0.946851 0.665121
O O8 0.546571 0.973715 0.157231
O O9 0.136898 0.625044 0.951336
O O10 0.272611 0.111206 0.364047
O O11 0.467262 0.110053 0.777779
O O12 0.192386 0.096343 0.862715
O O13 0.549213 0.330929 0.781747
O O14 0.555171 0.288591 0.319304
#
# Coordination Sequence:
#
# PCOD9314100 Si02
#       7
#     4   4   4   4   4   4   4
#     4  12  27  44  75 102 157 199 271 305 408 437
#     4  10  21  44  72 113 143 201 241 320 394 475
#     4  10  24  40  72 107 159 185 258 309 395 467
#     4  10  20  41  78 103 145 190 250 308 375 459
#     4  10  23  42  73 101 155 184 254 302 386 439
#     4  12  29  50  71 116 151 215 252 343 369 491
#     4  10  22  45  71 112 138 204 248 329 361 488
#
# _framework density 26.409119
#
# number of rings (size 3 to 8) (size 9 to 14) (size 15 to 20)
#    0.857    0.571    1.429    2.571    0.000   10.286 
#    0.000    2.857    0.000    0.000    0.000    0.000 
#    0.000    0.000    0.000    0.000    0.000    0.000 
#
# Total GULP energy -156713.005036 kJ/mol
# GULP energy per Si atom -5596.893037 kJ/mol
# Density = 2.634901 g / cm^3
# Si number density = 26.409119 Si / 1000 Ang^3
#
#
#
# Elastic Constant Matrix: (Units=GPa)
#
#
# Indices 1 2 3 4 5 6 
#
# 1 59.9113 24.5619 -15.1900 0.0000 0.0000 0.0000
# 2 24.5619 72.3734 14.1924 0.0000 0.0000 0.0000
# 3 -15.1900 14.1924 122.0258 0.0000 0.0000 0.0000
# 4 0.0000 0.0000 0.0000 37.1439 0.0000 0.0000
# 5 0.0000 0.0000 0.0000 0.0000 27.4334 0.0000
# 6 0.0000 0.0000 0.0000 0.0000 0.0000 44.8216
#
#
#
# Elastic Compliance Matrix: (Units=1/GPa)
#
#
# Indices 1 2 3 4 5 6 
#
# 1 0.020739 -0.007721 0.003480 0.000000 0.000000 0.000000
# 2 -0.007721 0.017014 -0.002940 0.000000 0.000000 0.000000
# 3 0.003480 -0.002940 0.008970 0.000000 0.000000 0.000000
# 4 0.000000 0.000000 0.000000 0.026922 0.000000 0.000000
# 5 0.000000 0.000000 0.000000 0.000000 0.036452 0.000000
# 6 0.000000 0.000000 0.000000 0.000000 0.000000 0.022311
#
#
# Mechanical properties :
#
#
# Convention : Reuss Voigt Hill
#
# Bulk Modulus (GPa) = 30.90156 33.49327 32.19741
# Shear Modulus (GPa) = 31.73463 37.26286 34.49874
#
# Velocity S-wave (km/s) = 3.47025 3.76038 3.61822
# Velocity P-wave (km/s) = 5.27099 5.61818 5.44735
#
# Compressibility (1/GPa) = 0.03236083
#
# Stress axis : x y z
#
# Youngs Moduli (GPa) = 48.21887 58.77527 111.48200
#
# Poissons Ratio (x) = 0.45378 -0.38791
# Poissons Ratio (y) = 0.37228 0.32775
# Poissons Ratio (z) = -0.16778 0.17279
#
# Static dielectric constant tensor:
#      x y z
#    x 2.145180 0.000000 0.000000 
#    y 0.000000 2.134830 0.000000 
#    z 0.000000 0.000000 1.980900 
# 
# From -- ./inp_files/633.got.cif
#   From: 2010.05.17/outbox.cif.g08.bks.cpg/sg19_1_cif.got.tgz:633.got - 2010.06.03 22:46:19.
