data_PCOD9314506
_publ_section_title
;
Structure prediction by ZEFSAII (Michael W. Deem and Ramdas Pophale) SiO2 
 PCOD9314506
Probable space group: P 21 21 21
;
_chemical_formula_sum "Si O2"
_cell_formula_units_Z 32
_cell_length_a 9.717445
_cell_length_b 11.850517
_cell_length_c 11.948337
_cell_angle_alpha 90.000000
_cell_angle_beta 90.000000
_cell_angle_gamma 90.000000
_cell_volume 1375.931623
_symmetry_space_group_name_H-M "P 21 21 21"
_symmetry_group_IT_number 19
_symmetry_cell_setting 'orthorhombic'
loop_
_space_group_symop_operation_xyz
x,y,z
1/2-x,-y,1/2+z
1/2+x,1/2-y,-z
-x,1/2+y,1/2-z
loop_
_atom_site_type_symbol
_atom_site_label
_atom_site_fract_x
_atom_site_fract_y
_atom_site_fract_z
Si Si1 0.150792 0.560119 0.581133
Si Si2 0.568156 0.277475 0.426373
Si Si3 0.155012 0.382141 0.756502
Si Si4 0.578743 0.002423 0.029643
Si Si5 0.233411 0.209167 0.179425
Si Si6 0.319369 0.135334 0.422056
Si Si7 0.080980 0.673680 0.357921
Si Si8 0.312026 0.096279 0.950289
O O1 0.094919 0.481431 0.678804
O O2 0.272694 0.487285 0.523984
O O3 0.221951 0.667606 0.638747
O O4 0.064711 0.609367 0.477046
O O5 0.623117 0.231934 0.308507
O O6 0.475626 0.388705 0.415252
O O7 0.463663 0.180833 0.471121
O O8 0.695699 0.310032 0.505097
O O9 0.093386 0.397872 0.879455
O O10 0.319099 0.395327 0.775627
O O11 0.462939 0.040275 0.943133
O O12 0.304702 0.179410 0.295632
O O13 0.279552 0.126446 0.079216
O O14 0.068350 0.200234 0.189633
O O15 0.293824 0.001191 0.417219
O O16 0.170337 0.786547 0.384896
#
# Coordination Sequence:
#
# PCOD9314506 Si02
#       8
#     4   4   4   4   4   4   4   4
#     4  10  22  42  65  94 134 172 223 280 325 405
#     4  11  25  44  64  99 135 173 217 281 331 398
#     4  11  24  39  69  94 129 171 225 269 345 392
#     4  10  21  43  61  90 132 172 213 274 331 391
#     4  11  23  43  69  95 133 179 227 266 343 409
#     4  11  26  44  68 101 139 172 223 278 339 392
#     4  10  24  41  68 100 125 181 225 275 331 414
#     4  10  23  44  64  95 133 170 221 281 323 399
#
# _framework density 23.256971
#
# number of rings (size 3 to 8) (size 9 to 14) (size 15 to 20)
#    0.000    1.500    1.250    2.250    7.000    5.000 
#    0.000    0.000    0.000    0.000    0.000    0.000 
#    0.000    0.000    0.000    0.000    0.000    0.000 
#
# Total GULP energy -178954.138085 kJ/mol
# GULP energy per Si atom -5592.316815 kJ/mol
# Density = 2.320404 g / cm^3
# Si number density = 23.256971 Si / 1000 Ang^3
#
#
#
# Elastic Constant Matrix: (Units=GPa)
#
#
# Indices 1 2 3 4 5 6 
#
# 1 84.0205 -2.5226 4.1400 0.0000 0.0000 0.0000
# 2 -2.5226 46.6819 -2.0121 0.0000 0.0000 0.0000
# 3 4.1400 -2.0121 51.9044 0.0000 0.0000 0.0000
# 4 0.0000 0.0000 0.0000 31.0438 0.0000 0.0000
# 5 0.0000 0.0000 0.0000 0.0000 27.5273 0.0000
# 6 0.0000 0.0000 0.0000 0.0000 0.0000 32.9590
#
#
#
# Elastic Compliance Matrix: (Units=1/GPa)
#
#
# Indices 1 2 3 4 5 6 
#
# 1 0.011966 0.000606 -0.000931 0.000000 0.000000 0.000000
# 2 0.000606 0.021488 0.000785 0.000000 0.000000 0.000000
# 3 -0.000931 0.000785 0.019371 0.000000 0.000000 0.000000
# 4 0.000000 0.000000 0.000000 0.032213 0.000000 0.000000
# 5 0.000000 0.000000 0.000000 0.000000 0.036328 0.000000
# 6 0.000000 0.000000 0.000000 0.000000 0.000000 0.030341
#
#
# Mechanical properties :
#
#
# Convention : Reuss Voigt Hill
#
# Bulk Modulus (GPa) = 18.60625 20.20193 19.40409
# Shear Modulus (GPa) = 29.63833 30.50613 30.07223
#
# Velocity S-wave (km/s) = 3.57373 3.62567 3.59979
# Velocity P-wave (km/s) = 5.00463 5.12177 5.06354
#
# Compressibility (1/GPa) = 0.05374540
#
# Stress axis : x y z
#
# Youngs Moduli (GPa) = 83.57060 46.53720 51.62396
#
# Poissons Ratio (x) = -0.02822 0.04806
# Poissons Ratio (y) = -0.05068 -0.04051
# Poissons Ratio (z) = 0.07780 -0.03652
#
# Static dielectric constant tensor:
#      x y z
#    x 1.912490 0.000000 0.000000 
#    y 0.000000 1.909620 0.000000 
#    z 0.000000 0.000000 1.818000 
# 
# From -- ./inp_files/5079.got.cif
#   From: 2010.05.17/outbox.cif.g08.bks.cpg/sg19_3_cif.got.tgz:5079.got - 2010.06.03 22:46:19.
