data_PCOD9314804
_publ_section_title
;
Structure prediction by ZEFSAII (Michael W. Deem and Ramdas Pophale) SiO2 
 PCOD9314804
Probable space group: P 21 21 21
;
_chemical_formula_sum "Si O2"
_cell_formula_units_Z 20
_cell_length_a 7.581608
_cell_length_b 5.032186
_cell_length_c 19.943299
_cell_angle_alpha 90.000000
_cell_angle_beta 90.000000
_cell_angle_gamma 90.000000
_cell_volume 760.877973
_symmetry_space_group_name_H-M "P 21 21 21"
_symmetry_group_IT_number 19
_symmetry_cell_setting 'orthorhombic'
loop_
_space_group_symop_operation_xyz
x,y,z
1/2-x,-y,1/2+z
1/2+x,1/2-y,-z
-x,1/2+y,1/2-z
loop_
_atom_site_type_symbol
_atom_site_label
_atom_site_fract_x
_atom_site_fract_y
_atom_site_fract_z
Si Si1 0.726364 0.402765 0.278843
Si Si2 0.503738 0.526502 0.547719
Si Si3 0.027809 0.454224 0.364081
Si Si4 0.043668 0.594152 0.665425
Si Si5 0.350398 0.249635 0.427752
O O1 0.928912 0.473715 0.293521
O O2 0.642491 0.432429 0.205497
O O3 0.677444 0.101594 0.296612
O O4 0.618246 0.609598 0.327018
O O5 0.493228 0.797828 0.587617
O O6 0.408538 0.478625 0.478054
O O7 0.706362 0.439360 0.537174
O O8 0.440058 0.297393 0.598828
O O9 0.235649 0.390146 0.368588
O O10 0.004286 0.446857 0.595887
#
# Coordination Sequence:
#
# PCOD9314804 Si02
#       5
#     4   4   4   4   4
#     4  10  22  42  65  92 121 167 208 260 314 376
#     4  10  25  39  60  94 125 169 204 262 307 383
#     4  10  24  40  62  92 122 167 205 263 310 371
#     4  10  23  41  66  91 124 164 211 257 315 378
#     4  10  26  40  63  95 128 167 212 256 322 366
#
# _framework density 26.285425
#
# number of rings (size 3 to 8) (size 9 to 14) (size 15 to 20)
#    1.200    0.800    0.000    1.200   11.200    0.000 
#    3.600    0.000    0.000    0.000    0.000    0.000 
#    0.000    0.000    0.000    0.000    0.000    0.000 
#
# Total GULP energy -111804.672553 kJ/mol
# GULP energy per Si atom -5590.233628 kJ/mol
# Density = 2.622560 g / cm^3
# Si number density = 26.285425 Si / 1000 Ang^3
#
#
#
# Elastic Constant Matrix: (Units=GPa)
#
#
# Indices 1 2 3 4 5 6 
#
# 1 58.1176 21.8154 25.6286 0.0000 0.0000 0.0000
# 2 21.8154 125.1164 11.9683 0.0000 0.0000 0.0000
# 3 25.6286 11.9683 23.4254 0.0000 0.0000 0.0000
# 4 0.0000 0.0000 0.0000 35.7035 0.0000 0.0000
# 5 0.0000 0.0000 0.0000 0.0000 55.7535 0.0000
# 6 0.0000 0.0000 0.0000 0.0000 0.0000 -6.5258
#
#
#
# Elastic Compliance Matrix: (Units=1/GPa)
#
#
# Indices 1 2 3 4 5 6 
#
# 1 0.033968 -0.002489 -0.035891 0.000000 0.000000 0.000000
# 2 -0.002489 0.008586 -0.001663 0.000000 0.000000 0.000000
# 3 -0.035891 -0.001663 0.082805 0.000000 0.000000 0.000000
# 4 0.000000 0.000000 0.000000 0.028008 0.000000 0.000000
# 5 0.000000 0.000000 0.000000 0.000000 0.017936 0.000000
# 6 0.000000 0.000000 0.000000 0.000000 0.000000 -0.153237
#
#
# Mechanical properties :
#
#
# Convention : Reuss Voigt Hill
#
# Bulk Modulus (GPa) = 22.08872 36.16490 29.12681
# Shear Modulus (GPa) = 44.15235 26.80271 35.47753
#
# Velocity S-wave (km/s) = 4.10289 3.19671 3.67782
# Velocity P-wave (km/s) = 5.55578 5.23580 5.39816
#
# Compressibility (1/GPa) = 0.04527199
#
# Stress axis : x y z
#
# Youngs Moduli (GPa) = 29.43935 116.47290 12.07655
#
# Poissons Ratio (x) = 0.28995 0.43344
# Poissons Ratio (y) = 0.07329 0.02008
# Poissons Ratio (z) = 1.05661 0.19369
#
# Static dielectric constant tensor:
#      x y z
#    x 2.082930 0.000000 0.000000 
#    y 0.000000 2.010710 0.000000 
#    z 0.000000 0.000000 2.080380 
# 
# From -- ./inp_files/443.got.cif
#   From: 2010.05.17/outbox.cif.g08.bks.cpg/sg19_1_cif.got.tgz:443.got - 2010.06.03 22:46:19.
