data_PCOD9314040
_publ_section_title
;
Structure prediction by ZEFSAII (Michael W. Deem and Ramdas Pophale) SiO2 
 PCOD9314040
Probable space group: P 21 21 21
;
_chemical_formula_sum "Si O2"
_cell_formula_units_Z 20
_cell_length_a 13.456859
_cell_length_b 7.701258
_cell_length_c 7.263631
_cell_angle_alpha 90.000000
_cell_angle_beta 90.000000
_cell_angle_gamma 90.000000
_cell_volume 752.764532
_symmetry_space_group_name_H-M "P 21 21 21"
_symmetry_group_IT_number 19
_symmetry_cell_setting 'orthorhombic'
loop_
_space_group_symop_operation_xyz
x,y,z
1/2-x,-y,1/2+z
1/2+x,1/2-y,-z
-x,1/2+y,1/2-z
loop_
_atom_site_type_symbol
_atom_site_label
_atom_site_fract_x
_atom_site_fract_y
_atom_site_fract_z
Si Si1 0.694389 0.294414 0.814010
Si Si2 0.270744 0.171890 0.606203
Si Si3 0.438570 0.755505 0.127674
Si Si4 0.589992 0.975158 0.939607
Si Si5 0.610668 0.887617 0.347790
O O1 0.732106 0.303871 0.603351
O O2 0.792526 0.212059 0.913755
O O3 0.606344 0.160557 0.851605
O O4 0.675639 0.489586 0.875201
O O5 0.164505 0.172083 0.706184
O O6 0.341707 0.330207 0.657959
O O7 0.522352 0.758326 0.288276
O O8 0.425847 0.560392 0.050062
O O9 0.482961 0.889068 0.976480
O O10 0.633695 0.976271 0.148298
#
# Coordination Sequence:
#
# PCOD9314040 Si02
#       5
#     4   4   4   4   4
#     4  11  23  42  64  99 135 176 220 279 329 394
#     4  11  24  41  67  95 135 178 217 274 334 392
#     4  10  20  40  65  96 125 176 225 264 334 396
#     4   9  23  40  63  97 129 168 221 277 320 394
#     4   9  20  37  69  91 126 170 229 272 321 402
#
# _framework density 26.568732000000001
#
# number of rings (size 3 to 8) (size 9 to 14) (size 15 to 20)
#    1.200    0.800    2.000    1.200    2.800    0.000 
#    3.600    0.000    0.000    0.000    0.000    0.000 
#    0.000    0.000    0.000    0.000    0.000    0.000 
#
# Total GULP energy -111802.745344 kJ/mol
# GULP energy per Si atom -5590.137267 kJ/mol
# Density = 2.650826 g / cm^3
# Si number density = 26.568732 Si / 1000 Ang^3
#
#
#
# Elastic Constant Matrix: (Units=GPa)
#
#
# Indices 1 2 3 4 5 6 
#
# 1 90.7728 38.9141 -8.1543 0.0000 0.0000 0.0000
# 2 38.9141 138.2179 -5.9768 0.0000 0.0000 0.0000
# 3 -8.1543 -5.9768 51.8700 0.0000 0.0000 0.0000
# 4 0.0000 0.0000 0.0000 32.0952 0.0000 0.0000
# 5 0.0000 0.0000 0.0000 0.0000 25.1912 0.0000
# 6 0.0000 0.0000 0.0000 0.0000 0.0000 48.2649
#
#
#
# Elastic Compliance Matrix: (Units=1/GPa)
#
#
# Indices 1 2 3 4 5 6 
#
# 1 0.012657 -0.003495 0.001587 0.000000 0.000000 0.000000
# 2 -0.003495 0.008236 0.000400 0.000000 0.000000 0.000000
# 3 0.001587 0.000400 0.019575 0.000000 0.000000 0.000000
# 4 0.000000 0.000000 0.000000 0.031157 0.000000 0.000000
# 5 0.000000 0.000000 0.000000 0.000000 0.039696 0.000000
# 6 0.000000 0.000000 0.000000 0.000000 0.000000 0.020719
#
#
# Mechanical properties :
#
#
# Convention : Reuss Voigt Hill
#
# Bulk Modulus (GPa) = 26.70112 36.71408 31.70760
# Shear Modulus (GPa) = 33.88885 38.18210 36.03547
#
# Velocity S-wave (km/s) = 3.57531 3.79503 3.68681
# Velocity P-wave (km/s) = 5.20725 5.74905 5.48484
#
# Compressibility (1/GPa) = 0.03745161
#
# Stress axis : x y z
#
# Youngs Moduli (GPa) = 79.00538 121.41507 51.08683
#
# Poissons Ratio (x) = 0.42434 -0.08108
# Poissons Ratio (y) = 0.27612 -0.02041
# Poissons Ratio (z) = -0.12539 -0.04852
#
# Static dielectric constant tensor:
#      x y z
#    x 2.127640 0.000000 0.000000 
#    y 0.000000 2.063720 0.000000 
#    z 0.000000 0.000000 2.192020 
# 
# From -- ./inp_files/2777.got.cif
#   From: 2010.05.17/outbox.cif.g08.bks.cpg/sg19_2_cif.got.tgz:2777.got - 2010.06.03 22:46:19.
