data_PCOD9314176
_publ_section_title
;
Structure prediction by ZEFSAII (Michael W. Deem and Ramdas Pophale) SiO2 
 PCOD9314176
Probable space group: P 21 21 21
;
_chemical_formula_sum "Si O2"
_cell_formula_units_Z 28
_cell_length_a 9.004576
_cell_length_b 7.669625
_cell_length_c 17.047679
_cell_angle_alpha 90.000000
_cell_angle_beta 90.000000
_cell_angle_gamma 90.000000
_cell_volume 1177.342054
_symmetry_space_group_name_H-M "P 21 21 21"
_symmetry_group_IT_number 19
_symmetry_cell_setting 'orthorhombic'
loop_
_space_group_symop_operation_xyz
x,y,z
1/2-x,-y,1/2+z
1/2+x,1/2-y,-z
-x,1/2+y,1/2-z
loop_
_atom_site_type_symbol
_atom_site_label
_atom_site_fract_x
_atom_site_fract_y
_atom_site_fract_z
Si Si1 0.757836 0.708535 0.770306
Si Si2 0.420423 0.099090 0.870899
Si Si3 0.096944 0.602408 0.016874
Si Si4 0.655403 0.535352 0.398324
Si Si5 0.612060 0.570939 0.080175
Si Si6 0.860911 0.149988 0.993421
Si Si7 0.496301 0.075018 0.260056
O O1 0.616507 0.660955 0.717276
O O2 0.750777 0.616735 0.855279
O O3 0.825206 0.903546 0.764420
O O4 0.903974 0.607730 0.733013
O O5 0.422171 0.268202 0.926522
O O6 0.273489 0.996165 0.898576
O O7 0.551808 0.967875 0.896634
O O8 0.965068 0.539076 0.959024
O O9 0.114562 0.802349 0.994186
O O10 0.246894 0.504941 0.992931
O O11 0.724346 0.695861 0.446089
O O12 0.569936 0.621005 0.324454
O O13 0.495306 0.421537 0.058679
O O14 0.555522 0.668078 0.159235
#
# Coordination Sequence:
#
# PCOD9314176 Si02
#       7
#     4   4   4   4   4   4   4
#     4   9  17  31  56  82 113 143 200 244 281 334
#     4  10  21  36  58  86 119 160 198 243 298 360
#     4  11  21  36  55  88 125 154 195 243 306 358
#     4   9  19  34  57  88 113 157 194 242 289 350
#     4  11  20  36  60  87 113 158 201 255 285 350
#     4  11  22  35  58  86 127 156 191 243 313 359
#     4   9  16  30  56  85 108 138 199 246 280 321
#
# _framework density 23.782385000000001
#
# number of rings (size 3 to 8) (size 9 to 14) (size 15 to 20)
#    0.857    1.143    1.429    5.143    0.000    0.000 
#    0.000    0.000    3.143    0.000    0.000    0.000 
#    0.000    0.000    0.000    0.000    0.000    0.000 
#
# Total GULP energy -155966.178287 kJ/mol
# GULP energy per Si atom -5570.220653 kJ/mol
# Density = 2.372825 g / cm^3
# Si number density = 23.782385 Si / 1000 Ang^3
#
#
#
# Elastic Constant Matrix: (Units=GPa)
#
#
# Indices 1 2 3 4 5 6 
#
# 1 33.4044 3.0976 3.9358 0.0000 0.0000 0.0000
# 2 3.0976 26.0374 -9.0074 0.0000 0.0000 0.0000
# 3 3.9358 -9.0074 108.5254 0.0000 0.0000 0.0000
# 4 0.0000 0.0000 0.0000 21.8008 0.0000 0.0000
# 5 0.0000 0.0000 0.0000 0.0000 37.7628 0.0000
# 6 0.0000 0.0000 0.0000 0.0000 0.0000 23.9176
#
#
#
# Elastic Compliance Matrix: (Units=1/GPa)
#
#
# Indices 1 2 3 4 5 6 
#
# 1 0.030490 -0.004128 -0.001448 0.000000 0.000000 0.000000
# 2 -0.004128 0.040101 0.003478 0.000000 0.000000 0.000000
# 3 -0.001448 0.003478 0.009556 0.000000 0.000000 0.000000
# 4 0.000000 0.000000 0.000000 0.045870 0.000000 0.000000
# 5 0.000000 0.000000 0.000000 0.000000 0.026481 0.000000
# 6 0.000000 0.000000 0.000000 0.000000 0.000000 0.041810
#
#
# Mechanical properties :
#
#
# Convention : Reuss Voigt Hill
#
# Bulk Modulus (GPa) = 13.16682 18.22435 15.69559
# Shear Modulus (GPa) = 22.33932 28.02566 25.18249
#
# Velocity S-wave (km/s) = 3.06816 3.43654 3.25756
# Velocity P-wave (km/s) = 4.25440 4.84004 4.55664
#
# Compressibility (1/GPa) = 0.07594847
#
# Stress axis : x y z
#
# Youngs Moduli (GPa) = 32.79803 24.93726 104.65037
#
# Poissons Ratio (x) = 0.10295 0.15157
# Poissons Ratio (y) = 0.13540 -0.36397
# Poissons Ratio (z) = 0.04750 -0.08673
#
# Static dielectric constant tensor:
#      x y z
#    x 1.896520 0.000000 0.000000 
#    y 0.000000 2.061940 0.000000 
#    z 0.000000 0.000000 1.964800 
# 
# From -- ./inp_files/6612.got.cif
#   From: 2010.05.17/outbox.cif.g08.bks.cpg/sg19_4_cif.got.tgz:6612.got - 2010.06.03 22:46:19.
