data_PCOD9314178
_publ_section_title
;
Structure prediction by ZEFSAII (Michael W. Deem and Ramdas Pophale) SiO2 
 PCOD9314178
Probable space group: P 21 21 21
;
_chemical_formula_sum "Si O2"
_cell_formula_units_Z 28
_cell_length_a 12.767537
_cell_length_b 7.858612
_cell_length_c 12.678968
_cell_angle_alpha 90.000000
_cell_angle_beta 90.000000
_cell_angle_gamma 90.000000
_cell_volume 1272.145769
_symmetry_space_group_name_H-M "P 21 21 21"
_symmetry_group_IT_number 19
_symmetry_cell_setting 'orthorhombic'
loop_
_space_group_symop_operation_xyz
x,y,z
1/2-x,-y,1/2+z
1/2+x,1/2-y,-z
-x,1/2+y,1/2-z
loop_
_atom_site_type_symbol
_atom_site_label
_atom_site_fract_x
_atom_site_fract_y
_atom_site_fract_z
Si Si1 0.415982 0.305976 0.826788
Si Si2 0.589861 0.536830 0.503942
Si Si3 0.348310 0.584909 0.479907
Si Si4 0.269243 0.745208 0.037768
Si Si5 0.102626 0.960673 0.155711
Si Si6 0.226239 0.791932 0.661365
Si Si7 0.201900 0.436742 0.753833
O O1 0.371783 0.180158 0.914958
O O2 0.447294 0.180136 0.732155
O O3 0.508858 0.415771 0.875284
O O4 0.325706 0.421167 0.777926
O O5 0.465181 0.534663 0.513941
O O6 0.644016 0.355703 0.520702
O O7 0.632384 0.601440 0.390917
O O8 0.274459 0.418710 0.479247
O O9 0.295809 0.709077 0.565663
O O10 0.353207 0.637907 0.357499
O O11 0.170106 0.866340 0.066148
O O12 0.314880 0.674871 0.148928
O O13 0.191648 0.076582 0.213308
O O14 0.182682 0.634608 0.728294
#
# Coordination Sequence:
#
# PCOD9314178 Si02
#       7
#     4   4   4   4   4   4   4
#     4  11  21  35  64  93 119 165 200 261 319 367
#     4  11  23  40  62  91 126 163 209 251 317 375
#     4  11  22  41  65  89 123 166 207 250 316 366
#     4   9  24  42  58  91 130 160 209 263 300 379
#     4  10  21  36  58  91 125 152 205 259 315 365
#     4  10  21  42  59  90 126 155 205 265 299 372
#     4  10  22  40  62  87 123 165 205 255 312 364
#
# _framework density 22.010055999999999
#
# number of rings (size 3 to 8) (size 9 to 14) (size 15 to 20)
#    0.000    1.714    2.857    0.857    6.000    2.286 
#    0.000    0.000    0.000    0.000    0.000    0.000 
#    0.000    0.000    0.000    0.000    0.000    0.000 
#
# Total GULP energy -156330.320504 kJ/mol
# GULP energy per Si atom -5583.225732 kJ/mol
# Density = 2.195996 g / cm^3
# Si number density = 22.010056 Si / 1000 Ang^3
#
#
#
# Elastic Constant Matrix: (Units=GPa)
#
#
# Indices 1 2 3 4 5 6 
#
# 1 45.9020 4.2319 -4.3415 0.0000 0.0000 0.0000
# 2 4.2319 67.3117 -2.7958 0.0000 0.0000 0.0000
# 3 -4.3415 -2.7958 52.6776 0.0000 0.0000 0.0000
# 4 0.0000 0.0000 0.0000 19.6780 0.0000 0.0000
# 5 0.0000 0.0000 0.0000 0.0000 13.8311 0.0000
# 6 0.0000 0.0000 0.0000 0.0000 0.0000 36.3886
#
#
#
# Elastic Compliance Matrix: (Units=1/GPa)
#
#
# Indices 1 2 3 4 5 6 
#
# 1 0.022072 -0.001315 0.001749 0.000000 0.000000 0.000000
# 2 -0.001315 0.014967 0.000686 0.000000 0.000000 0.000000
# 3 0.001749 0.000686 0.019164 0.000000 0.000000 0.000000
# 4 0.000000 0.000000 0.000000 0.050818 0.000000 0.000000
# 5 0.000000 0.000000 0.000000 0.000000 0.072301 0.000000
# 6 0.000000 0.000000 0.000000 0.000000 0.000000 0.027481
#
#
# Mechanical properties :
#
#
# Convention : Reuss Voigt Hill
#
# Bulk Modulus (GPa) = 17.11031 17.78671 17.44851
# Shear Modulus (GPa) = 22.31700 25.23266 23.77483
#
# Velocity S-wave (km/s) = 3.18771 3.38955 3.29018
# Velocity P-wave (km/s) = 4.61945 4.83916 4.73058
#
# Compressibility (1/GPa) = 0.05844429
#
# Stress axis : x y z
#
# Youngs Moduli (GPa) = 45.30575 66.81179 52.18125
#
# Poissons Ratio (x) = 0.08786 -0.09128
# Poissons Ratio (y) = 0.05958 -0.03580
# Poissons Ratio (z) = -0.07926 -0.04583
#
# Static dielectric constant tensor:
#      x y z
#    x 1.788070 0.000000 0.000000 
#    y 0.000000 1.821310 0.000000 
#    z 0.000000 0.000000 1.831720 
# 
# From -- ./inp_files/3900.got.cif
#   From: 2010.05.17/outbox.cif.g08.bks.cpg/sg19_2_cif.got.tgz:3900.got - 2010.06.03 22:46:19.
