data_PCOD9314665
_publ_section_title
;
Structure prediction by ZEFSAII (Michael W. Deem and Ramdas Pophale) SiO2 
 PCOD9314665
Probable space group: P 21 21 21
;
_chemical_formula_sum "Si O2"
_cell_formula_units_Z 28
_cell_length_a 8.360215
_cell_length_b 17.846063
_cell_length_c 7.608279
_cell_angle_alpha 90.000000
_cell_angle_beta 90.000000
_cell_angle_gamma 90.000000
_cell_volume 1135.131821
_symmetry_space_group_name_H-M "P 21 21 21"
_symmetry_group_IT_number 19
_symmetry_cell_setting 'orthorhombic'
loop_
_space_group_symop_operation_xyz
x,y,z
1/2-x,-y,1/2+z
1/2+x,1/2-y,-z
-x,1/2+y,1/2-z
loop_
_atom_site_type_symbol
_atom_site_label
_atom_site_fract_x
_atom_site_fract_y
_atom_site_fract_z
Si Si1 0.916596 0.902332 0.145357
Si Si2 0.764730 0.034536 0.303113
Si Si3 0.253297 0.086526 0.450918
Si Si4 0.135925 0.690796 0.277020
Si Si5 0.271093 0.252146 0.395411
Si Si6 0.992789 0.784307 0.573269
Si Si7 0.557812 0.549877 0.404345
O O1 0.821150 0.937260 0.978781
O O2 0.847126 0.819051 0.158681
O O3 0.102199 0.906993 0.093829
O O4 0.859214 0.956857 0.300499
O O5 0.878830 0.101333 0.237694
O O6 0.615134 0.029892 0.171947
O O7 0.190483 0.171144 0.426859
O O8 0.333209 0.062994 0.268530
O O9 0.131054 0.022116 0.501984
O O10 0.150973 0.724445 0.081597
O O11 0.014430 0.726060 0.415955
O O12 0.311289 0.706636 0.363187
O O13 0.403220 0.240498 0.243189
O O14 0.054998 0.866455 0.512757
#
# Coordination Sequence:
#
# PCOD9314665 Si02
#       7
#     4   4   4   4   4   4   4
#     4  10  22  40  62  90 123 161 207 255 309 374
#     4   9  21  40  59  87 124 159 202 254 311 372
#     4  10  22  40  62  90 123 161 207 255 309 374
#     4  10  23  42  65  94 128 167 212 262 319 383
#     4  10  22  42  64  90 130 166 210 262 314 374
#     4  10  23  42  65  94 128 167 212 262 319 383
#     4   9  21  40  59  87 124 159 202 254 311 372
#
# _framework density 24.666739
#
# number of rings (size 3 to 8) (size 9 to 14) (size 15 to 20)
#    0.000    2.286    0.000    2.571    4.000    6.857 
#    0.000    8.571    0.000    0.000    0.000    0.000 
#    0.000    0.000    0.000    0.000    0.000    0.000 
#
# Total GULP energy -156941.950668 kJ/mol
# GULP energy per Si atom -5605.069667 kJ/mol
# Density = 2.461060 g / cm^3
# Si number density = 24.666739 Si / 1000 Ang^3
#
#
#
# Elastic Constant Matrix: (Units=GPa)
#
#
# Indices 1 2 3 4 5 6 
#
# 1 70.2220 66.8989 27.0668 0.0000 0.0000 0.0000
# 2 66.8989 181.7423 53.4520 0.0000 0.0000 0.0000
# 3 27.0668 53.4520 100.0365 0.0000 0.0000 0.0000
# 4 0.0000 0.0000 0.0000 47.7930 0.0000 0.0000
# 5 0.0000 0.0000 0.0000 0.0000 39.2043 0.0000
# 6 0.0000 0.0000 0.0000 0.0000 0.0000 48.1132
#
#
#
# Elastic Compliance Matrix: (Units=1/GPa)
#
#
# Indices 1 2 3 4 5 6 
#
# 1 0.022248 -0.007616 -0.001950 0.000000 0.000000 0.000000
# 2 -0.007616 0.009135 -0.002821 0.000000 0.000000 0.000000
# 3 -0.001950 -0.002821 0.012031 0.000000 0.000000 0.000000
# 4 0.000000 0.000000 0.000000 0.020924 0.000000 0.000000
# 5 0.000000 0.000000 0.000000 0.000000 0.025507 0.000000
# 6 0.000000 0.000000 0.000000 0.000000 0.000000 0.020784
#
#
# Mechanical properties :
#
#
# Convention : Reuss Voigt Hill
#
# Bulk Modulus (GPa) = 53.64572 71.87069 62.75820
# Shear Modulus (GPa) = 35.30682 40.66100 37.98391
#
# Velocity S-wave (km/s) = 3.78743 4.06447 3.92839
# Velocity P-wave (km/s) = 6.39700 7.15727 6.78779
#
# Compressibility (1/GPa) = 0.01864082
#
# Stress axis : x y z
#
# Youngs Moduli (GPa) = 44.94877 109.46716 83.11768
#
# Poissons Ratio (x) = 0.83367 0.16210
# Poissons Ratio (y) = 0.34232 0.23444
# Poissons Ratio (z) = 0.08766 0.30876
#
# Static dielectric constant tensor:
#      x y z
#    x 1.931860 0.000000 0.000000 
#    y 0.000000 1.923090 0.000000 
#    z 0.000000 0.000000 2.034590 
# 
# From -- ./inp_files/3022.got.cif
#   From: 2010.05.17/outbox.cif.g08.bks.cpg/sg19_2_cif.got.tgz:3022.got - 2010.06.03 22:46:19.
