data_PCOD9314207
_publ_section_title
;
Structure prediction by ZEFSAII (Michael W. Deem and Ramdas Pophale) SiO2 
 PCOD9314207
Probable space group: P 21 21 21
;
_chemical_formula_sum "Si O2"
_cell_formula_units_Z 28
_cell_length_a 8.355362
_cell_length_b 19.137704
_cell_length_c 6.657052
_cell_angle_alpha 90.000000
_cell_angle_beta 90.000000
_cell_angle_gamma 90.000000
_cell_volume 1064.478890
_symmetry_space_group_name_H-M "P 21 21 21"
_symmetry_group_IT_number 19
_symmetry_cell_setting 'orthorhombic'
loop_
_space_group_symop_operation_xyz
x,y,z
1/2-x,-y,1/2+z
1/2+x,1/2-y,-z
-x,1/2+y,1/2-z
loop_
_atom_site_type_symbol
_atom_site_label
_atom_site_fract_x
_atom_site_fract_y
_atom_site_fract_z
Si Si1 0.895300 0.021357 0.148750
Si Si2 0.595746 0.444107 0.453329
Si Si3 0.016550 0.283550 0.718670
Si Si4 0.141268 0.259134 0.271141
Si Si5 0.899515 0.433765 0.663673
Si Si6 0.197651 0.612324 0.843381
Si Si7 0.166208 0.673395 0.302090
O O1 0.747884 0.968690 0.172404
O O2 0.844374 0.099156 0.084783
O O3 0.991223 0.030858 0.356118
O O4 0.002927 0.980813 0.990651
O O5 0.745547 0.405016 0.547147
O O6 0.649788 0.513718 0.339278
O O7 0.493252 0.393366 0.310271
O O8 0.069962 0.256213 0.499618
O O9 0.182759 0.275918 0.844717
O O10 0.831566 0.259892 0.752086
O O11 0.998227 0.367629 0.731787
O O12 0.162438 0.342725 0.240302
O O13 0.001469 0.213975 0.166402
O O14 0.191176 0.646424 0.070319
#
# Coordination Sequence:
#
# PCOD9314207 Si02
#       7
#     4   4   4   4   4   4   4
#     4  11  22  42  63 101 138 173 230 277 347 417
#     4  11  25  40  65 101 136 177 223 291 345 412
#     4  11  20  35  60  94 129 172 226 278 332 409
#     4  11  20  35  62  97 132 175 233 277 334 417
#     4  12  23  41  66 101 135 176 229 281 349 407
#     4  10  21  38  62  97 133 177 226 283 341 409
#     4  10  21  37  60  99 137 174 225 285 336 405
#
# _framework density 26.303948999999999
#
# number of rings (size 3 to 8) (size 9 to 14) (size 15 to 20)
#    0.000    1.143    7.143    2.571    2.000    0.000 
#    0.000    0.000    0.000    1.714    7.429    0.000 
#    0.000    0.000    0.000    0.000    0.000    0.000 
#
# Total GULP energy -156299.182611 kJ/mol
# GULP energy per Si atom -5582.113665 kJ/mol
# Density = 2.624408 g / cm^3
# Si number density = 26.303949 Si / 1000 Ang^3
#
#
#
# Elastic Constant Matrix: (Units=GPa)
#
#
# Indices 1 2 3 4 5 6 
#
# 1 205.4373 52.3074 14.9723 0.0000 0.0000 0.0000
# 2 52.3074 94.3029 -2.9105 0.0000 0.0000 0.0000
# 3 14.9723 -2.9105 55.8406 0.0000 0.0000 0.0000
# 4 0.0000 0.0000 0.0000 28.4925 0.0000 0.0000
# 5 0.0000 0.0000 0.0000 0.0000 47.0015 0.0000
# 6 0.0000 0.0000 0.0000 0.0000 0.0000 54.3364
#
#
#
# Elastic Compliance Matrix: (Units=1/GPa)
#
#
# Indices 1 2 3 4 5 6 
#
# 1 0.005831 -0.003288 -0.001735 0.000000 0.000000 0.000000
# 2 -0.003288 0.012475 0.001532 0.000000 0.000000 0.000000
# 3 -0.001735 0.001532 0.018453 0.000000 0.000000 0.000000
# 4 0.000000 0.000000 0.000000 0.035097 0.000000 0.000000
# 5 0.000000 0.000000 0.000000 0.000000 0.021276 0.000000
# 6 0.000000 0.000000 0.000000 0.000000 0.000000 0.018404
#
#
# Mechanical properties :
#
#
# Convention : Reuss Voigt Hill
#
# Bulk Modulus (GPa) = 33.58245 53.81323 43.69784
# Shear Modulus (GPa) = 38.92739 45.38019 42.15379
#
# Velocity S-wave (km/s) = 3.85113 4.15809 4.00755
# Velocity P-wave (km/s) = 5.70699 6.59966 6.16949
#
# Compressibility (1/GPa) = 0.02977745
#
# Stress axis : x y z
#
# Youngs Moduli (GPa) = 171.48889 80.15919 54.19134
#
# Poissons Ratio (x) = 0.26356 0.09402
# Poissons Ratio (y) = 0.56386 -0.08301
# Poissons Ratio (z) = 0.29752 -0.12279
#
# Static dielectric constant tensor:
#      x y z
#    x 2.170100 0.000000 0.000000 
#    y 0.000000 2.092740 0.000000 
#    z 0.000000 0.000000 2.269270 
# 
# From -- ./inp_files/3090.got.cif
#   From: 2010.05.17/outbox.cif.g08.bks.cpg/sg19_2_cif.got.tgz:3090.got - 2010.06.03 22:46:19.
