data_PCOD9314369
_publ_section_title
;
Structure prediction by ZEFSAII (Michael W. Deem and Ramdas Pophale) SiO2 
 PCOD9314369
Probable space group: P 21 21 21
;
_chemical_formula_sum "Si O2"
_cell_formula_units_Z 20
_cell_length_a 7.195617
_cell_length_b 9.497276
_cell_length_c 12.236252
_cell_angle_alpha 90.000000
_cell_angle_beta 90.000000
_cell_angle_gamma 90.000000
_cell_volume 836.210297
_symmetry_space_group_name_H-M "P 21 21 21"
_symmetry_group_IT_number 19
_symmetry_cell_setting 'orthorhombic'
loop_
_space_group_symop_operation_xyz
x,y,z
1/2-x,-y,1/2+z
1/2+x,1/2-y,-z
-x,1/2+y,1/2-z
loop_
_atom_site_type_symbol
_atom_site_label
_atom_site_fract_x
_atom_site_fract_y
_atom_site_fract_z
Si Si1 0.881198 0.380190 0.442462
Si Si2 0.237727 0.425054 0.586713
Si Si3 0.503141 0.681740 0.268795
Si Si4 0.430765 0.093480 0.988197
Si Si5 0.764629 0.569110 0.722233
O O1 0.848639 0.214333 0.450796
O O2 0.693159 0.458488 0.478409
O O3 0.891612 0.417013 0.314449
O O4 0.053899 0.432497 0.512489
O O5 0.372248 0.553568 0.563747
O O6 0.171247 0.397750 0.710814
O O7 0.537763 0.672189 0.398152
O O8 0.675763 0.595002 0.216018
O O9 0.448445 0.842408 0.241850
O O10 0.308245 0.145696 0.886443
#
# Coordination Sequence:
#
# PCOD9314369 Si02
#       5
#     4   4   4   4   4
#     4  10  21  40  64  96 132 175 237 269 329 404
#     4  11  21  40  67  97 136 181 225 280 331 405
#     4  10  24  43  68  99 139 175 228 277 335 405
#     4  11  23  40  67  97 139 178 223 283 344 396
#     4  10  23  45  66 101 136 181 225 283 335 408
#
# _framework density 23.917428999999998
#
# number of rings (size 3 to 8) (size 9 to 14) (size 15 to 20)
#    0.000    1.600    4.000    0.000    2.800    1.600 
#    0.000    4.000    0.000    0.000    0.000    0.000 
#    0.000    0.000    0.000    0.000    0.000    0.000 
#
# Total GULP energy -111556.469536 kJ/mol
# GULP energy per Si atom -5577.823477 kJ/mol
# Density = 2.386299 g / cm^3
# Si number density = 23.917429 Si / 1000 Ang^3
#
#
#
# Elastic Constant Matrix: (Units=GPa)
#
#
# Indices 1 2 3 4 5 6 
#
# 1 95.0130 24.8324 29.0334 0.0000 0.0000 0.0000
# 2 24.8324 35.3455 5.0868 0.0000 0.0000 0.0000
# 3 29.0334 5.0868 127.8412 0.0000 0.0000 0.0000
# 4 0.0000 0.0000 0.0000 19.9617 0.0000 0.0000
# 5 0.0000 0.0000 0.0000 0.0000 31.6370 0.0000
# 6 0.0000 0.0000 0.0000 0.0000 0.0000 28.4566
#
#
#
# Elastic Compliance Matrix: (Units=1/GPa)
#
#
# Indices 1 2 3 4 5 6 
#
# 1 0.013799 -0.009297 -0.002764 0.000000 0.000000 0.000000
# 2 -0.009297 0.034719 0.000730 0.000000 0.000000 0.000000
# 3 -0.002764 0.000730 0.008421 0.000000 0.000000 0.000000
# 4 0.000000 0.000000 0.000000 0.050096 0.000000 0.000000
# 5 0.000000 0.000000 0.000000 0.000000 0.031609 0.000000
# 6 0.000000 0.000000 0.000000 0.000000 0.000000 0.035141
#
#
# Mechanical properties :
#
#
# Convention : Reuss Voigt Hill
#
# Bulk Modulus (GPa) = 29.17419 41.78942 35.48181
# Shear Modulus (GPa) = 24.05319 29.29422 26.67371
#
# Velocity S-wave (km/s) = 3.17468 3.50352 3.34315
# Velocity P-wave (km/s) = 5.06582 5.82035 5.45614
#
# Compressibility (1/GPa) = 0.03427687
#
# Stress axis : x y z
#
# Youngs Moduli (GPa) = 72.46719 28.80275 118.75255
#
# Poissons Ratio (x) = 0.26778 0.32823
# Poissons Ratio (y) = 0.67374 -0.08669
# Poissons Ratio (z) = 0.20030 -0.02103
#
# Static dielectric constant tensor:
#      x y z
#    x 1.893050 0.000000 0.000000 
#    y 0.000000 1.908910 0.000000 
#    z 0.000000 0.000000 1.999130 
# 
# From -- ./inp_files/779.got.cif
#   From: 2010.05.17/outbox.cif.g08.bks.cpg/sg19_1_cif.got.tgz:779.got - 2010.06.03 22:46:19.
