data_PCOD9314315
_publ_section_title
;
Structure prediction by ZEFSAII (Michael W. Deem and Ramdas Pophale) SiO2 
 PCOD9314315
Probable space group: P 21 21 21
;
_chemical_formula_sum "Si O2"
_cell_formula_units_Z 32
_cell_length_a 4.873582
_cell_length_b 11.312939
_cell_length_c 21.567125
_cell_angle_alpha 90.000000
_cell_angle_beta 90.000000
_cell_angle_gamma 90.000000
_cell_volume 1189.093427
_symmetry_space_group_name_H-M "P 21 21 21"
_symmetry_group_IT_number 19
_symmetry_cell_setting 'orthorhombic'
loop_
_space_group_symop_operation_xyz
x,y,z
1/2-x,-y,1/2+z
1/2+x,1/2-y,-z
-x,1/2+y,1/2-z
loop_
_atom_site_type_symbol
_atom_site_label
_atom_site_fract_x
_atom_site_fract_y
_atom_site_fract_z
Si Si1 0.953841 0.307414 0.208499
Si Si2 0.354569 0.037436 0.901889
Si Si3 0.665951 0.910261 0.011550
Si Si4 0.413624 0.599996 0.349038
Si Si5 0.451032 0.986968 0.715546
Si Si6 0.495708 0.759869 0.459975
Si Si7 0.410328 0.821730 0.819641
Si Si8 0.831538 0.325977 0.428459
O O1 0.026350 0.380033 0.146378
O O2 0.744211 0.209376 0.184505
O O3 0.806848 0.402721 0.252268
O O4 0.176656 0.257553 0.259122
O O5 0.108901 0.121137 0.925973
O O6 0.257142 0.915264 0.866075
O O7 0.533454 0.995292 0.960517
O O8 0.462744 0.886183 0.069145
O O9 0.965820 0.921782 0.040360
O O10 0.682642 0.786315 0.974100
O O11 0.716806 0.577506 0.323964
O O12 0.425422 0.645842 0.418607
O O13 0.207822 0.496419 0.329097
O O14 0.566839 0.917878 0.776638
O O15 0.811130 0.751120 0.478514
O O16 0.571572 0.733891 0.864875
#
# Coordination Sequence:
#
# PCOD9314315 Si02
#       8
#     4   4   4   4   4   4   4   4
#     4   9  20  40  67  99 133 175 225 278 346 411
#     4   9  20  41  68  96 133 182 223 279 341 409
#     4   9  18  35  56  85 123 168 217 255 328 388
#     4  10  22  42  65  92 133 172 221 282 334 409
#     4  10  21  39  64  95 133 173 217 271 355 408
#     4  11  24  45  69  94 127 174 232 280 331 400
#     4   9  19  39  65  99 136 173 224 282 347 411
#     4   9  18  33  56  86 126 167 209 271 316 394
#
# _framework density 26.911259999999999
#
# number of rings (size 3 to 8) (size 9 to 14) (size 15 to 20)
#    0.000    2.500    0.000    0.750    0.000    5.000 
#    6.750   26.250    0.000    0.000    0.000    0.000 
#    0.000    0.000    0.000    0.000    0.000    0.000 
#
# Total GULP energy -178430.718777 kJ/mol
# GULP energy per Si atom -5575.959962 kJ/mol
# Density = 2.685001 g / cm^3
# Si number density = 26.911260 Si / 1000 Ang^3
#
#
#
# Elastic Constant Matrix: (Units=GPa)
#
#
# Indices 1 2 3 4 5 6 
#
# 1 95.2384 10.7671 34.6784 0.0000 0.0000 0.0000
# 2 10.7671 87.5143 45.4719 0.0000 0.0000 0.0000
# 3 34.6784 45.4719 144.2061 0.0000 0.0000 0.0000
# 4 0.0000 0.0000 0.0000 67.5911 0.0000 0.0000
# 5 0.0000 0.0000 0.0000 0.0000 28.7901 0.0000
# 6 0.0000 0.0000 0.0000 0.0000 0.0000 26.0517
#
#
#
# Elastic Compliance Matrix: (Units=1/GPa)
#
#
# Indices 1 2 3 4 5 6 
#
# 1 0.011508 0.000026 -0.002776 0.000000 0.000000 0.000000
# 2 0.000026 0.013666 -0.004316 0.000000 0.000000 0.000000
# 3 -0.002776 -0.004316 0.008963 0.000000 0.000000 0.000000
# 4 0.000000 0.000000 0.000000 0.014795 0.000000 0.000000
# 5 0.000000 0.000000 0.000000 0.000000 0.034734 0.000000
# 6 0.000000 0.000000 0.000000 0.000000 0.000000 0.038385
#
#
# Mechanical properties :
#
#
# Convention : Reuss Voigt Hill
#
# Bulk Modulus (GPa) = 49.98330 56.53260 53.25795
# Shear Modulus (GPa) = 35.00201 40.22268 37.61234
#
# Velocity S-wave (km/s) = 3.61036 3.87025 3.74256
# Velocity P-wave (km/s) = 5.99944 6.40503 6.20555
#
# Compressibility (1/GPa) = 0.02000668
#
# Stress axis : x y z
#
# Youngs Moduli (GPa) = 86.89860 73.17549 111.57227
#
# Poissons Ratio (x) = -0.00193 0.30969
# Poissons Ratio (y) = -0.00229 0.48149
# Poissons Ratio (z) = 0.24120 0.31579
#
# Static dielectric constant tensor:
#      x y z
#    x 2.023930 0.000000 0.000000 
#    y 0.000000 2.371810 0.000000 
#    z 0.000000 0.000000 2.117960 
# 
# From -- ./inp_files/6953.got.cif
#   From: 2010.05.17/outbox.cif.g08.bks.cpg/sg19_4_cif.got.tgz:6953.got - 2010.06.03 22:46:19.
