data_PCOD9314510
_publ_section_title
;
Structure prediction by ZEFSAII (Michael W. Deem and Ramdas Pophale) SiO2 
 PCOD9314510
Probable space group: P 21 21 21
;
_chemical_formula_sum "Si O2"
_cell_formula_units_Z 28
_cell_length_a 10.890203
_cell_length_b 11.622939
_cell_length_c 8.549177
_cell_angle_alpha 90.000000
_cell_angle_beta 90.000000
_cell_angle_gamma 90.000000
_cell_volume 1082.122040
_symmetry_space_group_name_H-M "P 21 21 21"
_symmetry_group_IT_number 19
_symmetry_cell_setting 'orthorhombic'
loop_
_space_group_symop_operation_xyz
x,y,z
1/2-x,-y,1/2+z
1/2+x,1/2-y,-z
-x,1/2+y,1/2-z
loop_
_atom_site_type_symbol
_atom_site_label
_atom_site_fract_x
_atom_site_fract_y
_atom_site_fract_z
Si Si1 0.074873 0.467598 0.293742
Si Si2 0.706234 0.035578 0.018104
Si Si3 0.518702 0.743184 0.941991
Si Si4 0.693840 0.743854 0.392332
Si Si5 0.113913 0.077141 0.962607
Si Si6 0.947396 0.787310 0.709582
Si Si7 0.257921 0.837252 0.946646
O O1 0.113044 0.505485 0.118205
O O2 0.200176 0.453623 0.393804
O O3 0.014455 0.342012 0.299880
O O4 0.983378 0.547788 0.398147
O O5 0.795097 0.123479 0.927697
O O6 0.646845 0.115994 0.152926
O O7 0.406409 0.835319 0.951583
O O8 0.487665 0.685633 0.112973
O O9 0.669158 0.739414 0.937781
O O10 0.794835 0.677116 0.486321
O O11 0.558714 0.695865 0.412553
O O12 0.727598 0.719164 0.216745
O O13 0.067574 0.146347 0.807192
O O14 0.199046 0.964657 0.945601
#
# Coordination Sequence:
#
# PCOD9314510 Si02
#       7
#     4   4   4   4   4   4   4
#     4  11  22  43  64  97 132 174 223 274 328 403
#     4  11  22  41  66  93 131 171 223 266 334 394
#     4  10  22  43  65  93 133 176 220 275 332 391
#     4  10  21  43  63  91 132 168 215 276 327 391
#     4  10  23  39  65  93 133 165 220 275 326 401
#     4  10  22  43  65  93 130 178 211 276 339 393
#     4  10  22  42  64  96 129 174 220 274 328 401
#
# _framework density 25.875083
#
# number of rings (size 3 to 8) (size 9 to 14) (size 15 to 20)
#    0.000    1.714    2.857    0.857    2.000    1.143 
#   15.429    0.000    0.000    0.000    0.000    0.000 
#    0.000    0.000    0.000    0.000    0.000    0.000 
#
# Total GULP energy -155921.867566 kJ/mol
# GULP energy per Si atom -5568.638127 kJ/mol
# Density = 2.581619 g / cm^3
# Si number density = 25.875083 Si / 1000 Ang^3
#
#
#
# Elastic Constant Matrix: (Units=GPa)
#
#
# Indices 1 2 3 4 5 6 
#
# 1 75.8482 19.7825 -20.4818 0.0000 0.0000 0.0000
# 2 19.7825 65.7045 0.2167 0.0000 0.0000 0.0000
# 3 -20.4818 0.2167 55.3217 0.0000 0.0000 0.0000
# 4 0.0000 0.0000 0.0000 18.5814 0.0000 0.0000
# 5 0.0000 0.0000 0.0000 0.0000 13.8931 0.0000
# 6 0.0000 0.0000 0.0000 0.0000 0.0000 42.5632
#
#
#
# Elastic Compliance Matrix: (Units=1/GPa)
#
#
# Indices 1 2 3 4 5 6 
#
# 1 0.016062 -0.004856 0.005965 0.000000 0.000000 0.000000
# 2 -0.004856 0.016688 -0.001863 0.000000 0.000000 0.000000
# 3 0.005965 -0.001863 0.020292 0.000000 0.000000 0.000000
# 4 0.000000 0.000000 0.000000 0.053817 0.000000 0.000000
# 5 0.000000 0.000000 0.000000 0.000000 0.071978 0.000000
# 6 0.000000 0.000000 0.000000 0.000000 0.000000 0.023494
#
#
# Mechanical properties :
#
#
# Convention : Reuss Voigt Hill
#
# Bulk Modulus (GPa) = 19.40424 21.76768 20.58596
# Shear Modulus (GPa) = 22.62283 28.16468 25.39375
#
# Velocity S-wave (km/s) = 2.96008 3.30280 3.13613
# Velocity P-wave (km/s) = 4.38158 4.79328 4.59205
#
# Compressibility (1/GPa) = 0.05153514
#
# Stress axis : x y z
#
# Youngs Moduli (GPa) = 62.26062 59.92431 49.28052
#
# Poissons Ratio (x) = 0.29096 -0.29398
# Poissons Ratio (y) = 0.30231 0.09181
# Poissons Ratio (z) = -0.37141 0.11164
#
# Static dielectric constant tensor:
#      x y z
#    x 2.708120 0.000000 0.000000 
#    y 0.000000 2.109820 0.000000 
#    z 0.000000 0.000000 2.077820 
# 
# From -- ./inp_files/3444.got.cif
#   From: 2010.05.17/outbox.cif.g08.bks.cpg/sg19_2_cif.got.tgz:3444.got - 2010.06.03 22:46:19.
