data_PCOD9314053
_publ_section_title
;
Structure prediction by ZEFSAII (Michael W. Deem and Ramdas Pophale) SiO2 
 PCOD9314053
Probable space group: P 21 21 21
;
_chemical_formula_sum "Si O2"
_cell_formula_units_Z 32
_cell_length_a 14.501539
_cell_length_b 8.940719
_cell_length_c 11.105097
_cell_angle_alpha 90.000000
_cell_angle_beta 90.000000
_cell_angle_gamma 90.000000
_cell_volume 1439.822304
_symmetry_space_group_name_H-M "P 21 21 21"
_symmetry_group_IT_number 19
_symmetry_cell_setting 'orthorhombic'
loop_
_space_group_symop_operation_xyz
x,y,z
1/2-x,-y,1/2+z
1/2+x,1/2-y,-z
-x,1/2+y,1/2-z
loop_
_atom_site_type_symbol
_atom_site_label
_atom_site_fract_x
_atom_site_fract_y
_atom_site_fract_z
Si Si1 0.249298 0.224885 0.099104
Si Si2 0.970755 0.237989 0.894522
Si Si3 0.552552 0.303855 0.504092
Si Si4 0.027926 0.901014 0.363869
Si Si5 0.187764 0.062942 0.685857
Si Si6 0.363211 0.610187 0.807402
Si Si7 0.046663 0.913623 0.840337
Si Si8 0.714314 0.778756 0.659600
O O1 0.359286 0.256597 0.104326
O O2 0.199089 0.310694 0.206067
O O3 0.240927 0.046602 0.119571
O O4 0.226256 0.270613 0.962973
O O5 0.997986 0.337131 0.778794
O O6 0.005694 0.305317 0.020411
O O7 0.999444 0.067927 0.877174
O O8 0.521614 0.425910 0.600578
O O9 0.602919 0.402012 0.401860
O O10 0.628092 0.197293 0.566961
O O11 0.471258 0.206520 0.444965
O O12 0.131929 0.843588 0.347058
O O13 0.965909 0.881518 0.247395
O O14 0.225777 0.219864 0.730301
O O15 0.148567 0.965652 0.798611
O O16 0.328812 0.441750 0.825609
#
# Coordination Sequence:
#
# PCOD9314053 Si02
#       8
#     4   4   4   4   4   4   4   4
#     4  10  24  46  64  98 141 178 228 284 343 412
#     4  10  20  40  68  98 140 173 230 286 330 411
#     4  12  23  45  72 101 140 178 232 291 343 424
#     4  11  23  49  65 100 145 180 232 285 349 418
#     4  11  24  45  72  99 137 185 228 287 347 416
#     4  12  28  43  72 104 136 189 227 292 354 419
#     4  11  21  39  70 102 128 185 223 283 348 399
#     4  11  25  47  69 104 141 184 234 292 350 419
#
# _framework density 22.224965000000001
#
# number of rings (size 3 to 8) (size 9 to 14) (size 15 to 20)
#    0.000    1.000    5.000    3.000    5.250    0.000 
#    9.000    0.000    0.000    0.000    0.000    0.000 
#    0.000    0.000    0.000    0.000    0.000    0.000 
#
# Total GULP energy -178852.243660 kJ/mol
# GULP energy per Si atom -5589.132614 kJ/mol
# Density = 2.217438 g / cm^3
# Si number density = 22.224965 Si / 1000 Ang^3
#
#
#
# Elastic Constant Matrix: (Units=GPa)
#
#
# Indices 1 2 3 4 5 6 
#
# 1 26.9937 -6.3589 7.3696 0.0000 0.0000 0.0000
# 2 -6.3589 98.1929 17.5447 0.0000 0.0000 0.0000
# 3 7.3696 17.5447 59.1044 0.0000 0.0000 0.0000
# 4 0.0000 0.0000 0.0000 37.0838 0.0000 0.0000
# 5 0.0000 0.0000 0.0000 0.0000 27.3187 0.0000
# 6 0.0000 0.0000 0.0000 0.0000 0.0000 27.3407
#
#
#
# Elastic Compliance Matrix: (Units=1/GPa)
#
#
# Indices 1 2 3 4 5 6 
#
# 1 0.039543 0.003634 -0.006009 0.000000 0.000000 0.000000
# 2 0.003634 0.011088 -0.003745 0.000000 0.000000 0.000000
# 3 -0.006009 -0.003745 0.018780 0.000000 0.000000 0.000000
# 4 0.000000 0.000000 0.000000 0.026966 0.000000 0.000000
# 5 0.000000 0.000000 0.000000 0.000000 0.036605 0.000000
# 6 0.000000 0.000000 0.000000 0.000000 0.000000 0.036575
#
#
# Mechanical properties :
#
#
# Convention : Reuss Voigt Hill
#
# Bulk Modulus (GPa) = 17.49109 24.60020 21.04564
# Shear Modulus (GPa) = 24.89371 29.39768 27.14569
#
# Velocity S-wave (km/s) = 3.35039 3.64088 3.49865
# Velocity P-wave (km/s) = 4.78058 5.36353 5.08042
#
# Compressibility (1/GPa) = 0.05717197
#
# Stress axis : x y z
#
# Youngs Moduli (GPa) = 25.28923 90.18353 53.24787
#
# Poissons Ratio (x) = -0.32777 0.31998
# Poissons Ratio (y) = -0.09191 0.19940
# Poissons Ratio (z) = 0.15197 0.33771
#
# Static dielectric constant tensor:
#      x y z
#    x 1.827250 0.000000 0.000000 
#    y 0.000000 1.803180 0.000000 
#    z 0.000000 0.000000 1.952220 
# 
# From -- ./inp_files/5274.got.cif
#   From: 2010.05.17/outbox.cif.g08.bks.cpg/sg19_3_cif.got.tgz:5274.got - 2010.06.03 22:46:19.
