data_PCOD9314255
_publ_section_title
;
Structure prediction by ZEFSAII (Michael W. Deem and Ramdas Pophale) SiO2 
 PCOD9314255
Probable space group: P 21 21 21
;
_chemical_formula_sum "Si O2"
_cell_formula_units_Z 32
_cell_length_a 5.100465
_cell_length_b 12.124675
_cell_length_c 21.924560
_cell_angle_alpha 90.000000
_cell_angle_beta 90.000000
_cell_angle_gamma 90.000000
_cell_volume 1355.847249
_symmetry_space_group_name_H-M "P 21 21 21"
_symmetry_group_IT_number 19
_symmetry_cell_setting 'orthorhombic'
loop_
_space_group_symop_operation_xyz
x,y,z
1/2-x,-y,1/2+z
1/2+x,1/2-y,-z
-x,1/2+y,1/2-z
loop_
_atom_site_type_symbol
_atom_site_label
_atom_site_fract_x
_atom_site_fract_y
_atom_site_fract_z
Si Si1 0.430438 0.262949 0.859377
Si Si2 0.344648 0.895252 0.998986
Si Si3 0.070736 0.724896 0.807095
Si Si4 0.204744 0.579799 0.697759
Si Si5 0.670722 0.817314 0.512962
Si Si6 0.399783 0.939055 0.410549
Si Si7 0.922465 0.143321 0.271000
Si Si8 0.334800 0.656562 0.933603
O O1 0.671447 0.184907 0.837956
O O2 0.437358 0.340744 0.918965
O O3 0.231808 0.170721 0.884140
O O4 0.349493 0.328200 0.799147
O O5 0.621006 0.914008 0.030163
O O6 0.120910 0.892110 0.051608
O O7 0.339753 0.776692 0.965795
O O8 0.292809 0.980711 0.945192
O O9 0.055014 0.629578 0.755572
O O10 0.288036 0.811624 0.783392
O O11 0.207122 0.675048 0.867372
O O12 0.788313 0.784947 0.810670
O O13 0.409566 0.487494 0.718949
O O14 0.034146 0.513103 0.648887
O O15 0.974785 0.783566 0.507804
O O16 0.606506 0.905977 0.462013
#
# Coordination Sequence:
#
# PCOD9314255 Si02
#       8
#     4   4   4   4   4   4   4   4
#     4  10  23  43  61  98 136 164 230 274 321 408
#     4  10  23  37  65  91 122 167 213 267 323 387
#     4  11  24  45  65  95 136 174 218 282 324 404
#     4  11  24  41  67  98 131 180 225 270 335 406
#     4  10  21  38  63  89 125 166 201 279 326 368
#     4  11  22  40  68  93 129 169 225 265 334 403
#     4  11  25  40  69  96 131 181 219 276 340 383
#     4  10  22  42  58  92 130 161 213 271 321 381
#
# _framework density 23.601479999999999
#
# number of rings (size 3 to 8) (size 9 to 14) (size 15 to 20)
#    0.000    1.500    2.500    1.500    5.250    2.000 
#    0.000    5.000    0.000    0.000    0.000    0.000 
#    0.000    0.000    0.000    0.000    0.000    0.000 
#
# Total GULP energy -178758.004378 kJ/mol
# GULP energy per Si atom -5586.187637 kJ/mol
# Density = 2.354776 g / cm^3
# Si number density = 23.601480 Si / 1000 Ang^3
#
#
#
# Elastic Constant Matrix: (Units=GPa)
#
#
# Indices 1 2 3 4 5 6 
#
# 1 78.4726 15.7248 2.9185 0.0000 0.0000 0.0000
# 2 15.7248 45.3022 11.6174 0.0000 0.0000 0.0000
# 3 2.9185 11.6174 109.0516 0.0000 0.0000 0.0000
# 4 0.0000 0.0000 0.0000 15.6862 0.0000 0.0000
# 5 0.0000 0.0000 0.0000 0.0000 30.1515 0.0000
# 6 0.0000 0.0000 0.0000 0.0000 0.0000 29.4851
#
#
#
# Elastic Compliance Matrix: (Units=1/GPa)
#
#
# Indices 1 2 3 4 5 6 
#
# 1 0.013698 -0.004792 0.000144 0.000000 0.000000 0.000000
# 2 -0.004792 0.024370 -0.002468 0.000000 0.000000 0.000000
# 3 0.000144 -0.002468 0.009429 0.000000 0.000000 0.000000
# 4 0.000000 0.000000 0.000000 0.063750 0.000000 0.000000
# 5 0.000000 0.000000 0.000000 0.000000 0.033166 0.000000
# 6 0.000000 0.000000 0.000000 0.000000 0.000000 0.033915
#
#
# Mechanical properties :
#
#
# Convention : Reuss Voigt Hill
#
# Bulk Modulus (GPa) = 30.06086 32.59417 31.32752
# Shear Modulus (GPa) = 24.55206 28.56895 26.56050
#
# Velocity S-wave (km/s) = 3.22883 3.48296 3.35830
# Velocity P-wave (km/s) = 5.16381 5.47858 5.32353
#
# Compressibility (1/GPa) = 0.03326585
#
# Stress axis : x y z
#
# Youngs Moduli (GPa) = 73.00270 41.03397 106.05541
#
# Poissons Ratio (x) = 0.19662 -0.01526
# Poissons Ratio (y) = 0.34980 0.26174
# Poissons Ratio (z) = -0.01050 0.10127
#
# Static dielectric constant tensor:
#      x y z
#    x 1.917450 0.000000 0.000000 
#    y 0.000000 1.908450 0.000000 
#    z 0.000000 0.000000 1.955110 
# 
# From -- ./inp_files/6915.got.cif
#   From: 2010.05.17/outbox.cif.g08.bks.cpg/sg19_4_cif.got.tgz:6915.got - 2010.06.03 22:46:19.
