data_PCOD9314433
_publ_section_title
;
Structure prediction by ZEFSAII (Michael W. Deem and Ramdas Pophale) SiO2 
 PCOD9314433
Probable space group: P 21 21 21
;
_chemical_formula_sum "Si O2"
_cell_formula_units_Z 28
_cell_length_a 5.159215
_cell_length_b 7.257489
_cell_length_c 28.458090
_cell_angle_alpha 90.000000
_cell_angle_beta 90.000000
_cell_angle_gamma 90.000000
_cell_volume 1065.554730
_symmetry_space_group_name_H-M "P 21 21 21"
_symmetry_group_IT_number 19
_symmetry_cell_setting 'orthorhombic'
loop_
_space_group_symop_operation_xyz
x,y,z
1/2-x,-y,1/2+z
1/2+x,1/2-y,-z
-x,1/2+y,1/2-z
loop_
_atom_site_type_symbol
_atom_site_label
_atom_site_fract_x
_atom_site_fract_y
_atom_site_fract_z
Si Si1 0.995213 0.400094 0.794458
Si Si2 0.709830 0.553667 0.715255
Si Si3 0.538271 0.601917 0.890927
Si Si4 0.260383 0.003988 0.011036
Si Si5 0.844659 0.797139 0.360491
Si Si6 0.944595 0.245838 0.655566
Si Si7 0.237189 0.562774 0.540637
O O1 0.741081 0.439307 0.763060
O O2 0.913801 0.304844 0.843139
O O3 0.131752 0.591258 0.805579
O O4 0.179510 0.252931 0.770876
O O5 0.461084 0.595114 0.683881
O O6 0.104187 0.941256 0.820772
O O7 0.494063 0.385172 0.876922
O O8 0.763778 0.692262 0.858728
O O9 0.267855 0.707498 0.884796
O O10 0.660754 0.598484 0.942750
O O11 0.543894 0.966533 0.990872
O O12 0.043996 0.985318 0.970919
O O13 0.266309 0.220954 0.025777
O O14 0.806253 0.929323 0.404671
#
# Coordination Sequence:
#
# PCOD9314433 Si02
#       7
#     4   4   4   4   4   4   4
#     4  11  25  44  66  99 138 181 236 290 348 415
#     4  12  25  44  68  98 137 183 235 288 352 412
#     4  10  21  41  66 103 139 180 227 282 341 413
#     4   9  17  32  61  96 136 170 222 272 335 405
#     4  10  24  39  68  96 140 179 231 287 342 414
#     4  11  24  42  68  98 141 181 228 284 347 407
#     4   9  18  32  59 100 131 174 219 277 333 404
#
# _framework density 26.277393
#
# number of rings (size 3 to 8) (size 9 to 14) (size 15 to 20)
#    0.000    1.714    2.857    0.857    4.000    6.857 
#    0.000    0.000    0.000    3.429    0.000    0.000 
#    0.000    0.000    0.000    0.000    0.000    0.000 
#
# Total GULP energy -156741.364272 kJ/mol
# GULP energy per Si atom -5597.905867 kJ/mol
# Density = 2.621758 g / cm^3
# Si number density = 26.277393 Si / 1000 Ang^3
#
#
#
# Elastic Constant Matrix: (Units=GPa)
#
#
# Indices 1 2 3 4 5 6 
#
# 1 60.7426 6.5993 -0.7848 0.0000 0.0000 0.0000
# 2 6.5993 115.5026 18.6116 0.0000 0.0000 0.0000
# 3 -0.7848 18.6116 58.9586 0.0000 0.0000 0.0000
# 4 0.0000 0.0000 0.0000 35.8974 0.0000 0.0000
# 5 0.0000 0.0000 0.0000 0.0000 30.8351 0.0000
# 6 0.0000 0.0000 0.0000 0.0000 0.0000 28.5327
#
#
#
# Elastic Compliance Matrix: (Units=1/GPa)
#
#
# Indices 1 2 3 4 5 6 
#
# 1 0.016583 -0.001036 0.000548 0.000000 0.000000 0.000000
# 2 -0.001036 0.009186 -0.002914 0.000000 0.000000 0.000000
# 3 0.000548 -0.002914 0.017888 0.000000 0.000000 0.000000
# 4 0.000000 0.000000 0.000000 0.027857 0.000000 0.000000
# 5 0.000000 0.000000 0.000000 0.000000 0.032431 0.000000
# 6 0.000000 0.000000 0.000000 0.000000 0.000000 0.035047
#
#
# Mechanical properties :
#
#
# Convention : Reuss Voigt Hill
#
# Bulk Modulus (GPa) = 27.13436 31.56178 29.34807
# Shear Modulus (GPa) = 31.62950 33.10491 32.36720
#
# Velocity S-wave (km/s) = 3.47317 3.55325 3.51344
# Velocity P-wave (km/s) = 5.14125 5.37319 5.25850
#
# Compressibility (1/GPa) = 0.03685364
#
# Stress axis : x y z
#
# Youngs Moduli (GPa) = 60.30452 108.85555 55.90306
#
# Poissons Ratio (x) = 0.11274 -0.03062
# Poissons Ratio (y) = 0.06246 0.16288
# Poissons Ratio (z) = -0.03303 0.31717
#
# Static dielectric constant tensor:
#      x y z
#    x 2.023000 0.000000 0.000000 
#    y 0.000000 2.072580 0.000000 
#    z 0.000000 0.000000 2.067710 
# 
# From -- ./inp_files/5569.got.cif
#   From: 2010.05.17/outbox.cif.g08.bks.cpg/sg19_3_cif.got.tgz:5569.got - 2010.06.03 22:46:19.
