data_PCOD9314307
_publ_section_title
;
Structure prediction by ZEFSAII (Michael W. Deem and Ramdas Pophale) SiO2 
 PCOD9314307
Probable space group: P 21 21 21
;
_chemical_formula_sum "Si O2"
_cell_formula_units_Z 28
_cell_length_a 17.415470
_cell_length_b 13.229542
_cell_length_c 5.166680
_cell_angle_alpha 90.000000
_cell_angle_beta 90.000000
_cell_angle_gamma 90.000000
_cell_volume 1190.396313
_symmetry_space_group_name_H-M "P 21 21 21"
_symmetry_group_IT_number 19
_symmetry_cell_setting 'orthorhombic'
loop_
_space_group_symop_operation_xyz
x,y,z
1/2-x,-y,1/2+z
1/2+x,1/2-y,-z
-x,1/2+y,1/2-z
loop_
_atom_site_type_symbol
_atom_site_label
_atom_site_fract_x
_atom_site_fract_y
_atom_site_fract_z
Si Si1 0.508320 0.675454 0.743545
Si Si2 0.167281 0.925354 0.093278
Si Si3 0.737916 0.372145 0.907820
Si Si4 0.548039 0.069519 0.278086
Si Si5 0.437321 0.381391 0.959187
Si Si6 0.327946 0.480996 0.564413
Si Si7 0.778609 0.162314 0.777691
O O1 0.588180 0.629018 0.847429
O O2 0.489894 0.622386 0.469750
O O3 0.516818 0.794084 0.685425
O O4 0.452334 0.646051 0.980255
O O5 0.227915 0.884413 0.305589
O O6 0.170354 0.046780 0.126346
O O7 0.197313 0.901803 0.805483
O O8 0.725306 0.255573 0.844367
O O9 0.630814 0.032333 0.181033
O O10 0.514263 0.959026 0.362259
O O11 0.395944 0.458666 0.763363
O O12 0.364595 0.328056 0.104462
O O13 0.264220 0.560468 0.639595
O O14 0.294904 0.367990 0.518329
#
# Coordination Sequence:
#
# PCOD9314307 Si02
#       7
#     4   4   4   4   4   4   4
#     4  12  24  45  74  95 138 195 231 281 347 420
#     4  10  21  40  66  98 134 171 229 274 326 417
#     4  10  21  39  64 102 134 169 222 280 339 393
#     4  11  27  45  67 101 139 179 241 289 331 417
#     4  11  24  46  73  99 134 186 240 277 356 419
#     4  11  23  44  66 108 140 173 233 289 353 409
#     4  11  22  39  72 101 135 179 216 292 346 411
#
# _framework density 23.521581000000001
#
# number of rings (size 3 to 8) (size 9 to 14) (size 15 to 20)
#    0.000    1.143    4.286    1.714    4.000    0.000 
#    2.571    1.429    3.143    0.000    0.000    0.000 
#    0.000    0.000    0.000    0.000    0.000    0.000 
#
# Total GULP energy -156324.547067 kJ/mol
# GULP energy per Si atom -5583.019538 kJ/mol
# Density = 2.346804 g / cm^3
# Si number density = 23.521581 Si / 1000 Ang^3
#
#
#
# Elastic Constant Matrix: (Units=GPa)
#
#
# Indices 1 2 3 4 5 6 
#
# 1 28.6923 17.2464 11.4030 0.0000 0.0000 0.0000
# 2 17.2464 83.7690 16.5664 0.0000 0.0000 0.0000
# 3 11.4030 16.5664 80.9118 0.0000 0.0000 0.0000
# 4 0.0000 0.0000 0.0000 36.4188 0.0000 0.0000
# 5 0.0000 0.0000 0.0000 0.0000 31.5116 0.0000
# 6 0.0000 0.0000 0.0000 0.0000 0.0000 32.0184
#
#
#
# Elastic Compliance Matrix: (Units=1/GPa)
#
#
# Indices 1 2 3 4 5 6 
#
# 1 0.041120 -0.007629 -0.004233 0.000000 0.000000 0.000000
# 2 -0.007629 0.013857 -0.001762 0.000000 0.000000 0.000000
# 3 -0.004233 -0.001762 0.013316 0.000000 0.000000 0.000000
# 4 0.000000 0.000000 0.000000 0.027458 0.000000 0.000000
# 5 0.000000 0.000000 0.000000 0.000000 0.031734 0.000000
# 6 0.000000 0.000000 0.000000 0.000000 0.000000 0.031232
#
#
# Mechanical properties :
#
#
# Convention : Reuss Voigt Hill
#
# Bulk Modulus (GPa) = 24.36305 31.53385 27.94845
# Shear Modulus (GPa) = 25.04407 29.86691 27.45549
#
# Velocity S-wave (km/s) = 3.26656 3.56724 3.42021
# Velocity P-wave (km/s) = 4.96059 5.51384 5.24451
#
# Compressibility (1/GPa) = 0.04104577
#
# Stress axis : x y z
#
# Youngs Moduli (GPa) = 24.31881 72.16745 75.09491
#
# Poissons Ratio (x) = 0.55055 0.31789
# Poissons Ratio (y) = 0.18552 0.13232
# Poissons Ratio (z) = 0.10295 0.12716
#
# Static dielectric constant tensor:
#      x y z
#    x 1.915800 0.000000 0.000000 
#    y 0.000000 1.930230 0.000000 
#    z 0.000000 0.000000 2.027480 
# 
# From -- ./inp_files/1927.got.cif
#   From: 2010.05.17/outbox.cif.g08.bks.cpg/sg19_1_cif.got.tgz:1927.got - 2010.06.03 22:46:19.
