data_PCOD9314452
_publ_section_title
;
Structure prediction by ZEFSAII (Michael W. Deem and Ramdas Pophale) SiO2 
 PCOD9314452
Probable space group: P 21 21 21
;
_chemical_formula_sum "Si O2"
_cell_formula_units_Z 32
_cell_length_a 9.957737
_cell_length_b 9.173646
_cell_length_c 16.341266
_cell_angle_alpha 90.000000
_cell_angle_beta 90.000000
_cell_angle_gamma 90.000000
_cell_volume 1492.754291
_symmetry_space_group_name_H-M "P 21 21 21"
_symmetry_group_IT_number 19
_symmetry_cell_setting 'orthorhombic'
loop_
_space_group_symop_operation_xyz
x,y,z
1/2-x,-y,1/2+z
1/2+x,1/2-y,-z
-x,1/2+y,1/2-z
loop_
_atom_site_type_symbol
_atom_site_label
_atom_site_fract_x
_atom_site_fract_y
_atom_site_fract_z
Si Si1 0.111947 0.950581 0.994714
Si Si2 0.904087 0.298736 0.659910
Si Si3 0.590477 0.367316 0.690285
Si Si4 0.387598 0.104258 0.682872
Si Si5 0.531586 0.793221 0.414513
Si Si6 0.235433 0.279395 0.810001
Si Si7 0.615321 0.603176 0.562276
Si Si8 0.889100 0.038741 0.770131
O O1 0.135971 0.915922 0.087837
O O2 0.080884 0.812019 0.937642
O O3 0.244767 0.026782 0.960172
O O4 0.999545 0.070287 0.973860
O O5 0.748031 0.330146 0.679912
O O6 0.938943 0.144366 0.698437
O O7 0.997641 0.425100 0.698585
O O8 0.504607 0.222655 0.690574
O O9 0.574458 0.454022 0.774333
O O10 0.544902 0.479840 0.618097
O O11 0.263904 0.168044 0.735751
O O12 0.404378 0.751400 0.357328
O O13 0.558777 0.662176 0.476928
O O14 0.639008 0.854282 0.347830
O O15 0.348148 0.237553 0.876948
O O16 0.226857 0.438048 0.768678
#
# Coordination Sequence:
#
# PCOD9314452 Si02
#       8
#     4   4   4   4   4   4   4   4
#     4   9  22  41  64  97 131 168 228 276 333 396
#     4  10  23  44  66 101 133 177 223 283 337 401
#     4  10  25  42  67  92 139 179 228 266 349 397
#     4  11  24  44  65  94 137 179 221 283 330 406
#     4  10  21  41  68  97 129 181 221 277 338 407
#     4  10  23  42  64  97 136 168 224 277 333 405
#     4   9  21  44  64  95 135 175 219 283 336 398
#     4  11  21  40  70  97 134 171 222 275 342 394
#
# _framework density 21.436882000000001
#
# number of rings (size 3 to 8) (size 9 to 14) (size 15 to 20)
#    0.000    2.000    1.250    2.250    7.000    2.000 
#   15.750    0.000    0.000    0.000    0.000    0.000 
#    0.000    0.000    0.000    0.000    0.000    0.000 
#
# Total GULP energy -178539.338950 kJ/mol
# GULP energy per Si atom -5579.354342 kJ/mol
# Density = 2.138809 g / cm^3
# Si number density = 21.436882 Si / 1000 Ang^3
#
#
#
# Elastic Constant Matrix: (Units=GPa)
#
#
# Indices 1 2 3 4 5 6 
#
# 1 29.5462 0.0958 4.3495 0.0000 0.0000 0.0000
# 2 0.0958 22.2778 13.7060 0.0000 0.0000 0.0000
# 3 4.3495 13.7060 136.2908 0.0000 0.0000 0.0000
# 4 0.0000 0.0000 0.0000 47.7788 0.0000 0.0000
# 5 0.0000 0.0000 0.0000 0.0000 22.4518 0.0000
# 6 0.0000 0.0000 0.0000 0.0000 0.0000 22.0877
#
#
#
# Elastic Compliance Matrix: (Units=1/GPa)
#
#
# Indices 1 2 3 4 5 6 
#
# 1 0.034011 0.000556 -0.001141 0.000000 0.000000 0.000000
# 2 0.000556 0.047857 -0.004830 0.000000 0.000000 0.000000
# 3 -0.001141 -0.004830 0.007859 0.000000 0.000000 0.000000
# 4 0.000000 0.000000 0.000000 0.020930 0.000000 0.000000
# 5 0.000000 0.000000 0.000000 0.000000 0.044540 0.000000
# 6 0.000000 0.000000 0.000000 0.000000 0.000000 0.045274
#
#
# Mechanical properties :
#
#
# Convention : Reuss Voigt Hill
#
# Bulk Modulus (GPa) = 12.67488 24.93529 18.80508
# Shear Modulus (GPa) = 21.04354 29.79454 25.41904
#
# Velocity S-wave (km/s) = 3.13653 3.73214 3.44723
# Velocity P-wave (km/s) = 4.36378 5.49810 4.96345
#
# Compressibility (1/GPa) = 0.07889622
#
# Stress axis : x y z
#
# Youngs Moduli (GPa) = 29.40183 20.89550 127.23537
#
# Poissons Ratio (x) = -0.01161 0.14522
# Poissons Ratio (y) = -0.01634 0.61461
# Poissons Ratio (z) = 0.03356 0.10094
#
# Static dielectric constant tensor:
#      x y z
#    x 1.804750 0.000000 0.000000 
#    y 0.000000 1.804710 0.000000 
#    z 0.000000 0.000000 1.786910 
# 
# From -- ./inp_files/6137.got.cif
#   From: 2010.05.17/outbox.cif.g08.bks.cpg/sg19_4_cif.got.tgz:6137.got - 2010.06.03 22:46:19.
