data_PCOD9314316
_publ_section_title
;
Structure prediction by ZEFSAII (Michael W. Deem and Ramdas Pophale) SiO2 
 PCOD9314316
Probable space group: P 21 21 21
;
_chemical_formula_sum "Si O2"
_cell_formula_units_Z 32
_cell_length_a 15.193597
_cell_length_b 13.873894
_cell_length_c 5.778984
_cell_angle_alpha 90.000000
_cell_angle_beta 90.000000
_cell_angle_gamma 90.000000
_cell_volume 1218.177201
_symmetry_space_group_name_H-M "P 21 21 21"
_symmetry_group_IT_number 19
_symmetry_cell_setting 'orthorhombic'
loop_
_space_group_symop_operation_xyz
x,y,z
1/2-x,-y,1/2+z
1/2+x,1/2-y,-z
-x,1/2+y,1/2-z
loop_
_atom_site_type_symbol
_atom_site_label
_atom_site_fract_x
_atom_site_fract_y
_atom_site_fract_z
Si Si1 0.088689 0.421139 0.651567
Si Si2 0.471944 0.355659 0.120565
Si Si3 0.527916 0.079987 0.847698
Si Si4 0.678793 0.708778 0.282649
Si Si5 0.705806 0.379922 0.164013
Si Si6 0.047077 0.643147 0.128058
Si Si7 0.361871 0.050393 0.564053
Si Si8 0.747122 0.188570 0.397210
O O1 0.059255 0.532518 0.629648
O O2 0.062272 0.377447 0.398222
O O3 0.193993 0.407224 0.658215
O O4 0.048247 0.380510 0.894594
O O5 0.386791 0.285828 0.114377
O O6 0.502805 0.336470 0.385963
O O7 0.506663 0.332832 0.860889
O O8 0.425402 0.063426 0.782028
O O9 0.564728 0.971450 0.866519
O O10 0.728973 0.639529 0.453534
O O11 0.625738 0.638543 0.110251
O O12 0.753463 0.772531 0.157630
O O13 0.761358 0.436570 0.356896
O O14 0.695985 0.272144 0.257546
O O15 0.629353 0.449893 0.074318
O O16 0.146969 0.684965 0.137805
#
# Coordination Sequence:
#
# PCOD9314316 Si02
#       8
#     4   4   4   4   4   4   4   4
#     4  10  23  41  65  97 134 180 207 259 339 398
#     4   9  18  35  58  92 124 162 203 254 314 393
#     4  10  24  41  63  95 134 179 218 260 338 404
#     4  10  21  39  64  96 123 161 224 275 326 374
#     4  11  22  41  67  96 122 167 232 280 334 373
#     4   9  18  35  60  91 127 168 206 259 322 386
#     4  11  24  42  67  92 127 176 225 285 325 391
#     4  10  22  38  66  99 133 165 221 274 322 403
#
# _framework density 26.268754999999999
#
# number of rings (size 3 to 8) (size 9 to 14) (size 15 to 20)
#    0.000    2.000    2.500    0.000    3.500    6.000 
#    0.000    7.500    0.000    0.000    0.000    0.000 
#    0.000    0.000    0.000    0.000    0.000    0.000 
#
# Total GULP energy -178476.641873 kJ/mol
# GULP energy per Si atom -5577.395059 kJ/mol
# Density = 2.620897 g / cm^3
# Si number density = 26.268755 Si / 1000 Ang^3
#
#
#
# Elastic Constant Matrix: (Units=GPa)
#
#
# Indices 1 2 3 4 5 6 
#
# 1 61.3301 13.0779 15.0582 0.0000 0.0000 0.0000
# 2 13.0779 38.6785 17.8733 0.0000 0.0000 0.0000
# 3 15.0582 17.8733 212.1004 0.0000 0.0000 0.0000
# 4 0.0000 0.0000 0.0000 11.8119 0.0000 0.0000
# 5 0.0000 0.0000 0.0000 0.0000 16.7800 0.0000
# 6 0.0000 0.0000 0.0000 0.0000 0.0000 9.8686
#
#
#
# Elastic Compliance Matrix: (Units=1/GPa)
#
#
# Indices 1 2 3 4 5 6 
#
# 1 0.017696 -0.005622 -0.000783 0.000000 0.000000 0.000000
# 2 -0.005622 0.028688 -0.002018 0.000000 0.000000 0.000000
# 3 -0.000783 -0.002018 0.004940 0.000000 0.000000 0.000000
# 4 0.000000 0.000000 0.000000 0.084660 0.000000 0.000000
# 5 0.000000 0.000000 0.000000 0.000000 0.059595 0.000000
# 6 0.000000 0.000000 0.000000 0.000000 0.000000 0.101331
#
#
# Mechanical properties :
#
#
# Convention : Reuss Voigt Hill
#
# Bulk Modulus (GPa) = 29.00334 44.90307 36.95320
# Shear Modulus (GPa) = 15.37285 25.43208 20.40246
#
# Velocity S-wave (km/s) = 2.42174 3.11489 2.78992
# Velocity P-wave (km/s) = 4.34566 5.48338 4.94734
#
# Compressibility (1/GPa) = 0.03447879
#
# Stress axis : x y z
#
# Youngs Moduli (GPa) = 56.50950 34.85824 202.41308
#
# Poissons Ratio (x) = 0.19596 0.15841
# Poissons Ratio (y) = 0.31768 0.40854
# Poissons Ratio (z) = 0.04422 0.07036
#
# Static dielectric constant tensor:
#      x y z
#    x 2.120430 0.000000 0.000000 
#    y 0.000000 2.065500 0.000000 
#    z 0.000000 0.000000 2.143710 
# 
# From -- ./inp_files/1584.got.cif
#   From: 2010.05.17/outbox.cif.g08.bks.cpg/sg19_1_cif.got.tgz:1584.got - 2010.06.03 22:46:19.
