data_PCOD9314028
_publ_section_title
;
Structure prediction by ZEFSAII (Michael W. Deem and Ramdas Pophale) SiO2 
 PCOD9314028
Probable space group: P 21 21 21
;
_chemical_formula_sum "Si O2"
_cell_formula_units_Z 28
_cell_length_a 12.895972
_cell_length_b 5.018698
_cell_length_c 19.121922
_cell_angle_alpha 90.000000
_cell_angle_beta 90.000000
_cell_angle_gamma 90.000000
_cell_volume 1237.589701
_symmetry_space_group_name_H-M "P 21 21 21"
_symmetry_group_IT_number 19
_symmetry_cell_setting 'orthorhombic'
loop_
_space_group_symop_operation_xyz
x,y,z
1/2-x,-y,1/2+z
1/2+x,1/2-y,-z
-x,1/2+y,1/2-z
loop_
_atom_site_type_symbol
_atom_site_label
_atom_site_fract_x
_atom_site_fract_y
_atom_site_fract_z
Si Si1 0.246781 0.292345 0.661785
Si Si2 0.794175 0.713497 0.424595
Si Si3 0.131120 0.045641 0.260883
Si Si4 0.504030 0.730218 0.632401
Si Si5 0.985559 0.687298 0.793461
Si Si6 0.219076 0.615486 0.426960
Si Si7 0.306526 0.128891 0.357803
O O1 0.250795 0.593031 0.635837
O O2 0.129826 0.214010 0.678449
O O3 0.284529 0.090482 0.600636
O O4 0.322075 0.226729 0.727209
O O5 0.915567 0.797540 0.425927
O O6 0.734192 0.777618 0.495039
O O7 0.058768 0.153023 0.199065
O O8 0.235018 0.188995 0.289305
O O9 0.060784 0.017096 0.330029
O O10 0.600728 0.884940 0.599437
O O11 0.075334 0.802058 0.842758
O O12 0.008153 0.383438 0.773421
O O13 0.265785 0.324019 0.417810
O O14 0.282163 0.825831 0.378635
#
# Coordination Sequence:
#
# PCOD9314028 Si02
#       7
#     4   4   4   4   4   4   4
#     4  11  24  41  67  96 134 169 218 279 326 401
#     4  11  25  44  64  95 131 179 225 267 322 399
#     4  10  20  40  64 104 126 164 216 276 342 392
#     4  10  22  38  69  93 130 170 210 278 330 388
#     4  12  24  40  65  99 132 174 208 268 350 396
#     4  11  25  44  64  95 131 179 225 267 322 399
#     4  11  24  41  67  96 134 169 218 279 326 401
#
# _framework density 22.62462
#
# number of rings (size 3 to 8) (size 9 to 14) (size 15 to 20)
#    0.000    1.143    1.429    4.286    4.000    5.714 
#    0.000    0.000    0.000    0.000    0.000    0.000 
#    0.000    0.000    0.000    0.000    0.000    0.000 
#
# Total GULP energy -156459.920397 kJ/mol
# GULP energy per Si atom -5587.854300 kJ/mol
# Density = 2.257313 g / cm^3
# Si number density = 22.624620 Si / 1000 Ang^3
#
#
#
# Elastic Constant Matrix: (Units=GPa)
#
#
# Indices 1 2 3 4 5 6 
#
# 1 134.7363 0.4672 16.0976 0.0000 0.0000 0.0000
# 2 0.4672 52.4456 0.4420 0.0000 0.0000 0.0000
# 3 16.0976 0.4420 52.3747 0.0000 0.0000 0.0000
# 4 0.0000 0.0000 0.0000 32.7921 0.0000 0.0000
# 5 0.0000 0.0000 0.0000 0.0000 24.6740 0.0000
# 6 0.0000 0.0000 0.0000 0.0000 0.0000 24.8514
#
#
#
# Elastic Compliance Matrix: (Units=1/GPa)
#
#
# Indices 1 2 3 4 5 6 
#
# 1 0.007705 -0.000049 -0.002368 0.000000 0.000000 0.000000
# 2 -0.000049 0.019069 -0.000146 0.000000 0.000000 0.000000
# 3 -0.002368 -0.000146 0.019822 0.000000 0.000000 0.000000
# 4 0.000000 0.000000 0.000000 0.030495 0.000000 0.000000
# 5 0.000000 0.000000 0.000000 0.000000 0.040529 0.000000
# 6 0.000000 0.000000 0.000000 0.000000 0.000000 0.040239
#
#
# Mechanical properties :
#
#
# Convention : Reuss Voigt Hill
#
# Bulk Modulus (GPa) = 24.11303 30.39670 27.25486
# Shear Modulus (GPa) = 28.27934 31.30016 29.78975
#
# Velocity S-wave (km/s) = 3.53928 3.72352 3.63257
# Velocity P-wave (km/s) = 5.23288 5.65248 5.44672
#
# Compressibility (1/GPa) = 0.04147136
#
# Stress axis : x y z
#
# Youngs Moduli (GPa) = 129.78656 52.44105 50.44860
#
# Poissons Ratio (x) = 0.00255 0.11945
# Poissons Ratio (y) = 0.00632 0.00736
# Poissons Ratio (z) = 0.30730 0.00765
#
# Static dielectric constant tensor:
#      x y z
#    x 1.841360 0.000000 0.000000 
#    y 0.000000 1.861550 0.000000 
#    z 0.000000 0.000000 1.867430 
# 
# From -- ./inp_files/4501.got.cif
#   From: 2010.05.17/outbox.cif.g08.bks.cpg/sg19_3_cif.got.tgz:4501.got - 2010.06.03 22:46:19.
