data_PCOD9314592
_publ_section_title
;
Structure prediction by ZEFSAII (Michael W. Deem and Ramdas Pophale) SiO2 
 PCOD9314592
Probable space group: P 21 21 21
;
_chemical_formula_sum "Si O2"
_cell_formula_units_Z 28
_cell_length_a 7.740158
_cell_length_b 19.440856
_cell_length_c 6.781985
_cell_angle_alpha 90.000000
_cell_angle_beta 90.000000
_cell_angle_gamma 90.000000
_cell_volume 1020.521208
_symmetry_space_group_name_H-M "P 21 21 21"
_symmetry_group_IT_number 19
_symmetry_cell_setting 'orthorhombic'
loop_
_space_group_symop_operation_xyz
x,y,z
1/2-x,-y,1/2+z
1/2+x,1/2-y,-z
-x,1/2+y,1/2-z
loop_
_atom_site_type_symbol
_atom_site_label
_atom_site_fract_x
_atom_site_fract_y
_atom_site_fract_z
Si Si1 0.008223 0.187960 0.215151
Si Si2 0.864346 0.587091 0.945843
Si Si3 0.354098 0.964139 0.459816
Si Si4 0.798979 0.900233 0.561362
Si Si5 0.139892 0.839572 0.632514
Si Si6 0.969901 0.333205 0.407410
Si Si7 0.822412 0.954459 0.005476
O O1 0.038448 0.137503 0.405891
O O2 0.192272 0.208696 0.113264
O O3 0.874450 0.147421 0.072811
O O4 0.950424 0.259102 0.310657
O O5 0.946891 0.558700 0.745343
O O6 0.786806 0.523620 0.066098
O O7 0.700806 0.625174 0.847912
O O8 0.252466 0.907478 0.581282
O O9 0.508915 0.002692 0.567893
O O10 0.965115 0.852984 0.513345
O O11 0.801498 0.978332 0.474413
O O12 0.826066 0.923249 0.788194
O O13 0.072235 0.826156 0.855521
O O14 0.143047 0.380939 0.379980
#
# Coordination Sequence:
#
# PCOD9314592 Si02
#       7
#     4   4   4   4   4   4   4
#     4  11  23  44  68  94 141 185 226 292 351 424
#     4  10  22  36  72  98 133 182 225 286 346 426
#     4  11  21  44  66 103 133 178 232 285 360 397
#     4  11  24  40  67 104 130 176 235 288 342 412
#     4  10  23  42  67  96 135 176 229 285 343 425
#     4   9  22  41  66  99 129 180 234 272 358 416
#     4  10  23  39  64 102 133 167 233 290 334 418
#
# _framework density 27.436959000000002
#
# number of rings (size 3 to 8) (size 9 to 14) (size 15 to 20)
#    0.000    1.714    1.429    4.286   14.000    0.000 
#    0.000    1.429    3.143    0.000    0.000    0.000 
#    0.000    0.000    0.000    0.000    0.000    0.000 
#
# Total GULP energy -155884.709721 kJ/mol
# GULP energy per Si atom -5567.311061 kJ/mol
# Density = 2.737451 g / cm^3
# Si number density = 27.436959 Si / 1000 Ang^3
#
#
#
# Elastic Constant Matrix: (Units=GPa)
#
#
# Indices 1 2 3 4 5 6 
#
# 1 108.4008 29.9442 -10.4253 0.0000 0.0000 0.0000
# 2 29.9442 108.5201 31.6608 0.0000 0.0000 0.0000
# 3 -10.4253 31.6608 73.6487 0.0000 0.0000 0.0000
# 4 0.0000 0.0000 0.0000 46.0822 0.0000 0.0000
# 5 0.0000 0.0000 0.0000 0.0000 27.6485 0.0000
# 6 0.0000 0.0000 0.0000 0.0000 0.0000 13.2618
#
#
#
# Elastic Compliance Matrix: (Units=1/GPa)
#
#
# Indices 1 2 3 4 5 6 
#
# 1 0.010589 -0.003841 0.003150 0.000000 0.000000 0.000000
# 2 -0.003841 0.011930 -0.005672 0.000000 0.000000 0.000000
# 3 0.003150 -0.005672 0.016462 0.000000 0.000000 0.000000
# 4 0.000000 0.000000 0.000000 0.021700 0.000000 0.000000
# 5 0.000000 0.000000 0.000000 0.000000 0.036168 0.000000
# 6 0.000000 0.000000 0.000000 0.000000 0.000000 0.075405
#
#
# Mechanical properties :
#
#
# Convention : Reuss Voigt Hill
#
# Bulk Modulus (GPa) = 38.08802 43.65879 40.87340
# Shear Modulus (GPa) = 25.80890 33.35781 29.58335
#
# Velocity S-wave (km/s) = 3.07035 3.49061 3.28720
# Velocity P-wave (km/s) = 5.14602 5.67387 5.41638
#
# Compressibility (1/GPa) = 0.02625498
#
# Stress axis : x y z
#
# Youngs Moduli (GPa) = 94.43796 83.82558 60.74506
#
# Poissons Ratio (x) = 0.32196 -0.19135
# Poissons Ratio (y) = 0.36272 0.34455
# Poissons Ratio (z) = -0.29749 0.47546
#
# Static dielectric constant tensor:
#      x y z
#    x 2.332340 0.000000 0.000000 
#    y 0.000000 2.196740 0.000000 
#    z 0.000000 0.000000 2.283450 
# 
# From -- ./inp_files/3010.got.cif
#   From: 2010.05.17/outbox.cif.g08.bks.cpg/sg19_2_cif.got.tgz:3010.got - 2010.06.03 22:46:19.
