data_PCOD9314953
_publ_section_title
;
Structure prediction by ZEFSAII (Michael W. Deem and Ramdas Pophale) SiO2 
 PCOD9314953
Probable space group: P 21 21 21
;
_chemical_formula_sum "Si O2"
_cell_formula_units_Z 20
_cell_length_a 5.805797
_cell_length_b 16.998316
_cell_length_c 7.088780
_cell_angle_alpha 90.000000
_cell_angle_beta 90.000000
_cell_angle_gamma 90.000000
_cell_volume 699.582993
_symmetry_space_group_name_H-M "P 21 21 21"
_symmetry_group_IT_number 19
_symmetry_cell_setting 'orthorhombic'
loop_
_space_group_symop_operation_xyz
x,y,z
1/2-x,-y,1/2+z
1/2+x,1/2-y,-z
-x,1/2+y,1/2-z
loop_
_atom_site_type_symbol
_atom_site_label
_atom_site_fract_x
_atom_site_fract_y
_atom_site_fract_z
Si Si1 0.280640 0.923269 0.853722
Si Si2 0.135772 0.628184 0.855467
Si Si3 0.418544 0.698662 0.179887
Si Si4 0.126055 0.707718 0.517699
Si Si5 0.903816 0.029817 0.020441
O O1 0.386271 0.881722 0.036244
O O2 0.104490 0.864470 0.752342
O O3 0.476293 0.950782 0.715594
O O4 0.116139 0.995397 0.904048
O O5 0.347888 0.674992 0.968791
O O6 0.223240 0.536712 0.921672
O O7 0.159986 0.610136 0.604354
O O8 0.187886 0.685991 0.295013
O O9 0.541462 0.781317 0.239041
O O10 0.377529 0.751343 0.534828
#
# Coordination Sequence:
#
# PCOD9314953 Si02
#       5
#     4   4   4   4   4
#     4  12  23  45  72  98 137 181 221 284 338 402
#     4  10  24  44  65  98 132 173 228 272 336 404
#     4  12  26  43  71  96 137 178 225 280 335 403
#     4  10  25  43  66 100 133 175 224 279 332 399
#     4  10  22  45  68  98 137 171 226 275 335 400
#
# _framework density 28.588456999999998
#
# number of rings (size 3 to 8) (size 9 to 14) (size 15 to 20)
#    1.200    0.000    4.000    1.200    2.800    3.200 
#    0.000    0.000    0.000    0.000    0.000    0.000 
#    0.000    0.000    0.000    0.000    0.000    0.000 
#
# Total GULP energy -111598.086261 kJ/mol
# GULP energy per Si atom -5579.904313 kJ/mol
# Density = 2.852339 g / cm^3
# Si number density = 28.588457 Si / 1000 Ang^3
#
#
#
# Elastic Constant Matrix: (Units=GPa)
#
#
# Indices 1 2 3 4 5 6 
#
# 1 179.7765 98.8743 70.1715 0.0000 0.0000 0.0000
# 2 98.8743 220.7482 97.4241 0.0000 0.0000 0.0000
# 3 70.1715 97.4241 162.0988 0.0000 0.0000 0.0000
# 4 0.0000 0.0000 0.0000 73.6004 0.0000 0.0000
# 5 0.0000 0.0000 0.0000 0.0000 83.5078 0.0000
# 6 0.0000 0.0000 0.0000 0.0000 0.0000 81.9062
#
#
#
# Elastic Compliance Matrix: (Units=1/GPa)
#
#
# Indices 1 2 3 4 5 6 
#
# 1 0.007717 -0.002698 -0.001719 0.000000 0.000000 0.000000
# 2 -0.002698 0.007109 -0.003104 0.000000 0.000000 0.000000
# 3 -0.001719 -0.003104 0.008779 0.000000 0.000000 0.000000
# 4 0.000000 0.000000 0.000000 0.013587 0.000000 0.000000
# 5 0.000000 0.000000 0.000000 0.000000 0.011975 0.000000
# 6 0.000000 0.000000 0.000000 0.000000 0.000000 0.012209
#
#
# Mechanical properties :
#
#
# Convention : Reuss Voigt Hill
#
# Bulk Modulus (GPa) = 116.79811 121.72927 119.26369
# Shear Modulus (GPa) = 63.07301 67.54645 65.30973
#
# Velocity S-wave (km/s) = 4.70216 4.86605 4.78481
# Velocity P-wave (km/s) = 8.39191 8.61647 8.50493
#
# Compressibility (1/GPa) = 0.00856178
#
# Stress axis : x y z
#
# Youngs Moduli (GPa) = 129.57851 140.67590 113.90545
#
# Poissons Ratio (x) = 0.37952 0.19584
# Poissons Ratio (y) = 0.34958 0.35362
# Poissons Ratio (z) = 0.22279 0.43673
#
# Static dielectric constant tensor:
#      x y z
#    x 1.969340 0.000000 0.000000 
#    y 0.000000 2.380340 0.000000 
#    z 0.000000 0.000000 2.412400 
# 
# From -- ./inp_files/199.got.cif
#   From: 2010.05.17/outbox.cif.g08.bks.cpg/sg19_1_cif.got.tgz:199.got - 2010.06.03 22:46:19.
