data_PCOD9314865
_publ_section_title
;
Structure prediction by ZEFSAII (Michael W. Deem and Ramdas Pophale) SiO2 
 PCOD9314865
Probable space group: P 21 21 21
;
_chemical_formula_sum "Si O2"
_cell_formula_units_Z 24
_cell_length_a 9.183119
_cell_length_b 14.353792
_cell_length_c 8.544913
_cell_angle_alpha 90.000000
_cell_angle_beta 90.000000
_cell_angle_gamma 90.000000
_cell_volume 1126.327029
_symmetry_space_group_name_H-M "P 21 21 21"
_symmetry_group_IT_number 19
_symmetry_cell_setting 'orthorhombic'
loop_
_space_group_symop_operation_xyz
x,y,z
1/2-x,-y,1/2+z
1/2+x,1/2-y,-z
-x,1/2+y,1/2-z
loop_
_atom_site_type_symbol
_atom_site_label
_atom_site_fract_x
_atom_site_fract_y
_atom_site_fract_z
Si Si1 0.876301 0.573531 0.770163
Si Si2 0.627551 0.226139 0.219233
Si Si3 0.427431 0.722774 0.634802
Si Si4 0.888857 0.126969 0.326185
Si Si5 0.905473 0.466054 0.089244
Si Si6 0.635132 0.816962 0.190471
O O1 0.819147 0.679591 0.809916
O O2 0.756508 0.530397 0.658679
O O3 0.039693 0.603557 0.718429
O O4 0.894579 0.507405 0.916802
O O5 0.725970 0.138147 0.258775
O O6 0.459025 0.223873 0.271471
O O7 0.635427 0.249404 0.035424
O O8 0.515063 0.802950 0.722487
O O9 0.534725 0.637734 0.598502
O O10 0.295392 0.691527 0.745282
O O11 0.974409 0.030010 0.323558
O O12 0.876913 0.159215 0.507506
#
# Coordination Sequence:
#
# PCOD9314865 Si02
#       6
#     4   4   4   4   4   4
#     4   9  23  44  62  94 134 172 220 273 336 397
#     4  10  22  43  65  92 132 176 223 270 340 387
#     4  12  23  41  71  97 133 178 227 282 323 409
#     4  11  23  42  66  98 133 180 220 269 342 392
#     4  11  25  42  67  99 133 175 231 271 334 404
#     4   9  22  40  65  94 131 175 219 273 337 389
#
# _framework density 21.308198999999998
#
# number of rings (size 3 to 8) (size 9 to 14) (size 15 to 20)
#    1.000    0.667    1.667    2.000    2.333    2.667 
#    0.000    0.000    0.000    0.000    0.000    0.000 
#    0.000    0.000    0.000    0.000    0.000    0.000 
#
# Total GULP energy -133784.186048 kJ/mol
# GULP energy per Si atom -5574.341085 kJ/mol
# Density = 2.125970 g / cm^3
# Si number density = 21.308199 Si / 1000 Ang^3
#
#
#
# Elastic Constant Matrix: (Units=GPa)
#
#
# Indices 1 2 3 4 5 6 
#
# 1 75.9277 1.9839 17.5951 0.0000 0.0000 0.0000
# 2 1.9839 43.5387 4.1506 0.0000 0.0000 0.0000
# 3 17.5951 4.1506 57.8013 0.0000 0.0000 0.0000
# 4 0.0000 0.0000 0.0000 27.4170 0.0000 0.0000
# 5 0.0000 0.0000 0.0000 0.0000 31.4103 0.0000
# 6 0.0000 0.0000 0.0000 0.0000 0.0000 19.3971
#
#
#
# Elastic Compliance Matrix: (Units=1/GPa)
#
#
# Indices 1 2 3 4 5 6 
#
# 1 0.014172 -0.000236 -0.004297 0.000000 0.000000 0.000000
# 2 -0.000236 0.023130 -0.001589 0.000000 0.000000 0.000000
# 3 -0.004297 -0.001589 0.018723 0.000000 0.000000 0.000000
# 4 0.000000 0.000000 0.000000 0.036474 0.000000 0.000000
# 5 0.000000 0.000000 0.000000 0.000000 0.031837 0.000000
# 6 0.000000 0.000000 0.000000 0.000000 0.000000 0.051554
#
#
# Mechanical properties :
#
#
# Convention : Reuss Voigt Hill
#
# Bulk Modulus (GPa) = 22.84107 24.96965 23.90536
# Shear Modulus (GPa) = 24.66355 25.88078 25.27217
#
# Velocity S-wave (km/s) = 3.40585 3.48888 3.44761
# Velocity P-wave (km/s) = 5.11948 5.28900 5.20493
#
# Compressibility (1/GPa) = 0.04378078
#
# Stress axis : x y z
#
# Youngs Moduli (GPa) = 70.55969 43.23326 53.41067
#
# Poissons Ratio (x) = 0.01021 0.22952
# Poissons Ratio (y) = 0.01666 0.08487
# Poissons Ratio (z) = 0.30321 0.06870
#
# Static dielectric constant tensor:
#      x y z
#    x 1.798770 0.000000 0.000000 
#    y 0.000000 1.800840 0.000000 
#    z 0.000000 0.000000 1.768380 
# 
# From -- ./inp_files/2837.got.cif
#   From: 2010.05.17/outbox.cif.g08.bks.cpg/sg19_2_cif.got.tgz:2837.got - 2010.06.03 22:46:19.
