data_PCOD9314724
_publ_section_title
;
Structure prediction by ZEFSAII (Michael W. Deem and Ramdas Pophale) SiO2 
 PCOD9314724
Probable space group: P 21 21 21
;
_chemical_formula_sum "Si O2"
_cell_formula_units_Z 24
_cell_length_a 5.318084
_cell_length_b 16.242512
_cell_length_c 11.786867
_cell_angle_alpha 90.000000
_cell_angle_beta 90.000000
_cell_angle_gamma 90.000000
_cell_volume 1018.138294
_symmetry_space_group_name_H-M "P 21 21 21"
_symmetry_group_IT_number 19
_symmetry_cell_setting 'orthorhombic'
loop_
_space_group_symop_operation_xyz
x,y,z
1/2-x,-y,1/2+z
1/2+x,1/2-y,-z
-x,1/2+y,1/2-z
loop_
_atom_site_type_symbol
_atom_site_label
_atom_site_fract_x
_atom_site_fract_y
_atom_site_fract_z
Si Si1 0.910166 0.097164 0.168501
Si Si2 0.240934 0.770487 0.743877
Si Si3 0.192250 0.051259 0.952063
Si Si4 0.076460 0.410801 0.649098
Si Si5 0.707643 0.800335 0.030935
Si Si6 0.795639 0.853484 0.440056
O O1 0.741594 0.044546 0.254039
O O2 0.029310 0.166432 0.247890
O O3 0.740687 0.143266 0.074909
O O4 0.122835 0.054506 0.087989
O O5 0.018067 0.828589 0.787261
O O6 0.245801 0.696202 0.833558
O O7 0.265182 0.734545 0.617838
O O8 0.444170 0.099138 0.921231
O O9 0.951319 0.097920 0.900183
O O10 0.159716 0.961613 0.898577
O O11 0.233115 0.382977 0.538330
O O12 0.430439 0.764403 0.004579
#
# Coordination Sequence:
#
# PCOD9314724 Si02
#       6
#     4   4   4   4   4   4
#     4  10  24  42  73  99 136 185 227 297 343 429
#     4  11  24  42  75  98 143 183 241 293 351 412
#     4  10  26  44  66 102 145 180 235 286 357 424
#     4  11  24  45  72 102 146 187 239 289 368 416
#     4  10  22  41  63  99 127 174 229 280 335 409
#     4  10  26  44  67 106 135 183 237 289 350 420
#
# _framework density 23.572434999999999
#
# number of rings (size 3 to 8) (size 9 to 14) (size 15 to 20)
#    1.000    0.667    1.667    1.000    9.333    1.333 
#    3.000    0.000    0.000    0.000    0.000    0.000 
#    0.000    0.000    0.000    0.000    0.000    0.000 
#
# Total GULP energy -133719.742981 kJ/mol
# GULP energy per Si atom -5571.655958 kJ/mol
# Density = 2.351878 g / cm^3
# Si number density = 23.572435 Si / 1000 Ang^3
#
#
#
# Elastic Constant Matrix: (Units=GPa)
#
#
# Indices 1 2 3 4 5 6 
#
# 1 117.3959 19.2394 21.2043 0.0000 0.0000 0.0000
# 2 19.2394 38.6604 25.1068 0.0000 0.0000 0.0000
# 3 21.2043 25.1068 84.8335 0.0000 0.0000 0.0000
# 4 0.0000 0.0000 0.0000 14.5874 0.0000 0.0000
# 5 0.0000 0.0000 0.0000 0.0000 16.7984 0.0000
# 6 0.0000 0.0000 0.0000 0.0000 0.0000 28.8280
#
#
#
# Elastic Compliance Matrix: (Units=1/GPa)
#
#
# Indices 1 2 3 4 5 6 
#
# 1 0.009371 -0.003890 -0.001191 0.000000 0.000000 0.000000
# 2 -0.003890 0.033635 -0.008982 0.000000 0.000000 0.000000
# 3 -0.001191 -0.008982 0.014744 0.000000 0.000000 0.000000
# 4 0.000000 0.000000 0.000000 0.068552 0.000000 0.000000
# 5 0.000000 0.000000 0.000000 0.000000 0.059530 0.000000
# 6 0.000000 0.000000 0.000000 0.000000 0.000000 0.034689
#
#
# Mechanical properties :
#
#
# Convention : Reuss Voigt Hill
#
# Bulk Modulus (GPa) = 33.75683 41.33233 37.54458
# Shear Modulus (GPa) = 19.34078 23.73203 21.53640
#
# Velocity S-wave (km/s) = 2.86751 3.17641 3.02590
# Velocity P-wave (km/s) = 5.03141 5.57001 5.30754
#
# Compressibility (1/GPa) = 0.02962364
#
# Stress axis : x y z
#
# Youngs Moduli (GPa) = 106.71429 29.73061 67.82500
#
# Poissons Ratio (x) = 0.11565 0.08078
# Poissons Ratio (y) = 0.41511 0.60922
# Poissons Ratio (z) = 0.12710 0.26705
#
# Static dielectric constant tensor:
#      x y z
#    x 1.952950 0.000000 0.000000 
#    y 0.000000 2.012870 0.000000 
#    z 0.000000 0.000000 1.900660 
# 
# From -- ./inp_files/4457.got.cif
#   From: 2010.05.17/outbox.cif.g08.bks.cpg/sg19_3_cif.got.tgz:4457.got - 2010.06.03 22:46:19.
