data_PCOD9314091
_publ_section_title
;
Structure prediction by ZEFSAII (Michael W. Deem and Ramdas Pophale) SiO2 
 PCOD9314091
Probable space group: P 21 21 21
;
_chemical_formula_sum "Si O2"
_cell_formula_units_Z 32
_cell_length_a 11.477148
_cell_length_b 9.587051
_cell_length_c 13.310785
_cell_angle_alpha 90.000000
_cell_angle_beta 90.000000
_cell_angle_gamma 90.000000
_cell_volume 1464.612338
_symmetry_space_group_name_H-M "P 21 21 21"
_symmetry_group_IT_number 19
_symmetry_cell_setting 'orthorhombic'
loop_
_space_group_symop_operation_xyz
x,y,z
1/2-x,-y,1/2+z
1/2+x,1/2-y,-z
-x,1/2+y,1/2-z
loop_
_atom_site_type_symbol
_atom_site_label
_atom_site_fract_x
_atom_site_fract_y
_atom_site_fract_z
Si Si1 0.386729 0.857850 0.657826
Si Si2 0.982272 0.376836 0.029327
Si Si3 0.020362 0.648266 0.150540
Si Si4 0.723937 0.141422 0.339001
Si Si5 0.281211 0.968181 0.461775
Si Si6 0.805436 0.155140 0.757323
Si Si7 0.439504 0.772793 0.328919
Si Si8 0.194502 0.282228 0.435219
O O1 0.465152 0.738151 0.604943
O O2 0.461625 0.917214 0.749813
O O3 0.344310 0.957529 0.569322
O O4 0.272043 0.785439 0.705470
O O5 0.841418 0.384074 0.032411
O O6 0.024496 0.528848 0.065593
O O7 0.026850 0.332747 0.919283
O O8 0.147612 0.704335 0.172826
O O9 0.932708 0.767004 0.113339
O O10 0.636759 0.202927 0.257562
O O11 0.684394 0.164291 0.452563
O O12 0.736339 0.978075 0.318599
O O13 0.365458 0.897145 0.380177
O O14 0.248641 0.126666 0.438114
O O15 0.775276 0.131994 0.640521
O O16 0.940281 0.176400 0.780180
#
# Coordination Sequence:
#
# PCOD9314091 Si02
#       8
#     4   4   4   4   4   4   4   4
#     4  10  20  41  68  99 137 185 230 286 343 407
#     4  10  20  42  67  96 138 178 235 280 348 406
#     4  10  23  43  67  99 138 183 230 292 337 414
#     4  12  27  45  73 101 136 188 235 281 359 420
#     4  10  22  43  70 102 137 183 231 286 344 415
#     4  11  25  46  66 100 145 178 227 291 349 414
#     4  11  26  41  73 105 138 189 230 287 350 423
#     4  10  27  45  70 102 139 178 232 299 346 413
#
# _framework density 21.848784999999999
#
# number of rings (size 3 to 8) (size 9 to 14) (size 15 to 20)
#    0.000    1.500    2.500    0.750    5.250    5.000 
#    4.500    0.000    0.000    0.000    0.000    0.000 
#    0.000    0.000    0.000    0.000    0.000    0.000 
#
# Total GULP energy -179072.340419 kJ/mol
# GULP energy per Si atom -5596.010638 kJ/mol
# Density = 2.179906 g / cm^3
# Si number density = 21.848785 Si / 1000 Ang^3
#
#
#
# Elastic Constant Matrix: (Units=GPa)
#
#
# Indices 1 2 3 4 5 6 
#
# 1 122.0615 14.0446 60.5709 0.0000 0.0000 0.0000
# 2 14.0446 37.0061 23.3336 0.0000 0.0000 0.0000
# 3 60.5709 23.3336 139.9691 0.0000 0.0000 0.0000
# 4 0.0000 0.0000 0.0000 25.4540 0.0000 0.0000
# 5 0.0000 0.0000 0.0000 0.0000 32.0884 0.0000
# 6 0.0000 0.0000 0.0000 0.0000 0.0000 14.7017
#
#
#
# Elastic Compliance Matrix: (Units=1/GPa)
#
#
# Indices 1 2 3 4 5 6 
#
# 1 0.010484 -0.001250 -0.004329 0.000000 0.000000 0.000000
# 2 -0.001250 0.030346 -0.004518 0.000000 0.000000 0.000000
# 3 -0.004329 -0.004518 0.009771 0.000000 0.000000 0.000000
# 4 0.000000 0.000000 0.000000 0.039287 0.000000 0.000000
# 5 0.000000 0.000000 0.000000 0.000000 0.031164 0.000000
# 6 0.000000 0.000000 0.000000 0.000000 0.000000 0.068020
#
#
# Mechanical properties :
#
#
# Convention : Reuss Voigt Hill
#
# Bulk Modulus (GPa) = 32.88602 54.99279 43.93941
# Shear Modulus (GPa) = 22.78946 27.85465 25.32205
#
# Velocity S-wave (km/s) = 3.23314 3.57442 3.40806
# Velocity P-wave (km/s) = 5.38720 6.50075 5.96999
#
# Compressibility (1/GPa) = 0.03040806
#
# Stress axis : x y z
#
# Youngs Moduli (GPa) = 95.37928 32.95376 102.34513
#
# Poissons Ratio (x) = 0.04118 0.44303
# Poissons Ratio (y) = 0.11919 0.46239
# Poissons Ratio (z) = 0.41288 0.14888
#
# Static dielectric constant tensor:
#      x y z
#    x 1.800560 0.000000 0.000000 
#    y 0.000000 1.777460 0.000000 
#    z 0.000000 0.000000 1.783900 
# 
# From -- ./inp_files/6124.got.cif
#   From: 2010.05.17/outbox.cif.g08.bks.cpg/sg19_4_cif.got.tgz:6124.got - 2010.06.03 22:46:19.
