data_PCOD9314938
_publ_section_title
;
Structure prediction by ZEFSAII (Michael W. Deem and Ramdas Pophale) SiO2 
 PCOD9314938
Probable space group: P 21 21 21
;
_chemical_formula_sum "Si O2"
_cell_formula_units_Z 24
_cell_length_a 8.116509
_cell_length_b 13.595384
_cell_length_c 8.269027
_cell_angle_alpha 90.000000
_cell_angle_beta 90.000000
_cell_angle_gamma 90.000000
_cell_volume 912.462790
_symmetry_space_group_name_H-M "P 21 21 21"
_symmetry_group_IT_number 19
_symmetry_cell_setting 'orthorhombic'
loop_
_space_group_symop_operation_xyz
x,y,z
1/2-x,-y,1/2+z
1/2+x,1/2-y,-z
-x,1/2+y,1/2-z
loop_
_atom_site_type_symbol
_atom_site_label
_atom_site_fract_x
_atom_site_fract_y
_atom_site_fract_z
Si Si1 0.729605 0.782158 0.464049
Si Si2 0.162039 0.336909 0.689858
Si Si3 0.401027 0.419232 0.480015
Si Si4 0.080975 0.336025 0.353242
Si Si5 0.005265 0.049952 0.845313
Si Si6 0.632534 0.583983 0.602690
O O1 0.836776 0.780855 0.299438
O O2 0.604679 0.874744 0.450134
O O3 0.827092 0.792228 0.633584
O O4 0.646017 0.676804 0.484859
O O5 0.352099 0.349310 0.628738
O O6 0.079806 0.445540 0.692331
O O7 0.074340 0.289348 0.531722
O O8 0.279781 0.579484 0.892135
O O9 0.516548 0.396958 0.328884
O O10 0.479802 0.515890 0.555429
O O11 0.913716 0.379180 0.282703
O O12 0.189842 0.033696 0.906105
#
# Coordination Sequence:
#
# PCOD9314938 Si02
#       6
#     4   4   4   4   4   4
#     4  11  24  46  70 103 146 194 228 302 376 417
#     4  10  22  44  73  93 141 202 238 278 370 437
#     4   9  22  41  66  96 137 185 235 280 355 439
#     4   9  23  44  70  96 144 191 237 279 365 447
#     4  11  23  38  70 105 137 188 246 295 351 431
#     4  12  24  41  73 111 145 180 248 312 353 417
#
# _framework density 26.302441999999999
#
# number of rings (size 3 to 8) (size 9 to 14) (size 15 to 20)
#    1.000    0.667    0.000    5.000    4.667    0.000 
#    3.000    1.667    0.000    0.000    0.000    0.000 
#    0.000    0.000    0.000    0.000    0.000    0.000 
#
# Total GULP energy -133981.793849 kJ/mol
# GULP energy per Si atom -5582.574744 kJ/mol
# Density = 2.624258 g / cm^3
# Si number density = 26.302442 Si / 1000 Ang^3
#
#
#
# Elastic Constant Matrix: (Units=GPa)
#
#
# Indices 1 2 3 4 5 6 
#
# 1 75.4253 14.1888 9.0167 0.0000 0.0000 0.0000
# 2 14.1888 65.1408 31.7192 0.0000 0.0000 0.0000
# 3 9.0167 31.7192 177.9610 0.0000 0.0000 0.0000
# 4 0.0000 0.0000 0.0000 38.0783 0.0000 0.0000
# 5 0.0000 0.0000 0.0000 0.0000 17.4022 0.0000
# 6 0.0000 0.0000 0.0000 0.0000 0.0000 31.1133
#
#
#
# Elastic Compliance Matrix: (Units=1/GPa)
#
#
# Indices 1 2 3 4 5 6 
#
# 1 0.013830 -0.002925 -0.000179 0.000000 0.000000 0.000000
# 2 -0.002925 0.017429 -0.002958 0.000000 0.000000 0.000000
# 3 -0.000179 -0.002958 0.006156 0.000000 0.000000 0.000000
# 4 0.000000 0.000000 0.000000 0.026262 0.000000 0.000000
# 5 0.000000 0.000000 0.000000 0.000000 0.057464 0.000000
# 6 0.000000 0.000000 0.000000 0.000000 0.000000 0.032141
#
#
# Mechanical properties :
#
#
# Convention : Reuss Voigt Hill
#
# Bulk Modulus (GPa) = 39.54288 47.59739 43.57013
# Shear Modulus (GPa) = 28.76278 34.89225 31.82752
#
# Velocity S-wave (km/s) = 3.31046 3.64617 3.48236
# Velocity P-wave (km/s) = 5.44782 5.98845 5.72452
#
# Compressibility (1/GPa) = 0.02528901
#
# Stress axis : x y z
#
# Youngs Moduli (GPa) = 72.30738 57.37577 162.45450
#
# Poissons Ratio (x) = 0.16783 0.02914
# Poissons Ratio (y) = 0.21150 0.48059
# Poissons Ratio (z) = 0.01297 0.16973
#
# Static dielectric constant tensor:
#      x y z
#    x 2.099880 0.000000 0.000000 
#    y 0.000000 2.159600 0.000000 
#    z 0.000000 0.000000 2.109550 
# 
# From -- ./inp_files/2897.got.cif
#   From: 2010.05.17/outbox.cif.g08.bks.cpg/sg19_2_cif.got.tgz:2897.got - 2010.06.03 22:46:19.
