data_PCOD9314591
_publ_section_title
;
Structure prediction by ZEFSAII (Michael W. Deem and Ramdas Pophale) SiO2 
 PCOD9314591
Probable space group: P 21 21 21
;
_chemical_formula_sum "Si O2"
_cell_formula_units_Z 24
_cell_length_a 16.787271
_cell_length_b 7.125879
_cell_length_c 8.126954
_cell_angle_alpha 90.000000
_cell_angle_beta 90.000000
_cell_angle_gamma 90.000000
_cell_volume 972.179248
_symmetry_space_group_name_H-M "P 21 21 21"
_symmetry_group_IT_number 19
_symmetry_cell_setting 'orthorhombic'
loop_
_space_group_symop_operation_xyz
x,y,z
1/2-x,-y,1/2+z
1/2+x,1/2-y,-z
-x,1/2+y,1/2-z
loop_
_atom_site_type_symbol
_atom_site_label
_atom_site_fract_x
_atom_site_fract_y
_atom_site_fract_z
Si Si1 0.369157 0.753141 0.231478
Si Si2 0.237045 0.779180 0.993401
Si Si3 0.271470 0.467919 0.794385
Si Si4 0.462498 0.357385 0.257958
Si Si5 0.425848 0.109285 0.574644
Si Si6 0.069684 0.679488 0.417942
O O1 0.323349 0.825811 0.067671
O O2 0.293063 0.693340 0.341200
O O3 0.415513 0.552019 0.231932
O O4 0.442853 0.883998 0.270139
O O5 0.213072 0.597359 0.107556
O O6 0.166785 0.925256 0.024857
O O7 0.241623 0.680521 0.816847
O O8 0.351969 0.447778 0.895800
O O9 0.450830 0.266250 0.437574
O O10 0.432351 0.237527 0.100852
O O11 0.426531 0.188161 0.760649
O O12 0.489804 0.944414 0.587183
#
# Coordination Sequence:
#
# PCOD9314591 Si02
#       6
#     4   4   4   4   4   4
#     4  10  22  36  67  86 123 164 204 265 296 383
#     4   9  17  34  58  82 119 152 206 240 306 360
#     4   9  17  35  57  85 113 162 202 243 298 372
#     4  12  21  40  64  95 122 163 215 248 320 360
#     4  11  23  38  66  94 124 164 205 264 305 372
#     4  11  24  39  66  94 125 161 214 258 309 373
#
# _framework density 24.686807000000002
#
# number of rings (size 3 to 8) (size 9 to 14) (size 15 to 20)
#    1.000    0.667    5.000    0.000    2.333    0.000 
#    0.000    0.000   14.667    0.000    0.000    0.000 
#    0.000    0.000    0.000    0.000    0.000    0.000 
#
# Total GULP energy -133628.098955 kJ/mol
# GULP energy per Si atom -5567.837456 kJ/mol
# Density = 2.463062 g / cm^3
# Si number density = 24.686807 Si / 1000 Ang^3
#
#
#
# Elastic Constant Matrix: (Units=GPa)
#
#
# Indices 1 2 3 4 5 6 
#
# 1 90.4329 2.4133 -4.3968 0.0000 0.0000 0.0000
# 2 2.4133 42.2466 5.5051 0.0000 0.0000 0.0000
# 3 -4.3968 5.5051 71.4217 0.0000 0.0000 0.0000
# 4 0.0000 0.0000 0.0000 16.7563 0.0000 0.0000
# 5 0.0000 0.0000 0.0000 0.0000 32.3478 0.0000
# 6 0.0000 0.0000 0.0000 0.0000 0.0000 31.2609
#
#
#
# Elastic Compliance Matrix: (Units=1/GPa)
#
#
# Indices 1 2 3 4 5 6 
#
# 1 0.011113 -0.000731 0.000741 0.000000 0.000000 0.000000
# 2 -0.000731 0.023959 -0.001892 0.000000 0.000000 0.000000
# 3 0.000741 -0.001892 0.014193 0.000000 0.000000 0.000000
# 4 0.000000 0.000000 0.000000 0.059679 0.000000 0.000000
# 5 0.000000 0.000000 0.000000 0.000000 0.030914 0.000000
# 6 0.000000 0.000000 0.000000 0.000000 0.000000 0.031989
#
#
# Mechanical properties :
#
#
# Convention : Reuss Voigt Hill
#
# Bulk Modulus (GPa) = 21.97805 23.46048 22.71926
# Shear Modulus (GPa) = 26.20839 29.44498 27.82669
#
# Velocity S-wave (km/s) = 3.26181 3.45736 3.36101
# Velocity P-wave (km/s) = 4.80707 5.04595 4.92796
#
# Compressibility (1/GPa) = 0.04549994
#
# Stress axis : x y z
#
# Youngs Moduli (GPa) = 89.98109 41.73825 70.45848
#
# Poissons Ratio (x) = 0.03052 -0.05218
# Poissons Ratio (y) = 0.06581 0.13329
# Poissons Ratio (z) = -0.06663 0.07896
#
# Static dielectric constant tensor:
#      x y z
#    x 2.015490 0.000000 0.000000 
#    y 0.000000 1.986000 0.000000 
#    z 0.000000 0.000000 2.010290 
# 
# From -- ./inp_files/4124.got.cif
#   From: 2010.05.17/outbox.cif.g08.bks.cpg/sg19_3_cif.got.tgz:4124.got - 2010.06.03 22:46:19.
