data_PCOD9314451
_publ_section_title
;
Structure prediction by ZEFSAII (Michael W. Deem and Ramdas Pophale) SiO2 
 PCOD9314451
Probable space group: P 21 21 21
;
_chemical_formula_sum "Si O2"
_cell_formula_units_Z 28
_cell_length_a 17.354395
_cell_length_b 7.971561
_cell_length_c 9.254684
_cell_angle_alpha 90.000000
_cell_angle_beta 90.000000
_cell_angle_gamma 90.000000
_cell_volume 1280.307962
_symmetry_space_group_name_H-M "P 21 21 21"
_symmetry_group_IT_number 19
_symmetry_cell_setting 'orthorhombic'
loop_
_space_group_symop_operation_xyz
x,y,z
1/2-x,-y,1/2+z
1/2+x,1/2-y,-z
-x,1/2+y,1/2-z
loop_
_atom_site_type_symbol
_atom_site_label
_atom_site_fract_x
_atom_site_fract_y
_atom_site_fract_z
Si Si1 0.657152 0.744497 0.066580
Si Si2 0.749517 0.805194 0.332819
Si Si3 0.986948 0.369842 0.952676
Si Si4 0.757082 0.596848 0.826161
Si Si5 0.653704 0.783075 0.587683
Si Si6 0.076099 0.075111 0.792023
Si Si7 0.905296 0.005309 0.326975
O O1 0.690826 0.844533 0.203099
O O2 0.603551 0.590466 0.119416
O O3 0.730115 0.668639 0.979595
O O4 0.615096 0.861366 0.952101
O O5 0.753455 0.603225 0.334424
O O6 0.715184 0.871419 0.483740
O O7 0.833664 0.879493 0.314525
O O8 0.983152 0.515079 0.831973
O O9 0.036933 0.216777 0.889659
O O10 0.898321 0.322709 0.978581
O O11 0.019611 0.419381 0.109241
O O12 0.700830 0.675167 0.704458
O O13 0.844418 0.638433 0.781170
O O14 0.595292 0.901751 0.674420
#
# Coordination Sequence:
#
# PCOD9314451 Si02
#       7
#     4   4   4   4   4   4   4
#     4  10  21  41  68  96 127 176 230 275 332 401
#     4  11  20  40  66  95 127 172 225 276 327 401
#     4  12  25  44  65 100 138 181 223 276 349 409
#     4  10  21  41  70  94 127 176 226 279 334 403
#     4  11  24  43  65  99 133 172 226 276 332 407
#     4  11  24  43  70  97 135 179 225 282 339 418
#     4  11  25  40  64  97 137 170 217 282 337 397
#
# _framework density 21.869738000000002
#
# number of rings (size 3 to 8) (size 9 to 14) (size 15 to 20)
#    0.000    1.143    2.857    5.143    0.000    4.571 
#    2.571    0.000    0.000    0.000    0.000    0.000 
#    0.000    0.000    0.000    0.000    0.000    0.000 
#
# Total GULP energy -156538.011104 kJ/mol
# GULP energy per Si atom -5590.643254 kJ/mol
# Density = 2.181996 g / cm^3
# Si number density = 21.869738 Si / 1000 Ang^3
#
#
#
# Elastic Constant Matrix: (Units=GPa)
#
#
# Indices 1 2 3 4 5 6 
#
# 1 49.5915 12.1181 -1.0414 0.0000 0.0000 0.0000
# 2 12.1181 31.9193 14.5603 0.0000 0.0000 0.0000
# 3 -1.0414 14.5603 86.9580 0.0000 0.0000 0.0000
# 4 0.0000 0.0000 0.0000 27.9677 0.0000 0.0000
# 5 0.0000 0.0000 0.0000 0.0000 35.9317 0.0000
# 6 0.0000 0.0000 0.0000 0.0000 0.0000 29.2422
#
#
#
# Elastic Compliance Matrix: (Units=1/GPa)
#
#
# Indices 1 2 3 4 5 6 
#
# 1 0.022495 -0.009380 0.001840 0.000000 0.000000 0.000000
# 2 -0.009380 0.037831 -0.006447 0.000000 0.000000 0.000000
# 3 0.001840 -0.006447 0.012601 0.000000 0.000000 0.000000
# 4 0.000000 0.000000 0.000000 0.035756 0.000000 0.000000
# 5 0.000000 0.000000 0.000000 0.000000 0.027831 0.000000
# 6 0.000000 0.000000 0.000000 0.000000 0.000000 0.034197
#
#
# Mechanical properties :
#
#
# Convention : Reuss Voigt Hill
#
# Bulk Modulus (GPa) = 22.24472 24.41588 23.33030
# Shear Modulus (GPa) = 23.40074 28.15043 25.77559
#
# Velocity S-wave (km/s) = 3.27464 3.59163 3.43679
# Velocity P-wave (km/s) = 4.94886 5.32806 5.14196
#
# Compressibility (1/GPa) = 0.04495448
#
# Stress axis : x y z
#
# Youngs Moduli (GPa) = 44.45351 26.43356 79.35697
#
# Poissons Ratio (x) = 0.24794 -0.14601
# Poissons Ratio (y) = 0.41696 0.51159
# Poissons Ratio (z) = -0.08179 0.17041
#
# Static dielectric constant tensor:
#      x y z
#    x 1.774370 0.000000 0.000000 
#    y 0.000000 1.846470 0.000000 
#    z 0.000000 0.000000 1.807310 
# 
# From -- ./inp_files/4130.got.cif
#   From: 2010.05.17/outbox.cif.g08.bks.cpg/sg19_3_cif.got.tgz:4130.got - 2010.06.03 22:46:19.
