data_PCOD9314771
_publ_section_title
;
Structure prediction by ZEFSAII (Michael W. Deem and Ramdas Pophale) SiO2 
 PCOD9314771
Probable space group: P 21 21 21
;
_chemical_formula_sum "Si O2"
_cell_formula_units_Z 32
_cell_length_a 7.960634
_cell_length_b 15.166674
_cell_length_c 10.762151
_cell_angle_alpha 90.000000
_cell_angle_beta 90.000000
_cell_angle_gamma 90.000000
_cell_volume 1299.382730
_symmetry_space_group_name_H-M "P 21 21 21"
_symmetry_group_IT_number 19
_symmetry_cell_setting 'orthorhombic'
loop_
_space_group_symop_operation_xyz
x,y,z
1/2-x,-y,1/2+z
1/2+x,1/2-y,-z
-x,1/2+y,1/2-z
loop_
_atom_site_type_symbol
_atom_site_label
_atom_site_fract_x
_atom_site_fract_y
_atom_site_fract_z
Si Si1 0.582158 0.471240 0.144535
Si Si2 0.103585 0.535628 0.908600
Si Si3 0.785159 0.626069 0.027308
Si Si4 0.114654 0.893761 0.229270
Si Si5 0.228303 0.346199 0.921468
Si Si6 0.308350 0.694576 0.841180
Si Si7 0.362171 0.219953 0.135937
Si Si8 0.949841 0.587108 0.366358
O O1 0.458649 0.475846 0.263735
O O2 0.666443 0.566682 0.115793
O O3 0.730697 0.401952 0.178627
O O4 0.520686 0.437766 0.011067
O O5 0.171581 0.444320 0.960679
O O6 0.249068 0.609106 0.915797
O O7 0.941600 0.566669 0.984775
O O8 0.848721 0.718213 0.081704
O O9 0.679828 0.642592 0.902504
O O10 0.952631 0.835420 0.255106
O O11 0.064239 0.995444 0.205680
O O12 0.383004 0.361067 0.825994
O O13 0.052328 0.308914 0.875729
O O14 0.303422 0.280984 0.023177
O O15 0.149833 0.723390 0.760472
O O16 0.221903 0.142372 0.142761
#
# Coordination Sequence:
#
# PCOD9314771 Si02
#       8
#     4   4   4   4   4   4   4   4
#     4  10  22  44  70  99 134 185 231 286 353 419
#     4  11  24  43  70  99 140 182 230 283 358 426
#     4  10  22  43  69  95 141 177 227 292 346 413
#     4  10  22  41  70  98 136 182 231 281 351 423
#     4  12  24  46  68 101 138 186 228 296 352 408
#     4  12  24  43  66 103 137 181 234 283 347 430
#     4  12  27  43  72 103 143 175 240 299 349 415
#     4  11  23  47  71 100 141 186 229 290 354 414
#
# _framework density 24.627078999999998
#
# number of rings (size 3 to 8) (size 9 to 14) (size 15 to 20)
#    0.000    1.000    2.500    5.250    3.500    0.000 
#    2.250    0.000    0.000    0.000    0.000    0.000 
#    0.000    0.000    0.000    0.000    0.000    0.000 
#
# Total GULP energy -179173.285601 kJ/mol
# GULP energy per Si atom -5599.165175 kJ/mol
# Density = 2.457103 g / cm^3
# Si number density = 24.627079 Si / 1000 Ang^3
#
#
#
# Elastic Constant Matrix: (Units=GPa)
#
#
# Indices 1 2 3 4 5 6 
#
# 1 117.1742 27.0313 17.8088 0.0000 0.0000 0.0000
# 2 27.0313 115.2591 17.4228 0.0000 0.0000 0.0000
# 3 17.8088 17.4228 45.5252 0.0000 0.0000 0.0000
# 4 0.0000 0.0000 0.0000 14.5031 0.0000 0.0000
# 5 0.0000 0.0000 0.0000 0.0000 4.9373 0.0000
# 6 0.0000 0.0000 0.0000 0.0000 0.0000 55.1349
#
#
#
# Elastic Compliance Matrix: (Units=1/GPa)
#
#
# Indices 1 2 3 4 5 6 
#
# 1 0.009395 -0.001749 -0.003006 0.000000 0.000000 0.000000
# 2 -0.001749 0.009534 -0.002965 0.000000 0.000000 0.000000
# 3 -0.003006 -0.002965 0.024276 0.000000 0.000000 0.000000
# 4 0.000000 0.000000 0.000000 0.068951 0.000000 0.000000
# 5 0.000000 0.000000 0.000000 0.000000 0.202540 0.000000
# 6 0.000000 0.000000 0.000000 0.000000 0.000000 0.018137
#
#
# Mechanical properties :
#
#
# Convention : Reuss Voigt Hill
#
# Bulk Modulus (GPa) = 36.01454 44.72047 40.36751
# Shear Modulus (GPa) = 13.98493 29.29477 21.63985
#
# Velocity S-wave (km/s) = 2.38558 3.45271 2.96751
# Velocity P-wave (km/s) = 4.71632 5.83895 5.30741
#
# Compressibility (1/GPa) = 0.02776656
#
# Stress axis : x y z
#
# Youngs Moduli (GPa) = 106.44419 104.88310 41.19248
#
# Poissons Ratio (x) = 0.18343 0.12381
# Poissons Ratio (y) = 0.18616 0.12212
# Poissons Ratio (z) = 0.31994 0.31095
#
# Static dielectric constant tensor:
#      x y z
#    x 2.016440 0.000000 0.000000 
#    y 0.000000 1.964170 0.000000 
#    z 0.000000 0.000000 1.955690 
# 
# From -- ./inp_files/4707.got.cif
#   From: 2010.05.17/outbox.cif.g08.bks.cpg/sg19_3_cif.got.tgz:4707.got - 2010.06.03 22:46:19.
