data_PCOD9314604
_publ_section_title
;
Structure prediction by ZEFSAII (Michael W. Deem and Ramdas Pophale) SiO2 
 PCOD9314604
Probable space group: P 21 21 21
;
_chemical_formula_sum "Si O2"
_cell_formula_units_Z 28
_cell_length_a 9.059090
_cell_length_b 14.109872
_cell_length_c 8.969848
_cell_angle_alpha 90.000000
_cell_angle_beta 90.000000
_cell_angle_gamma 90.000000
_cell_volume 1146.549296
_symmetry_space_group_name_H-M "P 21 21 21"
_symmetry_group_IT_number 19
_symmetry_cell_setting 'orthorhombic'
loop_
_space_group_symop_operation_xyz
x,y,z
1/2-x,-y,1/2+z
1/2+x,1/2-y,-z
-x,1/2+y,1/2-z
loop_
_atom_site_type_symbol
_atom_site_label
_atom_site_fract_x
_atom_site_fract_y
_atom_site_fract_z
Si Si1 0.797595 0.063651 0.791345
Si Si2 0.040432 0.095402 0.023548
Si Si3 0.734739 0.561237 0.112060
Si Si4 0.895908 0.773732 0.651948
Si Si5 0.451508 0.039263 0.093271
Si Si6 0.152065 0.728805 0.889384
Si Si7 0.379666 0.374238 0.693487
O O1 0.744207 0.156166 0.702987
O O2 0.684832 0.980295 0.823975
O O3 0.880368 0.094013 0.942136
O O4 0.923022 0.019716 0.681077
O O5 0.015954 0.119439 0.194486
O O6 0.108659 0.994480 0.982845
O O7 0.129714 0.179729 0.944115
O O8 0.678531 0.548802 0.282066
O O9 0.727961 0.671839 0.076597
O O10 0.881197 0.511177 0.049324
O O11 0.749082 0.814865 0.723513
O O12 0.978304 0.857922 0.562322
O O13 0.011034 0.748140 0.783770
O O14 0.100258 0.678472 0.039098
#
# Coordination Sequence:
#
# PCOD9314604 Si02
#       7
#     4   4   4   4   4   4   4
#     4   9  20  41  61  88 127 165 206 260 326 386
#     4  10  22  39  62  91 125 164 212 266 318 386
#     4  10  22  38  60  94 125 165 212 268 313 391
#     4   9  22  42  60  90 131 167 212 265 326 387
#     4   9  20  38  61  86 126 168 206 261 323 375
#     4  10  22  38  64  96 123 173 211 261 328 381
#     4  11  22  40  66  91 123 172 211 267 320 390
#
# _framework density 24.421102000000001
#
# number of rings (size 3 to 8) (size 9 to 14) (size 15 to 20)
#    0.000    2.286    0.000    1.714    8.000    1.143 
#    2.571    2.857    0.000    0.000    0.000    0.000 
#    0.000    0.000    0.000    0.000    0.000    0.000 
#
# Total GULP energy -156879.954412 kJ/mol
# GULP energy per Si atom -5602.855515 kJ/mol
# Density = 2.436552 g / cm^3
# Si number density = 24.421102 Si / 1000 Ang^3
#
#
#
# Elastic Constant Matrix: (Units=GPa)
#
#
# Indices 1 2 3 4 5 6 
#
# 1 70.6549 28.5964 20.1792 0.0000 0.0000 0.0000
# 2 28.5964 178.2250 55.5697 0.0000 0.0000 0.0000
# 3 20.1792 55.5697 93.2382 0.0000 0.0000 0.0000
# 4 0.0000 0.0000 0.0000 36.2977 0.0000 0.0000
# 5 0.0000 0.0000 0.0000 0.0000 23.4035 0.0000
# 6 0.0000 0.0000 0.0000 0.0000 0.0000 13.9361
#
#
#
# Elastic Compliance Matrix: (Units=1/GPa)
#
#
# Indices 1 2 3 4 5 6 
#
# 1 0.015529 -0.001773 -0.002304 0.000000 0.000000 0.000000
# 2 -0.001773 0.007094 -0.003844 0.000000 0.000000 0.000000
# 3 -0.002304 -0.003844 0.013515 0.000000 0.000000 0.000000
# 4 0.000000 0.000000 0.000000 0.027550 0.000000 0.000000
# 5 0.000000 0.000000 0.000000 0.000000 0.042729 0.000000
# 6 0.000000 0.000000 0.000000 0.000000 0.000000 0.071756
#
#
# Mechanical properties :
#
#
# Convention : Reuss Voigt Hill
#
# Bulk Modulus (GPa) = 49.27317 61.20096 55.23707
# Shear Modulus (GPa) = 24.90278 30.57898 27.74088
#
# Velocity S-wave (km/s) = 3.19678 3.54242 3.37403
# Velocity P-wave (km/s) = 5.81774 6.46890 6.15194
#
# Compressibility (1/GPa) = 0.02029502
#
# Stress axis : x y z
#
# Youngs Moduli (GPa) = 64.39549 140.96374 73.99173
#
# Poissons Ratio (x) = 0.24997 0.17048
# Poissons Ratio (y) = 0.11419 0.28444
# Poissons Ratio (z) = 0.14837 0.54190
#
# Static dielectric constant tensor:
#      x y z
#    x 1.970890 0.000000 0.000000 
#    y 0.000000 1.918310 0.000000 
#    z 0.000000 0.000000 1.919480 
# 
# From -- ./inp_files/3514.got.cif
#   From: 2010.05.17/outbox.cif.g08.bks.cpg/sg19_2_cif.got.tgz:3514.got - 2010.06.03 22:46:19.
