data_PCOD9314975
_publ_section_title
;
Structure prediction by ZEFSAII (Michael W. Deem and Ramdas Pophale) SiO2 
 PCOD9314975
Probable space group: P 21 21 21
;
_chemical_formula_sum "Si O2"
_cell_formula_units_Z 24
_cell_length_a 11.759843
_cell_length_b 8.928506
_cell_length_c 9.279685
_cell_angle_alpha 90.000000
_cell_angle_beta 90.000000
_cell_angle_gamma 90.000000
_cell_volume 974.346777
_symmetry_space_group_name_H-M "P 21 21 21"
_symmetry_group_IT_number 19
_symmetry_cell_setting 'orthorhombic'
loop_
_space_group_symop_operation_xyz
x,y,z
1/2-x,-y,1/2+z
1/2+x,1/2-y,-z
-x,1/2+y,1/2-z
loop_
_atom_site_type_symbol
_atom_site_label
_atom_site_fract_x
_atom_site_fract_y
_atom_site_fract_z
Si Si1 0.232939 0.541752 0.222839
Si Si2 0.456086 0.394811 0.189868
Si Si3 0.923897 0.191230 0.486811
Si Si4 0.096547 0.253005 0.243870
Si Si5 0.126432 0.797666 0.426063
Si Si6 0.667179 0.480939 0.999626
O O1 0.366484 0.532362 0.194193
O O2 0.163390 0.569624 0.075993
O O3 0.190515 0.378274 0.274810
O O4 0.192267 0.668969 0.334049
O O5 0.459844 0.337002 0.351159
O O6 0.576002 0.438258 0.122507
O O7 0.403626 0.273052 0.080519
O O8 0.856402 0.347082 0.468642
O O9 0.034813 0.198077 0.386998
O O10 0.991224 0.327109 0.155318
O O11 0.140930 0.121411 0.140337
O O12 0.208915 0.936666 0.446402
#
# Coordination Sequence:
#
# PCOD9314975 Si02
#       6
#     4   4   4   4   4   4
#     4  11  23  47  74 100 140 188 233 279 364 416
#     4  11  24  41  70 101 142 184 230 293 343 423
#     4  11  25  42  71 104 131 194 228 290 348 411
#     4  10  22  47  73 100 143 186 230 289 353 417
#     4  10  23  44  69 100 143 184 230 293 345 412
#     4  11  25  47  67 107 145 178 241 292 349 411
#
# _framework density 24.631886999999999
#
# number of rings (size 3 to 8) (size 9 to 14) (size 15 to 20)
#    0.000    1.333    1.667    4.000    2.333    4.000 
#   12.000    0.000    0.000    0.000    0.000    0.000 
#    0.000    0.000    0.000    0.000    0.000    0.000 
#
# Total GULP energy -134670.536717 kJ/mol
# GULP energy per Si atom -5611.272363 kJ/mol
# Density = 2.457582 g / cm^3
# Si number density = 24.631887 Si / 1000 Ang^3
#
#
#
# Elastic Constant Matrix: (Units=GPa)
#
#
# Indices 1 2 3 4 5 6 
#
# 1 92.9780 24.0060 32.8039 0.0000 0.0000 0.0000
# 2 24.0060 78.2455 17.7273 0.0000 0.0000 0.0000
# 3 32.8039 17.7273 163.7343 0.0000 0.0000 0.0000
# 4 0.0000 0.0000 0.0000 12.8373 0.0000 0.0000
# 5 0.0000 0.0000 0.0000 0.0000 19.1804 0.0000
# 6 0.0000 0.0000 0.0000 0.0000 0.0000 37.1564
#
#
#
# Elastic Compliance Matrix: (Units=1/GPa)
#
#
# Indices 1 2 3 4 5 6 
#
# 1 0.012357 -0.003312 -0.002117 0.000000 0.000000 0.000000
# 2 -0.003312 0.013989 -0.000851 0.000000 0.000000 0.000000
# 3 -0.002117 -0.000851 0.006624 0.000000 0.000000 0.000000
# 4 0.000000 0.000000 0.000000 0.077898 0.000000 0.000000
# 5 0.000000 0.000000 0.000000 0.000000 0.052136 0.000000
# 6 0.000000 0.000000 0.000000 0.000000 0.000000 0.026913
#
#
# Mechanical properties :
#
#
# Convention : Reuss Voigt Hill
#
# Bulk Modulus (GPa) = 48.99479 53.78137 51.38808
# Shear Modulus (GPa) = 23.89131 31.19619 27.54375
#
# Velocity S-wave (km/s) = 3.11776 3.56265 3.34760
# Velocity P-wave (km/s) = 5.73537 6.22934 5.98745
#
# Compressibility (1/GPa) = 0.02041033
#
# Stress axis : x y z
#
# Youngs Moduli (GPa) = 80.92430 71.48415 150.97107
#
# Poissons Ratio (x) = 0.23672 0.31964
# Poissons Ratio (y) = 0.26799 0.12849
# Poissons Ratio (z) = 0.17133 0.06084
#
# Static dielectric constant tensor:
#      x y z
#    x 1.915900 0.000000 0.000000 
#    y 0.000000 1.938840 0.000000 
#    z 0.000000 0.000000 1.930180 
# 
# From -- ./inp_files/2678.got.cif
#   From: 2010.05.17/outbox.cif.g08.bks.cpg/sg19_2_cif.got.tgz:2678.got - 2010.06.03 22:46:19.
