data_PCOD9314731
_publ_section_title
;
Structure prediction by ZEFSAII (Michael W. Deem and Ramdas Pophale) SiO2 
 PCOD9314731
Probable space group: P 21 21 21
;
_chemical_formula_sum "Si O2"
_cell_formula_units_Z 28
_cell_length_a 15.295792
_cell_length_b 5.036802
_cell_length_c 14.454761
_cell_angle_alpha 90.000000
_cell_angle_beta 90.000000
_cell_angle_gamma 90.000000
_cell_volume 1113.621901
_symmetry_space_group_name_H-M "P 21 21 21"
_symmetry_group_IT_number 19
_symmetry_cell_setting 'orthorhombic'
loop_
_space_group_symop_operation_xyz
x,y,z
1/2-x,-y,1/2+z
1/2+x,1/2-y,-z
-x,1/2+y,1/2-z
loop_
_atom_site_type_symbol
_atom_site_label
_atom_site_fract_x
_atom_site_fract_y
_atom_site_fract_z
Si Si1 0.064827 0.352929 0.888667
Si Si2 0.885447 0.200769 0.234348
Si Si3 0.283919 0.502493 0.524931
Si Si4 0.764412 0.515173 0.361429
Si Si5 0.410835 0.480045 0.037596
Si Si6 0.051631 0.195585 0.363686
Si Si7 0.589155 0.365167 0.299246
O O1 0.099726 0.155636 0.809844
O O2 0.992031 0.217584 0.953513
O O3 0.008590 0.553738 0.826005
O O4 0.144274 0.466492 0.946592
O O5 0.801213 0.347330 0.274936
O O6 0.888056 0.903882 0.194667
O O7 0.956176 0.224495 0.317772
O O8 0.920305 0.395647 0.154147
O O9 0.276722 0.197244 0.555827
O O10 0.185413 0.595298 0.499827
O O11 0.307758 0.707657 0.608515
O O12 0.662697 0.559293 0.339947
O O13 0.394752 0.603682 0.139367
O O14 0.443545 0.712435 0.968660
#
# Coordination Sequence:
#
# PCOD9314731 Si02
#       7
#     4   4   4   4   4   4   4
#     4  12  25  47  76 106 144 200 244 303 376 435
#     4  10  22  41  65 100 132 178 230 280 363 418
#     4  11  27  43  75 106 140 190 241 299 370 430
#     4  11  24  49  69 106 144 186 238 308 359 437
#     4  11  25  47  67 104 144 184 243 302 355 436
#     4  10  23  39  66  98 134 179 225 289 347 429
#     4  11  26  46  72 102 148 189 251 303 362 439
#
# _framework density 25.143181999999999
#
# number of rings (size 3 to 8) (size 9 to 14) (size 15 to 20)
#    0.000    1.143    2.857    1.714    8.000    1.143 
#    2.571    0.000    0.000    0.000    0.000    0.000 
#    0.000    0.000    0.000    0.000    0.000    0.000 
#
# Total GULP energy -156705.966532 kJ/mol
# GULP energy per Si atom -5596.641662 kJ/mol
# Density = 2.508596 g / cm^3
# Si number density = 25.143182 Si / 1000 Ang^3
#
#
#
# Elastic Constant Matrix: (Units=GPa)
#
#
# Indices 1 2 3 4 5 6 
#
# 1 89.0114 -6.2226 39.4719 0.0000 0.0000 0.0000
# 2 -6.2226 70.8197 2.3638 0.0000 0.0000 0.0000
# 3 39.4719 2.3638 94.9737 0.0000 0.0000 0.0000
# 4 0.0000 0.0000 0.0000 27.7457 0.0000 0.0000
# 5 0.0000 0.0000 0.0000 0.0000 43.6261 0.0000
# 6 0.0000 0.0000 0.0000 0.0000 0.0000 28.1299
#
#
#
# Elastic Compliance Matrix: (Units=1/GPa)
#
#
# Indices 1 2 3 4 5 6 
#
# 1 0.013913 0.001417 -0.005818 0.000000 0.000000 0.000000
# 2 0.001417 0.014276 -0.000944 0.000000 0.000000 0.000000
# 3 -0.005818 -0.000944 0.012971 0.000000 0.000000 0.000000
# 4 0.000000 0.000000 0.000000 0.036042 0.000000 0.000000
# 5 0.000000 0.000000 0.000000 0.000000 0.022922 0.000000
# 6 0.000000 0.000000 0.000000 0.000000 0.000000 0.035549
#
#
# Mechanical properties :
#
#
# Convention : Reuss Voigt Hill
#
# Bulk Modulus (GPa) = 32.81918 36.22568 34.52243
# Shear Modulus (GPa) = 31.94468 34.51313 33.22890
#
# Velocity S-wave (km/s) = 3.56829 3.70897 3.63931
# Velocity P-wave (km/s) = 5.48253 5.72546 5.60531
#
# Compressibility (1/GPa) = 0.03046999
#
# Stress axis : x y z
#
# Youngs Moduli (GPa) = 71.87288 70.04592 77.09701
#
# Poissons Ratio (x) = -0.09923 0.44854
# Poissons Ratio (y) = -0.10182 0.07279
# Poissons Ratio (z) = 0.41814 0.06613
#
# Static dielectric constant tensor:
#      x y z
#    x 2.018260 0.000000 0.000000 
#    y 0.000000 2.004950 0.000000 
#    z 0.000000 0.000000 2.021250 
# 
# From -- ./inp_files/6243.got.cif
#   From: 2010.05.17/outbox.cif.g08.bks.cpg/sg19_4_cif.got.tgz:6243.got - 2010.06.03 22:46:19.
