data_PCOD9314335
_publ_section_title
;
Structure prediction by ZEFSAII (Michael W. Deem and Ramdas Pophale) SiO2 
 PCOD9314335
Probable space group: P 21 21 21
;
_chemical_formula_sum "Si O2"
_cell_formula_units_Z 32
_cell_length_a 10.410172
_cell_length_b 8.415471
_cell_length_c 13.844758
_cell_angle_alpha 90.000000
_cell_angle_beta 90.000000
_cell_angle_gamma 90.000000
_cell_volume 1212.890800
_symmetry_space_group_name_H-M "P 21 21 21"
_symmetry_group_IT_number 19
_symmetry_cell_setting 'orthorhombic'
loop_
_space_group_symop_operation_xyz
x,y,z
1/2-x,-y,1/2+z
1/2+x,1/2-y,-z
-x,1/2+y,1/2-z
loop_
_atom_site_type_symbol
_atom_site_label
_atom_site_fract_x
_atom_site_fract_y
_atom_site_fract_z
Si Si1 0.389046 0.760440 0.343839
Si Si2 0.963398 0.952690 0.201249
Si Si3 0.107892 0.555070 0.738906
Si Si4 0.257652 0.822566 0.806128
Si Si5 0.154928 0.675671 0.445987
Si Si6 0.451180 0.999232 0.920907
Si Si7 0.739004 0.905158 0.927442
Si Si8 0.259435 0.094490 0.664395
O O1 0.434522 0.589035 0.306365
O O2 0.501198 0.887854 0.336927
O O3 0.300743 0.739064 0.436197
O O4 0.289856 0.822055 0.262191
O O5 0.871532 0.803763 0.200431
O O6 0.013520 0.974359 0.308763
O O7 0.090371 0.907581 0.142422
O O8 0.902731 0.109686 0.154649
O O9 0.136471 0.704649 0.808613
O O10 0.228532 0.494319 0.675079
O O11 0.308407 0.922784 0.898288
O O12 0.238913 0.914216 0.703142
O O13 0.174999 0.510181 0.501313
O O14 0.073972 0.831932 0.474564
O O15 0.586767 0.919802 0.954494
O O16 0.789755 0.724242 0.913259
#
# Coordination Sequence:
#
# PCOD9314335 Si02
#       8
#     4   4   4   4   4   4   4   4
#     4  11  22  41  63  93 133 171 227 278 328 399
#     4  11  19  39  71 101 117 168 239 283 313 380
#     4  11  24  41  66  96 131 177 225 279 339 404
#     4  11  19  35  72  96 117 163 236 279 316 378
#     4  12  25  41  66  99 141 177 219 289 346 403
#     4  11  21  40  70  98 127 173 239 282 324 403
#     4  11  25  42  61  98 144 178 212 278 360 410
#     4  10  21  39  67  97 126 165 227 284 328 395
#
# _framework density 26.383247999999998
#
# number of rings (size 3 to 8) (size 9 to 14) (size 15 to 20)
#    0.000    1.000    6.250    3.000    1.750    0.000 
#    0.000    5.000    0.000    0.000    0.000    0.000 
#    0.000    0.000    0.000    0.000    0.000    0.000 
#
# Total GULP energy -178299.505673 kJ/mol
# GULP energy per Si atom -5571.859552 kJ/mol
# Density = 2.632320 g / cm^3
# Si number density = 26.383248 Si / 1000 Ang^3
#
#
#
# Elastic Constant Matrix: (Units=GPa)
#
#
# Indices 1 2 3 4 5 6 
#
# 1 99.2818 23.6211 5.7244 0.0000 0.0000 0.0000
# 2 23.6211 112.0354 9.8858 0.0000 0.0000 0.0000
# 3 5.7244 9.8858 46.7079 0.0000 0.0000 0.0000
# 4 0.0000 0.0000 0.0000 37.1672 0.0000 0.0000
# 5 0.0000 0.0000 0.0000 0.0000 16.6837 0.0000
# 6 0.0000 0.0000 0.0000 0.0000 0.0000 40.7644
#
#
#
# Elastic Compliance Matrix: (Units=1/GPa)
#
#
# Indices 1 2 3 4 5 6 
#
# 1 0.010637 -0.002168 -0.000845 0.000000 0.000000 0.000000
# 2 -0.002168 0.009538 -0.001753 0.000000 0.000000 0.000000
# 3 -0.000845 -0.001753 0.021884 0.000000 0.000000 0.000000
# 4 0.000000 0.000000 0.000000 0.026905 0.000000 0.000000
# 5 0.000000 0.000000 0.000000 0.000000 0.059939 0.000000
# 6 0.000000 0.000000 0.000000 0.000000 0.000000 0.024531
#
#
# Mechanical properties :
#
#
# Convention : Reuss Voigt Hill
#
# Bulk Modulus (GPa) = 30.74362 37.38753 34.06557
# Shear Modulus (GPa) = 28.76743 33.50934 31.13839
#
# Velocity S-wave (km/s) = 3.30565 3.56771 3.43918
# Velocity P-wave (km/s) = 5.12326 5.58329 5.35821
#
# Compressibility (1/GPa) = 0.03252707
#
# Stress axis : x y z
#
# Youngs Moduli (GPa) = 94.01256 104.84890 45.69514
#
# Poissons Ratio (x) = 0.22732 0.03860
# Poissons Ratio (y) = 0.20383 0.08010
# Poissons Ratio (z) = 0.07942 0.18379
#
# Static dielectric constant tensor:
#      x y z
#    x 2.145140 0.000000 0.000000 
#    y 0.000000 2.154340 0.000000 
#    z 0.000000 0.000000 2.147270 
# 
# From -- ./inp_files/6753.got.cif
#   From: 2010.05.17/outbox.cif.g08.bks.cpg/sg19_4_cif.got.tgz:6753.got - 2010.06.03 22:46:19.
