data_PCOD9314112
_publ_section_title
;
Structure prediction by ZEFSAII (Michael W. Deem and Ramdas Pophale) SiO2 
 PCOD9314112
Probable space group: P 21 21 21
;
_chemical_formula_sum "Si O2"
_cell_formula_units_Z 32
_cell_length_a 12.336227
_cell_length_b 13.922534
_cell_length_c 7.656288
_cell_angle_alpha 90.000000
_cell_angle_beta 90.000000
_cell_angle_gamma 90.000000
_cell_volume 1314.979253
_symmetry_space_group_name_H-M "P 21 21 21"
_symmetry_group_IT_number 19
_symmetry_cell_setting 'orthorhombic'
loop_
_space_group_symop_operation_xyz
x,y,z
1/2-x,-y,1/2+z
1/2+x,1/2-y,-z
-x,1/2+y,1/2-z
loop_
_atom_site_type_symbol
_atom_site_label
_atom_site_fract_x
_atom_site_fract_y
_atom_site_fract_z
Si Si1 0.043085 0.623599 0.222477
Si Si2 0.782539 0.618897 0.530432
Si Si3 0.584822 0.048914 0.299748
Si Si4 0.509444 0.850677 0.367399
Si Si5 0.737622 0.784233 0.257179
Si Si6 0.791608 0.982163 0.442487
Si Si7 0.447827 0.695386 0.957702
Si Si8 0.387778 0.040399 0.702719
O O1 0.045251 0.654294 0.426790
O O2 0.015765 0.713130 0.102160
O O3 0.946335 0.547371 0.200157
O O4 0.147612 0.565635 0.162543
O O5 0.748497 0.688266 0.371613
O O6 0.820800 0.516411 0.447580
O O7 0.689281 0.599223 0.669466
O O8 0.883132 0.674486 0.621933
O O9 0.648337 0.035317 0.122115
O O10 0.548174 0.155161 0.345005
O O11 0.501053 0.962501 0.307672
O O12 0.669690 0.021046 0.453519
O O13 0.608762 0.807757 0.255105
O O14 0.784363 0.879167 0.352358
O O15 0.822897 0.779850 0.096452
O O16 0.514554 0.608370 0.863342
#
# Coordination Sequence:
#
# PCOD9314112 Si02
#       8
#     4   4   4   4   4   4   4   4
#     4  11  22  44  71 100 140 189 232 286 363 420
#     4  11  24  44  67 101 140 191 231 288 356 425
#     4  11  22  41  68  97 139 175 234 291 353 409
#     4  10  20  42  67 100 136 181 230 287 345 424
#     4  11  21  40  75 102 133 180 241 285 355 421
#     4  11  23  41  69 105 136 181 228 303 352 413
#     4  12  22  46  71 103 140 189 237 292 356 426
#     4  11  24  46  68  96 148 186 231 298 354 422
#
# _framework density 24.334983999999999
#
# number of rings (size 3 to 8) (size 9 to 14) (size 15 to 20)
#    0.000    1.000    6.250    3.750    0.000    1.000 
#    6.750    0.000    0.000    0.000    0.000    0.000 
#    0.000    0.000    0.000    0.000    0.000    0.000 
#
# Total GULP energy -178763.384116 kJ/mol
# GULP energy per Si atom -5586.355754 kJ/mol
# Density = 2.427960 g / cm^3
# Si number density = 24.334984 Si / 1000 Ang^3
#
#
#
# Elastic Constant Matrix: (Units=GPa)
#
#
# Indices 1 2 3 4 5 6 
#
# 1 75.1633 14.5995 10.2633 0.0000 0.0000 0.0000
# 2 14.5995 84.0644 21.2619 0.0000 0.0000 0.0000
# 3 10.2633 21.2619 45.4007 0.0000 0.0000 0.0000
# 4 0.0000 0.0000 0.0000 31.6441 0.0000 0.0000
# 5 0.0000 0.0000 0.0000 0.0000 29.7272 0.0000
# 6 0.0000 0.0000 0.0000 0.0000 0.0000 38.3064
#
#
#
# Elastic Compliance Matrix: (Units=1/GPa)
#
#
# Indices 1 2 3 4 5 6 
#
# 1 0.013976 -0.001847 -0.002295 0.000000 0.000000 0.000000
# 2 -0.001847 0.013738 -0.006016 0.000000 0.000000 0.000000
# 3 -0.002295 -0.006016 0.025362 0.000000 0.000000 0.000000
# 4 0.000000 0.000000 0.000000 0.031601 0.000000 0.000000
# 5 0.000000 0.000000 0.000000 0.000000 0.033639 0.000000
# 6 0.000000 0.000000 0.000000 0.000000 0.000000 0.026105
#
#
# Mechanical properties :
#
#
# Convention : Reuss Voigt Hill
#
# Bulk Modulus (GPa) = 30.52382 32.98642 31.75512
# Shear Modulus (GPa) = 28.46431 30.50246 29.48338
#
# Velocity S-wave (km/s) = 3.42378 3.54424 3.48453
# Velocity P-wave (km/s) = 5.31038 5.50758 5.40987
#
# Compressibility (1/GPa) = 0.03276130
#
# Stress axis : x y z
#
# Youngs Moduli (GPa) = 71.54905 72.79055 39.42863
#
# Poissons Ratio (x) = 0.13444 0.09047
# Poissons Ratio (y) = 0.13215 0.23721
# Poissons Ratio (z) = 0.16417 0.43792
#
# Static dielectric constant tensor:
#      x y z
#    x 1.961800 0.000000 0.000000 
#    y 0.000000 1.958830 0.000000 
#    z 0.000000 0.000000 2.020640 
# 
# From -- ./inp_files/3597.got.cif
#   From: 2010.05.17/outbox.cif.g08.bks.cpg/sg19_2_cif.got.tgz:3597.got - 2010.06.03 22:46:19.
