data_PCOD9314794
_publ_section_title
;
Structure prediction by ZEFSAII (Michael W. Deem and Ramdas Pophale) SiO2 
 PCOD9314794
Probable space group: P 21 21 21
;
_chemical_formula_sum "Si O2"
_cell_formula_units_Z 12
_cell_length_a 4.886490
_cell_length_b 15.961435
_cell_length_c 5.270734
_cell_angle_alpha 90.000000
_cell_angle_beta 90.000000
_cell_angle_gamma 90.000000
_cell_volume 411.092967
_symmetry_space_group_name_H-M "P 21 21 21"
_symmetry_group_IT_number 19
_symmetry_cell_setting 'orthorhombic'
loop_
_space_group_symop_operation_xyz
x,y,z
1/2-x,-y,1/2+z
1/2+x,1/2-y,-z
-x,1/2+y,1/2-z
loop_
_atom_site_type_symbol
_atom_site_label
_atom_site_fract_x
_atom_site_fract_y
_atom_site_fract_z
Si Si1 0.533255 0.562362 0.661577
Si Si2 0.816010 0.104312 0.345438
Si Si3 0.195450 0.228910 0.847807
O O1 0.569225 0.461556 0.666956
O O2 0.363087 0.584492 0.407241
O O3 0.775195 0.629749 0.689442
O O4 0.348830 0.581414 0.905039
O O5 0.839312 0.204875 0.341427
O O6 0.386144 0.246970 0.094301
#
# Coordination Sequence:
#
# PCOD9314794 Si02
#       3
#     4   4   4
#     4   9  19  38  62  89 122 160 202 249 302 360
#     4   9  19  38  62  89 122 160 202 249 302 360
#     4  10  22  42  64  92 124 162 204 252 304 362
#
# _framework density 29.190477999999999
#
# number of rings (size 3 to 8) (size 9 to 14) (size 15 to 20)
#    0.000    2.667    0.000    0.000    0.000   10.667 
#    0.000   30.000    0.000    0.000    0.000    0.000 
#    0.000    0.000    0.000    0.000    0.000    0.000 
#
# Total GULP energy -67206.586617 kJ/mol
# GULP energy per Si atom -5600.548885 kJ/mol
# Density = 2.912404 g / cm^3
# Si number density = 29.190478 Si / 1000 Ang^3
#
#
#
# Elastic Constant Matrix: (Units=GPa)
#
#
# Indices 1 2 3 4 5 6 
#
# 1 114.4811 51.0115 31.7438 0.0000 0.0000 0.0000
# 2 51.0115 156.3983 68.5350 0.0000 0.0000 0.0000
# 3 31.7438 68.5350 168.0446 0.0000 0.0000 0.0000
# 4 0.0000 0.0000 0.0000 55.2127 0.0000 0.0000
# 5 0.0000 0.0000 0.0000 0.0000 21.6335 0.0000
# 6 0.0000 0.0000 0.0000 0.0000 0.0000 47.3343
#
#
#
# Elastic Compliance Matrix: (Units=1/GPa)
#
#
# Indices 1 2 3 4 5 6 
#
# 1 0.010288 -0.003049 -0.000700 0.000000 0.000000 0.000000
# 2 -0.003049 0.008689 -0.002968 0.000000 0.000000 0.000000
# 3 -0.000700 -0.002968 0.007293 0.000000 0.000000 0.000000
# 4 0.000000 0.000000 0.000000 0.018112 0.000000 0.000000
# 5 0.000000 0.000000 0.000000 0.000000 0.046225 0.000000
# 6 0.000000 0.000000 0.000000 0.000000 0.000000 0.021126
#
#
# Mechanical properties :
#
#
# Convention : Reuss Voigt Hill
#
# Bulk Modulus (GPa) = 77.89985 82.38941 80.14463
# Shear Modulus (GPa) = 38.62664 44.01166 41.31915
#
# Velocity S-wave (km/s) = 3.64161 3.88718 3.76640
# Velocity P-wave (km/s) = 6.66532 6.95937 6.81393
#
# Compressibility (1/GPa) = 0.01283700
#
# Stress axis : x y z
#
# Youngs Moduli (GPa) = 97.20408 115.09075 137.11084
#
# Poissons Ratio (x) = 0.35088 0.09597
# Poissons Ratio (y) = 0.29635 0.40691
# Poissons Ratio (z) = 0.06804 0.34156
#
# Static dielectric constant tensor:
#      x y z
#    x 2.160060 0.000000 0.000000 
#    y 0.000000 2.446860 0.000000 
#    z 0.000000 0.000000 2.268690 
# 
# From -- ./inp_files/90.got.cif
#   From: 2010.05.17/outbox.cif.g08.bks.cpg/sg19_1_cif.got.tgz:90.got - 2010.06.03 22:46:19.
