data_PCOD9314685
_publ_section_title
;
Structure prediction by ZEFSAII (Michael W. Deem and Ramdas Pophale) SiO2 
 PCOD9314685
Probable space group: P 21 21 21
;
_chemical_formula_sum "Si O2"
_cell_formula_units_Z 32
_cell_length_a 7.643691
_cell_length_b 30.722666
_cell_length_c 6.674730
_cell_angle_alpha 90.000000
_cell_angle_beta 90.000000
_cell_angle_gamma 90.000000
_cell_volume 1567.457320
_symmetry_space_group_name_H-M "P 21 21 21"
_symmetry_group_IT_number 19
_symmetry_cell_setting 'orthorhombic'
loop_
_space_group_symop_operation_xyz
x,y,z
1/2-x,-y,1/2+z
1/2+x,1/2-y,-z
-x,1/2+y,1/2-z
loop_
_atom_site_type_symbol
_atom_site_label
_atom_site_fract_x
_atom_site_fract_y
_atom_site_fract_z
Si Si1 0.373675 0.739002 0.752462
Si Si2 0.015424 0.099678 0.450310
Si Si3 0.023686 0.694369 0.917657
Si Si4 0.607683 0.455611 0.171442
Si Si5 0.005535 0.471976 0.917474
Si Si6 0.723868 0.695628 0.581292
Si Si7 0.885850 0.019495 0.210387
Si Si8 0.819434 0.396128 0.869533
O O1 0.542369 0.711690 0.679781
O O2 0.300040 0.768187 0.570036
O O3 0.208028 0.711142 0.829912
O O4 0.444081 0.770415 0.928580
O O5 0.948516 0.148653 0.469574
O O6 0.037761 0.079623 0.670267
O O7 0.198219 0.101459 0.326314
O O8 0.900966 0.065026 0.329369
O O9 0.875547 0.687678 0.746263
O O10 0.641975 0.498138 0.309377
O O11 0.480451 0.472221 0.998151
O O12 0.748415 0.428848 0.042619
O O13 0.187669 0.491610 0.836891
O O14 0.999163 0.422215 0.841884
O O15 0.022516 0.483184 0.152091
O O16 0.683475 0.651991 0.455800
#
# Coordination Sequence:
#
# PCOD9314685 Si02
#       8
#     4   4   4   4   4   4   4   4
#     4  12  26  45  77 102 138 191 228 292 363 426
#     4  10  23  43  66  94 134 177 215 287 344 407
#     4  12  24  47  72 101 143 181 233 290 355 426
#     4  10  22  40  65  89 128 177 216 273 340 391
#     4  11  23  41  63  92 133 178 227 280 338 416
#     4  12  25  48  70 105 141 181 241 290 355 431
#     4  10  22  43  62  92 132 176 225 276 343 405
#     4  11  25  41  67  97 133 175 233 284 342 420
#
# _framework density 20.415230000000001
#
# number of rings (size 3 to 8) (size 9 to 14) (size 15 to 20)
#    0.000    1.000    6.250    0.000    5.250    1.000 
#    6.750    0.000    0.000    0.000    0.000    0.000 
#    0.000    0.000    0.000    0.000    0.000    0.000 
#
# Total GULP energy -178560.602184 kJ/mol
# GULP energy per Si atom -5580.018818 kJ/mol
# Density = 2.036876 g / cm^3
# Si number density = 20.415230 Si / 1000 Ang^3
#
#
#
# Elastic Constant Matrix: (Units=GPa)
#
#
# Indices 1 2 3 4 5 6 
#
# 1 86.6556 25.4266 27.8867 0.0000 0.0000 0.0000
# 2 25.4266 97.8833 18.8357 0.0000 0.0000 0.0000
# 3 27.8867 18.8357 90.4160 0.0000 0.0000 0.0000
# 4 0.0000 0.0000 0.0000 35.7241 0.0000 0.0000
# 5 0.0000 0.0000 0.0000 0.0000 29.7775 0.0000
# 6 0.0000 0.0000 0.0000 0.0000 0.0000 22.9816
#
#
#
# Elastic Compliance Matrix: (Units=1/GPa)
#
#
# Indices 1 2 3 4 5 6 
#
# 1 0.013521 -0.002823 -0.003582 0.000000 0.000000 0.000000
# 2 -0.002823 0.011232 -0.001469 0.000000 0.000000 0.000000
# 3 -0.003582 -0.001469 0.012471 0.000000 0.000000 0.000000
# 4 0.000000 0.000000 0.000000 0.027992 0.000000 0.000000
# 5 0.000000 0.000000 0.000000 0.000000 0.033582 0.000000
# 6 0.000000 0.000000 0.000000 0.000000 0.000000 0.043513
#
#
# Mechanical properties :
#
#
# Convention : Reuss Voigt Hill
#
# Bulk Modulus (GPa) = 46.56480 46.58365 46.57422
# Shear Modulus (GPa) = 30.26283 31.21704 30.73994
#
# Velocity S-wave (km/s) = 3.85433 3.91462 3.88459
# Velocity P-wave (km/s) = 6.53193 6.58027 6.55615
#
# Compressibility (1/GPa) = 0.02147545
#
# Stress axis : x y z
#
# Youngs Moduli (GPa) = 73.95889 89.02906 80.18670
#
# Poissons Ratio (x) = 0.25133 0.28724
# Poissons Ratio (y) = 0.20878 0.11782
# Poissons Ratio (z) = 0.26493 0.13081
#
# Static dielectric constant tensor:
#      x y z
#    x 1.858570 0.000000 0.000000 
#    y 0.000000 1.752390 0.000000 
#    z 0.000000 0.000000 1.782860 
# 
# From -- ./inp_files/699.got.cif
#   From: 2010.05.17/outbox.cif.g08.bks.cpg/sg19_1_cif.got.tgz:699.got - 2010.06.03 22:46:19.
