data_PCOD9314738
_publ_section_title
;
Structure prediction by ZEFSAII (Michael W. Deem and Ramdas Pophale) SiO2 
 PCOD9314738
Probable space group: P 21 21 21
;
_chemical_formula_sum "Si O2"
_cell_formula_units_Z 32
_cell_length_a 7.859437
_cell_length_b 8.465703
_cell_length_c 20.216761
_cell_angle_alpha 90.000000
_cell_angle_beta 90.000000
_cell_angle_gamma 90.000000
_cell_volume 1345.135524
_symmetry_space_group_name_H-M "P 21 21 21"
_symmetry_group_IT_number 19
_symmetry_cell_setting 'orthorhombic'
loop_
_space_group_symop_operation_xyz
x,y,z
1/2-x,-y,1/2+z
1/2+x,1/2-y,-z
-x,1/2+y,1/2-z
loop_
_atom_site_type_symbol
_atom_site_label
_atom_site_fract_x
_atom_site_fract_y
_atom_site_fract_z
Si Si1 0.394028 0.008277 0.608483
Si Si2 0.942392 0.382710 0.094348
Si Si3 0.226098 0.646603 0.072799
Si Si4 0.771319 0.074180 0.574988
Si Si5 0.869434 0.725562 0.285857
Si Si6 0.069772 0.561769 0.663284
Si Si7 0.922981 0.327642 0.948412
Si Si8 0.728476 0.626674 0.160959
O O1 0.350060 0.186790 0.591828
O O2 0.597492 0.996849 0.601179
O O3 0.344576 0.945406 0.680677
O O4 0.264638 0.899654 0.565581
O O5 0.095893 0.501731 0.079228
O O6 0.990233 0.300243 0.164310
O O7 0.788237 0.501174 0.106372
O O8 0.921562 0.286924 0.026245
O O9 0.363505 0.593416 0.125685
O O10 0.279120 0.646924 0.996417
O O11 0.824916 0.214547 0.623835
O O12 0.929175 0.955478 0.565942
O O13 0.708234 0.845458 0.292476
O O14 0.881937 0.684184 0.208946
O O15 0.043416 0.686105 0.602864
O O16 0.908954 0.482479 0.699571
#
# Coordination Sequence:
#
# PCOD9314738 Si02
#       8
#     4   4   4   4   4   4   4   4
#     4  11  23  43  68  97 141 180 220 293 356 405
#     4  10  23  42  66 100 135 180 225 288 348 413
#     4  10  22  41  65  99 138 163 225 288 352 404
#     4  11  25  40  69 107 131 182 225 289 353 421
#     4  10  27  46  62  98 139 185 234 282 344 418
#     4  10  25  44  69  98 134 184 225 299 348 412
#     4  10  24  44  69 106 140 171 233 291 364 417
#     4  12  25  42  70  99 134 187 241 274 353 432
#
# _framework density 23.789424
#
# number of rings (size 3 to 8) (size 9 to 14) (size 15 to 20)
#    0.000    1.500    1.250    1.500   10.500    5.000 
#    0.000    2.500    0.000    0.000    0.000    0.000 
#    0.000    0.000    0.000    0.000    0.000    0.000 
#
# Total GULP energy -178559.587717 kJ/mol
# GULP energy per Si atom -5579.987116 kJ/mol
# Density = 2.373528 g / cm^3
# Si number density = 23.789424 Si / 1000 Ang^3
#
#
#
# Elastic Constant Matrix: (Units=GPa)
#
#
# Indices 1 2 3 4 5 6 
#
# 1 89.9074 19.0550 2.7546 0.0000 0.0000 0.0000
# 2 19.0550 59.7597 7.7780 0.0000 0.0000 0.0000
# 3 2.7546 7.7780 44.0541 0.0000 0.0000 0.0000
# 4 0.0000 0.0000 0.0000 15.9636 0.0000 0.0000
# 5 0.0000 0.0000 0.0000 0.0000 18.7814 0.0000
# 6 0.0000 0.0000 0.0000 0.0000 0.0000 26.3773
#
#
#
# Elastic Compliance Matrix: (Units=1/GPa)
#
#
# Indices 1 2 3 4 5 6 
#
# 1 0.011929 -0.003794 -0.000076 0.000000 0.000000 0.000000
# 2 -0.003794 0.018334 -0.003000 0.000000 0.000000 0.000000
# 3 -0.000076 -0.003000 0.023234 0.000000 0.000000 0.000000
# 4 0.000000 0.000000 0.000000 0.062642 0.000000 0.000000
# 5 0.000000 0.000000 0.000000 0.000000 0.053244 0.000000
# 6 0.000000 0.000000 0.000000 0.000000 0.000000 0.037911
#
#
# Mechanical properties :
#
#
# Convention : Reuss Voigt Hill
#
# Bulk Modulus (GPa) = 25.15258 28.09961 26.62609
# Shear Modulus (GPa) = 21.34143 23.16670 22.25406
#
# Velocity S-wave (km/s) = 2.99841 3.12400 3.06185
# Velocity P-wave (km/s) = 4.75218 4.98497 4.86997
#
# Compressibility (1/GPa) = 0.03975735
#
# Stress axis : x y z
#
# Youngs Moduli (GPa) = 83.82979 54.54411 43.04083
#
# Poissons Ratio (x) = 0.20693 0.00327
# Poissons Ratio (y) = 0.31803 0.12911
# Poissons Ratio (z) = 0.00638 0.16362
#
# Static dielectric constant tensor:
#      x y z
#    x 2.050510 0.000000 0.000000 
#    y 0.000000 1.915990 0.000000 
#    z 0.000000 0.000000 1.910570 
# 
# From -- ./inp_files/7089.got.cif
#   From: 2010.05.17/outbox.cif.g08.bks.cpg/sg19_4_cif.got.tgz:7089.got - 2010.06.03 22:46:19.
