data_PCOD9314194
_publ_section_title
;
Structure prediction by ZEFSAII (Michael W. Deem and Ramdas Pophale) SiO2 
 PCOD9314194
Probable space group: P 21 21 21
;
_chemical_formula_sum "Si O2"
_cell_formula_units_Z 32
_cell_length_a 11.801191
_cell_length_b 5.234602
_cell_length_c 20.675491
_cell_angle_alpha 90.000000
_cell_angle_beta 90.000000
_cell_angle_gamma 90.000000
_cell_volume 1277.218905
_symmetry_space_group_name_H-M "P 21 21 21"
_symmetry_group_IT_number 19
_symmetry_cell_setting 'orthorhombic'
loop_
_space_group_symop_operation_xyz
x,y,z
1/2-x,-y,1/2+z
1/2+x,1/2-y,-z
-x,1/2+y,1/2-z
loop_
_atom_site_type_symbol
_atom_site_label
_atom_site_fract_x
_atom_site_fract_y
_atom_site_fract_z
Si Si1 0.788191 0.869903 0.134306
Si Si2 0.910254 0.872034 0.009071
Si Si3 0.192540 0.658581 0.240392
Si Si4 0.226765 0.551916 0.609865
Si Si5 0.432981 0.084964 0.170976
Si Si6 0.080896 0.915078 0.824877
Si Si7 0.548816 0.490482 0.691324
Si Si8 0.020732 0.352348 0.059505
O O1 0.810152 0.941301 0.060804
O O2 0.697186 0.641508 0.138043
O O3 0.910601 0.763910 0.156603
O O4 0.753794 0.056200 0.193138
O O5 0.961095 0.591153 0.022999
O O6 0.004351 0.091039 0.020787
O O7 0.853488 0.910614 0.940339
O O8 0.265504 0.603479 0.177637
O O9 0.144450 0.936779 0.257069
O O10 0.072799 0.522092 0.223600
O O11 0.174463 0.827668 0.628729
O O12 0.350751 0.581559 0.578577
O O13 0.400432 0.086364 0.247148
O O14 0.519830 0.320490 0.159829
O O15 0.500202 0.825182 0.159274
O O16 0.540250 0.678823 0.629983
#
# Coordination Sequence:
#
# PCOD9314194 Si02
#       8
#     4   4   4   4   4   4   4   4
#     4  11  22  39  65  94 135 188 222 282 359 411
#     4  11  26  46  66 100 143 178 231 287 342 419
#     4  11  20  39  64 105 134 178 234 298 353 413
#     4  11  26  45  73 105 136 189 236 292 351 419
#     4  10  23  42  60  95 128 167 224 281 324 406
#     4  10  23  40  64  91 132 172 217 272 342 400
#     4  10  21  36  66 101 140 171 231 301 348 408
#     4  10  25  47  70  99 136 183 233 281 353 414
#
# _framework density 25.054437
#
# number of rings (size 3 to 8) (size 9 to 14) (size 15 to 20)
#    0.000    1.500    3.750    0.000    1.750    6.000 
#    2.250    0.000    0.000    0.000    0.000    0.000 
#    0.000    0.000    0.000    0.000    0.000    0.000 
#
# Total GULP energy -179100.191113 kJ/mol
# GULP energy per Si atom -5596.880972 kJ/mol
# Density = 2.499741 g / cm^3
# Si number density = 25.054437 Si / 1000 Ang^3
#
#
#
# Elastic Constant Matrix: (Units=GPa)
#
#
# Indices 1 2 3 4 5 6 
#
# 1 95.5914 22.7524 39.2003 0.0000 0.0000 0.0000
# 2 22.7524 108.6131 26.1128 0.0000 0.0000 0.0000
# 3 39.2003 26.1128 123.5974 0.0000 0.0000 0.0000
# 4 0.0000 0.0000 0.0000 25.7981 0.0000 0.0000
# 5 0.0000 0.0000 0.0000 0.0000 38.4070 0.0000
# 6 0.0000 0.0000 0.0000 0.0000 0.0000 31.9304
#
#
#
# Elastic Compliance Matrix: (Units=1/GPa)
#
#
# Indices 1 2 3 4 5 6 
#
# 1 0.012326 -0.001730 -0.003544 0.000000 0.000000 0.000000
# 2 -0.001730 0.009943 -0.001552 0.000000 0.000000 0.000000
# 3 -0.003544 -0.001552 0.009543 0.000000 0.000000 0.000000
# 4 0.000000 0.000000 0.000000 0.038763 0.000000 0.000000
# 5 0.000000 0.000000 0.000000 0.000000 0.026037 0.000000
# 6 0.000000 0.000000 0.000000 0.000000 0.000000 0.031318
#
#
# Mechanical properties :
#
#
# Convention : Reuss Voigt Hill
#
# Bulk Modulus (GPa) = 55.06694 55.99254 55.52974
# Shear Modulus (GPa) = 33.86756 35.20954 34.53855
#
# Velocity S-wave (km/s) = 3.68062 3.75283 3.71690
# Velocity P-wave (km/s) = 6.33160 6.41679 6.37434
#
# Compressibility (1/GPa) = 0.01815972
#
# Stress axis : x y z
#
# Youngs Moduli (GPa) = 81.12756 100.57819 104.79284
#
# Poissons Ratio (x) = 0.17401 0.37137
# Poissons Ratio (y) = 0.14036 0.16262
# Poissons Ratio (z) = 0.28751 0.15608
#
# Static dielectric constant tensor:
#      x y z
#    x 1.976890 0.000000 0.000000 
#    y 0.000000 2.036350 0.000000 
#    z 0.000000 0.000000 1.986930 
# 
# From -- ./inp_files/7166.got.cif
#   From: 2010.05.17/outbox.cif.g08.bks.cpg/sg19_4_cif.got.tgz:7166.got - 2010.06.03 22:46:19.
