data_PCOD9314117
_publ_section_title
;
Structure prediction by ZEFSAII (Michael W. Deem and Ramdas Pophale) SiO2 
 PCOD9314117
Probable space group: P 21 21 21
;
_chemical_formula_sum "Si O2"
_cell_formula_units_Z 32
_cell_length_a 9.374336
_cell_length_b 11.697473
_cell_length_c 13.426357
_cell_angle_alpha 90.000000
_cell_angle_beta 90.000000
_cell_angle_gamma 90.000000
_cell_volume 1472.281170
_symmetry_space_group_name_H-M "P 21 21 21"
_symmetry_group_IT_number 19
_symmetry_cell_setting 'orthorhombic'
loop_
_space_group_symop_operation_xyz
x,y,z
1/2-x,-y,1/2+z
1/2+x,1/2-y,-z
-x,1/2+y,1/2-z
loop_
_atom_site_type_symbol
_atom_site_label
_atom_site_fract_x
_atom_site_fract_y
_atom_site_fract_z
Si Si1 0.788191 0.015575 0.095649
Si Si2 0.110432 0.338194 0.066403
Si Si3 0.979061 0.577015 0.663465
Si Si4 0.364678 0.948842 0.126027
Si Si5 0.397299 0.331454 0.488064
Si Si6 0.375844 0.199065 0.074445
Si Si7 0.588212 0.563618 0.990983
Si Si8 0.217190 0.542420 0.181392
O O1 0.805354 0.070556 0.203555
O O2 0.938814 0.986558 0.046900
O O3 0.694078 0.095473 0.023436
O O4 0.703991 0.893857 0.093771
O O5 0.949703 0.314911 0.033572
O O6 0.208442 0.227074 0.078911
O O7 0.129644 0.425827 0.156895
O O8 0.907788 0.602073 0.768811
O O9 0.042351 0.694117 0.621351
O O10 0.874023 0.515070 0.585843
O O11 0.115980 0.491858 0.672315
O O12 0.201255 0.943440 0.097101
O O13 0.406042 0.081790 0.130380
O O14 0.450896 0.889253 0.036021
O O15 0.415167 0.196620 0.479012
O O16 0.332994 0.368796 0.595957
#
# Coordination Sequence:
#
# PCOD9314117 Si02
#       8
#     4   4   4   4   4   4   4   4
#     4  11  21  45  64  93 131 177 225 262 335 404
#     4  10  21  39  65  90 126 170 213 273 327 383
#     4  11  24  43  70  95 132 181 217 277 340 396
#     4  12  26  41  69 104 130 177 229 270 340 402
#     4  11  23  45  68  98 133 182 218 278 334 403
#     4  11  21  42  67  93 130 171 221 274 319 397
#     4  12  26  43  66 103 145 164 224 287 336 390
#     4  10  20  42  69  90 125 180 225 257 335 403
#
# _framework density 21.734978999999999
#
# number of rings (size 3 to 8) (size 9 to 14) (size 15 to 20)
#    0.000    1.000    7.500    1.500    1.750    2.000 
#    4.500    0.000    0.000    0.000    0.000    0.000 
#    0.000    0.000    0.000    0.000    0.000    0.000 
#
# Total GULP energy -178784.571286 kJ/mol
# GULP energy per Si atom -5587.017853 kJ/mol
# Density = 2.168551 g / cm^3
# Si number density = 21.734979 Si / 1000 Ang^3
#
#
#
# Elastic Constant Matrix: (Units=GPa)
#
#
# Indices 1 2 3 4 5 6 
#
# 1 41.9106 -11.5838 -16.2248 0.0000 0.0000 0.0000
# 2 -11.5838 88.9541 2.5495 0.0000 0.0000 0.0000
# 3 -16.2248 2.5495 65.3687 0.0000 0.0000 0.0000
# 4 0.0000 0.0000 0.0000 14.5366 0.0000 0.0000
# 5 0.0000 0.0000 0.0000 0.0000 24.2099 0.0000
# 6 0.0000 0.0000 0.0000 0.0000 0.0000 25.4483
#
#
#
# Elastic Compliance Matrix: (Units=1/GPa)
#
#
# Indices 1 2 3 4 5 6 
#
# 1 0.027372 0.003373 0.006662 0.000000 0.000000 0.000000
# 2 0.003373 0.011670 0.000382 0.000000 0.000000 0.000000
# 3 0.006662 0.000382 0.016937 0.000000 0.000000 0.000000
# 4 0.000000 0.000000 0.000000 0.068792 0.000000 0.000000
# 5 0.000000 0.000000 0.000000 0.000000 0.041305 0.000000
# 6 0.000000 0.000000 0.000000 0.000000 0.000000 0.039295
#
#
# Mechanical properties :
#
#
# Convention : Reuss Voigt Hill
#
# Bulk Modulus (GPa) = 13.01841 16.19059 14.60450
# Shear Modulus (GPa) = 23.79362 27.60511 25.69936
#
# Velocity S-wave (km/s) = 3.31224 3.56768 3.44233
# Velocity P-wave (km/s) = 4.54208 4.94332 4.74694
#
# Compressibility (1/GPa) = 0.07681431
#
# Stress axis : x y z
#
# Youngs Moduli (GPa) = 36.53381 85.68908 59.04396
#
# Poissons Ratio (x) = -0.28907 -0.39337
# Poissons Ratio (y) = -0.12325 -0.02256
# Poissons Ratio (z) = -0.24340 -0.03275
#
# Static dielectric constant tensor:
#      x y z
#    x 1.816250 0.000000 0.000000 
#    y 0.000000 1.806610 0.000000 
#    z 0.000000 0.000000 1.801010 
# 
# From -- ./inp_files/5903.got.cif
#   From: 2010.05.17/outbox.cif.g08.bks.cpg/sg19_3_cif.got.tgz:5903.got - 2010.06.03 22:46:19.
