data_PCOD9314216
_publ_section_title
;
Structure prediction by ZEFSAII (Michael W. Deem and Ramdas Pophale) SiO2 
 PCOD9314216
Probable space group: P 21 21 21
;
_chemical_formula_sum "Si O2"
_cell_formula_units_Z 32
_cell_length_a 12.117633
_cell_length_b 8.192043
_cell_length_c 14.243617
_cell_angle_alpha 90.000000
_cell_angle_beta 90.000000
_cell_angle_gamma 90.000000
_cell_volume 1413.937802
_symmetry_space_group_name_H-M "P 21 21 21"
_symmetry_group_IT_number 19
_symmetry_cell_setting 'orthorhombic'
loop_
_space_group_symop_operation_xyz
x,y,z
1/2-x,-y,1/2+z
1/2+x,1/2-y,-z
-x,1/2+y,1/2-z
loop_
_atom_site_type_symbol
_atom_site_label
_atom_site_fract_x
_atom_site_fract_y
_atom_site_fract_z
Si Si1 0.784151 0.056988 0.271255
Si Si2 0.000143 0.812737 0.548180
Si Si3 0.982961 0.918823 0.359068
Si Si4 0.934560 0.729521 0.037948
Si Si5 0.247520 0.365008 0.938641
Si Si6 0.593388 0.010435 0.400733
Si Si7 0.221893 0.980384 0.528578
Si Si8 0.900809 0.390431 0.332025
O O1 0.791954 0.079130 0.161007
O O2 0.833793 0.222706 0.315199
O O3 0.660037 0.034078 0.305750
O O4 0.862289 0.915822 0.314030
O O5 0.006130 0.777159 0.434245
O O6 0.009843 0.639484 0.599598
O O7 0.107498 0.918312 0.576799
O O8 0.883082 0.895097 0.563613
O O9 0.065754 0.946833 0.272519
O O10 0.998587 0.070629 0.429193
O O11 0.983787 0.854114 0.114894
O O12 0.812575 0.648817 0.024555
O O13 0.956884 0.822908 0.940891
O O14 0.312960 0.456939 0.021695
O O15 0.254481 0.170279 0.959090
O O16 0.320192 0.005084 0.601995
#
# Coordination Sequence:
#
# PCOD9314216 Si02
#       8
#     4   4   4   4   4   4   4   4
#     4  11  22  40  65  99 130 169 226 274 332 404
#     4  10  22  43  65  91 135 177 215 271 340 400
#     4  10  22  42  68 100 128 168 226 277 328 391
#     4  10  21  37  62  94 126 167 210 269 336 382
#     4  11  23  42  67  91 137 177 215 282 335 395
#     4  11  21  41  65  96 132 173 221 271 336 394
#     4  10  22  40  64  94 130 176 216 269 339 391
#     4  11  21  39  68  95 132 167 225 281 318 399
#
# _framework density 22.631830000000001
#
# number of rings (size 3 to 8) (size 9 to 14) (size 15 to 20)
#    0.000    1.500    2.500    3.750    0.000    4.000 
#    6.750    0.000    0.000    0.000    0.000    0.000 
#    0.000    0.000    0.000    0.000    0.000    0.000 
#
# Total GULP energy -178401.556696 kJ/mol
# GULP energy per Si atom -5575.048647 kJ/mol
# Density = 2.258032 g / cm^3
# Si number density = 22.631830 Si / 1000 Ang^3
#
#
#
# Elastic Constant Matrix: (Units=GPa)
#
#
# Indices 1 2 3 4 5 6 
#
# 1 66.0095 18.3254 2.9941 0.0000 0.0000 0.0000
# 2 18.3254 59.6674 7.6205 0.0000 0.0000 0.0000
# 3 2.9941 7.6205 50.0314 0.0000 0.0000 0.0000
# 4 0.0000 0.0000 0.0000 17.3779 0.0000 0.0000
# 5 0.0000 0.0000 0.0000 0.0000 45.1079 0.0000
# 6 0.0000 0.0000 0.0000 0.0000 0.0000 30.3781
#
#
#
# Elastic Compliance Matrix: (Units=1/GPa)
#
#
# Indices 1 2 3 4 5 6 
#
# 1 0.016564 -0.005059 -0.000221 0.000000 0.000000 0.000000
# 2 -0.005059 0.018637 -0.002536 0.000000 0.000000 0.000000
# 3 -0.000221 -0.002536 0.020387 0.000000 0.000000 0.000000
# 4 0.000000 0.000000 0.000000 0.057544 0.000000 0.000000
# 5 0.000000 0.000000 0.000000 0.000000 0.022169 0.000000
# 6 0.000000 0.000000 0.000000 0.000000 0.000000 0.032918
#
#
# Mechanical properties :
#
#
# Convention : Reuss Voigt Hill
#
# Bulk Modulus (GPa) = 25.02713 25.95425 25.49069
# Shear Modulus (GPa) = 25.35883 28.35734 26.85809
#
# Velocity S-wave (km/s) = 3.35101 3.54359 3.44865
# Velocity P-wave (km/s) = 5.10438 5.31372 5.21011
#
# Compressibility (1/GPa) = 0.03995664
#
# Stress axis : x y z
#
# Youngs Moduli (GPa) = 60.37256 53.65612 49.05105
#
# Poissons Ratio (x) = 0.27145 0.01083
# Poissons Ratio (y) = 0.30542 0.12439
# Poissons Ratio (z) = 0.01332 0.13607
#
# Static dielectric constant tensor:
#      x y z
#    x 1.890700 0.000000 0.000000 
#    y 0.000000 1.975480 0.000000 
#    z 0.000000 0.000000 1.846580 
# 
# From -- ./inp_files/6176.got.cif
#   From: 2010.05.17/outbox.cif.g08.bks.cpg/sg19_4_cif.got.tgz:6176.got - 2010.06.03 22:46:19.
