data_PCOD9314338
_publ_section_title
;
Structure prediction by ZEFSAII (Michael W. Deem and Ramdas Pophale) SiO2 
 PCOD9314338
Probable space group: P 21 21 21
;
_chemical_formula_sum "Si O2"
_cell_formula_units_Z 24
_cell_length_a 9.112779
_cell_length_b 11.583984
_cell_length_c 8.727815
_cell_angle_alpha 90.000000
_cell_angle_beta 90.000000
_cell_angle_gamma 90.000000
_cell_volume 921.328104
_symmetry_space_group_name_H-M "P 21 21 21"
_symmetry_group_IT_number 19
_symmetry_cell_setting 'orthorhombic'
loop_
_space_group_symop_operation_xyz
x,y,z
1/2-x,-y,1/2+z
1/2+x,1/2-y,-z
-x,1/2+y,1/2-z
loop_
_atom_site_type_symbol
_atom_site_label
_atom_site_fract_x
_atom_site_fract_y
_atom_site_fract_z
Si Si1 0.152845 0.067703 0.572168
Si Si2 0.332326 0.378618 0.345065
Si Si3 0.588251 0.990836 0.476047
Si Si4 0.588044 0.653348 0.221284
Si Si5 0.155336 0.870200 0.344432
Si Si6 0.078911 0.234793 0.005219
O O1 0.130880 0.956832 0.681608
O O2 0.174357 0.000081 0.412299
O O3 0.274405 0.135785 0.674321
O O4 0.992349 0.125641 0.573765
O O5 0.222413 0.463175 0.427954
O O6 0.352942 0.432637 0.178315
O O7 0.288716 0.244491 0.329509
O O8 0.496319 0.101202 0.422697
O O9 0.485513 0.891720 0.547609
O O10 0.484222 0.722113 0.340848
O O11 0.252388 0.787732 0.458863
O O12 0.989216 0.825263 0.372831
#
# Coordination Sequence:
#
# PCOD9314338 Si02
#       6
#     4   4   4   4   4   4
#     4  10  22  41  65  92 137 166 219 269 333 376
#     4  10  21  40  67  92 128 179 213 275 326 387
#     4  10  21  39  68  90 130 167 225 262 326 386
#     4   9  18  40  60  90 127 172 205 272 324 376
#     4  11  22  44  69  94 129 179 215 273 326 393
#     4  10  22  40  71  92 129 175 219 259 337 388
#
# _framework density 26.049351999999999
#
# number of rings (size 3 to 8) (size 9 to 14) (size 15 to 20)
#    0.000    2.000    5.000    0.000    7.000    1.333 
#    3.000    0.000    0.000    0.000    0.000    0.000 
#    0.000    0.000    0.000    0.000    0.000    0.000 
#
# Total GULP energy -134140.586029 kJ/mol
# GULP energy per Si atom -5589.191085 kJ/mol
# Density = 2.599006 g / cm^3
# Si number density = 26.049352 Si / 1000 Ang^3
#
#
#
# Elastic Constant Matrix: (Units=GPa)
#
#
# Indices 1 2 3 4 5 6 
#
# 1 73.3208 19.7480 20.1694 0.0000 0.0000 0.0000
# 2 19.7480 110.4900 3.4526 0.0000 0.0000 0.0000
# 3 20.1694 3.4526 35.5130 0.0000 0.0000 0.0000
# 4 0.0000 0.0000 0.0000 24.8762 0.0000 0.0000
# 5 0.0000 0.0000 0.0000 0.0000 41.9941 0.0000
# 6 0.0000 0.0000 0.0000 0.0000 0.0000 36.7872
#
#
#
# Elastic Compliance Matrix: (Units=1/GPa)
#
#
# Indices 1 2 3 4 5 6 
#
# 1 0.016951 -0.002737 -0.009361 0.000000 0.000000 0.000000
# 2 -0.002737 0.009520 0.000629 0.000000 0.000000 0.000000
# 3 -0.009361 0.000629 0.033414 0.000000 0.000000 0.000000
# 4 0.000000 0.000000 0.000000 0.040199 0.000000 0.000000
# 5 0.000000 0.000000 0.000000 0.000000 0.023813 0.000000
# 6 0.000000 0.000000 0.000000 0.000000 0.000000 0.027183
#
#
# Mechanical properties :
#
#
# Convention : Reuss Voigt Hill
#
# Bulk Modulus (GPa) = 27.06600 34.00709 30.53654
# Shear Modulus (GPa) = 26.83344 32.46176 29.64760
#
# Velocity S-wave (km/s) = 3.21300 3.53393 3.37728
# Velocity P-wave (km/s) = 4.91704 5.45296 5.19192
#
# Compressibility (1/GPa) = 0.03694672
#
# Stress axis : x y z
#
# Youngs Moduli (GPa) = 58.99353 105.04038 29.92746
#
# Poissons Ratio (x) = 0.28751 0.28015
# Poissons Ratio (y) = 0.16147 -0.01882
# Poissons Ratio (z) = 0.55225 -0.06607
#
# Static dielectric constant tensor:
#      x y z
#    x 2.129940 0.000000 0.000000 
#    y 0.000000 2.034340 0.000000 
#    z 0.000000 0.000000 2.067790 
# 
# From -- ./inp_files/3390.got.cif
#   From: 2010.05.17/outbox.cif.g08.bks.cpg/sg19_2_cif.got.tgz:3390.got - 2010.06.03 22:46:19.
