data_PCOD9314753
_publ_section_title
;
Structure prediction by ZEFSAII (Michael W. Deem and Ramdas Pophale) SiO2 
 PCOD9314753
Probable space group: P 21 21 21
;
_chemical_formula_sum "Si O2"
_cell_formula_units_Z 16
_cell_length_a 7.935335
_cell_length_b 8.463466
_cell_length_c 7.989958
_cell_angle_alpha 90.000000
_cell_angle_beta 90.000000
_cell_angle_gamma 90.000000
_cell_volume 536.609079
_symmetry_space_group_name_H-M "P 21 21 21"
_symmetry_group_IT_number 19
_symmetry_cell_setting 'orthorhombic'
loop_
_space_group_symop_operation_xyz
x,y,z
1/2-x,-y,1/2+z
1/2+x,1/2-y,-z
-x,1/2+y,1/2-z
loop_
_atom_site_type_symbol
_atom_site_label
_atom_site_fract_x
_atom_site_fract_y
_atom_site_fract_z
Si Si1 0.468879 0.838555 0.504143
Si Si2 0.793278 0.512504 0.784035
Si Si3 0.769037 0.248848 0.551570
Si Si4 0.827068 0.952914 0.359190
O O1 0.330483 0.861192 0.359235
O O2 0.645141 0.897733 0.434469
O O3 0.465266 0.654934 0.549539
O O4 0.385901 0.936933 0.659155
O O5 0.873669 0.359626 0.684333
O O6 0.833201 0.618246 0.948072
O O7 0.841763 0.136864 0.404428
O O8 0.685204 0.120655 0.673850
#
# Coordination Sequence:
#
# PCOD9314753 Si02
#       4
#     4   4   4   4
#     4  10  23  43  68 104 144 191 243 306 368 439
#     4   9  21  41  64  95 140 185 234 290 359 434
#     4  10  22  41  68 102 140 187 237 296 362 435
#     4  11  24  43  72 105 144 191 246 304 371 442
#
# _framework density 29.816863999999999
#
# number of rings (size 3 to 8) (size 9 to 14) (size 15 to 20)
#    0.000    2.000    0.000    1.500    0.000   16.000 
#    0.000   12.500    0.000    0.000    0.000    0.000 
#    0.000    0.000    0.000    0.000    0.000    0.000 
#
# Total GULP energy -89258.786697 kJ/mol
# GULP energy per Si atom -5578.674169 kJ/mol
# Density = 2.974900 g / cm^3
# Si number density = 29.816864 Si / 1000 Ang^3
#
#
#
# Elastic Constant Matrix: (Units=GPa)
#
#
# Indices 1 2 3 4 5 6 
#
# 1 128.4963 40.8878 28.0862 0.0000 0.0000 0.0000
# 2 40.8878 228.8237 117.7537 0.0000 0.0000 0.0000
# 3 28.0862 117.7537 198.9165 0.0000 0.0000 0.0000
# 4 0.0000 0.0000 0.0000 105.7489 0.0000 0.0000
# 5 0.0000 0.0000 0.0000 0.0000 8.7991 0.0000
# 6 0.0000 0.0000 0.0000 0.0000 0.0000 46.1493
#
#
#
# Elastic Compliance Matrix: (Units=1/GPa)
#
#
# Indices 1 2 3 4 5 6 
#
# 1 0.008276 -0.001262 -0.000422 0.000000 0.000000 0.000000
# 2 -0.001262 0.006477 -0.003656 0.000000 0.000000 0.000000
# 3 -0.000422 -0.003656 0.007251 0.000000 0.000000 0.000000
# 4 0.000000 0.000000 0.000000 0.009456 0.000000 0.000000
# 5 0.000000 0.000000 0.000000 0.000000 0.113647 0.000000
# 6 0.000000 0.000000 0.000000 0.000000 0.000000 0.021669
#
#
# Mechanical properties :
#
#
# Convention : Reuss Voigt Hill
#
# Bulk Modulus (GPa) = 88.29930 103.29910 95.79920
# Shear Modulus (GPa) = 27.58911 56.77338 42.18124
#
# Velocity S-wave (km/s) = 3.04515 4.36830 3.76530
# Velocity P-wave (km/s) = 6.48399 7.75645 7.14858
#
# Compressibility (1/GPa) = 0.01132512
#
# Stress axis : x y z
#
# Youngs Moduli (GPa) = 120.83138 154.38968 137.91039
#
# Poissons Ratio (x) = 0.19482 0.05813
# Poissons Ratio (y) = 0.15248 0.50422
# Poissons Ratio (z) = 0.05093 0.56447
#
# Static dielectric constant tensor:
#      x y z
#    x 2.316130 0.000000 0.000000 
#    y 0.000000 2.262420 0.000000 
#    z 0.000000 0.000000 2.398400 
# 
# From -- ./inp_files/2551.got.cif
#   From: 2010.05.17/outbox.cif.g08.bks.cpg/sg19_2_cif.got.tgz:2551.got - 2010.06.03 22:46:19.
