data_PCOD9314600
_publ_section_title
;
Structure prediction by ZEFSAII (Michael W. Deem and Ramdas Pophale) SiO2 
 PCOD9314600
Probable space group: P 21 21 21
;
_chemical_formula_sum "Si O2"
_cell_formula_units_Z 16
_cell_length_a 15.145839
_cell_length_b 8.027493
_cell_length_c 4.885213
_cell_angle_alpha 90.000000
_cell_angle_beta 90.000000
_cell_angle_gamma 90.000000
_cell_volume 593.959422
_symmetry_space_group_name_H-M "P 21 21 21"
_symmetry_group_IT_number 19
_symmetry_cell_setting 'orthorhombic'
loop_
_space_group_symop_operation_xyz
x,y,z
1/2-x,-y,1/2+z
1/2+x,1/2-y,-z
-x,1/2+y,1/2-z
loop_
_atom_site_type_symbol
_atom_site_label
_atom_site_fract_x
_atom_site_fract_y
_atom_site_fract_z
Si Si1 0.295217 0.932238 0.116726
Si Si2 0.901089 0.108080 0.213255
Si Si3 0.639386 0.087684 0.229562
Si Si4 0.048179 0.921940 0.954380
O O1 0.386362 0.006256 0.230366
O O2 0.276357 0.969596 0.801992
O O3 0.296751 0.736730 0.188638
O O4 0.862202 0.970582 0.419640
O O5 0.003131 0.060683 0.146629
O O6 0.905403 0.281243 0.366549
O O7 0.852327 0.075125 0.925790
O O8 0.539622 0.147976 0.304799
#
# Coordination Sequence:
#
# PCOD9314600 Si02
#       4
#     4   4   4   4
#     4  12  27  44  69 105 148 181 224 296 368 406
#     4  10  22  37  74  97 134 169 248 282 323 404
#     4  10  23  42  68 102 136 180 241 277 335 426
#     4  10  24  41  73 106 134 184 241 283 342 412
#
# _framework density 26.937864000000001
#
# number of rings (size 3 to 8) (size 9 to 14) (size 15 to 20)
#    1.500    0.000    0.000    4.500   10.500    0.000 
#    0.000    5.000    0.000    0.000    0.000    0.000 
#    0.000    0.000    0.000    0.000    0.000    0.000 
#
# Total GULP energy -89707.068594 kJ/mol
# GULP energy per Si atom -5606.691787 kJ/mol
# Density = 2.687655 g / cm^3
# Si number density = 26.937864 Si / 1000 Ang^3
#
#
#
# Elastic Constant Matrix: (Units=GPa)
#
#
# Indices 1 2 3 4 5 6 
#
# 1 104.0181 14.4697 -3.0225 0.0000 0.0000 0.0000
# 2 14.4697 79.6720 4.7996 0.0000 0.0000 0.0000
# 3 -3.0225 4.7996 97.1067 0.0000 0.0000 0.0000
# 4 0.0000 0.0000 0.0000 49.9583 0.0000 0.0000
# 5 0.0000 0.0000 0.0000 0.0000 45.0251 0.0000
# 6 0.0000 0.0000 0.0000 0.0000 0.0000 45.3235
#
#
#
# Elastic Compliance Matrix: (Units=1/GPa)
#
#
# Indices 1 2 3 4 5 6 
#
# 1 0.009878 -0.001818 0.000397 0.000000 0.000000 0.000000
# 2 -0.001818 0.012924 -0.000695 0.000000 0.000000 0.000000
# 3 0.000397 -0.000695 0.010345 0.000000 0.000000 0.000000
# 4 0.000000 0.000000 0.000000 0.020017 0.000000 0.000000
# 5 0.000000 0.000000 0.000000 0.000000 0.022210 0.000000
# 6 0.000000 0.000000 0.000000 0.000000 0.000000 0.022064
#
#
# Mechanical properties :
#
#
# Convention : Reuss Voigt Hill
#
# Bulk Modulus (GPa) = 34.58489 34.81006 34.69747
# Shear Modulus (GPa) = 44.92096 45.69804 45.30950
#
# Velocity S-wave (km/s) = 4.08803 4.12324 4.10567
# Velocity P-wave (km/s) = 5.92868 5.96812 5.94844
#
# Compressibility (1/GPa) = 0.02891436
#
# Stress axis : x y z
#
# Youngs Moduli (GPa) = 101.23357 77.37829 96.66795
#
# Poissons Ratio (x) = 0.14067 -0.03841
# Poissons Ratio (y) = 0.18404 0.06722
# Poissons Ratio (z) = -0.04022 0.05380
#
# Static dielectric constant tensor:
#      x y z
#    x 2.191530 0.000000 0.000000 
#    y 0.000000 2.079190 0.000000 
#    z 0.000000 0.000000 1.985190 
# 
# From -- ./inp_files/303.got.cif
#   From: 2010.05.17/outbox.cif.g08.bks.cpg/sg19_1_cif.got.tgz:303.got - 2010.06.03 22:46:19.
