data_PCOD9314839
_publ_section_title
;
Structure prediction by ZEFSAII (Michael W. Deem and Ramdas Pophale) SiO2 
 PCOD9314839
Probable space group: P 21 21 21
;
_chemical_formula_sum "Si O2"
_cell_formula_units_Z 28
_cell_length_a 16.655269
_cell_length_b 6.100630
_cell_length_c 12.978592
_cell_angle_alpha 90.000000
_cell_angle_beta 90.000000
_cell_angle_gamma 90.000000
_cell_volume 1318.724022
_symmetry_space_group_name_H-M "P 21 21 21"
_symmetry_group_IT_number 19
_symmetry_cell_setting 'orthorhombic'
loop_
_space_group_symop_operation_xyz
x,y,z
1/2-x,-y,1/2+z
1/2+x,1/2-y,-z
-x,1/2+y,1/2-z
loop_
_atom_site_type_symbol
_atom_site_label
_atom_site_fract_x
_atom_site_fract_y
_atom_site_fract_z
Si Si1 0.116301 0.918371 0.318423
Si Si2 0.249015 0.890584 0.460815
Si Si3 0.678761 0.035311 0.189059
Si Si4 0.435448 0.427618 0.677237
Si Si5 0.477949 0.590992 0.205195
Si Si6 0.901046 0.289682 0.535064
Si Si7 0.296057 0.759894 0.679300
O O1 0.160561 0.961827 0.425860
O O2 0.097397 0.671958 0.283840
O O3 0.175710 0.018006 0.232890
O O4 0.029148 0.026974 0.314304
O O5 0.274915 0.724544 0.370559
O O6 0.248398 0.788048 0.573757
O O7 0.320111 0.067220 0.463534
O O8 0.617873 0.106653 0.279543
O O9 0.623984 0.924782 0.100350
O O10 0.741445 0.868593 0.239237
O O11 0.423650 0.265144 0.581260
O O12 0.378384 0.632490 0.654422
O O13 0.496392 0.333836 0.243526
O O14 0.525121 0.602127 0.096977
#
# Coordination Sequence:
#
# PCOD9314839 Si02
#       7
#     4   4   4   4   4   4   4
#     4  12  26  46  72 103 143 186 242 301 370 448
#     4  12  24  45  72 103 137 187 239 302 373 440
#     4  11  23  44  69  99 144 179 237 307 368 439
#     4  12  25  46  71  98 142 189 236 299 366 446
#     4  10  22  42  70 103 141 187 236 302 376 445
#     4  11  23  44  70  99 140 184 235 302 371 443
#     4  12  25  45  72 101 141 188 237 303 368 437
#
# _framework density 21.232648000000001
#
# number of rings (size 3 to 8) (size 9 to 14) (size 15 to 20)
#    0.000    0.571    8.571    0.000    0.000    0.000 
#   23.143    0.000    0.000    0.000    0.000    0.000 
#    0.000    0.000    0.000    0.000    0.000    0.000 
#
# Total GULP energy -156106.053029 kJ/mol
# GULP energy per Si atom -5575.216180 kJ/mol
# Density = 2.118432 g / cm^3
# Si number density = 21.232648 Si / 1000 Ang^3
#
#
#
# Elastic Constant Matrix: (Units=GPa)
#
#
# Indices 1 2 3 4 5 6 
#
# 1 61.8285 -2.2504 23.5165 0.0000 0.0000 0.0000
# 2 -2.2504 46.4385 6.9505 0.0000 0.0000 0.0000
# 3 23.5165 6.9505 69.7666 0.0000 0.0000 0.0000
# 4 0.0000 0.0000 0.0000 32.1803 0.0000 0.0000
# 5 0.0000 0.0000 0.0000 0.0000 34.3310 0.0000
# 6 0.0000 0.0000 0.0000 0.0000 0.0000 39.2503
#
#
#
# Elastic Compliance Matrix: (Units=1/GPa)
#
#
# Indices 1 2 3 4 5 6 
#
# 1 0.018712 0.001879 -0.006495 0.000000 0.000000 0.000000
# 2 0.001879 0.022048 -0.002830 0.000000 0.000000 0.000000
# 3 -0.006495 -0.002830 0.016805 0.000000 0.000000 0.000000
# 4 0.000000 0.000000 0.000000 0.031075 0.000000 0.000000
# 5 0.000000 0.000000 0.000000 0.000000 0.029128 0.000000
# 6 0.000000 0.000000 0.000000 0.000000 0.000000 0.025478
#
#
# Mechanical properties :
#
#
# Convention : Reuss Voigt Hill
#
# Bulk Modulus (GPa) = 23.43342 26.05187 24.74265
# Shear Modulus (GPa) = 29.00869 31.14011 30.07440
#
# Velocity S-wave (km/s) = 3.70027 3.83380 3.76762
# Velocity P-wave (km/s) = 5.41446 5.64745 5.53218
#
# Compressibility (1/GPa) = 0.04267409
#
# Stress axis : x y z
#
# Youngs Moduli (GPa) = 53.44055 45.35467 59.50755
#
# Poissons Ratio (x) = -0.08521 0.38648
# Poissons Ratio (y) = -0.10041 0.16840
# Poissons Ratio (z) = 0.34708 0.12835
#
# Static dielectric constant tensor:
#      x y z
#    x 1.751970 0.000000 0.000000 
#    y 0.000000 1.844280 0.000000 
#    z 0.000000 0.000000 1.752240 
# 
# From -- ./inp_files/1033.got.cif
#   From: 2010.05.17/outbox.cif.g08.bks.cpg/sg19_1_cif.got.tgz:1033.got - 2010.06.03 22:46:19.
