data_PCOD9314336
_publ_section_title
;
Structure prediction by ZEFSAII (Michael W. Deem and Ramdas Pophale) SiO2 
 PCOD9314336
Probable space group: P 21 21 21
;
_chemical_formula_sum "Si O2"
_cell_formula_units_Z 28
_cell_length_a 9.811738
_cell_length_b 6.151910
_cell_length_c 18.415375
_cell_angle_alpha 90.000000
_cell_angle_beta 90.000000
_cell_angle_gamma 90.000000
_cell_volume 1111.569145
_symmetry_space_group_name_H-M "P 21 21 21"
_symmetry_group_IT_number 19
_symmetry_cell_setting 'orthorhombic'
loop_
_space_group_symop_operation_xyz
x,y,z
1/2-x,-y,1/2+z
1/2+x,1/2-y,-z
-x,1/2+y,1/2-z
loop_
_atom_site_type_symbol
_atom_site_label
_atom_site_fract_x
_atom_site_fract_y
_atom_site_fract_z
Si Si1 0.210951 0.201942 0.301485
Si Si2 0.507463 0.277501 0.345865
Si Si3 0.779362 0.435146 0.332106
Si Si4 0.970083 0.067276 0.388873
Si Si5 0.345615 0.827388 0.533720
Si Si6 0.286537 0.550727 0.404248
Si Si7 0.086314 0.367642 0.503772
O O1 0.372961 0.167643 0.313710
O O2 0.111747 0.040221 0.345643
O O3 0.197373 0.449169 0.336070
O O4 0.180912 0.136689 0.219062
O O5 0.640123 0.334231 0.300383
O O6 0.438603 0.498213 0.377726
O O7 0.568916 0.137961 0.411222
O O8 0.756867 0.514037 0.415563
O O9 0.891172 0.247919 0.341089
O O10 0.016281 0.165394 0.465689
O O11 0.873421 0.874886 0.413316
O O12 0.288343 0.766081 0.454194
O O13 0.494903 0.931347 0.523746
O O14 0.233379 0.385011 0.467087
#
# Coordination Sequence:
#
# PCOD9314336 Si02
#       7
#     4   4   4   4   4   4   4
#     4   9  23  45  66  94 138 191 229 282 360 420
#     4  10  22  44  67  94 145 175 231 293 344 424
#     4  11  25  44  67 102 142 189 233 296 366 424
#     4  10  21  44  68  97 135 169 236 300 339 431
#     4  11  23  38  73 105 130 180 236 293 358 411
#     4   9  21  40  65  98 136 174 232 290 335 421
#     4  10  21  39  68 100 130 174 225 290 358 403
#
# _framework density 25.189616000000001
#
# number of rings (size 3 to 8) (size 9 to 14) (size 15 to 20)
#    0.857    1.143    1.429    0.857    6.000    1.143 
#    5.143    2.857    0.000    0.000    0.000    0.000 
#    0.000    0.000    0.000    0.000    0.000    0.000 
#
# Total GULP energy -155898.037671 kJ/mol
# GULP energy per Si atom -5567.787060 kJ/mol
# Density = 2.513228 g / cm^3
# Si number density = 25.189616 Si / 1000 Ang^3
#
#
#
# Elastic Constant Matrix: (Units=GPa)
#
#
# Indices 1 2 3 4 5 6 
#
# 1 82.2676 7.6658 2.0196 0.0000 0.0000 0.0000
# 2 7.6658 31.7001 31.0294 0.0000 0.0000 0.0000
# 3 2.0196 31.0294 98.6889 0.0000 0.0000 0.0000
# 4 0.0000 0.0000 0.0000 41.3778 0.0000 0.0000
# 5 0.0000 0.0000 0.0000 0.0000 14.3128 0.0000
# 6 0.0000 0.0000 0.0000 0.0000 0.0000 22.8872
#
#
#
# Elastic Compliance Matrix: (Units=1/GPa)
#
#
# Indices 1 2 3 4 5 6 
#
# 1 0.012504 -0.004006 0.001004 0.000000 0.000000 0.000000
# 2 -0.004006 0.046854 -0.014650 0.000000 0.000000 0.000000
# 3 0.001004 -0.014650 0.014718 0.000000 0.000000 0.000000
# 4 0.000000 0.000000 0.000000 0.024168 0.000000 0.000000
# 5 0.000000 0.000000 0.000000 0.000000 0.069867 0.000000
# 6 0.000000 0.000000 0.000000 0.000000 0.000000 0.043692
#
#
# Mechanical properties :
#
#
# Convention : Reuss Voigt Hill
#
# Bulk Modulus (GPa) = 25.79169 32.67625 29.23397
# Shear Modulus (GPa) = 19.22835 27.17836 23.20335
#
# Velocity S-wave (km/s) = 2.76587 3.28830 3.03833
# Velocity P-wave (km/s) = 4.52341 5.23617 4.89279
#
# Compressibility (1/GPa) = 0.03877218
#
# Stress axis : x y z
#
# Youngs Moduli (GPa) = 79.97364 21.34281 67.94207
#
# Poissons Ratio (x) = 0.08551 -0.06820
# Poissons Ratio (y) = 0.32040 0.99533
# Poissons Ratio (z) = -0.08027 0.31267
#
# Static dielectric constant tensor:
#      x y z
#    x 1.977110 0.000000 0.000000 
#    y 0.000000 2.077980 0.000000 
#    z 0.000000 0.000000 2.003280 
# 
# From -- ./inp_files/7116.got.cif
#   From: 2010.05.17/outbox.cif.g08.bks.cpg/sg19_4_cif.got.tgz:7116.got - 2010.06.03 22:46:19.
