data_PCOD9314904
_publ_section_title
;
Structure prediction by ZEFSAII (Michael W. Deem and Ramdas Pophale) SiO2 
 PCOD9314904
Probable space group: P 21 21 21
;
_chemical_formula_sum "Si O2"
_cell_formula_units_Z 32
_cell_length_a 7.217624
_cell_length_b 11.714556
_cell_length_c 18.603763
_cell_angle_alpha 90.000000
_cell_angle_beta 90.000000
_cell_angle_gamma 90.000000
_cell_volume 1572.971612
_symmetry_space_group_name_H-M "P 21 21 21"
_symmetry_group_IT_number 19
_symmetry_cell_setting 'orthorhombic'
loop_
_space_group_symop_operation_xyz
x,y,z
1/2-x,-y,1/2+z
1/2+x,1/2-y,-z
-x,1/2+y,1/2-z
loop_
_atom_site_type_symbol
_atom_site_label
_atom_site_fract_x
_atom_site_fract_y
_atom_site_fract_z
Si Si1 0.559212 0.411599 0.456738
Si Si2 0.823377 0.513052 0.800053
Si Si3 0.595253 0.468824 0.007609
Si Si4 0.918762 0.165700 0.864034
Si Si5 0.181471 0.347628 0.537254
Si Si6 0.726464 0.738932 0.716651
Si Si7 0.843933 0.945346 0.801508
Si Si8 0.593149 0.320226 0.877036
O O1 0.562689 0.449149 0.372392
O O2 0.688932 0.504301 0.496512
O O3 0.363408 0.394096 0.496407
O O4 0.655455 0.287571 0.463511
O O5 0.728850 0.627762 0.767987
O O6 0.676575 0.417886 0.824599
O O7 0.958076 0.458898 0.739391
O O8 0.538680 0.410883 0.081899
O O9 0.489914 0.588476 0.000234
O O10 0.520149 0.386291 0.945929
O O11 0.770524 0.246360 0.900668
O O12 0.070281 0.234375 0.819358
O O13 0.801263 0.078450 0.814369
O O14 0.165688 0.387260 0.620137
O O15 0.717827 0.861475 0.755444
O O16 0.561792 0.742916 0.659680
#
# Coordination Sequence:
#
# PCOD9314904 Si02
#       8
#     4   4   4   4   4   4   4   4
#     4  11  22  42  71 100 137 177 224 286 339 403
#     4  10  23  46  66  97 137 176 223 282 342 397
#     4  10  25  43  64 100 136 178 227 268 343 407
#     4  10  24  44  63  95 136 172 221 279 335 395
#     4  11  22  42  69 101 137 173 224 281 340 402
#     4  11  23  42  69  95 131 173 224 274 332 409
#     4  10  22  44  65  94 135 176 218 273 342 397
#     4  11  25  41  69  98 131 177 229 271 337 404
#
# _framework density 20.343661000000001
#
# number of rings (size 3 to 8) (size 9 to 14) (size 15 to 20)
#    0.000    1.500    3.750    0.000    5.250    2.000 
#    6.750    5.000    0.000    0.000    0.000    0.000 
#    0.000    0.000    0.000    0.000    0.000    0.000 
#
# Total GULP energy -178369.441285 kJ/mol
# GULP energy per Si atom -5574.045040 kJ/mol
# Density = 2.029736 g / cm^3
# Si number density = 20.343661 Si / 1000 Ang^3
#
#
#
# Elastic Constant Matrix: (Units=GPa)
#
#
# Indices 1 2 3 4 5 6 
#
# 1 49.2479 22.7544 21.0781 0.0000 0.0000 0.0000
# 2 22.7544 61.9142 24.4987 0.0000 0.0000 0.0000
# 3 21.0781 24.4987 62.4548 0.0000 0.0000 0.0000
# 4 0.0000 0.0000 0.0000 35.3973 0.0000 0.0000
# 5 0.0000 0.0000 0.0000 0.0000 22.3799 0.0000
# 6 0.0000 0.0000 0.0000 0.0000 0.0000 26.3345
#
#
#
# Elastic Compliance Matrix: (Units=1/GPa)
#
#
# Indices 1 2 3 4 5 6 
#
# 1 0.026232 -0.007265 -0.006003 0.000000 0.000000 0.000000
# 2 -0.007265 0.021131 -0.005837 0.000000 0.000000 0.000000
# 3 -0.006003 -0.005837 0.020327 0.000000 0.000000 0.000000
# 4 0.000000 0.000000 0.000000 0.028251 0.000000 0.000000
# 5 0.000000 0.000000 0.000000 0.000000 0.044683 0.000000
# 6 0.000000 0.000000 0.000000 0.000000 0.000000 0.037973
#
#
# Mechanical properties :
#
#
# Convention : Reuss Voigt Hill
#
# Bulk Modulus (GPa) = 33.92210 34.47549 34.19880
# Shear Modulus (GPa) = 22.06204 23.84138 22.95171
#
# Velocity S-wave (km/s) = 3.29670 3.42706 3.36251
# Velocity P-wave (km/s) = 5.58585 5.71341 5.64999
#
# Compressibility (1/GPa) = 0.02947931
#
# Stress axis : x y z
#
# Youngs Moduli (GPa) = 38.12198 47.32370 49.19501
#
# Poissons Ratio (x) = 0.34381 0.29533
# Poissons Ratio (y) = 0.27696 0.28715
# Poissons Ratio (z) = 0.22885 0.27623
#
# Static dielectric constant tensor:
#      x y z
#    x 1.694440 0.000000 0.000000 
#    y 0.000000 1.738960 0.000000 
#    z 0.000000 0.000000 1.787680 
# 
# From -- ./inp_files/6903.got.cif
#   From: 2010.05.17/outbox.cif.g08.bks.cpg/sg19_4_cif.got.tgz:6903.got - 2010.06.03 22:46:19.
