data_PCOD9314788
_publ_section_title
;
Structure prediction by ZEFSAII (Michael W. Deem and Ramdas Pophale) SiO2 
 PCOD9314788
Probable space group: P 21 21 21
;
_chemical_formula_sum "Si O2"
_cell_formula_units_Z 20
_cell_length_a 9.302046
_cell_length_b 17.661323
_cell_length_c 4.966659
_cell_angle_alpha 90.000000
_cell_angle_beta 90.000000
_cell_angle_gamma 90.000000
_cell_volume 815.954721
_symmetry_space_group_name_H-M "P 21 21 21"
_symmetry_group_IT_number 19
_symmetry_cell_setting 'orthorhombic'
loop_
_space_group_symop_operation_xyz
x,y,z
1/2-x,-y,1/2+z
1/2+x,1/2-y,-z
-x,1/2+y,1/2-z
loop_
_atom_site_type_symbol
_atom_site_label
_atom_site_fract_x
_atom_site_fract_y
_atom_site_fract_z
Si Si1 0.908866 0.230250 0.699216
Si Si2 0.854260 0.085795 0.356346
Si Si3 0.683825 0.321041 0.973734
Si Si4 0.055203 0.497914 0.643583
Si Si5 0.178649 0.883742 0.010728
O O1 0.874263 0.168922 0.473191
O O2 0.925789 0.312326 0.559169
O O3 0.043095 0.206281 0.876641
O O4 0.773692 0.246145 0.893550
O O5 0.687735 0.060603 0.382532
O O6 0.904497 0.066631 0.056083
O O7 0.940832 0.029354 0.555521
O O8 0.770452 0.372524 0.186416
O O9 0.688265 0.367215 0.693053
O O10 0.907781 0.458626 0.559166
#
# Coordination Sequence:
#
# PCOD9314788 Si02
#       5
#     4   4   4   4   4
#     4  10  26  40  69 101 132 171 228 273 327 403
#     4  10  23  38  69  95 136 169 230 264 333 399
#     4  10  25  38  66  98 131 170 220 268 338 379
#     4  10  22  42  63 100 130 179 212 282 329 388
#     4  10  24  40  67  92 137 169 218 271 333 385
#
# _framework density 24.511164999999998
#
# number of rings (size 3 to 8) (size 9 to 14) (size 15 to 20)
#    1.200    0.800    0.000    1.200   11.200    1.600 
#    0.000    4.000    0.000    0.000    0.000    0.000 
#    0.000    0.000    0.000    0.000    0.000    0.000 
#
# Total GULP energy -111969.757129 kJ/mol
# GULP energy per Si atom -5598.487856 kJ/mol
# Density = 2.445538 g / cm^3
# Si number density = 24.511165 Si / 1000 Ang^3
#
#
#
# Elastic Constant Matrix: (Units=GPa)
#
#
# Indices 1 2 3 4 5 6 
#
# 1 74.7243 35.5440 16.1337 0.0000 0.0000 0.0000
# 2 35.5440 70.2498 -0.1686 0.0000 0.0000 0.0000
# 3 16.1337 -0.1686 95.2303 0.0000 0.0000 0.0000
# 4 0.0000 0.0000 0.0000 27.0347 0.0000 0.0000
# 5 0.0000 0.0000 0.0000 0.0000 37.4433 0.0000
# 6 0.0000 0.0000 0.0000 0.0000 0.0000 33.3910
#
#
#
# Elastic Compliance Matrix: (Units=1/GPa)
#
#
# Indices 1 2 3 4 5 6 
#
# 1 0.018526 -0.009381 -0.003155 0.000000 0.000000 0.000000
# 2 -0.009381 0.018985 0.001623 0.000000 0.000000 0.000000
# 3 -0.003155 0.001623 0.011038 0.000000 0.000000 0.000000
# 4 0.000000 0.000000 0.000000 0.036990 0.000000 0.000000
# 5 0.000000 0.000000 0.000000 0.000000 0.026707 0.000000
# 6 0.000000 0.000000 0.000000 0.000000 0.000000 0.029948
#
#
# Mechanical properties :
#
#
# Convention : Reuss Voigt Hill
#
# Bulk Modulus (GPa) = 37.42124 38.13588 37.77856
# Shear Modulus (GPa) = 28.91358 32.15347 30.53352
#
# Velocity S-wave (km/s) = 3.43827 3.62579 3.53327
# Velocity P-wave (km/s) = 5.57337 5.75507 5.66495
#
# Compressibility (1/GPa) = 0.02672279
#
# Stress axis : x y z
#
# Youngs Moduli (GPa) = 53.97787 52.67219 90.59376
#
# Poissons Ratio (x) = 0.49413 0.28585
# Poissons Ratio (y) = 0.50637 -0.14703
# Poissons Ratio (z) = 0.17031 -0.08548
#
# Static dielectric constant tensor:
#      x y z
#    x 1.980810 0.000000 0.000000 
#    y 0.000000 1.944450 0.000000 
#    z 0.000000 0.000000 1.882860 
# 
# From -- ./inp_files/397.got.cif
#   From: 2010.05.17/outbox.cif.g08.bks.cpg/sg19_1_cif.got.tgz:397.got - 2010.06.03 22:46:19.
