data_PCOD9314900
_publ_section_title
;
Structure prediction by ZEFSAII (Michael W. Deem and Ramdas Pophale) SiO2 
 PCOD9314900
Probable space group: P 21 21 21
;
_chemical_formula_sum "Si O2"
_cell_formula_units_Z 32
_cell_length_a 22.665239
_cell_length_b 10.422324
_cell_length_c 5.144863
_cell_angle_alpha 90.000000
_cell_angle_beta 90.000000
_cell_angle_gamma 90.000000
_cell_volume 1215.342507
_symmetry_space_group_name_H-M "P 21 21 21"
_symmetry_group_IT_number 19
_symmetry_cell_setting 'orthorhombic'
loop_
_space_group_symop_operation_xyz
x,y,z
1/2-x,-y,1/2+z
1/2+x,1/2-y,-z
-x,1/2+y,1/2-z
loop_
_atom_site_type_symbol
_atom_site_label
_atom_site_fract_x
_atom_site_fract_y
_atom_site_fract_z
Si Si1 0.891007 0.410566 0.097734
Si Si2 0.976432 0.491334 0.494599
Si Si3 0.333858 0.853215 0.977113
Si Si4 0.099857 0.230303 0.949603
Si Si5 0.914137 0.232399 0.708867
Si Si6 0.702589 0.695429 0.953333
Si Si7 0.781973 0.050391 0.172030
Si Si8 0.083532 0.500211 0.172845
O O1 0.857621 0.509730 0.910966
O O2 0.910200 0.268212 0.014165
O O3 0.948071 0.480455 0.205998
O O4 0.840903 0.403794 0.317041
O O5 0.950985 0.624387 0.604397
O O6 0.951222 0.360547 0.621820
O O7 0.044893 0.498901 0.434808
O O8 0.357692 0.758572 0.200646
O O9 0.263944 0.854938 0.942125
O O10 0.363740 0.815661 0.704345
O O11 0.073290 0.366442 0.025633
O O12 0.843437 0.240349 0.650121
O O13 0.932348 0.113979 0.530168
O O14 0.719886 0.799417 0.735616
O O15 0.739288 0.984262 0.385234
O O16 0.848180 0.006778 0.241529
#
# Coordination Sequence:
#
# PCOD9314900 Si02
#       8
#     4   4   4   4   4   4   4   4
#     4  10  23  41  65  97 141 179 236 296 343 412
#     4  10  22  47  65  99 138 183 236 294 347 419
#     4  11  24  43  70 101 143 186 229 291 349 421
#     4  11  24  46  67 104 142 179 237 291 350 413
#     4  10  22  44  64 101 139 178 237 300 341 421
#     4  10  24  37  68  96 133 183 232 281 351 413
#     4  11  25  46  66 100 144 176 224 289 343 422
#     4  11  24  44  75  98 136 190 233 282 366 419
#
# _framework density 26.330024000000002
#
# number of rings (size 3 to 8) (size 9 to 14) (size 15 to 20)
#    0.000    1.500    1.250    2.250    7.000    0.000 
#   13.500    0.000    0.000    0.000    0.000    0.000 
#    0.000    0.000    0.000    0.000    0.000    0.000 
#
# Total GULP energy -178999.710435 kJ/mol
# GULP energy per Si atom -5593.740951 kJ/mol
# Density = 2.627010 g / cm^3
# Si number density = 26.330024 Si / 1000 Ang^3
#
#
#
# Elastic Constant Matrix: (Units=GPa)
#
#
# Indices 1 2 3 4 5 6 
#
# 1 108.6138 32.4036 21.9552 0.0000 0.0000 0.0000
# 2 32.4036 121.2255 5.7573 0.0000 0.0000 0.0000
# 3 21.9552 5.7573 79.7147 0.0000 0.0000 0.0000
# 4 0.0000 0.0000 0.0000 22.1022 0.0000 0.0000
# 5 0.0000 0.0000 0.0000 0.0000 28.0798 0.0000
# 6 0.0000 0.0000 0.0000 0.0000 0.0000 34.6799
#
#
#
# Elastic Compliance Matrix: (Units=1/GPa)
#
#
# Indices 1 2 3 4 5 6 
#
# 1 0.010559 -0.002694 -0.002714 0.000000 0.000000 0.000000
# 2 -0.002694 0.008965 0.000094 0.000000 0.000000 0.000000
# 3 -0.002714 0.000094 0.013285 0.000000 0.000000 0.000000
# 4 0.000000 0.000000 0.000000 0.045244 0.000000 0.000000
# 5 0.000000 0.000000 0.000000 0.000000 0.035613 0.000000
# 6 0.000000 0.000000 0.000000 0.000000 0.000000 0.028835
#
#
# Mechanical properties :
#
#
# Convention : Reuss Voigt Hill
#
# Bulk Modulus (GPa) = 45.07886 47.75403 46.41645
# Shear Modulus (GPa) = 31.14851 33.60158 32.37505
#
# Velocity S-wave (km/s) = 3.44321 3.57623 3.51035
# Velocity P-wave (km/s) = 5.74156 5.93537 5.83927
#
# Compressibility (1/GPa) = 0.02218335
#
# Stress axis : x y z
#
# Youngs Moduli (GPa) = 94.70536 111.54993 75.27103
#
# Poissons Ratio (x) = 0.30047 0.20426
# Poissons Ratio (y) = 0.25509 -0.00711
# Poissons Ratio (z) = 0.25700 -0.01053
#
# Static dielectric constant tensor:
#      x y z
#    x 2.016210 0.000000 0.000000 
#    y 0.000000 2.190880 0.000000 
#    z 0.000000 0.000000 2.184280 
# 
# From -- ./inp_files/2026.got.cif
#   From: 2010.05.17/outbox.cif.g08.bks.cpg/sg19_2_cif.got.tgz:2026.got - 2010.06.03 22:46:19.
