data_PCOD9314349
_publ_section_title
;
Structure prediction by ZEFSAII (Michael W. Deem and Ramdas Pophale) SiO2 
 PCOD9314349
Probable space group: P 21 21 21
;
_chemical_formula_sum "Si O2"
_cell_formula_units_Z 32
_cell_length_a 7.565131
_cell_length_b 13.782170
_cell_length_c 12.302096
_cell_angle_alpha 90.000000
_cell_angle_beta 90.000000
_cell_angle_gamma 90.000000
_cell_volume 1282.664772
_symmetry_space_group_name_H-M "P 21 21 21"
_symmetry_group_IT_number 19
_symmetry_cell_setting 'orthorhombic'
loop_
_space_group_symop_operation_xyz
x,y,z
1/2-x,-y,1/2+z
1/2+x,1/2-y,-z
-x,1/2+y,1/2-z
loop_
_atom_site_type_symbol
_atom_site_label
_atom_site_fract_x
_atom_site_fract_y
_atom_site_fract_z
Si Si1 0.332020 0.770262 0.148496
Si Si2 0.420318 0.592357 0.290509
Si Si3 0.162670 0.129239 0.998958
Si Si4 0.260559 0.647276 0.510703
Si Si5 0.078383 0.245232 0.400890
Si Si6 0.210814 0.948444 0.887732
Si Si7 0.346130 0.582631 0.751547
Si Si8 0.299720 0.036081 0.634165
O O1 0.393919 0.702522 0.245778
O O2 0.353205 0.886544 0.159748
O O3 0.121472 0.753529 0.140019
O O4 0.409948 0.741730 0.031158
O O5 0.385592 0.598010 0.420093
O O6 0.578947 0.559987 0.211412
O O7 0.273125 0.512502 0.259552
O O8 0.222960 0.238152 0.993356
O O9 0.246429 0.062712 0.904774
O O10 0.948335 0.121879 0.999061
O O11 0.232103 0.076412 0.108077
O O12 0.325491 0.622444 0.630755
O O13 0.146377 0.136351 0.376942
O O14 0.189065 0.327986 0.336290
O O15 0.137444 0.931182 0.011436
O O16 0.540469 0.547255 0.784788
#
# Coordination Sequence:
#
# PCOD9314349 Si02
#       8
#     4   4   4   4   4   4   4   4
#     4  10  21  39  71  99 130 176 231 280 335 405
#     4  12  23  40  67  99 135 186 230 270 344 415
#     4  10  23  48  63  97 137 175 222 292 346 407
#     4  12  27  42  69  96 138 186 224 277 356 419
#     4  10  22  41  71 102 131 175 230 286 335 400
#     4   9  20  44  68  94 139 175 219 292 336 395
#     4  11  22  40  67  97 133 185 227 267 342 413
#     4   8  18  40  68  90 131 172 213 284 336 388
#
# _framework density 24.948062
#
# number of rings (size 3 to 8) (size 9 to 14) (size 15 to 20)
#    0.750    1.000    2.500    2.250    7.000    0.000 
#    2.250    1.250    0.000    0.000    0.000    0.000 
#    0.000    0.000    0.000    0.000    0.000    0.000 
#
# Total GULP energy -178799.662134 kJ/mol
# GULP energy per Si atom -5587.489442 kJ/mol
# Density = 2.489128 g / cm^3
# Si number density = 24.948062 Si / 1000 Ang^3
#
#
#
# Elastic Constant Matrix: (Units=GPa)
#
#
# Indices 1 2 3 4 5 6 
#
# 1 35.6284 3.8627 -3.4385 0.0000 0.0000 0.0000
# 2 3.8627 98.4441 25.8371 0.0000 0.0000 0.0000
# 3 -3.4385 25.8371 147.2271 0.0000 0.0000 0.0000
# 4 0.0000 0.0000 0.0000 13.0708 0.0000 0.0000
# 5 0.0000 0.0000 0.0000 0.0000 19.4732 0.0000
# 6 0.0000 0.0000 0.0000 0.0000 0.0000 40.5896
#
#
#
# Elastic Compliance Matrix: (Units=1/GPa)
#
#
# Indices 1 2 3 4 5 6 
#
# 1 0.028300 -0.001346 0.000897 0.000000 0.000000 0.000000
# 2 -0.001346 0.010713 -0.001911 0.000000 0.000000 0.000000
# 3 0.000897 -0.001911 0.007149 0.000000 0.000000 0.000000
# 4 0.000000 0.000000 0.000000 0.076506 0.000000 0.000000
# 5 0.000000 0.000000 0.000000 0.000000 0.051353 0.000000
# 6 0.000000 0.000000 0.000000 0.000000 0.000000 0.024637
#
#
# Mechanical properties :
#
#
# Convention : Reuss Voigt Hill
#
# Bulk Modulus (GPa) = 24.13079 37.09135 30.61107
# Shear Modulus (GPa) = 23.02124 31.62927 27.32526
#
# Velocity S-wave (km/s) = 3.04100 3.56449 3.31310
# Velocity P-wave (km/s) = 4.69294 5.64274 5.18961
#
# Compressibility (1/GPa) = 0.04144083
#
# Stress axis : x y z
#
# Youngs Moduli (GPa) = 35.33574 93.34880 139.88726
#
# Poissons Ratio (x) = 0.12564 -0.12550
# Poissons Ratio (y) = 0.04756 0.26738
# Poissons Ratio (z) = -0.03170 0.17843
#
# Static dielectric constant tensor:
#      x y z
#    x 2.121890 0.000000 0.000000 
#    y 0.000000 2.078790 0.000000 
#    z 0.000000 0.000000 1.972090 
# 
# From -- ./inp_files/4683.got.cif
#   From: 2010.05.17/outbox.cif.g08.bks.cpg/sg19_3_cif.got.tgz:4683.got - 2010.06.03 22:46:19.
