data_PCOD9314532
_publ_section_title
;
Structure prediction by ZEFSAII (Michael W. Deem and Ramdas Pophale) SiO2 
 PCOD9314532
Probable space group: P 21 21 21
;
_chemical_formula_sum "Si O2"
_cell_formula_units_Z 32
_cell_length_a 18.529832
_cell_length_b 5.955790
_cell_length_c 11.256349
_cell_angle_alpha 90.000000
_cell_angle_beta 90.000000
_cell_angle_gamma 90.000000
_cell_volume 1242.248291
_symmetry_space_group_name_H-M "P 21 21 21"
_symmetry_group_IT_number 19
_symmetry_cell_setting 'orthorhombic'
loop_
_space_group_symop_operation_xyz
x,y,z
1/2-x,-y,1/2+z
1/2+x,1/2-y,-z
-x,1/2+y,1/2-z
loop_
_atom_site_type_symbol
_atom_site_label
_atom_site_fract_x
_atom_site_fract_y
_atom_site_fract_z
Si Si1 0.984968 0.945236 0.693664
Si Si2 0.260919 0.704490 0.120037
Si Si3 0.172230 0.621793 0.767327
Si Si4 0.352717 0.060300 0.470504
Si Si5 0.625943 0.562173 0.446950
Si Si6 0.150526 0.356961 0.100951
Si Si7 0.464353 0.257675 0.613963
Si Si8 0.609246 0.434422 0.693697
O O1 0.901553 0.008206 0.690864
O O2 0.012416 0.182785 0.758658
O O3 0.040666 0.937301 0.582921
O O4 0.273278 0.584917 0.246491
O O5 0.199999 0.882876 0.082832
O O6 0.334717 0.826195 0.085962
O O7 0.219897 0.495742 0.058896
O O8 0.157512 0.746747 0.640604
O O9 0.184146 0.827876 0.857818
O O10 0.432322 0.161143 0.491680
O O11 0.365238 0.802848 0.491426
O O12 0.641274 0.583360 0.587399
O O13 0.081965 0.515189 0.125643
O O14 0.158977 0.225633 0.226306
O O15 0.548769 0.283965 0.628054
O O16 0.435787 0.088101 0.715146
#
# Coordination Sequence:
#
# PCOD9314532 Si02
#       8
#     4   4   4   4   4   4   4   4
#     4  10  21  45  69 103 147 191 240 302 376 454
#     4  11  24  46  66 101 139 192 243 298 367 450
#     4  11  24  46  69 103 145 188 242 305 381 451
#     4  10  24  45  70  97 138 193 242 297 375 451
#     4  11  25  42  68 106 148 184 245 306 376 449
#     4  10  23  45  68 100 139 187 245 299 370 446
#     4  10  21  43  71 101 141 187 240 300 369 443
#     4  11  22  42  69 107 141 186 241 309 368 444
#
# _framework density 25.759746
#
# number of rings (size 3 to 8) (size 9 to 14) (size 15 to 20)
#    0.000    1.500    2.500    1.500    1.750    3.000 
#   13.500    0.000    0.000    0.000    0.000    0.000 
#    0.000    0.000    0.000    0.000    0.000    0.000 
#
# Total GULP energy -178303.863670 kJ/mol
# GULP energy per Si atom -5571.995740 kJ/mol
# Density = 2.570112 g / cm^3
# Si number density = 25.759746 Si / 1000 Ang^3
#
#
#
# Elastic Constant Matrix: (Units=GPa)
#
#
# Indices 1 2 3 4 5 6 
#
# 1 61.7679 7.2792 3.8440 0.0000 0.0000 0.0000
# 2 7.2792 62.1026 30.1551 0.0000 0.0000 0.0000
# 3 3.8440 30.1551 70.7340 0.0000 0.0000 0.0000
# 4 0.0000 0.0000 0.0000 37.5579 0.0000 0.0000
# 5 0.0000 0.0000 0.0000 0.0000 24.7125 0.0000
# 6 0.0000 0.0000 0.0000 0.0000 0.0000 46.3181
#
#
#
# Elastic Compliance Matrix: (Units=1/GPa)
#
#
# Indices 1 2 3 4 5 6 
#
# 1 0.016417 -0.001880 -0.000091 0.000000 0.000000 0.000000
# 2 -0.001880 0.020521 -0.008646 0.000000 0.000000 0.000000
# 3 -0.000091 -0.008646 0.017828 0.000000 0.000000 0.000000
# 4 0.000000 0.000000 0.000000 0.026626 0.000000 0.000000
# 5 0.000000 0.000000 0.000000 0.000000 0.040465 0.000000
# 6 0.000000 0.000000 0.000000 0.000000 0.000000 0.021590
#
#
# Mechanical properties :
#
#
# Convention : Reuss Voigt Hill
#
# Bulk Modulus (GPa) = 29.82214 30.79567 30.30891
# Shear Modulus (GPa) = 28.43188 31.93944 30.18566
#
# Velocity S-wave (km/s) = 3.32585 3.52504 3.42689
# Velocity P-wave (km/s) = 5.13328 5.34310 5.23924
#
# Compressibility (1/GPa) = 0.03353213
#
# Stress axis : x y z
#
# Youngs Moduli (GPa) = 60.91299 48.73020 56.09007
#
# Poissons Ratio (x) = 0.09163 0.00508
# Poissons Ratio (y) = 0.11453 0.48497
# Poissons Ratio (z) = 0.00552 0.42134
#
# Static dielectric constant tensor:
#      x y z
#    x 2.058710 0.000000 0.000000 
#    y 0.000000 2.128180 0.000000 
#    z 0.000000 0.000000 2.095870 
# 
# From -- ./inp_files/5478.got.cif
#   From: 2010.05.17/outbox.cif.g08.bks.cpg/sg19_3_cif.got.tgz:5478.got - 2010.06.03 22:46:19.
