data_PCOD9314075
_publ_section_title
;
Structure prediction by ZEFSAII (Michael W. Deem and Ramdas Pophale) SiO2 
 PCOD9314075
Probable space group: P 21 21 21
;
_chemical_formula_sum "Si O2"
_cell_formula_units_Z 32
_cell_length_a 22.645067
_cell_length_b 5.423972
_cell_length_c 11.244360
_cell_angle_alpha 90.000000
_cell_angle_beta 90.000000
_cell_angle_gamma 90.000000
_cell_volume 1381.102115
_symmetry_space_group_name_H-M "P 21 21 21"
_symmetry_group_IT_number 19
_symmetry_cell_setting 'orthorhombic'
loop_
_space_group_symop_operation_xyz
x,y,z
1/2-x,-y,1/2+z
1/2+x,1/2-y,-z
-x,1/2+y,1/2-z
loop_
_atom_site_type_symbol
_atom_site_label
_atom_site_fract_x
_atom_site_fract_y
_atom_site_fract_z
Si Si1 0.621111 0.252894 0.735214
Si Si2 0.690099 0.732376 0.445362
Si Si3 0.738784 0.512018 0.773078
Si Si4 0.381072 0.727928 0.028386
Si Si5 0.422557 0.974430 0.526844
Si Si6 0.339969 0.354230 0.578788
Si Si7 0.012442 0.462680 0.679747
Si Si8 0.306048 0.737341 0.407143
O O1 0.679136 0.420163 0.708479
O O2 0.592230 0.217279 0.606752
O O3 0.650313 0.024763 0.805873
O O4 0.579264 0.362529 0.839722
O O5 0.723742 0.719814 0.319108
O O6 0.644281 0.503876 0.451076
O O7 0.743922 0.684166 0.534941
O O8 0.664850 0.000636 0.472483
O O9 0.706657 0.653963 0.879953
O O10 0.789526 0.692773 0.724721
O O11 0.426350 0.648181 0.131222
O O12 0.476385 0.955595 0.438173
O O13 0.365002 0.866560 0.457129
O O14 0.404766 0.256092 0.548414
O O15 0.315375 0.467523 0.457929
O O16 0.983350 0.218946 0.744078
#
# Coordination Sequence:
#
# PCOD9314075 Si02
#       8
#     4   4   4   4   4   4   4   4
#     4  10  22  44  71 107 144 188 244 321 373 459
#     4  12  24  44  68 111 154 192 242 297 390 454
#     4  11  22  37  64 104 151 193 238 297 374 465
#     4  12  28  48  74 109 151 198 251 317 378 441
#     4  10  25  46  73 105 141 199 254 312 383 444
#     4  10  20  41  65 102 145 191 243 307 374 458
#     4  12  31  58  78 107 153 202 268 325 371 461
#     4  11  22  38  69 105 149 193 240 306 377 462
#
# _framework density 23.169902
#
# number of rings (size 3 to 8) (size 9 to 14) (size 15 to 20)
#    0.000    1.000    5.000    2.250    8.750    1.000 
#    2.250    0.000    0.000    0.000    0.000    0.000 
#    0.000    0.000    0.000    0.000    0.000    0.000 
#
# Total GULP energy -178258.715713 kJ/mol
# GULP energy per Si atom -5570.584866 kJ/mol
# Density = 2.311717 g / cm^3
# Si number density = 23.169902 Si / 1000 Ang^3
#
#
#
# Elastic Constant Matrix: (Units=GPa)
#
#
# Indices 1 2 3 4 5 6 
#
# 1 29.2100 -3.8541 -9.6992 0.0000 0.0000 0.0000
# 2 -3.8541 62.8488 -0.2448 0.0000 0.0000 0.0000
# 3 -9.6992 -0.2448 54.4462 0.0000 0.0000 0.0000
# 4 0.0000 0.0000 0.0000 77.0852 0.0000 0.0000
# 5 0.0000 0.0000 0.0000 0.0000 158.8011 0.0000
# 6 0.0000 0.0000 0.0000 0.0000 0.0000 22.5278
#
#
#
# Elastic Compliance Matrix: (Units=1/GPa)
#
#
# Indices 1 2 3 4 5 6 
#
# 1 0.036710 0.002277 0.006550 0.000000 0.000000 0.000000
# 2 0.002277 0.016053 0.000478 0.000000 0.000000 0.000000
# 3 0.006550 0.000478 0.019536 0.000000 0.000000 0.000000
# 4 0.000000 0.000000 0.000000 0.012973 0.000000 0.000000
# 5 0.000000 0.000000 0.000000 0.000000 0.006297 0.000000
# 6 0.000000 0.000000 0.000000 0.000000 0.000000 0.044390
#
#
# Mechanical properties :
#
#
# Convention : Reuss Voigt Hill
#
# Bulk Modulus (GPa) = 11.00024 13.21211 12.10617
# Shear Modulus (GPa) = 33.86347 62.36968 48.11657
#
# Velocity S-wave (km/s) = 3.82714 5.19392 4.56201
# Velocity P-wave (km/s) = 4.92821 6.45630 5.74330
#
# Compressibility (1/GPa) = 0.09090709
#
# Stress axis : x y z
#
# Youngs Moduli (GPa) = 27.24044 62.29491 51.18834
#
# Poissons Ratio (x) = -0.14183 -0.33528
# Poissons Ratio (y) = -0.06202 -0.02446
# Poissons Ratio (z) = -0.17842 -0.02976
#
# Static dielectric constant tensor:
#      x y z
#    x 1.858910 0.000000 0.000000 
#    y 0.000000 1.975490 0.000000 
#    z 0.000000 0.000000 2.006280 
# 
# From -- ./inp_files/5481.got.cif
#   From: 2010.05.17/outbox.cif.g08.bks.cpg/sg19_3_cif.got.tgz:5481.got - 2010.06.03 22:46:19.
