data_PCOD9314264
_publ_section_title
;
Structure prediction by ZEFSAII (Michael W. Deem and Ramdas Pophale) SiO2 
 PCOD9314264
Probable space group: P 21 21 21
;
_chemical_formula_sum "Si O2"
_cell_formula_units_Z 28
_cell_length_a 8.360303
_cell_length_b 6.654260
_cell_length_c 24.545817
_cell_angle_alpha 90.000000
_cell_angle_beta 90.000000
_cell_angle_gamma 90.000000
_cell_volume 1365.523805
_symmetry_space_group_name_H-M "P 21 21 21"
_symmetry_group_IT_number 19
_symmetry_cell_setting 'orthorhombic'
loop_
_space_group_symop_operation_xyz
x,y,z
1/2-x,-y,1/2+z
1/2+x,1/2-y,-z
-x,1/2+y,1/2-z
loop_
_atom_site_type_symbol
_atom_site_label
_atom_site_fract_x
_atom_site_fract_y
_atom_site_fract_z
Si Si1 0.171898 0.170727 0.293745
Si Si2 0.808055 0.937798 0.008300
Si Si3 0.587850 0.281349 0.970215
Si Si4 0.888747 0.290045 0.132467
Si Si5 0.805377 0.605214 0.915429
Si Si6 0.330151 0.436401 0.380690
Si Si7 0.886265 0.459899 0.310292
O O1 0.295454 0.313099 0.325555
O O2 0.011648 0.302802 0.284816
O O3 0.130538 0.992458 0.335081
O O4 0.217341 0.065451 0.236878
O O5 0.788215 0.859762 0.070363
O O6 0.785595 0.774143 0.961648
O O7 0.977740 0.050467 0.001214
O O8 0.669952 0.106055 0.003756
O O9 0.467281 0.182094 0.926612
O O10 0.729590 0.401672 0.939953
O O11 0.723865 0.166417 0.128193
O O12 0.007792 0.135086 0.162448
O O13 0.710534 0.643391 0.859174
O O14 0.989958 0.585695 0.900078
#
# Coordination Sequence:
#
# PCOD9314264 Si02
#       7
#     4   4   4   4   4   4   4
#     4  11  20  40  63  86 117 161 200 256 294 356
#     4  11  22  40  63  90 125 165 200 250 306 371
#     4  10  22  36  61  89 119 160 203 242 305 365
#     4   9  20  39  61  88 117 156 205 249 301 362
#     4  11  23  41  59  92 125 159 202 252 303 370
#     4  10  24  38  58  92 126 156 202 245 307 368
#     4  10  21  38  65  89 115 159 210 248 304 360
#
# _framework density 20.504951999999999
#
# number of rings (size 3 to 8) (size 9 to 14) (size 15 to 20)
#    0.000    1.714    1.429    3.429    0.000    6.857 
#    2.571    0.000    0.000    0.000    0.000    0.000 
#    0.000    0.000    0.000    0.000    0.000    0.000 
#
# Total GULP energy -156381.732129 kJ/mol
# GULP energy per Si atom -5585.061862 kJ/mol
# Density = 2.045828 g / cm^3
# Si number density = 20.504952 Si / 1000 Ang^3
#
#
#
# Elastic Constant Matrix: (Units=GPa)
#
#
# Indices 1 2 3 4 5 6 
#
# 1 49.2750 -1.8844 -10.3327 0.0000 0.0000 0.0000
# 2 -1.8844 18.1118 -0.8214 0.0000 0.0000 0.0000
# 3 -10.3327 -0.8214 71.9028 0.0000 0.0000 0.0000
# 4 0.0000 0.0000 0.0000 41.3038 0.0000 0.0000
# 5 0.0000 0.0000 0.0000 0.0000 26.1202 0.0000
# 6 0.0000 0.0000 0.0000 0.0000 0.0000 19.4537
#
#
#
# Elastic Compliance Matrix: (Units=1/GPa)
#
#
# Indices 1 2 3 4 5 6 
#
# 1 0.021022 0.002325 0.003048 0.000000 0.000000 0.000000
# 2 0.002325 0.055498 0.000968 0.000000 0.000000 0.000000
# 3 0.003048 0.000968 0.014357 0.000000 0.000000 0.000000
# 4 0.000000 0.000000 0.000000 0.024211 0.000000 0.000000
# 5 0.000000 0.000000 0.000000 0.000000 0.038284 0.000000
# 6 0.000000 0.000000 0.000000 0.000000 0.000000 0.051404
#
#
# Mechanical properties :
#
#
# Convention : Reuss Voigt Hill
#
# Bulk Modulus (GPa) = 9.65629 12.57920 11.11775
# Shear Modulus (GPa) = 22.06391 27.53077 24.79734
#
# Velocity S-wave (km/s) = 3.28385 3.66818 3.48132
# Velocity P-wave (km/s) = 4.37009 4.90803 4.64685
#
# Compressibility (1/GPa) = 0.10355942
#
# Stress axis : x y z
#
# Youngs Moduli (GPa) = 47.56870 18.01851 69.65404
#
# Poissons Ratio (x) = -0.04190 -0.21227
# Poissons Ratio (y) = -0.11061 -0.06743
# Poissons Ratio (z) = -0.14497 -0.01744
#
# Static dielectric constant tensor:
#      x y z
#    x 1.732900 0.000000 0.000000 
#    y 0.000000 1.712800 0.000000 
#    z 0.000000 0.000000 1.772500 
# 
# From -- ./inp_files/548.got.cif
#   From: 2010.05.17/outbox.cif.g08.bks.cpg/sg19_1_cif.got.tgz:548.got - 2010.06.03 22:46:19.
