data_PCOD9314797
_publ_section_title
;
Structure prediction by ZEFSAII (Michael W. Deem and Ramdas Pophale) SiO2 
 PCOD9314797
Probable space group: P 21 21 21
;
_chemical_formula_sum "Si O2"
_cell_formula_units_Z 32
_cell_length_a 8.264061
_cell_length_b 17.650511
_cell_length_c 9.338688
_cell_angle_alpha 90.000000
_cell_angle_beta 90.000000
_cell_angle_gamma 90.000000
_cell_volume 1362.186787
_symmetry_space_group_name_H-M "P 21 21 21"
_symmetry_group_IT_number 19
_symmetry_cell_setting 'orthorhombic'
loop_
_space_group_symop_operation_xyz
x,y,z
1/2-x,-y,1/2+z
1/2+x,1/2-y,-z
-x,1/2+y,1/2-z
loop_
_atom_site_type_symbol
_atom_site_label
_atom_site_fract_x
_atom_site_fract_y
_atom_site_fract_z
Si Si1 0.437568 0.788710 0.589414
Si Si2 0.427811 0.103236 0.313155
Si Si3 0.788091 0.033156 0.314049
Si Si4 0.723022 0.452250 0.162533
Si Si5 0.736891 0.674007 0.909080
Si Si6 0.395544 0.151273 0.007459
Si Si7 0.383497 0.426999 0.999759
Si Si8 0.026356 0.678632 0.106974
O O1 0.282245 0.810908 0.497743
O O2 0.480017 0.701420 0.579047
O O3 0.591344 0.838737 0.536583
O O4 0.414060 0.813667 0.752741
O O5 0.608117 0.069140 0.317752
O O6 0.372533 0.139867 0.461930
O O7 0.436937 0.155245 0.173664
O O8 0.294848 0.037119 0.280338
O O9 0.852377 0.030393 0.151161
O O10 0.897255 0.095233 0.394049
O O11 0.757386 0.953836 0.393760
O O12 0.746159 0.389733 0.286464
O O13 0.868136 0.432876 0.053558
O O14 0.556076 0.445730 0.072412
O O15 0.656986 0.754652 0.871657
O O16 0.915544 0.689606 0.969653
#
# Coordination Sequence:
#
# PCOD9314797 Si02
#       8
#     4   4   4   4   4   4   4   4
#     4  10  22  42  64  95 132 167 219 272 332 399
#     4  11  24  42  66 100 132 175 222 278 334 401
#     4  10  23  44  66  96 137 173 227 278 337 407
#     4  10  23  44  67  95 132 178 222 274 331 399
#     4  12  24  44  70  98 138 177 227 281 339 407
#     4  11  22  42  68  94 130 171 219 268 333 397
#     4   9  22  41  65  94 133 173 222 274 337 399
#     4  11  24  43  66  98 132 174 220 281 337 395
#
# _framework density 23.49164
#
# number of rings (size 3 to 8) (size 9 to 14) (size 15 to 20)
#    0.000    1.500    2.500    1.500    7.000    2.000 
#    0.000    1.250    0.000    0.000    0.000    0.000 
#    0.000    0.000    0.000    0.000    0.000    0.000 
#
# Total GULP energy -178782.486995 kJ/mol
# GULP energy per Si atom -5586.952719 kJ/mol
# Density = 2.343817 g / cm^3
# Si number density = 23.491640 Si / 1000 Ang^3
#
#
#
# Elastic Constant Matrix: (Units=GPa)
#
#
# Indices 1 2 3 4 5 6 
#
# 1 62.3006 3.6698 16.1911 0.0000 0.0000 0.0000
# 2 3.6698 62.3206 15.8871 0.0000 0.0000 0.0000
# 3 16.1911 15.8871 90.3720 0.0000 0.0000 0.0000
# 4 0.0000 0.0000 0.0000 33.6624 0.0000 0.0000
# 5 0.0000 0.0000 0.0000 0.0000 20.0974 0.0000
# 6 0.0000 0.0000 0.0000 0.0000 0.0000 34.5460
#
#
#
# Elastic Compliance Matrix: (Units=1/GPa)
#
#
# Indices 1 2 3 4 5 6 
#
# 1 0.016838 -0.000233 -0.002976 0.000000 0.000000 0.000000
# 2 -0.000233 0.016802 -0.002912 0.000000 0.000000 0.000000
# 3 -0.002976 -0.002912 0.012110 0.000000 0.000000 0.000000
# 4 0.000000 0.000000 0.000000 0.029707 0.000000 0.000000
# 5 0.000000 0.000000 0.000000 0.000000 0.049758 0.000000
# 6 0.000000 0.000000 0.000000 0.000000 0.000000 0.028947
#
#
# Mechanical properties :
#
#
# Convention : Reuss Voigt Hill
#
# Bulk Modulus (GPa) = 29.84242 31.83213 30.83727
# Shear Modulus (GPa) = 28.15737 29.61085 28.88411
#
# Velocity S-wave (km/s) = 3.46585 3.55418 3.51030
# Velocity P-wave (km/s) = 5.36164 5.51568 5.43921
#
# Compressibility (1/GPa) = 0.03350934
#
# Stress axis : x y z
#
# Youngs Moduli (GPa) = 59.38842 59.51631 82.57335
#
# Poissons Ratio (x) = 0.01386 0.24572
# Poissons Ratio (y) = 0.01383 0.24046
# Poissons Ratio (z) = 0.17673 0.17331
#
# Static dielectric constant tensor:
#      x y z
#    x 1.902150 0.000000 0.000000 
#    y 0.000000 1.924570 0.000000 
#    z 0.000000 0.000000 1.891100 
# 
# From -- ./inp_files/3181.got.cif
#   From: 2010.05.17/outbox.cif.g08.bks.cpg/sg19_2_cif.got.tgz:3181.got - 2010.06.03 22:46:19.
