data_PCOD9314540
_publ_section_title
;
Structure prediction by ZEFSAII (Michael W. Deem and Ramdas Pophale) SiO2 
 PCOD9314540
Probable space group: P 21 21 21
;
_chemical_formula_sum "Si O2"
_cell_formula_units_Z 32
_cell_length_a 5.313283
_cell_length_b 15.193673
_cell_length_c 13.007661
_cell_angle_alpha 90.000000
_cell_angle_beta 90.000000
_cell_angle_gamma 90.000000
_cell_volume 1050.086157
_symmetry_space_group_name_H-M "P 21 21 21"
_symmetry_group_IT_number 19
_symmetry_cell_setting 'orthorhombic'
loop_
_space_group_symop_operation_xyz
x,y,z
1/2-x,-y,1/2+z
1/2+x,1/2-y,-z
-x,1/2+y,1/2-z
loop_
_atom_site_type_symbol
_atom_site_label
_atom_site_fract_x
_atom_site_fract_y
_atom_site_fract_z
Si Si1 0.608423 0.268471 0.895049
Si Si2 0.033537 0.369784 0.795168
Si Si3 0.714478 0.902392 0.498024
Si Si4 0.712099 0.877440 0.189102
Si Si5 0.776088 0.469199 0.291817
Si Si6 0.918464 0.220980 0.321511
Si Si7 0.181256 0.135420 0.526540
Si Si8 0.718304 0.101212 0.441023
O O1 0.534138 0.344321 0.976688
O O2 0.395805 0.277392 0.806122
O O3 0.881476 0.291847 0.849870
O O4 0.617719 0.170616 0.939527
O O5 0.174455 0.420504 0.887400
O O6 0.194997 0.367093 0.688825
O O7 0.793694 0.432598 0.762286
O O8 0.706119 0.994973 0.440100
O O9 0.460338 0.909732 0.246063
O O10 0.947201 0.934505 0.230483
O O11 0.822809 0.780206 0.185332
O O12 0.647490 0.889352 0.066333
O O13 0.759882 0.457878 0.415438
O O14 0.731386 0.289142 0.384293
O O15 0.454851 0.144945 0.470355
O O16 0.005488 0.152759 0.420312
#
# Coordination Sequence:
#
# PCOD9314540 Si02
#       8
#     4   4   4   4   4   4   4   4
#     4  11  25  46  76 114 160 217 270 359 421 510
#     4  11  24  45  75 110 156 207 265 348 417 499
#     4  11  23  46  79 114 152 217 283 334 425 511
#     4  10  23  46  73 106 156 210 266 334 407 506
#     4  10  21  43  78 107 143 207 268 330 395 496
#     4  11  30  47  71 118 170 211 271 355 436 492
#     4  10  21  44  76 109 142 209 270 337 390 505
#     4  12  25  47  78 116 159 208 279 347 413 511
#
# _framework density 30.473693000000001
#
# number of rings (size 3 to 8) (size 9 to 14) (size 15 to 20)
#    0.750    0.500    3.750    0.750    7.000    1.000 
#    2.250    0.000    0.000    0.000    0.000    0.000 
#    0.000    0.000    0.000    0.000    0.000    0.000 
#
# Total GULP energy -178973.150114 kJ/mol
# GULP energy per Si atom -5592.910941 kJ/mol
# Density = 3.040433 g / cm^3
# Si number density = 30.473693 Si / 1000 Ang^3
#
#
#
# Elastic Constant Matrix: (Units=GPa)
#
#
# Indices 1 2 3 4 5 6 
#
# 1 197.1462 40.0724 73.3125 0.0000 0.0000 0.0000
# 2 40.0724 207.5750 89.7348 0.0000 0.0000 0.0000
# 3 73.3125 89.7348 180.2252 0.0000 0.0000 0.0000
# 4 0.0000 0.0000 0.0000 50.4294 0.0000 0.0000
# 5 0.0000 0.0000 0.0000 0.0000 85.4118 0.0000
# 6 0.0000 0.0000 0.0000 0.0000 0.0000 53.0459
#
#
#
# Elastic Compliance Matrix: (Units=1/GPa)
#
#
# Indices 1 2 3 4 5 6 
#
# 1 0.005979 -0.000131 -0.002367 0.000000 0.000000 0.000000
# 2 -0.000131 0.006142 -0.003005 0.000000 0.000000 0.000000
# 3 -0.002367 -0.003005 0.008008 0.000000 0.000000 0.000000
# 4 0.000000 0.000000 0.000000 0.019830 0.000000 0.000000
# 5 0.000000 0.000000 0.000000 0.000000 0.011708 0.000000
# 6 0.000000 0.000000 0.000000 0.000000 0.000000 0.018852
#
#
# Mechanical properties :
#
#
# Convention : Reuss Voigt Hill
#
# Bulk Modulus (GPa) = 109.61272 110.13177 109.87224
# Shear Modulus (GPa) = 59.12659 63.23252 61.17956
#
# Velocity S-wave (km/s) = 4.40961 4.56014 4.48551
# Velocity P-wave (km/s) = 7.87235 7.99656 7.93470
#
# Compressibility (1/GPa) = 0.00912303
#
# Stress axis : x y z
#
# Youngs Moduli (GPa) = 167.24571 162.81952 124.88246
#
# Poissons Ratio (x) = 0.02133 0.29560
# Poissons Ratio (y) = 0.02191 0.37524
# Poissons Ratio (z) = 0.39587 0.48923
#
# Static dielectric constant tensor:
#      x y z
#    x 2.596950 0.000000 0.000000 
#    y 0.000000 2.440640 0.000000 
#    z 0.000000 0.000000 2.521860 
# 
# From -- ./inp_files/6969.got.cif
#   From: 2010.05.17/outbox.cif.g08.bks.cpg/sg19_4_cif.got.tgz:6969.got - 2010.06.03 22:46:19.
