data_PCOD9314575
_publ_section_title
;
Structure prediction by ZEFSAII (Michael W. Deem and Ramdas Pophale) SiO2 
 PCOD9314575
Probable space group: P 21 21 21
;
_chemical_formula_sum "Si O2"
_cell_formula_units_Z 28
_cell_length_a 5.932484
_cell_length_b 15.688456
_cell_length_c 13.226556
_cell_angle_alpha 90.000000
_cell_angle_beta 90.000000
_cell_angle_gamma 90.000000
_cell_volume 1231.015595
_symmetry_space_group_name_H-M "P 21 21 21"
_symmetry_group_IT_number 19
_symmetry_cell_setting 'orthorhombic'
loop_
_space_group_symop_operation_xyz
x,y,z
1/2-x,-y,1/2+z
1/2+x,1/2-y,-z
-x,1/2+y,1/2-z
loop_
_atom_site_type_symbol
_atom_site_label
_atom_site_fract_x
_atom_site_fract_y
_atom_site_fract_z
Si Si1 0.093657 0.472584 0.768961
Si Si2 0.776333 0.867394 0.900629
Si Si3 0.641778 0.975015 0.543164
Si Si4 0.879462 0.214762 0.965558
Si Si5 0.199276 0.344471 0.238185
Si Si6 0.194292 0.932591 0.197176
Si Si7 0.522871 0.806436 0.076307
O O1 0.212799 0.393250 0.715950
O O2 0.131228 0.467710 0.889262
O O3 0.202950 0.560248 0.730197
O O4 0.833772 0.493066 0.747299
O O5 0.945930 0.790182 0.918822
O O6 0.558926 0.835543 0.961472
O O7 0.838900 0.954737 0.956790
O O8 0.586702 0.882613 0.501771
O O9 0.467882 0.015485 0.622777
O O10 0.816449 0.213054 0.845802
O O11 0.630316 0.243817 0.013041
O O12 0.256487 0.315560 0.352258
O O13 0.935576 0.365996 0.230172
O O14 0.350250 0.870631 0.130329
#
# Coordination Sequence:
#
# PCOD9314575 Si02
#       7
#     4   4   4   4   4   4   4
#     4  10  23  44  72 103 139 193 243 313 368 462
#     4  12  23  44  70 103 147 193 241 303 393 450
#     4  11  24  48  69 106 142 191 255 302 385 455
#     4  12  31  48  76 107 149 205 256 320 380 456
#     4  10  23  47  69 105 145 189 242 317 376 442
#     4  10  21  46  77 100 148 189 244 318 374 452
#     4  11  25  43  69 110 152 188 249 319 378 469
#
# _framework density 22.745448
#
# number of rings (size 3 to 8) (size 9 to 14) (size 15 to 20)
#    0.000    1.143    5.714    0.857    8.000    0.000 
#   10.286    0.000    0.000    0.000    0.000    0.000 
#    0.000    0.000    0.000    0.000    0.000    0.000 
#
# Total GULP energy -156019.868892 kJ/mol
# GULP energy per Si atom -5572.138175 kJ/mol
# Density = 2.269368 g / cm^3
# Si number density = 22.745448 Si / 1000 Ang^3
#
#
#
# Elastic Constant Matrix: (Units=GPa)
#
#
# Indices 1 2 3 4 5 6 
#
# 1 59.4215 19.7368 17.3443 0.0000 0.0000 0.0000
# 2 19.7368 123.1355 20.5804 0.0000 0.0000 0.0000
# 3 17.3443 20.5804 54.9408 0.0000 0.0000 0.0000
# 4 0.0000 0.0000 0.0000 38.8405 0.0000 0.0000
# 5 0.0000 0.0000 0.0000 0.0000 20.7505 0.0000
# 6 0.0000 0.0000 0.0000 0.0000 0.0000 32.3044
#
#
#
# Elastic Compliance Matrix: (Units=1/GPa)
#
#
# Indices 1 2 3 4 5 6 
#
# 1 0.019074 -0.002188 -0.005202 0.000000 0.000000 0.000000
# 2 -0.002188 0.008914 -0.002649 0.000000 0.000000 0.000000
# 3 -0.005202 -0.002649 0.020836 0.000000 0.000000 0.000000
# 4 0.000000 0.000000 0.000000 0.025746 0.000000 0.000000
# 5 0.000000 0.000000 0.000000 0.000000 0.048192 0.000000
# 6 0.000000 0.000000 0.000000 0.000000 0.000000 0.030956
#
#
# Mechanical properties :
#
#
# Convention : Reuss Voigt Hill
#
# Bulk Modulus (GPa) = 34.78569 39.20232 36.99401
# Shear Modulus (GPa) = 27.26622 30.36815 28.81719
#
# Velocity S-wave (km/s) = 3.46606 3.65791 3.56328
# Velocity P-wave (km/s) = 5.59864 5.92563 5.76445
#
# Compressibility (1/GPa) = 0.02874745
#
# Stress axis : x y z
#
# Youngs Moduli (GPa) = 52.42747 112.17687 47.99436
#
# Poissons Ratio (x) = 0.24543 0.24966
# Poissons Ratio (y) = 0.11470 0.12712
# Poissons Ratio (z) = 0.27272 0.29711
#
# Static dielectric constant tensor:
#      x y z
#    x 2.075570 0.000000 0.000000 
#    y 0.000000 1.811050 0.000000 
#    z 0.000000 0.000000 1.891020 
# 
# From -- ./inp_files/5717.got.cif
#   From: 2010.05.17/outbox.cif.g08.bks.cpg/sg19_3_cif.got.tgz:5717.got - 2010.06.03 22:46:19.
