data_PCOD9314933
_publ_section_title
;
Structure prediction by ZEFSAII (Michael W. Deem and Ramdas Pophale) SiO2 
 PCOD9314933
Probable space group: P 21 21 21
;
_chemical_formula_sum "Si O2"
_cell_formula_units_Z 32
_cell_length_a 18.763235
_cell_length_b 12.887652
_cell_length_c 6.169088
_cell_angle_alpha 90.000000
_cell_angle_beta 90.000000
_cell_angle_gamma 90.000000
_cell_volume 1491.772111
_symmetry_space_group_name_H-M "P 21 21 21"
_symmetry_group_IT_number 19
_symmetry_cell_setting 'orthorhombic'
loop_
_space_group_symop_operation_xyz
x,y,z
1/2-x,-y,1/2+z
1/2+x,1/2-y,-z
-x,1/2+y,1/2-z
loop_
_atom_site_type_symbol
_atom_site_label
_atom_site_fract_x
_atom_site_fract_y
_atom_site_fract_z
Si Si1 0.444415 0.039025 0.098498
Si Si2 0.686485 0.455223 0.132219
Si Si3 0.952012 0.238624 0.105045
Si Si4 0.655951 0.800788 0.953723
Si Si5 0.914905 0.049210 0.798100
Si Si6 0.767035 0.957518 0.811561
Si Si7 0.230064 0.153595 0.488906
Si Si8 0.091789 0.130976 0.256925
O O1 0.370204 0.011706 0.212224
O O2 0.509988 0.003161 0.247531
O O3 0.451097 0.159638 0.042505
O O4 0.444481 0.963807 0.887768
O O5 0.722399 0.358072 0.252779
O O6 0.747194 0.537209 0.075136
O O7 0.638613 0.416000 0.935946
O O8 0.899668 0.260022 0.305882
O O9 0.031456 0.210023 0.181286
O O10 0.923846 0.133825 0.988339
O O11 0.716215 0.858176 0.812441
O O12 0.706051 0.725095 0.092453
O O13 0.610968 0.881241 0.094580
O O14 0.852600 0.964798 0.830501
O O15 0.753410 0.000234 0.561101
O O16 0.152656 0.184014 0.404096
#
# Coordination Sequence:
#
# PCOD9314933 Si02
#       8
#     4   4   4   4   4   4   4   4
#     4  11  25  43  69  98 134 186 232 290 361 428
#     4  11  22  42  67  94 137 173 227 294 347 421
#     4  12  24  44  72  99 138 187 234 292 374 439
#     4  11  24  44  68  99 137 183 235 292 361 445
#     4  11  23  46  68  99 140 178 243 297 352 442
#     4  10  22  44  71 102 141 188 234 300 364 427
#     4  11  24  41  67  98 132 179 233 282 360 425
#     4  11  24  46  64 103 139 172 234 299 347 437
#
# _framework density 21.450996
#
# number of rings (size 3 to 8) (size 9 to 14) (size 15 to 20)
#    0.000    1.000    5.000    1.500    1.750    2.000 
#   11.250    0.000    0.000    0.000    0.000    0.000 
#    0.000    0.000    0.000    0.000    0.000    0.000 
#
# Total GULP energy -178375.985735 kJ/mol
# GULP energy per Si atom -5574.249554 kJ/mol
# Density = 2.140217 g / cm^3
# Si number density = 21.450996 Si / 1000 Ang^3
#
#
#
# Elastic Constant Matrix: (Units=GPa)
#
#
# Indices 1 2 3 4 5 6 
#
# 1 122.8226 17.7034 8.5179 0.0000 0.0000 0.0000
# 2 17.7034 26.2662 -0.9394 0.0000 0.0000 0.0000
# 3 8.5179 -0.9394 50.3126 0.0000 0.0000 0.0000
# 4 0.0000 0.0000 0.0000 14.4977 0.0000 0.0000
# 5 0.0000 0.0000 0.0000 0.0000 42.6124 0.0000
# 6 0.0000 0.0000 0.0000 0.0000 0.0000 23.4416
#
#
#
# Elastic Compliance Matrix: (Units=1/GPa)
#
#
# Indices 1 2 3 4 5 6 
#
# 1 0.009155 -0.006230 -0.001666 0.000000 0.000000 0.000000
# 2 -0.006230 0.042337 0.001845 0.000000 0.000000 0.000000
# 3 -0.001666 0.001845 0.020192 0.000000 0.000000 0.000000
# 4 0.000000 0.000000 0.000000 0.068976 0.000000 0.000000
# 5 0.000000 0.000000 0.000000 0.000000 0.023467 0.000000
# 6 0.000000 0.000000 0.000000 0.000000 0.000000 0.042659
#
#
# Mechanical properties :
#
#
# Convention : Reuss Voigt Hill
#
# Bulk Modulus (GPa) = 16.78363 27.77393 22.27878
# Shear Modulus (GPa) = 20.94231 27.71831 24.33031
#
# Velocity S-wave (km/s) = 3.12795 3.59857 3.37148
# Velocity P-wave (km/s) = 4.57018 5.49928 5.05612
#
# Compressibility (1/GPa) = 0.05958188
#
# Stress axis : x y z
#
# Youngs Moduli (GPa) = 109.22500 23.61998 49.52384
#
# Poissons Ratio (x) = 0.14716 0.08252
# Poissons Ratio (y) = 0.68051 -0.09138
# Poissons Ratio (z) = 0.18201 -0.04358
#
# Static dielectric constant tensor:
#      x y z
#    x 1.727010 0.000000 0.000000 
#    y 0.000000 1.799590 0.000000 
#    z 0.000000 0.000000 1.879790 
# 
# From -- ./inp_files/2040.got.cif
#   From: 2010.05.17/outbox.cif.g08.bks.cpg/sg19_2_cif.got.tgz:2040.got - 2010.06.03 22:46:19.
