data_PCOD9314323
_publ_section_title
;
Structure prediction by ZEFSAII (Michael W. Deem and Ramdas Pophale) SiO2 
 PCOD9314323
Probable space group: P 21 21 21
;
_chemical_formula_sum "Si O2"
_cell_formula_units_Z 32
_cell_length_a 13.234393
_cell_length_b 19.275205
_cell_length_c 5.227001
_cell_angle_alpha 90.000000
_cell_angle_beta 90.000000
_cell_angle_gamma 90.000000
_cell_volume 1333.385156
_symmetry_space_group_name_H-M "P 21 21 21"
_symmetry_group_IT_number 19
_symmetry_cell_setting 'orthorhombic'
loop_
_space_group_symop_operation_xyz
x,y,z
1/2-x,-y,1/2+z
1/2+x,1/2-y,-z
-x,1/2+y,1/2-z
loop_
_atom_site_type_symbol
_atom_site_label
_atom_site_fract_x
_atom_site_fract_y
_atom_site_fract_z
Si Si1 0.186224 0.492778 0.224000
Si Si2 0.915042 0.692515 0.205338
Si Si3 0.626475 0.509039 0.073109
Si Si4 0.048763 0.846024 0.729670
Si Si5 0.388414 0.361815 0.907707
Si Si6 0.382609 0.295062 0.408174
Si Si7 0.645895 0.450446 0.566680
Si Si8 0.080337 0.344624 0.272359
O O1 0.274089 0.493130 0.438646
O O2 0.121337 0.559537 0.315465
O O3 0.134476 0.417492 0.226498
O O4 0.842049 0.628628 0.154012
O O5 0.870010 0.768059 0.259308
O O6 0.996497 0.666574 0.415104
O O7 0.997174 0.696812 0.974138
O O8 0.597307 0.580982 0.200516
O O9 0.595537 0.454030 0.288903
O O10 0.746874 0.512362 0.031577
O O11 0.587945 0.491491 0.790653
O O12 0.122313 0.782816 0.804260
O O13 0.010671 0.841448 0.437994
O O14 0.957093 0.844292 0.934314
O O15 0.336153 0.315361 0.683132
O O16 0.347251 0.346675 0.187590
#
# Coordination Sequence:
#
# PCOD9314323 Si02
#       8
#     4   4   4   4   4   4   4   4
#     4  12  27  47  64  95 135 173 217 267 328 390
#     4   9  22  38  65  91 121 162 209 255 306 372
#     4  10  23  37  58  90 127 157 195 253 306 376
#     4  11  20  38  64  94 124 160 205 263 312 366
#     4  10  21  39  65  90 120 164 210 264 306 369
#     4   9  19  36  60  93 121 149 216 258 298 366
#     4  10  22  39  56  89 126 160 199 243 308 376
#     4  11  24  42  64  94 124 161 217 263 306 375
#
# _framework density 23.999068000000001
#
# number of rings (size 3 to 8) (size 9 to 14) (size 15 to 20)
#    0.750    1.000    1.250    2.250    5.250    0.000 
#    4.500    0.000    0.000    0.000    0.000    0.000 
#    0.000    0.000    0.000    0.000    0.000    0.000 
#
# Total GULP energy -178470.346469 kJ/mol
# GULP energy per Si atom -5577.198327 kJ/mol
# Density = 2.394445 g / cm^3
# Si number density = 23.999068 Si / 1000 Ang^3
#
#
#
# Elastic Constant Matrix: (Units=GPa)
#
#
# Indices 1 2 3 4 5 6 
#
# 1 18.4322 13.3896 -3.0809 0.0000 0.0000 0.0000
# 2 13.3896 151.7058 12.1096 0.0000 0.0000 0.0000
# 3 -3.0809 12.1096 66.0678 0.0000 0.0000 0.0000
# 4 0.0000 0.0000 0.0000 33.6360 0.0000 0.0000
# 5 0.0000 0.0000 0.0000 0.0000 16.3700 0.0000
# 6 0.0000 0.0000 0.0000 0.0000 0.0000 29.2016
#
#
#
# Elastic Compliance Matrix: (Units=1/GPa)
#
#
# Indices 1 2 3 4 5 6 
#
# 1 0.058872 -0.005496 0.003753 0.000000 0.000000 0.000000
# 2 -0.005496 0.007203 -0.001576 0.000000 0.000000 0.000000
# 3 0.003753 -0.001576 0.015600 0.000000 0.000000 0.000000
# 4 0.000000 0.000000 0.000000 0.029730 0.000000 0.000000
# 5 0.000000 0.000000 0.000000 0.000000 0.061087 0.000000
# 6 0.000000 0.000000 0.000000 0.000000 0.000000 0.034245
#
#
# Mechanical properties :
#
#
# Convention : Reuss Voigt Hill
#
# Bulk Modulus (GPa) = 13.32695 31.22695 22.27695
# Shear Modulus (GPa) = 20.97423 30.09402 25.53413
#
# Velocity S-wave (km/s) = 2.95949 3.54498 3.26538
# Velocity P-wave (km/s) = 4.15250 5.45856 4.84970
#
# Compressibility (1/GPa) = 0.07503592
#
# Stress axis : x y z
#
# Youngs Moduli (GPa) = 16.98592 138.83898 64.10298
#
# Poissons Ratio (x) = 0.76301 -0.24056
# Poissons Ratio (y) = 0.09335 0.10105
# Poissons Ratio (z) = -0.06374 0.21887
#
# Static dielectric constant tensor:
#      x y z
#    x 1.963240 0.000000 0.000000 
#    y 0.000000 1.923870 0.000000 
#    z 0.000000 0.000000 1.989370 
# 
# From -- ./inp_files/1558.got.cif
#   From: 2010.05.17/outbox.cif.g08.bks.cpg/sg19_1_cif.got.tgz:1558.got - 2010.06.03 22:46:19.
