data_PCOD9314937
_publ_section_title
;
Structure prediction by ZEFSAII (Michael W. Deem and Ramdas Pophale) SiO2 
 PCOD9314937
Probable space group: P 21 21 21
;
_chemical_formula_sum "Si O2"
_cell_formula_units_Z 28
_cell_length_a 9.342770
_cell_length_b 16.189533
_cell_length_c 7.817861
_cell_angle_alpha 90.000000
_cell_angle_beta 90.000000
_cell_angle_gamma 90.000000
_cell_volume 1182.491216
_symmetry_space_group_name_H-M "P 21 21 21"
_symmetry_group_IT_number 19
_symmetry_cell_setting 'orthorhombic'
loop_
_space_group_symop_operation_xyz
x,y,z
1/2-x,-y,1/2+z
1/2+x,1/2-y,-z
-x,1/2+y,1/2-z
loop_
_atom_site_type_symbol
_atom_site_label
_atom_site_fract_x
_atom_site_fract_y
_atom_site_fract_z
Si Si1 0.702895 0.672541 0.355461
Si Si2 0.528651 0.275706 0.018615
Si Si3 0.114998 0.503525 0.231880
Si Si4 0.913914 0.045648 0.881660
Si Si5 0.606544 0.501671 0.426981
Si Si6 0.870975 0.194218 0.333483
Si Si7 0.841082 0.681496 0.984773
O O1 0.541183 0.702230 0.376213
O O2 0.714111 0.577087 0.407267
O O3 0.763713 0.684091 0.167990
O O4 0.803933 0.725007 0.481304
O O5 0.455740 0.273875 0.831683
O O6 0.482100 0.363502 0.097975
O O7 0.248735 0.447407 0.177850
O O8 0.080526 0.501035 0.433269
O O9 0.163858 0.598298 0.197292
O O10 0.981992 0.489915 0.104138
O O11 0.997961 0.997739 0.733184
O O12 0.678553 0.412036 0.421578
O O13 0.735693 0.249902 0.373510
O O14 0.990054 0.195549 0.484648
#
# Coordination Sequence:
#
# PCOD9314937 Si02
#       7
#     4   4   4   4   4   4   4
#     4  11  27  47  70 107 142 190 245 297 371 433
#     4  10  26  45  70 101 145 185 239 292 362 434
#     4  10  22  44  73 109 142 184 246 286 364 439
#     4  11  23  44  73 105 143 189 235 296 361 431
#     4  11  26  46  72 105 147 191 239 308 356 431
#     4   9  22  45  65 101 141 180 233 297 350 433
#     4  10  24  45  69 102 142 183 243 294 362 433
#
# _framework density 23.678823000000001
#
# number of rings (size 3 to 8) (size 9 to 14) (size 15 to 20)
#    0.000    1.714    1.429    0.857   10.000    1.143 
#    5.143    0.000    0.000    0.000    0.000    0.000 
#    0.000    0.000    0.000    0.000    0.000    0.000 
#
# Total GULP energy -156823.518116 kJ/mol
# GULP energy per Si atom -5600.839933 kJ/mol
# Density = 2.362493 g / cm^3
# Si number density = 23.678823 Si / 1000 Ang^3
#
#
#
# Elastic Constant Matrix: (Units=GPa)
#
#
# Indices 1 2 3 4 5 6 
#
# 1 50.3650 29.1302 10.2371 0.0000 0.0000 0.0000
# 2 29.1302 29.1404 20.3915 0.0000 0.0000 0.0000
# 3 10.2371 20.3915 122.3834 0.0000 0.0000 0.0000
# 4 0.0000 0.0000 0.0000 24.8205 0.0000 0.0000
# 5 0.0000 0.0000 0.0000 0.0000 20.8985 0.0000
# 6 0.0000 0.0000 0.0000 0.0000 0.0000 40.7725
#
#
#
# Elastic Compliance Matrix: (Units=1/GPa)
#
#
# Indices 1 2 3 4 5 6 
#
# 1 0.049279 -0.052498 0.004625 0.000000 0.000000 0.000000
# 2 -0.052498 0.094773 -0.011400 0.000000 0.000000 0.000000
# 3 0.004625 -0.011400 0.009684 0.000000 0.000000 0.000000
# 4 0.000000 0.000000 0.000000 0.040289 0.000000 0.000000
# 5 0.000000 0.000000 0.000000 0.000000 0.047850 0.000000
# 6 0.000000 0.000000 0.000000 0.000000 0.000000 0.024526
#
#
# Mechanical properties :
#
#
# Convention : Reuss Voigt Hill
#
# Bulk Modulus (GPa) = 28.41682 35.71183 32.06433
# Shear Modulus (GPa) = 12.60470 26.77366 19.68918
#
# Velocity S-wave (km/s) = 2.30971 3.36624 2.88672
# Velocity P-wave (km/s) = 4.37493 5.49757 4.96806
#
# Compressibility (1/GPa) = 0.03519043
#
# Stress axis : x y z
#
# Youngs Moduli (GPa) = 20.29268 10.55148 103.26744
#
# Poissons Ratio (x) = 0.55393 -0.47763
# Poissons Ratio (y) = 1.06533 1.17723
# Poissons Ratio (z) = -0.09386 0.12028
#
# Static dielectric constant tensor:
#      x y z
#    x 1.886730 0.000000 0.000000 
#    y 0.000000 1.858000 0.000000 
#    z 0.000000 0.000000 1.924960 
# 
# From -- ./inp_files/3021.got.cif
#   From: 2010.05.17/outbox.cif.g08.bks.cpg/sg19_2_cif.got.tgz:3021.got - 2010.06.03 22:46:19.
