data_PCOD9314093
_publ_section_title
;
Structure prediction by ZEFSAII (Michael W. Deem and Ramdas Pophale) SiO2 
 PCOD9314093
Probable space group: P 21 21 21
;
_chemical_formula_sum "Si O2"
_cell_formula_units_Z 32
_cell_length_a 14.600682
_cell_length_b 12.053006
_cell_length_c 9.282377
_cell_angle_alpha 90.000000
_cell_angle_beta 90.000000
_cell_angle_gamma 90.000000
_cell_volume 1633.532269
_symmetry_space_group_name_H-M "P 21 21 21"
_symmetry_group_IT_number 19
_symmetry_cell_setting 'orthorhombic'
loop_
_space_group_symop_operation_xyz
x,y,z
1/2-x,-y,1/2+z
1/2+x,1/2-y,-z
-x,1/2+y,1/2-z
loop_
_atom_site_type_symbol
_atom_site_label
_atom_site_fract_x
_atom_site_fract_y
_atom_site_fract_z
Si Si1 0.964792 0.641430 0.687608
Si Si2 0.277226 0.745137 0.665766
Si Si3 0.961510 0.631658 0.349163
Si Si4 0.849801 0.084753 0.660134
Si Si5 0.816441 0.826401 0.663714
Si Si6 0.867171 0.174974 0.347006
Si Si7 0.311333 0.033036 0.282446
Si Si8 0.660731 0.579001 0.890773
O O1 0.985111 0.653318 0.516698
O O2 0.894983 0.742169 0.717557
O O3 0.910187 0.526592 0.722456
O O4 0.058778 0.638967 0.773421
O O5 0.380540 0.785395 0.703091
O O6 0.235196 0.646315 0.761270
O O7 0.287143 0.708791 0.499128
O O8 0.212665 0.854368 0.694127
O O9 0.914366 0.512177 0.353642
O O10 0.048808 0.634166 0.248333
O O11 0.850127 0.106807 0.490728
O O12 0.850037 0.952730 0.677334
O O13 0.725280 0.821522 0.756734
O O14 0.884132 0.301752 0.391013
O O15 0.297255 0.057745 0.451150
O O16 0.240334 0.941408 0.224970
#
# Coordination Sequence:
#
# PCOD9314093 Si02
#       8
#     4   4   4   4   4   4   4   4
#     4  10  23  43  65  98 125 177 230 270 332 399
#     4  10  22  45  67  96 134 178 225 277 341 394
#     4   9  23  41  65  95 134 173 223 276 332 398
#     4  12  26  40  67  98 139 178 221 282 341 402
#     4  11  25  45  66  96 137 180 222 273 346 413
#     4  12  24  42  63 102 134 174 225 272 340 402
#     4  10  20  41  69  95 124 167 227 285 318 392
#     4  10  21  39  66  96 127 169 225 275 330 390
#
# _framework density 19.589449999999999
#
# number of rings (size 3 to 8) (size 9 to 14) (size 15 to 20)
#    0.000    1.500    2.500    2.250    1.750    6.000 
#    0.000    0.000    0.000    0.000    0.000    0.000 
#    0.000    0.000    0.000    0.000    0.000    0.000 
#
# Total GULP energy -178647.323861 kJ/mol
# GULP energy per Si atom -5582.728871 kJ/mol
# Density = 1.954486 g / cm^3
# Si number density = 19.589450 Si / 1000 Ang^3
#
#
#
# Elastic Constant Matrix: (Units=GPa)
#
#
# Indices 1 2 3 4 5 6 
#
# 1 78.0272 28.0180 47.8842 0.0000 0.0000 0.0000
# 2 28.0180 99.2374 24.8718 0.0000 0.0000 0.0000
# 3 47.8842 24.8718 48.8773 0.0000 0.0000 0.0000
# 4 0.0000 0.0000 0.0000 32.2217 0.0000 0.0000
# 5 0.0000 0.0000 0.0000 0.0000 20.0925 0.0000
# 6 0.0000 0.0000 0.0000 0.0000 0.0000 18.1353
#
#
#
# Elastic Compliance Matrix: (Units=1/GPa)
#
#
# Indices 1 2 3 4 5 6 
#
# 1 0.032298 -0.001362 -0.030948 0.000000 0.000000 0.000000
# 2 -0.001362 0.011607 -0.004572 0.000000 0.000000 0.000000
# 3 -0.030948 -0.004572 0.053105 0.000000 0.000000 0.000000
# 4 0.000000 0.000000 0.000000 0.031035 0.000000 0.000000
# 5 0.000000 0.000000 0.000000 0.000000 0.049770 0.000000
# 6 0.000000 0.000000 0.000000 0.000000 0.000000 0.055141
#
#
# Mechanical properties :
#
#
# Convention : Reuss Voigt Hill
#
# Bulk Modulus (GPa) = 43.01927 47.52111 45.27019
# Shear Modulus (GPa) = 15.89978 22.44775 19.17377
#
# Velocity S-wave (km/s) = 2.85204 3.38880 3.13194
# Velocity P-wave (km/s) = 5.73181 6.29469 6.01983
#
# Compressibility (1/GPa) = 0.02324540
#
# Stress axis : x y z
#
# Youngs Moduli (GPa) = 30.96197 86.15253 18.83050
#
# Poissons Ratio (x) = 0.11735 0.58277
# Poissons Ratio (y) = 0.04217 0.08609
# Poissons Ratio (z) = 0.95822 0.39389
#
# Static dielectric constant tensor:
#      x y z
#    x 1.656640 0.000000 0.000000 
#    y 0.000000 1.718090 0.000000 
#    z 0.000000 0.000000 1.673990 
# 
# From -- ./inp_files/3934.got.cif
#   From: 2010.05.17/outbox.cif.g08.bks.cpg/sg19_2_cif.got.tgz:3934.got - 2010.06.03 22:46:19.
