data_PCOD9314420
_publ_section_title
;
Structure prediction by ZEFSAII (Michael W. Deem and Ramdas Pophale) SiO2 
 PCOD9314420
Probable space group: P 21 21 21
;
_chemical_formula_sum "Si O2"
_cell_formula_units_Z 32
_cell_length_a 12.285446
_cell_length_b 8.733919
_cell_length_c 11.825871
_cell_angle_alpha 90.000000
_cell_angle_beta 90.000000
_cell_angle_gamma 90.000000
_cell_volume 1268.917026
_symmetry_space_group_name_H-M "P 21 21 21"
_symmetry_group_IT_number 19
_symmetry_cell_setting 'orthorhombic'
loop_
_space_group_symop_operation_xyz
x,y,z
1/2-x,-y,1/2+z
1/2+x,1/2-y,-z
-x,1/2+y,1/2-z
loop_
_atom_site_type_symbol
_atom_site_label
_atom_site_fract_x
_atom_site_fract_y
_atom_site_fract_z
Si Si1 0.672522 0.443080 0.232715
Si Si2 0.256614 0.712199 0.091253
Si Si3 0.118603 0.065534 0.352221
Si Si4 0.005669 0.744717 0.325936
Si Si5 0.633868 0.969575 0.534327
Si Si6 0.535633 0.083805 0.330537
Si Si7 0.954698 0.124087 0.537629
Si Si8 0.350374 0.690225 0.461374
O O1 0.726507 0.374332 0.346757
O O2 0.753556 0.559878 0.169971
O O3 0.555089 0.518388 0.252211
O O4 0.655749 0.311315 0.138677
O O5 0.332695 0.609077 0.177635
O O6 0.314698 0.640424 0.977391
O O7 0.131091 0.684615 0.059441
O O8 0.066418 0.198690 0.278870
O O9 0.066004 0.077538 0.475218
O O10 0.075536 0.897928 0.311254
O O11 0.925071 0.768171 0.432211
O O12 0.084928 0.600662 0.352541
O O13 0.728215 0.851005 0.499368
O O14 0.538838 0.974876 0.441290
O O15 0.485390 0.244388 0.374337
O O16 0.896496 0.972251 0.582321
#
# Coordination Sequence:
#
# PCOD9314420 Si02
#       8
#     4   4   4   4   4   4   4   4
#     4  12  23  40  65 101 130 167 226 278 321 399
#     4   9  23  41  63  92 135 170 213 275 324 390
#     4  11  26  39  70 104 131 168 224 280 326 389
#     4  11  22  43  66  98 133 170 221 275 329 392
#     4   9  20  42  64  86 128 175 213 261 330 393
#     4  10  24  43  67  91 133 176 221 268 334 397
#     4  10  23  45  67  96 130 178 219 270 336 392
#     4  10  21  41  64  92 128 174 209 267 338 388
#
# _framework density 25.218356
#
# number of rings (size 3 to 8) (size 9 to 14) (size 15 to 20)
#    0.750    1.000    2.500    0.750    5.250    1.000 
#    2.250    0.000    0.000    0.000    0.000    0.000 
#    0.000    0.000    0.000    0.000    0.000    0.000 
#
# Total GULP energy -178445.469932 kJ/mol
# GULP energy per Si atom -5576.420935 kJ/mol
# Density = 2.516096 g / cm^3
# Si number density = 25.218356 Si / 1000 Ang^3
#
#
#
# Elastic Constant Matrix: (Units=GPa)
#
#
# Indices 1 2 3 4 5 6 
#
# 1 119.3481 31.6760 31.4139 0.0000 0.0000 0.0000
# 2 31.6760 64.7713 21.6588 0.0000 0.0000 0.0000
# 3 31.4139 21.6588 56.0478 0.0000 0.0000 0.0000
# 4 0.0000 0.0000 0.0000 31.2298 0.0000 0.0000
# 5 0.0000 0.0000 0.0000 0.0000 37.0396 0.0000
# 6 0.0000 0.0000 0.0000 0.0000 0.0000 38.2440
#
#
#
# Elastic Compliance Matrix: (Units=1/GPa)
#
#
# Indices 1 2 3 4 5 6 
#
# 1 0.010529 -0.003647 -0.004492 0.000000 0.000000 0.000000
# 2 -0.003647 0.018993 -0.005296 0.000000 0.000000 0.000000
# 3 -0.004492 -0.005296 0.022406 0.000000 0.000000 0.000000
# 4 0.000000 0.000000 0.000000 0.032021 0.000000 0.000000
# 5 0.000000 0.000000 0.000000 0.000000 0.026998 0.000000
# 6 0.000000 0.000000 0.000000 0.000000 0.000000 0.026148
#
#
# Mechanical properties :
#
#
# Convention : Reuss Voigt Hill
#
# Bulk Modulus (GPa) = 39.90568 45.51831 42.71200
# Shear Modulus (GPa) = 29.01617 31.66392 30.34005
#
# Velocity S-wave (km/s) = 3.39573 3.54728 3.47233
# Velocity P-wave (km/s) = 5.58865 5.90478 5.74889
#
# Compressibility (1/GPa) = 0.02505909
#
# Stress axis : x y z
#
# Youngs Moduli (GPa) = 94.97393 52.65013 44.63082
#
# Poissons Ratio (x) = 0.19202 0.20049
# Poissons Ratio (y) = 0.34638 0.23634
# Poissons Ratio (z) = 0.42663 0.27881
#
# Static dielectric constant tensor:
#      x y z
#    x 2.026480 0.000000 0.000000 
#    y 0.000000 2.037030 0.000000 
#    z 0.000000 0.000000 2.084090 
# 
# From -- ./inp_files/6101.got.cif
#   From: 2010.05.17/outbox.cif.g08.bks.cpg/sg19_4_cif.got.tgz:6101.got - 2010.06.03 22:46:19.
