data_PCOD9314557
_publ_section_title
;
Structure prediction by ZEFSAII (Michael W. Deem and Ramdas Pophale) SiO2 
 PCOD9314557
Probable space group: P 21 21 21
;
_chemical_formula_sum "Si O2"
_cell_formula_units_Z 28
_cell_length_a 17.369348
_cell_length_b 11.927491
_cell_length_c 5.416923
_cell_angle_alpha 90.000000
_cell_angle_beta 90.000000
_cell_angle_gamma 90.000000
_cell_volume 1122.238791
_symmetry_space_group_name_H-M "P 21 21 21"
_symmetry_group_IT_number 19
_symmetry_cell_setting 'orthorhombic'
loop_
_space_group_symop_operation_xyz
x,y,z
1/2-x,-y,1/2+z
1/2+x,1/2-y,-z
-x,1/2+y,1/2-z
loop_
_atom_site_type_symbol
_atom_site_label
_atom_site_fract_x
_atom_site_fract_y
_atom_site_fract_z
Si Si1 0.248608 0.063230 0.035336
Si Si2 0.586697 0.564537 0.509602
Si Si3 0.446510 0.278852 0.273578
Si Si4 0.159289 0.386118 0.826763
Si Si5 0.946452 0.047069 0.339082
Si Si6 0.399335 0.847819 0.318917
Si Si7 0.686386 0.902186 0.448656
O O1 0.329102 0.114533 0.926608
O O2 0.260505 0.034620 0.324546
O O3 0.166885 0.125065 0.014743
O O4 0.553554 0.650688 0.306783
O O5 0.523219 0.528341 0.712848
O O6 0.604604 0.447209 0.376874
O O7 0.469067 0.333841 0.534201
O O8 0.511898 0.336983 0.099050
O O9 0.360309 0.324645 0.239899
O O10 0.121384 0.275424 0.716334
O O11 0.199978 0.471108 0.640342
O O12 0.231208 0.351543 0.995063
O O13 0.096242 0.462814 0.964395
O O14 0.878278 0.078116 0.155729
#
# Coordination Sequence:
#
# PCOD9314557 Si02
#       7
#     4   4   4   4   4   4   4
#     4  10  23  45  68  97 139 182 230 287 347 421
#     4  10  21  45  65  97 134 177 229 287 350 420
#     4  10  22  42  67  92 131 177 223 283 345 417
#     4  11  21  43  66  96 133 174 223 278 347 410
#     4  10  22  42  65  96 130 169 227 276 344 419
#     4  10  22  43  68  97 137 177 226 285 349 420
#     4  11  23  40  67  97 128 176 224 284 340 415
#
# _framework density 24.950123999999999
#
# number of rings (size 3 to 8) (size 9 to 14) (size 15 to 20)
#    0.000    1.714    2.857    0.857    2.000    0.000 
#   25.714    0.000    0.000    0.000    0.000    0.000 
#    0.000    0.000    0.000    0.000    0.000    0.000 
#
# Total GULP energy -155932.515251 kJ/mol
# GULP energy per Si atom -5569.018402 kJ/mol
# Density = 2.489334 g / cm^3
# Si number density = 24.950124 Si / 1000 Ang^3
#
#
#
# Elastic Constant Matrix: (Units=GPa)
#
#
# Indices 1 2 3 4 5 6 
#
# 1 121.7806 -9.2912 -16.2514 0.0000 0.0000 0.0000
# 2 -9.2912 43.8226 -6.0101 0.0000 0.0000 0.0000
# 3 -16.2514 -6.0101 28.2745 0.0000 0.0000 0.0000
# 4 0.0000 0.0000 0.0000 7.9999 0.0000 0.0000
# 5 0.0000 0.0000 0.0000 0.0000 32.1291 0.0000
# 6 0.0000 0.0000 0.0000 0.0000 0.0000 32.8522
#
#
#
# Elastic Compliance Matrix: (Units=1/GPa)
#
#
# Indices 1 2 3 4 5 6 
#
# 1 0.009206 0.002758 0.005878 0.000000 0.000000 0.000000
# 2 0.002758 0.024331 0.006757 0.000000 0.000000 0.000000
# 3 0.005878 0.006757 0.040182 0.000000 0.000000 0.000000
# 4 0.000000 0.000000 0.000000 0.125002 0.000000 0.000000
# 5 0.000000 0.000000 0.000000 0.000000 0.031124 0.000000
# 6 0.000000 0.000000 0.000000 0.000000 0.000000 0.030439
#
#
# Mechanical properties :
#
#
# Convention : Reuss Voigt Hill
#
# Bulk Modulus (GPa) = 9.56893 14.53025 12.04959
# Shear Modulus (GPa) = 18.91545 29.62494 24.27019
#
# Velocity S-wave (km/s) = 2.75640 3.44956 3.12228
# Velocity P-wave (km/s) = 3.73817 4.65857 4.22352
#
# Compressibility (1/GPa) = 0.10450494
#
# Stress axis : x y z
#
# Youngs Moduli (GPa) = 108.62140 41.10024 24.88663
#
# Poissons Ratio (x) = -0.11336 -0.14628
# Poissons Ratio (y) = -0.29958 -0.16816
# Poissons Ratio (z) = -0.63845 -0.27772
#
# Static dielectric constant tensor:
#      x y z
#    x 2.141820 0.000000 0.000000 
#    y 0.000000 1.993970 0.000000 
#    z 0.000000 0.000000 2.096500 
# 
# From -- ./inp_files/1075.got.cif
#   From: 2010.05.17/outbox.cif.g08.bks.cpg/sg19_1_cif.got.tgz:1075.got - 2010.06.03 22:46:19.
