data_PCOD9314437
_publ_section_title
;
Structure prediction by ZEFSAII (Michael W. Deem and Ramdas Pophale) SiO2 
 PCOD9314437
Probable space group: P 21 21 21
;
_chemical_formula_sum "Si O2"
_cell_formula_units_Z 32
_cell_length_a 16.812313
_cell_length_b 4.864800
_cell_length_c 14.005921
_cell_angle_alpha 90.000000
_cell_angle_beta 90.000000
_cell_angle_gamma 90.000000
_cell_volume 1145.523834
_symmetry_space_group_name_H-M "P 21 21 21"
_symmetry_group_IT_number 19
_symmetry_cell_setting 'orthorhombic'
loop_
_space_group_symop_operation_xyz
x,y,z
1/2-x,-y,1/2+z
1/2+x,1/2-y,-z
-x,1/2+y,1/2-z
loop_
_atom_site_type_symbol
_atom_site_label
_atom_site_fract_x
_atom_site_fract_y
_atom_site_fract_z
Si Si1 0.551730 0.775599 0.038105
Si Si2 0.671319 0.481885 0.185798
Si Si3 0.233603 0.772972 0.489235
Si Si4 0.198001 0.722921 0.094325
Si Si5 0.312503 0.620869 0.765206
Si Si6 0.090975 0.153347 0.435448
Si Si7 0.971106 0.441138 0.800054
Si Si8 0.523116 0.217959 0.805666
O O1 0.514503 0.025270 0.099170
O O2 0.606168 0.605866 0.111366
O O3 0.612298 0.842528 0.952973
O O4 0.468759 0.660071 0.997633
O O5 0.731973 0.712096 0.222934
O O6 0.615297 0.424249 0.277977
O O7 0.721522 0.278920 0.115052
O O8 0.281670 0.977503 0.558324
O O9 0.150539 0.931178 0.481594
O O10 0.240592 0.482936 0.541474
O O11 0.200494 0.662577 0.207318
O O12 0.352480 0.658115 0.868943
O O13 0.381996 0.746018 0.696764
O O14 0.030189 0.946954 0.380086
O O15 0.026995 0.626420 0.730738
O O16 0.492342 0.521103 0.786120
#
# Coordination Sequence:
#
# PCOD9314437 Si02
#       8
#     4   4   4   4   4   4   4   4
#     4  10  21  42  69  98 137 173 226 283 340 403
#     4   9  21  43  67  95 132 177 220 278 336 407
#     4  10  24  43  68  97 138 175 227 275 339 400
#     4  11  23  45  67 101 133 182 221 279 337 411
#     4  10  22  43  68  98 136 180 227 277 343 412
#     4  10  22  44  67 102 137 179 228 289 342 413
#     4  10  21  41  66  97 130 174 221 276 340 405
#     4  10  22  41  66  98 131 174 222 273 335 407
#
# _framework density 27.934819000000001
#
# number of rings (size 3 to 8) (size 9 to 14) (size 15 to 20)
#    0.000    2.000    1.250    0.750    1.750    6.000 
#   13.500   12.500    0.000    0.000    0.000    0.000 
#    0.000    0.000    0.000    0.000    0.000    0.000 
#
# Total GULP energy -178915.944740 kJ/mol
# GULP energy per Si atom -5591.123273 kJ/mol
# Density = 2.787124 g / cm^3
# Si number density = 27.934819 Si / 1000 Ang^3
#
#
#
# Elastic Constant Matrix: (Units=GPa)
#
#
# Indices 1 2 3 4 5 6 
#
# 1 149.9334 13.4808 48.8378 0.0000 0.0000 0.0000
# 2 13.4808 97.1327 37.1262 0.0000 0.0000 0.0000
# 3 48.8378 37.1262 120.3730 0.0000 0.0000 0.0000
# 4 0.0000 0.0000 0.0000 38.0178 0.0000 0.0000
# 5 0.0000 0.0000 0.0000 0.0000 65.3432 0.0000
# 6 0.0000 0.0000 0.0000 0.0000 0.0000 31.1439
#
#
#
# Elastic Compliance Matrix: (Units=1/GPa)
#
#
# Indices 1 2 3 4 5 6 
#
# 1 0.007687 0.000142 -0.003163 0.000000 0.000000 0.000000
# 2 0.000142 0.011674 -0.003658 0.000000 0.000000 0.000000
# 3 -0.003163 -0.003658 0.010719 0.000000 0.000000 0.000000
# 4 0.000000 0.000000 0.000000 0.026303 0.000000 0.000000
# 5 0.000000 0.000000 0.000000 0.000000 0.015304 0.000000
# 6 0.000000 0.000000 0.000000 0.000000 0.000000 0.032109
#
#
# Mechanical properties :
#
#
# Convention : Reuss Voigt Hill
#
# Bulk Modulus (GPa) = 59.80070 62.92539 61.36305
# Shear Modulus (GPa) = 40.74075 44.76727 42.75401
#
# Velocity S-wave (km/s) = 3.82307 4.00754 3.91639
# Velocity P-wave (km/s) = 6.39856 6.63239 6.51652
#
# Compressibility (1/GPa) = 0.01672221
#
# Stress axis : x y z
#
# Youngs Moduli (GPa) = 130.08973 85.66275 93.29352
#
# Poissons Ratio (x) = -0.01216 0.29505
# Poissons Ratio (y) = -0.01846 0.34127
# Poissons Ratio (z) = 0.41142 0.31336
#
# Static dielectric constant tensor:
#      x y z
#    x 2.163070 0.000000 0.000000 
#    y 0.000000 2.150280 0.000000 
#    z 0.000000 0.000000 2.313910 
# 
# From -- ./inp_files/6299.got.cif
#   From: 2010.05.17/outbox.cif.g08.bks.cpg/sg19_4_cif.got.tgz:6299.got - 2010.06.03 22:46:19.
