data_PCOD9314899
_publ_section_title
;
Structure prediction by ZEFSAII (Michael W. Deem and Ramdas Pophale) SiO2 
 PCOD9314899
Probable space group: P 21 21 21
;
_chemical_formula_sum "Si O2"
_cell_formula_units_Z 32
_cell_length_a 17.870235
_cell_length_b 6.480150
_cell_length_c 11.293842
_cell_angle_alpha 90.000000
_cell_angle_beta 90.000000
_cell_angle_gamma 90.000000
_cell_volume 1307.847270
_symmetry_space_group_name_H-M "P 21 21 21"
_symmetry_group_IT_number 19
_symmetry_cell_setting 'orthorhombic'
loop_
_space_group_symop_operation_xyz
x,y,z
1/2-x,-y,1/2+z
1/2+x,1/2-y,-z
-x,1/2+y,1/2-z
loop_
_atom_site_type_symbol
_atom_site_label
_atom_site_fract_x
_atom_site_fract_y
_atom_site_fract_z
Si Si1 0.072447 0.634373 0.873314
Si Si2 0.822069 0.307099 0.241854
Si Si3 0.433198 0.156242 0.130450
Si Si4 0.927873 0.928100 0.210658
Si Si5 0.015466 0.006259 0.005835
Si Si6 0.718484 0.930538 0.957309
Si Si7 0.352664 0.811503 0.586378
Si Si8 0.338879 0.884807 0.953914
O O1 0.015106 0.447440 0.845000
O O2 0.097102 0.743732 0.751368
O O3 0.017865 0.792702 0.940141
O O4 0.142107 0.600960 0.963640
O O5 0.889642 0.153607 0.206720
O O6 0.775370 0.146049 0.320479
O O7 0.832715 0.489017 0.338010
O O8 0.801748 0.436340 0.126285
O O9 0.378866 0.994567 0.064867
O O10 0.451518 0.344570 0.041306
O O11 0.908233 0.843971 0.340460
O O12 0.006670 0.967516 0.147027
O O13 0.896562 0.742224 0.128933
O O14 0.096028 0.107745 0.981286
O O15 0.780778 0.795188 0.018121
O O16 0.718722 0.176925 0.947009
#
# Coordination Sequence:
#
# PCOD9314899 Si02
#       8
#     4   4   4   4   4   4   4   4
#     4  12  25  44  67 102 139 185 238 286 347 418
#     4  10  22  44  64 100 132 172 230 276 354 416
#     4  12  25  44  67 102 139 185 238 286 347 418
#     4  10  23  39  64  99 132 169 221 284 345 420
#     4  12  22  40  64  96 134 174 222 280 348 416
#     4  11  25  44  67 100 140 183 233 289 354 422
#     4  10  23  39  64  99 132 169 221 284 345 420
#     4  11  25  44  67 100 140 183 233 289 354 422
#
# _framework density 24.467687999999999
#
# number of rings (size 3 to 8) (size 9 to 14) (size 15 to 20)
#    0.000    1.000    6.250    0.000    3.500    1.000 
#    0.000    6.250    0.000    0.000    0.000    0.000 
#    0.000    0.000    0.000    0.000    0.000    0.000 
#
# Total GULP energy -178474.928074 kJ/mol
# GULP energy per Si atom -5577.341502 kJ/mol
# Density = 2.441200 g / cm^3
# Si number density = 24.467688 Si / 1000 Ang^3
#
#
#
# Elastic Constant Matrix: (Units=GPa)
#
#
# Indices 1 2 3 4 5 6 
#
# 1 27.8451 3.5768 13.8841 0.0000 0.0000 0.0000
# 2 3.5768 98.6707 20.9269 0.0000 0.0000 0.0000
# 3 13.8841 20.9269 86.3215 0.0000 0.0000 0.0000
# 4 0.0000 0.0000 0.0000 45.6257 0.0000 0.0000
# 5 0.0000 0.0000 0.0000 0.0000 20.0893 0.0000
# 6 0.0000 0.0000 0.0000 0.0000 0.0000 32.3449
#
#
#
# Elastic Compliance Matrix: (Units=1/GPa)
#
#
# Indices 1 2 3 4 5 6 
#
# 1 0.039045 -0.000088 -0.006259 0.000000 0.000000 0.000000
# 2 -0.000088 0.010684 -0.002576 0.000000 0.000000 0.000000
# 3 -0.006259 -0.002576 0.013216 0.000000 0.000000 0.000000
# 4 0.000000 0.000000 0.000000 0.021917 0.000000 0.000000
# 5 0.000000 0.000000 0.000000 0.000000 0.049778 0.000000
# 6 0.000000 0.000000 0.000000 0.000000 0.000000 0.030917
#
#
# Mechanical properties :
#
#
# Convention : Reuss Voigt Hill
#
# Bulk Modulus (GPa) = 22.17319 32.17920 27.17619
# Shear Modulus (GPa) = 25.19708 31.24194 28.21951
#
# Velocity S-wave (km/s) = 3.21255 3.57720 3.39977
# Velocity P-wave (km/s) = 4.77938 5.49928 5.15192
#
# Compressibility (1/GPa) = 0.04509952
#
# Stress axis : x y z
#
# Youngs Moduli (GPa) = 25.61152 93.59562 75.66723
#
# Poissons Ratio (x) = 0.00823 0.47358
# Poissons Ratio (y) = 0.00225 0.19492
# Poissons Ratio (z) = 0.16029 0.24111
#
# Static dielectric constant tensor:
#      x y z
#    x 2.000870 0.000000 0.000000 
#    y 0.000000 1.974020 0.000000 
#    z 0.000000 0.000000 2.022950 
# 
# From -- ./inp_files/1197.got.cif
#   From: 2010.05.17/outbox.cif.g08.bks.cpg/sg19_1_cif.got.tgz:1197.got - 2010.06.03 22:46:19.
