data_PCOD9314581
_publ_section_title
;
Structure prediction by ZEFSAII (Michael W. Deem and Ramdas Pophale) SiO2 
 PCOD9314581
Probable space group: P 21 21 21
;
_chemical_formula_sum "Si O2"
_cell_formula_units_Z 32
_cell_length_a 19.794237
_cell_length_b 11.618503
_cell_length_c 5.199846
_cell_angle_alpha 90.000000
_cell_angle_beta 90.000000
_cell_angle_gamma 90.000000
_cell_volume 1195.857473
_symmetry_space_group_name_H-M "P 21 21 21"
_symmetry_group_IT_number 19
_symmetry_cell_setting 'orthorhombic'
loop_
_space_group_symop_operation_xyz
x,y,z
1/2-x,-y,1/2+z
1/2+x,1/2-y,-z
-x,1/2+y,1/2-z
loop_
_atom_site_type_symbol
_atom_site_label
_atom_site_fract_x
_atom_site_fract_y
_atom_site_fract_z
Si Si1 0.160056 0.913169 0.322833
Si Si2 0.449452 0.016454 0.449242
Si Si3 0.698653 0.826219 0.857178
Si Si4 0.582492 0.937919 0.555980
Si Si5 0.321499 0.525853 0.335273
Si Si6 0.884884 0.776935 0.391592
Si Si7 0.361918 0.872555 0.117405
Si Si8 0.964779 0.285074 0.897794
O O1 0.204515 0.809143 0.201541
O O2 0.098303 0.848591 0.466536
O O3 0.182581 0.016998 0.514010
O O4 0.122160 0.973560 0.087081
O O5 0.508475 0.976922 0.639212
O O6 0.475144 0.138989 0.352531
O O7 0.431980 0.934821 0.206995
O O8 0.754817 0.901066 0.713649
O O9 0.626068 0.867386 0.755998
O O10 0.699905 0.891278 0.131673
O O11 0.626278 0.028942 0.399066
O O12 0.561771 0.841656 0.343939
O O13 0.358374 0.592782 0.568952
O O14 0.868551 0.713491 0.124829
O O15 0.965390 0.778496 0.445792
O O16 0.850416 0.705068 0.627953
#
# Coordination Sequence:
#
# PCOD9314581 Si02
#       8
#     4   4   4   4   4   4   4   4
#     4  10  23  43  71 102 144 194 244 305 370 455
#     4  11  21  40  70 106 144 183 237 305 384 447
#     4  11  26  47  70 101 147 197 255 302 367 444
#     4  11  22  41  65 100 142 186 239 307 365 445
#     4  12  26  44  71 104 142 204 247 311 365 453
#     4  12  26  42  73 105 155 184 246 308 373 445
#     4  11  24  46  68 107 144 189 235 304 373 446
#     4  10  22  35  62 103 138 185 231 298 377 431
#
# _framework density 26.759043999999999
#
# number of rings (size 3 to 8) (size 9 to 14) (size 15 to 20)
#    0.000    1.000    5.000    0.750    5.250    2.000 
#    0.000    1.250    0.000    0.000    0.000    0.000 
#    0.000    0.000    0.000    0.000    0.000    0.000 
#
# Total GULP energy -178717.475922 kJ/mol
# GULP energy per Si atom -5584.921123 kJ/mol
# Density = 2.669814 g / cm^3
# Si number density = 26.759044 Si / 1000 Ang^3
#
#
#
# Elastic Constant Matrix: (Units=GPa)
#
#
# Indices 1 2 3 4 5 6 
#
# 1 48.7258 6.4411 3.1952 0.0000 0.0000 0.0000
# 2 6.4411 134.4327 26.5885 0.0000 0.0000 0.0000
# 3 3.1952 26.5885 107.7863 0.0000 0.0000 0.0000
# 4 0.0000 0.0000 0.0000 46.2047 0.0000 0.0000
# 5 0.0000 0.0000 0.0000 0.0000 0.9640 0.0000
# 6 0.0000 0.0000 0.0000 0.0000 0.0000 36.5764
#
#
#
# Elastic Compliance Matrix: (Units=1/GPa)
#
#
# Indices 1 2 3 4 5 6 
#
# 1 0.020669 -0.000914 -0.000387 0.000000 0.000000 0.000000
# 2 -0.000914 0.007861 -0.001912 0.000000 0.000000 0.000000
# 3 -0.000387 -0.001912 0.009761 0.000000 0.000000 0.000000
# 4 0.000000 0.000000 0.000000 0.021643 0.000000 0.000000
# 5 0.000000 0.000000 0.000000 0.000000 1.037333 0.000000
# 6 0.000000 0.000000 0.000000 0.000000 0.000000 0.027340
#
#
# Mechanical properties :
#
#
# Convention : Reuss Voigt Hill
#
# Bulk Modulus (GPa) = 31.38286 40.37716 35.88001
# Shear Modulus (GPa) = 4.37961 33.73035 19.05498
#
# Velocity S-wave (km/s) = 1.28072 3.55423 2.67141
# Velocity P-wave (km/s) = 3.73368 5.65379 4.79092
#
# Compressibility (1/GPa) = 0.03186453
#
# Stress axis : x y z
#
# Youngs Moduli (GPa) = 48.38120 127.21677 102.45133
#
# Poissons Ratio (x) = 0.11624 0.03968
# Poissons Ratio (y) = 0.04421 0.19588
# Poissons Ratio (z) = 0.01874 0.24323
#
# Static dielectric constant tensor:
#      x y z
#    x 2.108380 0.000000 0.000000 
#    y 0.000000 2.234230 0.000000 
#    z 0.000000 0.000000 2.176250 
# 
# From -- ./inp_files/1990.got.cif
#   From: 2010.05.17/outbox.cif.g08.bks.cpg/sg19_1_cif.got.tgz:1990.got - 2010.06.03 22:46:19.
