data_PCOD9314932
_publ_section_title
;
Structure prediction by ZEFSAII (Michael W. Deem and Ramdas Pophale) SiO2 
 PCOD9314932
Probable space group: P 21 21 21
;
_chemical_formula_sum "Si O2"
_cell_formula_units_Z 24
_cell_length_a 5.484774
_cell_length_b 21.599457
_cell_length_c 7.783985
_cell_angle_alpha 90.000000
_cell_angle_beta 90.000000
_cell_angle_gamma 90.000000
_cell_volume 922.154226
_symmetry_space_group_name_H-M "P 21 21 21"
_symmetry_group_IT_number 19
_symmetry_cell_setting 'orthorhombic'
loop_
_space_group_symop_operation_xyz
x,y,z
1/2-x,-y,1/2+z
1/2+x,1/2-y,-z
-x,1/2+y,1/2-z
loop_
_atom_site_type_symbol
_atom_site_label
_atom_site_fract_x
_atom_site_fract_y
_atom_site_fract_z
Si Si1 0.306692 0.090479 0.454168
Si Si2 0.475158 0.017043 0.038301
Si Si3 0.573320 0.789770 0.517813
Si Si4 0.655088 0.179581 0.342868
Si Si5 0.488173 0.321443 0.341264
Si Si6 0.017796 0.529687 0.569246
O O1 0.445442 0.129542 0.310114
O O2 0.496309 0.039215 0.520927
O O3 0.079154 0.044352 0.418655
O O4 0.216204 0.140276 0.590241
O O5 0.493679 0.988174 0.229426
O O6 0.233780 0.057435 0.001030
O O7 0.718343 0.050920 0.984595
O O8 0.314544 0.753367 0.518854
O O9 0.634081 0.819414 0.700889
O O10 0.562871 0.835414 0.355807
O O11 0.544526 0.248337 0.349124
O O12 0.770898 0.166158 0.527776
#
# Coordination Sequence:
#
# PCOD9314932 Si02
#       6
#     4   4   4   4   4   4
#     4  10  24  40  66 107 134 177 238 268 348 412
#     4  10  22  44  70  95 134 171 223 287 347 404
#     4  10  24  40  62  95 132 189 240 272 326 392
#     4  11  21  40  66  93 143 190 229 277 334 397
#     4  11  21  40  66  93 143 190 229 277 334 397
#     4  10  22  44  70  95 134 171 223 287 347 404
#
# _framework density 26.026012000000001
#
# number of rings (size 3 to 8) (size 9 to 14) (size 15 to 20)
#    1.000    0.667    1.667    3.000    4.667    0.000 
#    3.000    0.000    0.000    0.000    0.000    0.000 
#    0.000    0.000    0.000    0.000    0.000    0.000 
#
# Total GULP energy -134107.477463 kJ/mol
# GULP energy per Si atom -5587.811561 kJ/mol
# Density = 2.596678 g / cm^3
# Si number density = 26.026012 Si / 1000 Ang^3
#
#
#
# Elastic Constant Matrix: (Units=GPa)
#
#
# Indices 1 2 3 4 5 6 
#
# 1 185.2495 10.4638 60.8303 0.0000 0.0000 0.0000
# 2 10.4638 53.8149 -1.6210 0.0000 0.0000 0.0000
# 3 60.8303 -1.6210 85.1801 0.0000 0.0000 0.0000
# 4 0.0000 0.0000 0.0000 22.3832 0.0000 0.0000
# 5 0.0000 0.0000 0.0000 0.0000 49.5235 0.0000
# 6 0.0000 0.0000 0.0000 0.0000 0.0000 23.3854
#
#
#
# Elastic Compliance Matrix: (Units=1/GPa)
#
#
# Indices 1 2 3 4 5 6 
#
# 1 0.007179 -0.001551 -0.005156 0.000000 0.000000 0.000000
# 2 -0.001551 0.018928 0.001468 0.000000 0.000000 0.000000
# 3 -0.005156 0.001468 0.015450 0.000000 0.000000 0.000000
# 4 0.000000 0.000000 0.000000 0.044676 0.000000 0.000000
# 5 0.000000 0.000000 0.000000 0.000000 0.020192 0.000000
# 6 0.000000 0.000000 0.000000 0.000000 0.000000 0.042762
#
#
# Mechanical properties :
#
#
# Convention : Reuss Voigt Hill
#
# Bulk Modulus (GPa) = 32.17702 51.51007 41.84355
# Shear Modulus (GPa) = 29.40729 36.02983 32.71856
#
# Velocity S-wave (km/s) = 3.36507 3.72476 3.54948
# Velocity P-wave (km/s) = 5.24295 6.19138 5.73680
#
# Compressibility (1/GPa) = 0.03107808
#
# Stress axis : x y z
#
# Youngs Moduli (GPa) = 139.29713 52.83164 64.72476
#
# Poissons Ratio (x) = 0.08195 0.33374
# Poissons Ratio (y) = 0.21608 -0.09501
# Poissons Ratio (z) = 0.71825 -0.07756
#
# Static dielectric constant tensor:
#      x y z
#    x 2.051750 0.000000 0.000000 
#    y 0.000000 2.069390 0.000000 
#    z 0.000000 0.000000 2.068090 
# 
# From -- ./inp_files/2453.got.cif
#   From: 2010.05.17/outbox.cif.g08.bks.cpg/sg19_2_cif.got.tgz:2453.got - 2010.06.03 22:46:19.
