data_PCOD9314934
_publ_section_title
;
Structure prediction by ZEFSAII (Michael W. Deem and Ramdas Pophale) SiO2 
 PCOD9314934
Probable space group: P 21 21 21
;
_chemical_formula_sum "Si O2"
_cell_formula_units_Z 28
_cell_length_a 10.470109
_cell_length_b 19.691427
_cell_length_c 4.971459
_cell_angle_alpha 90.000000
_cell_angle_beta 90.000000
_cell_angle_gamma 90.000000
_cell_volume 1024.972598
_symmetry_space_group_name_H-M "P 21 21 21"
_symmetry_group_IT_number 19
_symmetry_cell_setting 'orthorhombic'
loop_
_space_group_symop_operation_xyz
x,y,z
1/2-x,-y,1/2+z
1/2+x,1/2-y,-z
-x,1/2+y,1/2-z
loop_
_atom_site_type_symbol
_atom_site_label
_atom_site_fract_x
_atom_site_fract_y
_atom_site_fract_z
Si Si1 0.503082 0.245160 0.324409
Si Si2 0.569600 0.869239 0.472998
Si Si3 0.962869 0.886995 0.069373
Si Si4 0.709135 0.540974 0.851921
Si Si5 0.164831 0.495154 0.771348
Si Si6 0.791852 0.798581 0.428582
Si Si7 0.177378 0.166500 0.313475
O O1 0.423150 0.311744 0.260510
O O2 0.457580 0.180232 0.486316
O O3 0.620736 0.276793 0.489227
O O4 0.569804 0.217251 0.058782
O O5 0.694836 0.839982 0.623328
O O6 0.441493 0.861663 0.639318
O O7 0.585251 0.940974 0.336218
O O8 0.063584 0.937059 0.211695
O O9 0.915121 0.929109 0.810259
O O10 0.838725 0.856900 0.217430
O O11 0.724268 0.481696 0.075622
O O12 0.771866 0.604738 0.008248
O O13 0.209331 0.503555 0.077296
O O14 0.743970 0.719611 0.375692
#
# Coordination Sequence:
#
# PCOD9314934 Si02
#       7
#     4   4   4   4   4   4   4
#     4  10  24  42  74 101 148 191 249 313 374 450
#     4  11  23  43  73 106 149 193 255 312 385 444
#     4  11  25  46  72 108 149 197 256 311 384 443
#     4  12  30  49  76 108 154 209 251 307 376 462
#     4  12  27  44  74 108 150 194 247 314 379 450
#     4  10  22  44  71 109 142 194 250 324 375 447
#     4  10  25  44  70 108 142 200 254 313 375 454
#
# _framework density 27.317805
#
# number of rings (size 3 to 8) (size 9 to 14) (size 15 to 20)
#    0.000    1.143    1.429    2.571   10.000    5.714 
#    0.000    0.000    0.000    0.000    0.000    0.000 
#    0.000    0.000    0.000    0.000    0.000    0.000 
#
# Total GULP energy -156528.481855 kJ/mol
# GULP energy per Si atom -5590.302923 kJ/mol
# Density = 2.725563 g / cm^3
# Si number density = 27.317805 Si / 1000 Ang^3
#
#
#
# Elastic Constant Matrix: (Units=GPa)
#
#
# Indices 1 2 3 4 5 6 
#
# 1 66.9961 44.3842 9.9330 0.0000 0.0000 0.0000
# 2 44.3842 156.6987 26.4701 0.0000 0.0000 0.0000
# 3 9.9330 26.4701 75.1870 0.0000 0.0000 0.0000
# 4 0.0000 0.0000 0.0000 37.8043 0.0000 0.0000
# 5 0.0000 0.0000 0.0000 0.0000 36.8625 0.0000
# 6 0.0000 0.0000 0.0000 0.0000 0.0000 31.9576
#
#
#
# Elastic Compliance Matrix: (Units=1/GPa)
#
#
# Indices 1 2 3 4 5 6 
#
# 1 0.018402 -0.005105 -0.000634 0.000000 0.000000 0.000000
# 2 -0.005105 0.008202 -0.002213 0.000000 0.000000 0.000000
# 3 -0.000634 -0.002213 0.014163 0.000000 0.000000 0.000000
# 4 0.000000 0.000000 0.000000 0.026452 0.000000 0.000000
# 5 0.000000 0.000000 0.000000 0.000000 0.027128 0.000000
# 6 0.000000 0.000000 0.000000 0.000000 0.000000 0.031291
#
#
# Mechanical properties :
#
#
# Convention : Reuss Voigt Hill
#
# Bulk Modulus (GPa) = 40.22069 51.16183 45.69126
# Shear Modulus (GPa) = 33.37115 35.86452 34.61784
#
# Velocity S-wave (km/s) = 3.49892 3.62728 3.56367
# Velocity P-wave (km/s) = 5.57480 6.02593 5.80475
#
# Compressibility (1/GPa) = 0.02486282
#
# Stress axis : x y z
#
# Youngs Moduli (GPa) = 54.34061 121.92808 70.60662
#
# Poissons Ratio (x) = 0.62248 0.04475
# Poissons Ratio (y) = 0.27743 0.15625
# Poissons Ratio (z) = 0.03444 0.26982
#
# Static dielectric constant tensor:
#      x y z
#    x 2.478810 0.000000 0.000000 
#    y 0.000000 2.132540 0.000000 
#    z 0.000000 0.000000 5.752560 
# 
# From -- ./inp_files/1065.got.cif
#   From: 2010.05.17/outbox.cif.g08.bks.cpg/sg19_1_cif.got.tgz:1065.got - 2010.06.03 22:46:19.
