data_PCOD9314401
_publ_section_title
;
Structure prediction by ZEFSAII (Michael W. Deem and Ramdas Pophale) SiO2 
 PCOD9314401
Probable space group: P 21 21 21
;
_chemical_formula_sum "Si O2"
_cell_formula_units_Z 32
_cell_length_a 5.585455
_cell_length_b 12.839443
_cell_length_c 18.226163
_cell_angle_alpha 90.000000
_cell_angle_beta 90.000000
_cell_angle_gamma 90.000000
_cell_volume 1307.073443
_symmetry_space_group_name_H-M "P 21 21 21"
_symmetry_group_IT_number 19
_symmetry_cell_setting 'orthorhombic'
loop_
_space_group_symop_operation_xyz
x,y,z
1/2-x,-y,1/2+z
1/2+x,1/2-y,-z
-x,1/2+y,1/2-z
loop_
_atom_site_type_symbol
_atom_site_label
_atom_site_fract_x
_atom_site_fract_y
_atom_site_fract_z
Si Si1 0.254326 0.803346 0.231754
Si Si2 0.509408 0.887392 0.364148
Si Si3 0.017994 0.825830 0.433835
Si Si4 0.840642 0.780822 0.157896
Si Si5 0.014211 0.379750 0.638616
Si Si6 0.941472 0.542023 0.863429
Si Si7 0.039789 0.914581 0.032211
Si Si8 0.269054 0.617160 0.421602
O O1 0.422317 0.809407 0.301060
O O2 0.323268 0.705523 0.179767
O O3 0.252101 0.920759 0.196355
O O4 0.970545 0.789900 0.236028
O O5 0.763599 0.859752 0.399622
O O6 0.265823 0.887709 0.414955
O O7 0.544834 0.003790 0.334325
O O8 0.956649 0.835707 0.519810
O O9 0.080210 0.708182 0.410235
O O10 0.750045 0.664675 0.151270
O O11 0.627449 0.864333 0.151038
O O12 0.988448 0.816977 0.086142
O O13 0.026994 0.383112 0.550078
O O14 0.071317 0.432454 0.857237
O O15 0.809134 0.553291 0.942373
O O16 0.872582 0.014534 0.050217
#
# Coordination Sequence:
#
# PCOD9314401 Si02
#       8
#     4   4   4   4   4   4   4   4
#     4  10  25  48  69 104 148 202 256 305 367 459
#     4  12  29  50  73 106 157 200 261 301 373 459
#     4  12  28  47  76 111 146 198 246 317 377 455
#     4   9  22  39  68 104 139 185 236 309 368 451
#     4  11  24  42  72 104 142 197 245 312 382 436
#     4   9  21  42  70 104 142 184 240 311 379 440
#     4  10  21  40  70 110 141 179 242 312 391 443
#     4  11  24  44  74 105 149 183 246 315 387 445
#
# _framework density 24.482175999999999
#
# number of rings (size 3 to 8) (size 9 to 14) (size 15 to 20)
#    0.000    1.500    1.250    1.500   14.000    2.000 
#    4.500    0.000    0.000    0.000    0.000    0.000 
#    0.000    0.000    0.000    0.000    0.000    0.000 
#
# Total GULP energy -178396.414546 kJ/mol
# GULP energy per Si atom -5574.887955 kJ/mol
# Density = 2.442645 g / cm^3
# Si number density = 24.482176 Si / 1000 Ang^3
#
#
#
# Elastic Constant Matrix: (Units=GPa)
#
#
# Indices 1 2 3 4 5 6 
#
# 1 101.7684 42.7933 12.6690 0.0000 0.0000 0.0000
# 2 42.7933 130.2154 6.9873 0.0000 0.0000 0.0000
# 3 12.6690 6.9873 34.6378 0.0000 0.0000 0.0000
# 4 0.0000 0.0000 0.0000 27.8443 0.0000 0.0000
# 5 0.0000 0.0000 0.0000 0.0000 35.0049 0.0000
# 6 0.0000 0.0000 0.0000 0.0000 0.0000 46.8267
#
#
#
# Elastic Compliance Matrix: (Units=1/GPa)
#
#
# Indices 1 2 3 4 5 6 
#
# 1 0.011825 -0.003694 -0.003580 0.000000 0.000000 0.000000
# 2 -0.003694 0.008918 -0.000448 0.000000 0.000000 0.000000
# 3 -0.003580 -0.000448 0.030270 0.000000 0.000000 0.000000
# 4 0.000000 0.000000 0.000000 0.035914 0.000000 0.000000
# 5 0.000000 0.000000 0.000000 0.000000 0.028567 0.000000
# 6 0.000000 0.000000 0.000000 0.000000 0.000000 0.021355
#
#
# Mechanical properties :
#
#
# Convention : Reuss Voigt Hill
#
# Bulk Modulus (GPa) = 28.11423 43.50229 35.80826
# Shear Modulus (GPa) = 30.46000 35.54663 33.00331
#
# Velocity S-wave (km/s) = 3.53111 3.81457 3.67557
# Velocity P-wave (km/s) = 5.30410 6.09990 5.71586
#
# Compressibility (1/GPa) = 0.03556918
#
# Stress axis : x y z
#
# Youngs Moduli (GPa) = 84.56483 112.13761 33.03607
#
# Poissons Ratio (x) = 0.41425 0.11827
# Poissons Ratio (y) = 0.31239 0.01479
# Poissons Ratio (z) = 0.30274 0.05021
#
# Static dielectric constant tensor:
#      x y z
#    x 2.166540 0.000000 0.000000 
#    y 0.000000 1.924860 0.000000 
#    z 0.000000 0.000000 2.142590 
# 
# From -- ./inp_files/6954.got.cif
#   From: 2010.05.17/outbox.cif.g08.bks.cpg/sg19_4_cif.got.tgz:6954.got - 2010.06.03 22:46:19.
