data_PCOD9314209
_publ_section_title
;
Structure prediction by ZEFSAII (Michael W. Deem and Ramdas Pophale) SiO2 
 PCOD9314209
Probable space group: P 21 21 21
;
_chemical_formula_sum "Si O2"
_cell_formula_units_Z 24
_cell_length_a 17.162545
_cell_length_b 7.322460
_cell_length_c 7.745764
_cell_angle_alpha 90.000000
_cell_angle_beta 90.000000
_cell_angle_gamma 90.000000
_cell_volume 973.426035
_symmetry_space_group_name_H-M "P 21 21 21"
_symmetry_group_IT_number 19
_symmetry_cell_setting 'orthorhombic'
loop_
_space_group_symop_operation_xyz
x,y,z
1/2-x,-y,1/2+z
1/2+x,1/2-y,-z
-x,1/2+y,1/2-z
loop_
_atom_site_type_symbol
_atom_site_label
_atom_site_fract_x
_atom_site_fract_y
_atom_site_fract_z
Si Si1 0.995252 0.563846 0.231603
Si Si2 0.852049 0.660325 0.418951
Si Si3 0.438539 0.587543 0.095958
Si Si4 0.908823 0.535808 0.783830
Si Si5 0.309482 0.305304 0.087688
Si Si6 0.372960 0.211910 0.737287
O O1 0.926499 0.698656 0.300516
O O2 0.941412 0.400706 0.159645
O O3 0.029988 0.495230 0.416506
O O4 0.070880 0.646472 0.137273
O O5 0.876323 0.646728 0.617317
O O6 0.781434 0.791737 0.373865
O O7 0.832798 0.445941 0.373476
O O8 0.508823 0.553164 0.229734
O O9 0.422356 0.801971 0.080825
O O10 0.360776 0.476764 0.144774
O O11 0.849745 0.376783 0.835866
O O12 0.317441 0.294884 0.879237
#
# Coordination Sequence:
#
# PCOD9314209 Si02
#       6
#     4   4   4   4   4   4
#     4   8  19  36  56  87 113 152 205 240 299 360
#     4   9  21  38  57  87 126 157 198 257 307 359
#     4  10  21  37  61  90 117 161 206 252 292 375
#     4  11  21  38  64  89 120 162 211 249 309 365
#     4  11  21  38  61  87 128 159 200 256 315 357
#     4   9  19  35  61  82 116 157 198 246 298 364
#
# _framework density 24.655187999999999
#
# number of rings (size 3 to 8) (size 9 to 14) (size 15 to 20)
#    1.000    1.333    1.667    1.000    2.333    0.000 
#    0.000    8.333    0.000    0.000    0.000    0.000 
#    0.000    0.000    0.000    0.000    0.000    0.000 
#
# Total GULP energy -133957.972218 kJ/mol
# GULP energy per Si atom -5581.582176 kJ/mol
# Density = 2.459907 g / cm^3
# Si number density = 24.655188 Si / 1000 Ang^3
#
#
#
# Elastic Constant Matrix: (Units=GPa)
#
#
# Indices 1 2 3 4 5 6 
#
# 1 64.3217 21.7888 16.9180 0.0000 0.0000 0.0000
# 2 21.7888 84.9515 -1.4676 0.0000 0.0000 0.0000
# 3 16.9180 -1.4676 50.8201 0.0000 0.0000 0.0000
# 4 0.0000 0.0000 0.0000 31.6256 0.0000 0.0000
# 5 0.0000 0.0000 0.0000 0.0000 17.5331 0.0000
# 6 0.0000 0.0000 0.0000 0.0000 0.0000 33.3148
#
#
#
# Elastic Compliance Matrix: (Units=1/GPa)
#
#
# Indices 1 2 3 4 5 6 
#
# 1 0.018923 -0.004965 -0.006443 0.000000 0.000000 0.000000
# 2 -0.004965 0.013080 0.002031 0.000000 0.000000 0.000000
# 3 -0.006443 0.002031 0.021881 0.000000 0.000000 0.000000
# 4 0.000000 0.000000 0.000000 0.031620 0.000000 0.000000
# 5 0.000000 0.000000 0.000000 0.000000 0.057035 0.000000
# 6 0.000000 0.000000 0.000000 0.000000 0.000000 0.030017
#
#
# Mechanical properties :
#
#
# Convention : Reuss Voigt Hill
#
# Bulk Modulus (GPa) = 28.46617 30.50797 29.48707
# Shear Modulus (GPa) = 24.62814 27.35166 25.98990
#
# Velocity S-wave (km/s) = 3.16397 3.33433 3.25027
# Velocity P-wave (km/s) = 4.99183 5.21770 5.10602
#
# Compressibility (1/GPa) = 0.03512942
#
# Stress axis : x y z
#
# Youngs Moduli (GPa) = 52.84489 76.45314 45.70231
#
# Poissons Ratio (x) = 0.37958 0.29446
# Poissons Ratio (y) = 0.26237 -0.09280
# Poissons Ratio (z) = 0.34048 -0.15524
#
# Static dielectric constant tensor:
#      x y z
#    x 1.934640 0.000000 0.000000 
#    y 0.000000 2.031590 0.000000 
#    z 0.000000 0.000000 1.985660 
# 
# From -- ./inp_files/4112.got.cif
#   From: 2010.05.17/outbox.cif.g08.bks.cpg/sg19_3_cif.got.tgz:4112.got - 2010.06.03 22:46:19.
