data_PCOD9314573
_publ_section_title
;
Structure prediction by ZEFSAII (Michael W. Deem and Ramdas Pophale) SiO2 
 PCOD9314573
Probable space group: P 21 21 21
;
_chemical_formula_sum "Si O2"
_cell_formula_units_Z 24
_cell_length_a 9.711012
_cell_length_b 4.831752
_cell_length_c 17.531273
_cell_angle_alpha 90.000000
_cell_angle_beta 90.000000
_cell_angle_gamma 90.000000
_cell_volume 822.588396
_symmetry_space_group_name_H-M "P 21 21 21"
_symmetry_group_IT_number 19
_symmetry_cell_setting 'orthorhombic'
loop_
_space_group_symop_operation_xyz
x,y,z
1/2-x,-y,1/2+z
1/2+x,1/2-y,-z
-x,1/2+y,1/2-z
loop_
_atom_site_type_symbol
_atom_site_label
_atom_site_fract_x
_atom_site_fract_y
_atom_site_fract_z
Si Si1 0.940959 0.366616 0.582931
Si Si2 0.824616 0.285442 0.947505
Si Si3 0.631247 0.422741 0.309252
Si Si4 0.532023 0.770270 0.702232
Si Si5 0.687097 0.909523 0.193081
Si Si6 0.553302 0.981722 0.946718
O O1 0.794785 0.347442 0.621125
O O2 0.940302 0.305416 0.493670
O O3 0.977763 0.107542 0.646281
O O4 0.065403 0.577110 0.594664
O O5 0.787460 0.532896 0.888683
O O6 0.692076 0.129459 0.976706
O O7 0.917833 0.398404 0.014007
O O8 0.632164 0.174558 0.250474
O O9 0.669378 0.685838 0.261035
O O10 0.555467 0.534005 0.766625
O O11 0.668574 0.929298 0.675336
O O12 0.454119 0.581701 0.639588
#
# Coordination Sequence:
#
# PCOD9314573 Si02
#       6
#     4   4   4   4   4   4
#     4   9  23  42  75 109 143 201 252 324 387 453
#     4  11  23  46  73 113 145 205 255 325 391 461
#     4   9  21  39  68 109 139 190 249 315 376 459
#     4  12  30  53  77 113 156 212 257 330 402 470
#     4  10  21  46  72 112 150 195 260 318 387 464
#     4  11  26  48  75 110 153 199 267 320 395 479
#
# _framework density 29.176193999999999
#
# number of rings (size 3 to 8) (size 9 to 14) (size 15 to 20)
#    1.000    0.667    0.000    3.000    2.333    6.667 
#    6.000    0.000    0.000    0.000    0.000    0.000 
#    0.000    0.000    0.000    0.000    0.000    0.000 
#
# Total GULP energy -133657.961647 kJ/mol
# GULP energy per Si atom -5569.081735 kJ/mol
# Density = 2.910979 g / cm^3
# Si number density = 29.176194 Si / 1000 Ang^3
#
#
#
# Elastic Constant Matrix: (Units=GPa)
#
#
# Indices 1 2 3 4 5 6 
#
# 1 108.0249 24.5409 37.2668 0.0000 0.0000 0.0000
# 2 24.5409 165.2258 45.4967 0.0000 0.0000 0.0000
# 3 37.2668 45.4967 107.7651 0.0000 0.0000 0.0000
# 4 0.0000 0.0000 0.0000 63.3890 0.0000 0.0000
# 5 0.0000 0.0000 0.0000 0.0000 51.4966 0.0000
# 6 0.0000 0.0000 0.0000 0.0000 0.0000 38.7409
#
#
#
# Elastic Compliance Matrix: (Units=1/GPa)
#
#
# Indices 1 2 3 4 5 6 
#
# 1 0.010570 -0.000638 -0.003386 0.000000 0.000000 0.000000
# 2 -0.000638 0.006887 -0.002687 0.000000 0.000000 0.000000
# 3 -0.003386 -0.002687 0.011585 0.000000 0.000000 0.000000
# 4 0.000000 0.000000 0.000000 0.015776 0.000000 0.000000
# 5 0.000000 0.000000 0.000000 0.000000 0.019419 0.000000
# 6 0.000000 0.000000 0.000000 0.000000 0.000000 0.025813
#
#
# Mechanical properties :
#
#
# Convention : Reuss Voigt Hill
#
# Bulk Modulus (GPa) = 64.01898 66.18050 65.09974
# Shear Modulus (GPa) = 46.00781 48.97271 47.49026
#
# Velocity S-wave (km/s) = 3.97532 4.10141 4.03886
# Velocity P-wave (km/s) = 6.56207 6.72020 6.64161
#
# Compressibility (1/GPa) = 0.01562037
#
# Stress axis : x y z
#
# Youngs Moduli (GPa) = 94.60620 145.20244 86.31951
#
# Poissons Ratio (x) = 0.09258 0.29229
# Poissons Ratio (y) = 0.06032 0.23195
# Poissons Ratio (z) = 0.32035 0.39017
#
# Static dielectric constant tensor:
#      x y z
#    x 2.472670 0.000000 0.000000 
#    y 0.000000 2.378610 0.000000 
#    z 0.000000 0.000000 2.319350 
# 
# From -- ./inp_files/6695.got.cif
#   From: 2010.05.17/outbox.cif.g08.bks.cpg/sg19_4_cif.got.tgz:6695.got - 2010.06.03 22:46:19.
