data_PCOD9314920
_publ_section_title
;
Structure prediction by ZEFSAII (Michael W. Deem and Ramdas Pophale) SiO2 
 PCOD9314920
Probable space group: P 21 21 21
;
_chemical_formula_sum "Si O2"
_cell_formula_units_Z 28
_cell_length_a 11.359832
_cell_length_b 10.625204
_cell_length_c 10.851971
_cell_angle_alpha 90.000000
_cell_angle_beta 90.000000
_cell_angle_gamma 90.000000
_cell_volume 1309.838677
_symmetry_space_group_name_H-M "P 21 21 21"
_symmetry_group_IT_number 19
_symmetry_cell_setting 'orthorhombic'
loop_
_space_group_symop_operation_xyz
x,y,z
1/2-x,-y,1/2+z
1/2+x,1/2-y,-z
-x,1/2+y,1/2-z
loop_
_atom_site_type_symbol
_atom_site_label
_atom_site_fract_x
_atom_site_fract_y
_atom_site_fract_z
Si Si1 0.838634 0.166670 0.614201
Si Si2 0.163254 0.248973 0.190296
Si Si3 0.698626 0.118308 0.046508
Si Si4 0.851329 0.446467 0.907810
Si Si5 0.463950 0.689022 0.256494
Si Si6 0.397771 0.221287 0.857938
Si Si7 0.746273 0.283520 0.379179
O O1 0.721480 0.217699 0.680864
O O2 0.947399 0.208648 0.699537
O O3 0.834972 0.230596 0.480615
O O4 0.831307 0.018458 0.595293
O O5 0.235270 0.132736 0.131295
O O6 0.024395 0.235731 0.188466
O O7 0.187451 0.365813 0.098302
O O8 0.607160 0.213522 0.115768
O O9 0.828129 0.161073 0.084269
O O10 0.945855 0.420654 0.798395
O O11 0.819943 0.591195 0.923556
O O12 0.898575 0.384280 0.034686
O O13 0.354786 0.682006 0.160766
O O14 0.319590 0.179367 0.742095
#
# Coordination Sequence:
#
# PCOD9314920 Si02
#       7
#     4   4   4   4   4   4   4
#     4  11  26  43  68 102 136 174 228 277 338 406
#     4  10  23  43  68  96 132 175 224 271 339 396
#     4  10  22  45  67  97 132 177 220 279 336 405
#     4  10  22  45  67  97 132 177 220 279 336 405
#     4  10  22  44  68  94 134 178 216 276 342 394
#     4  10  23  43  68  96 132 175 224 271 339 396
#     4  11  26  43  68 102 136 174 228 277 338 406
#
# _framework density 21.376678999999999
#
# number of rings (size 3 to 8) (size 9 to 14) (size 15 to 20)
#    0.000    1.714    1.429    0.857   10.000    1.143 
#    5.143    0.000    0.000    0.000    0.000    0.000 
#    0.000    0.000    0.000    0.000    0.000    0.000 
#
# Total GULP energy -156212.577153 kJ/mol
# GULP energy per Si atom -5579.020613 kJ/mol
# Density = 2.132802 g / cm^3
# Si number density = 21.376679 Si / 1000 Ang^3
#
#
#
# Elastic Constant Matrix: (Units=GPa)
#
#
# Indices 1 2 3 4 5 6 
#
# 1 112.2700 17.6210 7.6646 0.0000 0.0000 0.0000
# 2 17.6210 61.2593 26.4531 0.0000 0.0000 0.0000
# 3 7.6646 26.4531 80.1744 0.0000 0.0000 0.0000
# 4 0.0000 0.0000 0.0000 15.4304 0.0000 0.0000
# 5 0.0000 0.0000 0.0000 0.0000 13.8782 0.0000
# 6 0.0000 0.0000 0.0000 0.0000 0.0000 19.0255
#
#
#
# Elastic Compliance Matrix: (Units=1/GPa)
#
#
# Indices 1 2 3 4 5 6 
#
# 1 0.009328 -0.002680 -0.000008 0.000000 0.000000 0.000000
# 2 -0.002680 0.019806 -0.006279 0.000000 0.000000 0.000000
# 3 -0.000008 -0.006279 0.014545 0.000000 0.000000 0.000000
# 4 0.000000 0.000000 0.000000 0.064807 0.000000 0.000000
# 5 0.000000 0.000000 0.000000 0.000000 0.072055 0.000000
# 6 0.000000 0.000000 0.000000 0.000000 0.000000 0.052561
#
#
# Mechanical properties :
#
#
# Convention : Reuss Voigt Hill
#
# Bulk Modulus (GPa) = 38.83931 39.68681 39.26306
# Shear Modulus (GPa) = 19.25905 23.13115 21.19510
#
# Velocity S-wave (km/s) = 3.00482 3.29306 3.15223
# Velocity P-wave (km/s) = 5.49973 5.75020 5.62636
#
# Compressibility (1/GPa) = 0.02574711
#
# Stress axis : x y z
#
# Youngs Moduli (GPa) = 107.20129 50.48909 68.75135
#
# Poissons Ratio (x) = 0.13531 0.00052
# Poissons Ratio (y) = 0.28730 0.43167
# Poissons Ratio (z) = 0.00081 0.31701
#
# Static dielectric constant tensor:
#      x y z
#    x 1.794030 0.000000 0.000000 
#    y 0.000000 1.769930 0.000000 
#    z 0.000000 0.000000 1.763440 
# 
# From -- ./inp_files/3443.got.cif
#   From: 2010.05.17/outbox.cif.g08.bks.cpg/sg19_2_cif.got.tgz:3443.got - 2010.06.03 22:46:19.
