data_PCOD9314841
_publ_section_title
;
Structure prediction by ZEFSAII (Michael W. Deem and Ramdas Pophale) SiO2 
 PCOD9314841
Probable space group: P 21 21 21
;
_chemical_formula_sum "Si O2"
_cell_formula_units_Z 24
_cell_length_a 16.257425
_cell_length_b 7.377808
_cell_length_c 6.924632
_cell_angle_alpha 90.000000
_cell_angle_beta 90.000000
_cell_angle_gamma 90.000000
_cell_volume 830.569170
_symmetry_space_group_name_H-M "P 21 21 21"
_symmetry_group_IT_number 19
_symmetry_cell_setting 'orthorhombic'
loop_
_space_group_symop_operation_xyz
x,y,z
1/2-x,-y,1/2+z
1/2+x,1/2-y,-z
-x,1/2+y,1/2-z
loop_
_atom_site_type_symbol
_atom_site_label
_atom_site_fract_x
_atom_site_fract_y
_atom_site_fract_z
Si Si1 0.203966 0.437848 0.257880
Si Si2 0.053462 0.942459 0.433784
Si Si3 0.146641 0.813820 0.104360
Si Si4 0.289777 0.084776 0.187978
Si Si5 0.011336 0.137652 0.784240
Si Si6 0.135551 0.364325 0.677472
O O1 0.150779 0.603098 0.171055
O O2 0.226757 0.252736 0.149820
O O3 0.165697 0.369739 0.457980
O O4 0.293446 0.529189 0.286984
O O5 0.069807 0.915919 0.207525
O O6 0.015848 0.768049 0.540321
O O7 0.010003 0.112191 0.542594
O O8 0.146071 0.932328 0.515779
O O9 0.157425 0.843486 0.874695
O O10 0.231010 0.910374 0.178387
O O11 0.109100 0.180286 0.783967
O O12 0.952421 0.967606 0.824171
#
# Coordination Sequence:
#
# PCOD9314841 Si02
#       6
#     4   4   4   4   4   4
#     4  12  22  42  64 106 128 184 236 296 326 436
#     4  11  22  44  64  98 132 187 227 285 348 430
#     4  12  24  40  67 101 141 174 232 290 353 413
#     4  12  24  40  67 101 141 174 232 290 353 413
#     4  10  22  42  70  92 136 193 223 288 364 432
#     4  11  22  40  72  92 138 174 240 281 360 408
#
# _framework density 28.895848000000001
#
# number of rings (size 3 to 8) (size 9 to 14) (size 15 to 20)
#    0.000    0.667    6.667    2.000    0.000    0.000 
#    0.000    1.667   14.667    0.000    0.000    0.000 
#    0.000    0.000    0.000    0.000    0.000    0.000 
#
# Total GULP energy -133859.898695 kJ/mol
# GULP energy per Si atom -5577.495779 kJ/mol
# Density = 2.883008 g / cm^3
# Si number density = 28.895848 Si / 1000 Ang^3
#
#
#
# Elastic Constant Matrix: (Units=GPa)
#
#
# Indices 1 2 3 4 5 6 
#
# 1 92.8357 10.9767 47.9140 0.0000 0.0000 0.0000
# 2 10.9767 109.3837 27.1210 0.0000 0.0000 0.0000
# 3 47.9140 27.1210 117.7035 0.0000 0.0000 0.0000
# 4 0.0000 0.0000 0.0000 55.9227 0.0000 0.0000
# 5 0.0000 0.0000 0.0000 0.0000 76.4077 0.0000
# 6 0.0000 0.0000 0.0000 0.0000 0.0000 50.6727
#
#
#
# Elastic Compliance Matrix: (Units=1/GPa)
#
#
# Indices 1 2 3 4 5 6 
#
# 1 0.013637 0.000008 -0.005553 0.000000 0.000000 0.000000
# 2 0.000008 0.009696 -0.002238 0.000000 0.000000 0.000000
# 3 -0.005553 -0.002238 0.011272 0.000000 0.000000 0.000000
# 4 0.000000 0.000000 0.000000 0.017882 0.000000 0.000000
# 5 0.000000 0.000000 0.000000 0.000000 0.013088 0.000000
# 6 0.000000 0.000000 0.000000 0.000000 0.000000 0.019734
#
#
# Mechanical properties :
#
#
# Convention : Reuss Voigt Hill
#
# Bulk Modulus (GPa) = 52.52010 54.66069 53.59039
# Shear Modulus (GPa) = 46.63301 52.19470 49.41385
#
# Velocity S-wave (km/s) = 4.02161 4.25467 4.13978
# Velocity P-wave (km/s) = 6.30710 6.56459 6.43714
#
# Compressibility (1/GPa) = 0.01904033
#
# Stress axis : x y z
#
# Youngs Moduli (GPa) = 73.33115 103.13443 88.71524
#
# Poissons Ratio (x) = -0.00087 0.49264
# Poissons Ratio (y) = -0.00062 0.19851
# Poissons Ratio (z) = 0.40722 0.23077
#
# Static dielectric constant tensor:
#      x y z
#    x 2.427000 0.000000 0.000000 
#    y 0.000000 2.464200 0.000000 
#    z 0.000000 0.000000 2.238870 
# 
# From -- ./inp_files/4114.got.cif
#   From: 2010.05.17/outbox.cif.g08.bks.cpg/sg19_3_cif.got.tgz:4114.got - 2010.06.03 22:46:19.
