data_PCOD9314339
_publ_section_title
;
Structure prediction by ZEFSAII (Michael W. Deem and Ramdas Pophale) SiO2 
 PCOD9314339
Probable space group: P 21 21 21
;
_chemical_formula_sum "Si O2"
_cell_formula_units_Z 20
_cell_length_a 16.268832
_cell_length_b 4.760207
_cell_length_c 11.058854
_cell_angle_alpha 90.000000
_cell_angle_beta 90.000000
_cell_angle_gamma 90.000000
_cell_volume 856.430918
_symmetry_space_group_name_H-M "P 21 21 21"
_symmetry_group_IT_number 19
_symmetry_cell_setting 'orthorhombic'
loop_
_space_group_symop_operation_xyz
x,y,z
1/2-x,-y,1/2+z
1/2+x,1/2-y,-z
-x,1/2+y,1/2-z
loop_
_atom_site_type_symbol
_atom_site_label
_atom_site_fract_x
_atom_site_fract_y
_atom_site_fract_z
Si Si1 0.450112 0.776160 0.787547
Si Si2 0.485794 0.879749 0.329043
Si Si3 0.314323 0.020333 0.264053
Si Si4 0.880105 0.782343 0.970655
Si Si5 0.788672 0.020115 0.183827
O O1 0.479058 0.039937 0.710923
O O2 0.368902 0.602020 0.748060
O O3 0.428329 0.880114 0.922563
O O4 0.505492 0.055203 0.205100
O O5 0.553955 0.996502 0.418542
O O6 0.390925 0.952838 0.352130
O O7 0.341642 0.908394 0.133113
O O8 0.234179 0.842284 0.300834
O O9 0.289587 0.343407 0.270419
O O10 0.809334 0.945012 0.045146
#
# Coordination Sequence:
#
# PCOD9314339 Si02
#       5
#     4   4   4   4   4
#     4  10  22  43  63  91 128 172 213 257 321 391
#     4  10  21  39  68  91 123 170 219 262 317 391
#     4  11  21  43  64  96 129 166 221 265 325 380
#     4   9  24  43  66  89 134 171 209 270 323 371
#     4  10  24  40  65  95 132 167 212 274 318 385
#
# _framework density 23.352730999999999
#
# number of rings (size 3 to 8) (size 9 to 14) (size 15 to 20)
#    1.200    0.800    0.000    3.600    0.000    9.600 
#   10.800    0.000    0.000    0.000    0.000    0.000 
#    0.000    0.000    0.000    0.000    0.000    0.000 
#
# Total GULP energy -111660.773385 kJ/mol
# GULP energy per Si atom -5583.038669 kJ/mol
# Density = 2.329958 g / cm^3
# Si number density = 23.352731 Si / 1000 Ang^3
#
#
#
# Elastic Constant Matrix: (Units=GPa)
#
#
# Indices 1 2 3 4 5 6 
#
# 1 99.7300 20.9198 28.0647 0.0000 0.0000 0.0000
# 2 20.9198 77.4730 -0.9186 0.0000 0.0000 0.0000
# 3 28.0647 -0.9186 76.4820 0.0000 0.0000 0.0000
# 4 0.0000 0.0000 0.0000 22.4224 0.0000 0.0000
# 5 0.0000 0.0000 0.0000 0.0000 36.3405 0.0000
# 6 0.0000 0.0000 0.0000 0.0000 0.0000 53.5020
#
#
#
# Elastic Compliance Matrix: (Units=1/GPa)
#
#
# Indices 1 2 3 4 5 6 
#
# 1 0.011962 -0.003283 -0.004429 0.000000 0.000000 0.000000
# 2 -0.003283 0.013810 0.001370 0.000000 0.000000 0.000000
# 3 -0.004429 0.001370 0.014717 0.000000 0.000000 0.000000
# 4 0.000000 0.000000 0.000000 0.044598 0.000000 0.000000
# 5 0.000000 0.000000 0.000000 0.000000 0.027518 0.000000
# 6 0.000000 0.000000 0.000000 0.000000 0.000000 0.018691
#
#
# Mechanical properties :
#
#
# Convention : Reuss Voigt Hill
#
# Bulk Modulus (GPa) = 35.96228 38.86853 37.41541
# Shear Modulus (GPa) = 32.62716 36.16090 34.39403
#
# Velocity S-wave (km/s) = 3.74190 3.93932 3.84188
# Velocity P-wave (km/s) = 5.83970 6.11320 5.97802
#
# Compressibility (1/GPa) = 0.02780692
#
# Stress axis : x y z
#
# Youngs Moduli (GPa) = 83.59851 72.40939 67.95066
#
# Poissons Ratio (x) = 0.23769 0.30094
# Poissons Ratio (y) = 0.27442 -0.09312
# Poissons Ratio (z) = 0.37024 -0.09923
#
# Static dielectric constant tensor:
#      x y z
#    x 1.928840 0.000000 0.000000 
#    y 0.000000 1.821610 0.000000 
#    z 0.000000 0.000000 1.885860 
# 
# From -- ./inp_files/5319.got.cif
#   From: 2010.05.17/outbox.cif.g08.bks.cpg/sg19_3_cif.got.tgz:5319.got - 2010.06.03 22:46:19.
