data_PCOD9314355
_publ_section_title
;
Structure prediction by ZEFSAII (Michael W. Deem and Ramdas Pophale) SiO2 
 PCOD9314355
Probable space group: P 21 21 21
;
_chemical_formula_sum "Si O2"
_cell_formula_units_Z 24
_cell_length_a 23.014745
_cell_length_b 7.033132
_cell_length_c 5.755306
_cell_angle_alpha 90.000000
_cell_angle_beta 90.000000
_cell_angle_gamma 90.000000
_cell_volume 931.586862
_symmetry_space_group_name_H-M "P 21 21 21"
_symmetry_group_IT_number 19
_symmetry_cell_setting 'orthorhombic'
loop_
_space_group_symop_operation_xyz
x,y,z
1/2-x,-y,1/2+z
1/2+x,1/2-y,-z
-x,1/2+y,1/2-z
loop_
_atom_site_type_symbol
_atom_site_label
_atom_site_fract_x
_atom_site_fract_y
_atom_site_fract_z
Si Si1 0.753795 0.312494 0.700913
Si Si2 0.609160 0.133886 0.077294
Si Si3 0.117771 0.091306 0.306256
Si Si4 0.473232 0.626821 0.040063
Si Si5 0.231093 0.251191 0.789432
Si Si6 0.575800 0.807034 0.774098
O O1 0.684689 0.350848 0.676560
O O2 0.766629 0.219123 0.449858
O O3 0.781539 0.522441 0.705967
O O4 0.760485 0.216911 0.955409
O O5 0.547978 0.092077 0.200609
O O6 0.669348 0.141640 0.216948
O O7 0.602791 0.336025 0.952321
O O8 0.615411 0.967395 0.889044
O O9 0.108606 0.868755 0.341910
O O10 0.074674 0.214835 0.463207
O O11 0.534407 0.710248 0.966188
O O12 0.462634 0.430916 0.902512
#
# Coordination Sequence:
#
# PCOD9314355 Si02
#       6
#     4   4   4   4   4   4
#     4   9  17  33  63  91 119 161 205 252 306 374
#     4  10  23  37  60  85 118 156 202 253 306 369
#     4  10  21  40  59  85 118 155 207 247 308 363
#     4  11  22  39  57  84 117 156 199 254 304 369
#     4   9  17  34  61  92 120 159 207 249 309 370
#     4  11  24  37  58  87 118 157 204 257 309 367
#
# _framework density 25.762492999999999
#
# number of rings (size 3 to 8) (size 9 to 14) (size 15 to 20)
#    0.000    2.000    3.333    0.000    2.333    1.333 
#    0.000    0.000    3.667    0.000    0.000    0.000 
#    0.000    0.000    0.000    0.000    0.000    0.000 
#
# Total GULP energy -134127.725897 kJ/mol
# GULP energy per Si atom -5588.655246 kJ/mol
# Density = 2.570386 g / cm^3
# Si number density = 25.762493 Si / 1000 Ang^3
#
#
#
# Elastic Constant Matrix: (Units=GPa)
#
#
# Indices 1 2 3 4 5 6 
#
# 1 67.8170 22.2073 -1.3026 0.0000 0.0000 0.0000
# 2 22.2073 137.2939 18.2827 0.0000 0.0000 0.0000
# 3 -1.3026 18.2827 122.4389 0.0000 0.0000 0.0000
# 4 0.0000 0.0000 0.0000 4.8580 0.0000 0.0000
# 5 0.0000 0.0000 0.0000 0.0000 32.5206 0.0000
# 6 0.0000 0.0000 0.0000 0.0000 0.0000 38.6267
#
#
#
# Elastic Compliance Matrix: (Units=1/GPa)
#
#
# Indices 1 2 3 4 5 6 
#
# 1 0.015607 -0.002598 0.000554 0.000000 0.000000 0.000000
# 2 -0.002598 0.007864 -0.001202 0.000000 0.000000 0.000000
# 3 0.000554 -0.001202 0.008353 0.000000 0.000000 0.000000
# 4 0.000000 0.000000 0.000000 0.205845 0.000000 0.000000
# 5 0.000000 0.000000 0.000000 0.000000 0.030750 0.000000
# 6 0.000000 0.000000 0.000000 0.000000 0.000000 0.025889
#
#
# Mechanical properties :
#
#
# Convention : Reuss Voigt Hill
#
# Bulk Modulus (GPa) = 39.47656 45.10272 42.28964
# Shear Modulus (GPa) = 16.16852 34.42522 25.29687
#
# Velocity S-wave (km/s) = 2.50791 3.65945 3.13697
# Velocity P-wave (km/s) = 4.87265 5.94983 5.43798
#
# Compressibility (1/GPa) = 0.02533149
#
# Stress axis : x y z
#
# Youngs Moduli (GPa) = 64.07374 127.16246 119.72176
#
# Poissons Ratio (x) = 0.33039 -0.06633
# Poissons Ratio (y) = 0.16648 0.14389
# Poissons Ratio (z) = -0.03550 0.15284
#
# Static dielectric constant tensor:
#      x y z
#    x 2.020020 0.000000 0.000000 
#    y 0.000000 1.975150 0.000000 
#    z 0.000000 0.000000 2.164320 
# 
# From -- ./inp_files/212.got.cif
#   From: 2010.05.17/outbox.cif.g08.bks.cpg/sg19_1_cif.got.tgz:212.got - 2010.06.03 22:46:19.
