data_PCOD9314446
_publ_section_title
;
Structure prediction by ZEFSAII (Michael W. Deem and Ramdas Pophale) SiO2 
 PCOD9314446
Probable space group: P 21 21 21
;
_chemical_formula_sum "Si O2"
_cell_formula_units_Z 32
_cell_length_a 8.618755
_cell_length_b 12.648186
_cell_length_c 13.826547
_cell_angle_alpha 90.000000
_cell_angle_beta 90.000000
_cell_angle_gamma 90.000000
_cell_volume 1507.254237
_symmetry_space_group_name_H-M "P 21 21 21"
_symmetry_group_IT_number 19
_symmetry_cell_setting 'orthorhombic'
loop_
_space_group_symop_operation_xyz
x,y,z
1/2-x,-y,1/2+z
1/2+x,1/2-y,-z
-x,1/2+y,1/2-z
loop_
_atom_site_type_symbol
_atom_site_label
_atom_site_fract_x
_atom_site_fract_y
_atom_site_fract_z
Si Si1 0.765302 0.841132 0.308715
Si Si2 0.520011 0.150375 0.500842
Si Si3 0.156697 0.051070 0.077662
Si Si4 0.300062 0.584990 0.190108
Si Si5 0.834214 0.168141 0.604190
Si Si6 0.481641 0.559957 0.385963
Si Si7 0.055632 0.698220 0.304511
Si Si8 0.287502 0.736717 0.481569
O O1 0.654374 0.809332 0.219369
O O2 0.719201 0.797002 0.413863
O O3 0.933763 0.791153 0.289856
O O4 0.768601 0.967147 0.310968
O O5 0.614539 0.106775 0.408907
O O6 0.653184 0.175198 0.578083
O O7 0.426920 0.250945 0.462175
O O8 0.407461 0.059221 0.539792
O O9 0.334840 0.043996 0.110253
O O10 0.045969 0.096897 0.161835
O O11 0.154130 0.143759 0.996267
O O12 0.420848 0.588334 0.279139
O O13 0.164346 0.667625 0.215354
O O14 0.895692 0.049483 0.587061
O O15 0.422222 0.652381 0.456830
O O16 0.166262 0.725860 0.394921
#
# Coordination Sequence:
#
# PCOD9314446 Si02
#       8
#     4   4   4   4   4   4   4   4
#     4  10  21  41  67  95 131 169 219 277 328 396
#     4  12  26  45  66  95 134 190 224 273 334 403
#     4  11  21  39  69  98 128 170 224 276 334 392
#     4  10  23  43  65  96 136 178 220 272 334 397
#     4  11  26  45  64  92 136 182 226 271 330 404
#     4  10  22  43  66 100 135 171 220 283 331 399
#     4  10  22  41  67 100 129 172 215 277 332 404
#     4  10  21  41  70 100 131 166 216 283 343 389
#
# _framework density 21.23066
#
# number of rings (size 3 to 8) (size 9 to 14) (size 15 to 20)
#    0.000    1.500    0.000    6.000    5.250    1.000 
#   13.500    1.250    0.000    0.000    0.000    0.000 
#    0.000    0.000    0.000    0.000    0.000    0.000 
#
# Total GULP energy -179012.413570 kJ/mol
# GULP energy per Si atom -5594.137924 kJ/mol
# Density = 2.118234 g / cm^3
# Si number density = 21.230660 Si / 1000 Ang^3
#
#
#
# Elastic Constant Matrix: (Units=GPa)
#
#
# Indices 1 2 3 4 5 6 
#
# 1 86.3418 14.3279 7.5742 0.0000 0.0000 0.0000
# 2 14.3279 55.5766 11.0420 0.0000 0.0000 0.0000
# 3 7.5742 11.0420 66.6478 0.0000 0.0000 0.0000
# 4 0.0000 0.0000 0.0000 19.7248 0.0000 0.0000
# 5 0.0000 0.0000 0.0000 0.0000 21.0819 0.0000
# 6 0.0000 0.0000 0.0000 0.0000 0.0000 42.0034
#
#
#
# Elastic Compliance Matrix: (Units=1/GPa)
#
#
# Indices 1 2 3 4 5 6 
#
# 1 0.012150 -0.002955 -0.000891 0.000000 0.000000 0.000000
# 2 -0.002955 0.019324 -0.002866 0.000000 0.000000 0.000000
# 3 -0.000891 -0.002866 0.015580 0.000000 0.000000 0.000000
# 4 0.000000 0.000000 0.000000 0.050698 0.000000 0.000000
# 5 0.000000 0.000000 0.000000 0.000000 0.047434 0.000000
# 6 0.000000 0.000000 0.000000 0.000000 0.000000 0.023808
#
#
# Mechanical properties :
#
#
# Convention : Reuss Voigt Hill
#
# Bulk Modulus (GPa) = 29.73485 30.49495 30.11490
# Shear Modulus (GPa) = 25.82254 28.27017 27.04635
#
# Velocity S-wave (km/s) = 3.49131 3.65303 3.57309
# Velocity P-wave (km/s) = 5.50349 5.67342 5.58910
#
# Compressibility (1/GPa) = 0.03363057
#
# Stress axis : x y z
#
# Youngs Moduli (GPa) = 82.30130 51.74791 64.18354
#
# Poissons Ratio (x) = 0.15293 0.05720
# Poissons Ratio (y) = 0.24323 0.18393
# Poissons Ratio (z) = 0.07335 0.14830
#
# Static dielectric constant tensor:
#      x y z
#    x 1.756410 0.000000 0.000000 
#    y 0.000000 1.746160 0.000000 
#    z 0.000000 0.000000 1.774970 
# 
# From -- ./inp_files/5934.got.cif
#   From: 2010.05.17/outbox.cif.g08.bks.cpg/sg19_3_cif.got.tgz:5934.got - 2010.06.03 22:46:19.
