data_PCOD9314929
_publ_section_title
;
Structure prediction by ZEFSAII (Michael W. Deem and Ramdas Pophale) SiO2 
 PCOD9314929
Probable space group: P 21 21 21
;
_chemical_formula_sum "Si O2"
_cell_formula_units_Z 32
_cell_length_a 26.728374
_cell_length_b 8.961606
_cell_length_c 5.262337
_cell_angle_alpha 90.000000
_cell_angle_beta 90.000000
_cell_angle_gamma 90.000000
_cell_volume 1260.483144
_symmetry_space_group_name_H-M "P 21 21 21"
_symmetry_group_IT_number 19
_symmetry_cell_setting 'orthorhombic'
loop_
_space_group_symop_operation_xyz
x,y,z
1/2-x,-y,1/2+z
1/2+x,1/2-y,-z
-x,1/2+y,1/2-z
loop_
_atom_site_type_symbol
_atom_site_label
_atom_site_fract_x
_atom_site_fract_y
_atom_site_fract_z
Si Si1 0.340576 0.467440 0.063852
Si Si2 0.020912 0.205806 0.572705
Si Si3 0.025361 0.973675 0.177709
Si Si4 0.565862 0.768607 0.437636
Si Si5 0.123307 0.952558 0.956734
Si Si6 0.267774 0.920662 0.838966
Si Si7 0.140136 0.183635 0.562202
Si Si8 0.194140 0.692103 0.075868
O O1 0.395325 0.398518 0.001233
O O2 0.344713 0.644599 0.079144
O O3 0.325072 0.407444 0.341071
O O4 0.305569 0.402046 0.836527
O O5 0.079997 0.180373 0.563350
O O6 0.010371 0.376410 0.498241
O O7 0.987280 0.180160 0.820943
O O8 0.999731 0.087411 0.368227
O O9 0.051986 0.842339 0.339625
O O10 0.075642 0.042772 0.062196
O O11 0.594652 0.663720 0.234403
O O12 0.157209 0.835312 0.112024
O O13 0.153890 0.070567 0.789795
O O14 0.327292 0.886884 0.833609
O O15 0.243239 0.773061 0.966183
O O16 0.254457 0.043481 0.059668
#
# Coordination Sequence:
#
# PCOD9314929 Si02
#       8
#     4   4   4   4   4   4   4   4
#     4  11  27  46  78 112 157 197 251 315 400 461
#     4  11  28  40  69 102 151 186 260 306 381 456
#     4  11  24  42  69  98 141 203 241 312 374 463
#     4  10  23  44  64  99 145 201 238 300 380 464
#     4  10  22  44  70 102 138 197 257 300 377 457
#     4  12  28  49  83 114 149 196 266 325 388 465
#     4  12  28  47  73 117 147 196 261 337 374 466
#     4  11  24  50  76 106 154 202 242 317 392 476
#
# _framework density 25.387091999999999
#
# number of rings (size 3 to 8) (size 9 to 14) (size 15 to 20)
#    0.000    1.000    3.750    0.750    8.750    3.000 
#    0.000    0.000    0.000    0.000    0.000    0.000 
#    0.000    0.000    0.000    0.000    0.000    0.000 
#
# Total GULP energy -178932.943973 kJ/mol
# GULP energy per Si atom -5591.654499 kJ/mol
# Density = 2.532931 g / cm^3
# Si number density = 25.387092 Si / 1000 Ang^3
#
#
#
# Elastic Constant Matrix: (Units=GPa)
#
#
# Indices 1 2 3 4 5 6 
#
# 1 94.8509 13.8877 -2.2095 0.0000 0.0000 0.0000
# 2 13.8877 127.6630 12.7634 0.0000 0.0000 0.0000
# 3 -2.2095 12.7634 59.8544 0.0000 0.0000 0.0000
# 4 0.0000 0.0000 0.0000 29.9986 0.0000 0.0000
# 5 0.0000 0.0000 0.0000 0.0000 30.6442 0.0000
# 6 0.0000 0.0000 0.0000 0.0000 0.0000 31.3650
#
#
#
# Elastic Compliance Matrix: (Units=1/GPa)
#
#
# Indices 1 2 3 4 5 6 
#
# 1 0.010739 -0.001234 0.000660 0.000000 0.000000 0.000000
# 2 -0.001234 0.008146 -0.001783 0.000000 0.000000 0.000000
# 3 0.000660 -0.001783 0.017112 0.000000 0.000000 0.000000
# 4 0.000000 0.000000 0.000000 0.033335 0.000000 0.000000
# 5 0.000000 0.000000 0.000000 0.000000 0.032633 0.000000
# 6 0.000000 0.000000 0.000000 0.000000 0.000000 0.031883
#
#
# Mechanical properties :
#
#
# Convention : Reuss Voigt Hill
#
# Bulk Modulus (GPa) = 31.96730 36.80574 34.38652
# Shear Modulus (GPa) = 33.55978 35.59667 34.57822
#
# Velocity S-wave (km/s) = 3.63977 3.74860 3.69459
# Velocity P-wave (km/s) = 5.50302 5.76761 5.63686
#
# Compressibility (1/GPa) = 0.03128197
#
# Stress axis : x y z
#
# Youngs Moduli (GPa) = 93.11917 122.76571 58.43968
#
# Poissons Ratio (x) = 0.15151 -0.03855
# Poissons Ratio (y) = 0.11493 0.10417
# Poissons Ratio (z) = -0.06142 0.21883
#
# Static dielectric constant tensor:
#      x y z
#    x 2.073040 0.000000 0.000000 
#    y 0.000000 1.993320 0.000000 
#    z 0.000000 0.000000 2.069720 
# 
# From -- ./inp_files/2327.got.cif
#   From: 2010.05.17/outbox.cif.g08.bks.cpg/sg19_2_cif.got.tgz:2327.got - 2010.06.03 22:46:19.
