data_PCOD9314916
_publ_section_title
;
Structure prediction by ZEFSAII (Michael W. Deem and Ramdas Pophale) SiO2 
 PCOD9314916
Probable space group: P 21 21 21
;
_chemical_formula_sum "Si O2"
_cell_formula_units_Z 32
_cell_length_a 15.025395
_cell_length_b 5.084415
_cell_length_c 16.423591
_cell_angle_alpha 90.000000
_cell_angle_beta 90.000000
_cell_angle_gamma 90.000000
_cell_volume 1254.685880
_symmetry_space_group_name_H-M "P 21 21 21"
_symmetry_group_IT_number 19
_symmetry_cell_setting 'orthorhombic'
loop_
_space_group_symop_operation_xyz
x,y,z
1/2-x,-y,1/2+z
1/2+x,1/2-y,-z
-x,1/2+y,1/2-z
loop_
_atom_site_type_symbol
_atom_site_label
_atom_site_fract_x
_atom_site_fract_y
_atom_site_fract_z
Si Si1 0.223694 0.163895 0.000602
Si Si2 0.702429 0.519517 0.831238
Si Si3 0.378487 0.547417 0.063643
Si Si4 0.295273 0.505586 0.227022
Si Si5 0.124903 0.060974 0.415364
Si Si6 0.031483 0.562112 0.802156
Si Si7 0.553798 0.238959 0.748858
Si Si8 0.976539 0.849070 0.524769
O O1 0.211132 0.942250 0.071423
O O2 0.298307 0.346417 0.042250
O O3 0.127774 0.296321 0.988506
O O4 0.278529 0.078083 0.920235
O O5 0.716007 0.784306 0.779272
O O6 0.608051 0.378544 0.820135
O O7 0.766676 0.289951 0.795789
O O8 0.356717 0.628070 0.154874
O O9 0.472895 0.405877 0.058420
O O10 0.371533 0.750204 0.992016
O O11 0.362027 0.496166 0.301570
O O12 0.110766 0.215919 0.332717
O O13 0.034554 0.904752 0.442206
O O14 0.008420 0.547790 0.898452
O O15 0.016774 0.826676 0.748697
O O16 0.471496 0.439209 0.738778
#
# Coordination Sequence:
#
# PCOD9314916 Si02
#       8
#     4   4   4   4   4   4   4   4
#     4  10  24  42  69 103 137 186 239 297 360 433
#     4  11  24  45  70  99 141 184 234 294 365 424
#     4  10  22  44  67  97 143 185 231 297 358 434
#     4  11  22  43  68  99 141 183 223 288 363 433
#     4  11  25  46  73  99 146 191 243 305 362 431
#     4  12  25  42  68 102 143 181 230 284 363 431
#     4  12  29  49  75 105 145 195 252 305 365 436
#     4  11  25  43  70 102 140 187 242 296 360 434
#
# _framework density 25.504390999999998
#
# number of rings (size 3 to 8) (size 9 to 14) (size 15 to 20)
#    0.000    1.000    2.500    3.000    8.750    3.000 
#    0.000    0.000    0.000    0.000    0.000    0.000 
#    0.000    0.000    0.000    0.000    0.000    0.000 
#
# Total GULP energy -178727.014299 kJ/mol
# GULP energy per Si atom -5585.219197 kJ/mol
# Density = 2.544634 g / cm^3
# Si number density = 25.504391 Si / 1000 Ang^3
#
#
#
# Elastic Constant Matrix: (Units=GPa)
#
#
# Indices 1 2 3 4 5 6 
#
# 1 82.1981 20.8541 12.0877 0.0000 0.0000 0.0000
# 2 20.8541 59.2839 -9.7864 0.0000 0.0000 0.0000
# 3 12.0877 -9.7864 79.1055 0.0000 0.0000 0.0000
# 4 0.0000 0.0000 0.0000 9.4136 0.0000 0.0000
# 5 0.0000 0.0000 0.0000 0.0000 27.7656 0.0000
# 6 0.0000 0.0000 0.0000 0.0000 0.0000 20.4599
#
#
#
# Elastic Compliance Matrix: (Units=1/GPa)
#
#
# Indices 1 2 3 4 5 6 
#
# 1 0.013937 -0.005364 -0.002793 0.000000 0.000000 0.000000
# 2 -0.005364 0.019284 0.003205 0.000000 0.000000 0.000000
# 3 -0.002793 0.003205 0.013465 0.000000 0.000000 0.000000
# 4 0.000000 0.000000 0.000000 0.106230 0.000000 0.000000
# 5 0.000000 0.000000 0.000000 0.000000 0.036016 0.000000
# 6 0.000000 0.000000 0.000000 0.000000 0.000000 0.048876
#
#
# Mechanical properties :
#
#
# Convention : Reuss Voigt Hill
#
# Bulk Modulus (GPa) = 27.18691 29.65537 28.42114
# Shear Modulus (GPa) = 19.23287 24.68996 21.96141
#
# Velocity S-wave (km/s) = 2.74907 3.11475 2.93761
# Velocity P-wave (km/s) = 4.55624 4.95867 4.76171
#
# Compressibility (1/GPa) = 0.03678241
#
# Stress axis : x y z
#
# Youngs Moduli (GPa) = 71.74982 51.85671 74.26824
#
# Poissons Ratio (x) = 0.27815 0.20745
# Poissons Ratio (y) = 0.38485 -0.23805
# Poissons Ratio (z) = 0.20042 -0.16622
#
# Static dielectric constant tensor:
#      x y z
#    x 2.207180 0.000000 0.000000 
#    y 0.000000 2.089310 0.000000 
#    z 0.000000 0.000000 2.004340 
# 
# From -- ./inp_files/5734.got.cif
#   From: 2010.05.17/outbox.cif.g08.bks.cpg/sg19_3_cif.got.tgz:5734.got - 2010.06.03 22:46:19.
