data_PCOD9314466
_publ_section_title
;
Structure prediction by ZEFSAII (Michael W. Deem and Ramdas Pophale) SiO2 
 PCOD9314466
Probable space group: P 21 21 21
;
_chemical_formula_sum "Si O2"
_cell_formula_units_Z 32
_cell_length_a 13.110464
_cell_length_b 9.235536
_cell_length_c 14.023628
_cell_angle_alpha 90.000000
_cell_angle_beta 90.000000
_cell_angle_gamma 90.000000
_cell_volume 1698.011201
_symmetry_space_group_name_H-M "P 21 21 21"
_symmetry_group_IT_number 19
_symmetry_cell_setting 'orthorhombic'
loop_
_space_group_symop_operation_xyz
x,y,z
1/2-x,-y,1/2+z
1/2+x,1/2-y,-z
-x,1/2+y,1/2-z
loop_
_atom_site_type_symbol
_atom_site_label
_atom_site_fract_x
_atom_site_fract_y
_atom_site_fract_z
Si Si1 0.726223 0.744642 0.184751
Si Si2 0.269930 0.137423 0.998776
Si Si3 0.038498 0.541878 0.804129
Si Si4 0.515335 0.548917 0.521479
Si Si5 0.164151 0.175153 0.497527
Si Si6 0.178236 0.089053 0.796848
Si Si7 0.683608 0.120294 0.862756
Si Si8 0.680738 0.154188 0.323789
O O1 0.616682 0.822704 0.193006
O O2 0.765156 0.755893 0.076917
O O3 0.719330 0.574575 0.209310
O O4 0.805583 0.821474 0.255381
O O5 0.389396 0.159610 0.973044
O O6 0.196633 0.135559 0.906627
O O7 0.276301 0.969730 0.034634
O O8 0.238270 0.256672 0.073908
O O9 0.099825 0.420177 0.745826
O O10 0.936477 0.580728 0.745368
O O11 0.014584 0.481594 0.910584
O O12 0.567323 0.397497 0.553823
O O13 0.424618 0.595636 0.588505
O O14 0.130443 0.273787 0.583884
O O15 0.231408 0.213517 0.734015
O O16 0.743116 0.968407 0.860590
#
# Coordination Sequence:
#
# PCOD9314466 Si02
#       8
#     4   4   4   4   4   4   4   4
#     4  10  22  38  63  89 126 168 211 261 310 380
#     4   9  22  40  61  86 124 163 203 261 311 372
#     4  11  21  36  67  96 119 156 211 269 311 375
#     4  10  21  42  63  87 127 164 206 259 318 372
#     4   9  20  42  59  84 129 165 199 259 315 375
#     4  11  20  38  61  89 126 157 208 256 322 366
#     4  11  22  38  63  89 124 167 207 260 312 372
#     4  11  22  36  61  94 123 154 207 267 315 362
#
# _framework density 18.845576000000001
#
# number of rings (size 3 to 8) (size 9 to 14) (size 15 to 20)
#    0.750    1.000    1.250    3.750    0.000    4.000 
#    2.250    0.000    5.500    0.000    0.000    0.000 
#    0.000    0.000    0.000    0.000    0.000    0.000 
#
# Total GULP energy -178259.574812 kJ/mol
# GULP energy per Si atom -5570.611713 kJ/mol
# Density = 1.880268 g / cm^3
# Si number density = 18.845576 Si / 1000 Ang^3
#
#
#
# Elastic Constant Matrix: (Units=GPa)
#
#
# Indices 1 2 3 4 5 6 
#
# 1 54.5681 8.3025 25.6940 0.0000 0.0000 0.0000
# 2 8.3025 68.6511 30.2001 0.0000 0.0000 0.0000
# 3 25.6940 30.2001 59.6581 0.0000 0.0000 0.0000
# 4 0.0000 0.0000 0.0000 32.9390 0.0000 0.0000
# 5 0.0000 0.0000 0.0000 0.0000 31.5707 0.0000
# 6 0.0000 0.0000 0.0000 0.0000 0.0000 17.8742
#
#
#
# Elastic Compliance Matrix: (Units=1/GPa)
#
#
# Indices 1 2 3 4 5 6 
#
# 1 0.023209 0.002046 -0.011031 0.000000 0.000000 0.000000
# 2 0.002046 0.018920 -0.010459 0.000000 0.000000 0.000000
# 3 -0.011031 -0.010459 0.026808 0.000000 0.000000 0.000000
# 4 0.000000 0.000000 0.000000 0.030359 0.000000 0.000000
# 5 0.000000 0.000000 0.000000 0.000000 0.031675 0.000000
# 6 0.000000 0.000000 0.000000 0.000000 0.000000 0.055947
#
#
# Mechanical properties :
#
#
# Convention : Reuss Voigt Hill
#
# Bulk Modulus (GPa) = 33.28026 34.58562 33.93294
# Shear Modulus (GPa) = 21.20247 24.38882 22.79565
#
# Velocity S-wave (km/s) = 3.35784 3.60132 3.48171
# Velocity P-wave (km/s) = 5.72112 5.97366 5.84875
#
# Compressibility (1/GPa) = 0.03004784
#
# Stress axis : x y z
#
# Youngs Moduli (GPa) = 43.08731 52.85441 37.30263
#
# Poissons Ratio (x) = -0.10814 0.41150
# Poissons Ratio (y) = -0.08816 0.39014
# Poissons Ratio (z) = 0.47531 0.55280
#
# Static dielectric constant tensor:
#      x y z
#    x 1.660490 0.000000 0.000000 
#    y 0.000000 1.678240 0.000000 
#    z 0.000000 0.000000 1.670780 
# 
# From -- ./inp_files/5292.got.cif
#   From: 2010.05.17/outbox.cif.g08.bks.cpg/sg19_3_cif.got.tgz:5292.got - 2010.06.03 22:46:19.
