data_PCOD9314317
_publ_section_title
;
Structure prediction by ZEFSAII (Michael W. Deem and Ramdas Pophale) SiO2 
 PCOD9314317
Probable space group: P 21 21 21
;
_chemical_formula_sum "Si O2"
_cell_formula_units_Z 32
_cell_length_a 17.244795
_cell_length_b 16.572864
_cell_length_c 4.953538
_cell_angle_alpha 90.000000
_cell_angle_beta 90.000000
_cell_angle_gamma 90.000000
_cell_volume 1415.699574
_symmetry_space_group_name_H-M "P 21 21 21"
_symmetry_group_IT_number 19
_symmetry_cell_setting 'orthorhombic'
loop_
_space_group_symop_operation_xyz
x,y,z
1/2-x,-y,1/2+z
1/2+x,1/2-y,-z
-x,1/2+y,1/2-z
loop_
_atom_site_type_symbol
_atom_site_label
_atom_site_fract_x
_atom_site_fract_y
_atom_site_fract_z
Si Si1 0.827977 0.792153 0.391762
Si Si2 0.563508 0.945252 0.999149
Si Si3 0.591954 0.757781 0.949091
Si Si4 0.289946 0.966487 0.365898
Si Si5 0.709148 0.032168 0.741640
Si Si6 0.990533 0.751824 0.566629
Si Si7 0.537101 0.436651 0.013181
Si Si8 0.235791 0.205790 0.594021
O O1 0.792219 0.872015 0.263544
O O2 0.917908 0.802774 0.465825
O O3 0.784738 0.768316 0.666663
O O4 0.817336 0.723250 0.165627
O O5 0.595793 0.853516 0.012918
O O6 0.491294 0.943846 0.792445
O O7 0.630138 0.998742 0.869444
O O8 0.529382 0.969846 0.287530
O O9 0.560262 0.748122 0.647253
O O10 0.675013 0.718062 0.986799
O O11 0.526265 0.723826 0.148626
O O12 0.380239 0.976308 0.434759
O O13 0.278450 0.880939 0.221334
O O14 0.241834 0.971295 0.643068
O O15 0.724203 0.002043 0.440017
O O16 0.959253 0.659346 0.581416
#
# Coordination Sequence:
#
# PCOD9314317 Si02
#       8
#     4   4   4   4   4   4   4   4
#     4  12  24  42  71  96 134 178 221 278 321 404
#     4  10  21  39  66  95 129 177 216 263 321 401
#     4  10  21  39  64  96 128 167 216 272 321 386
#     4  12  26  45  68  97 134 174 223 283 338 396
#     4  12  25  43  66 101 140 176 220 274 336 395
#     4  10  21  39  65  93 126 169 221 264 318 395
#     4  10  21  41  67  88 129 175 222 258 324 402
#     4  12  25  44  71 100 130 174 225 274 341 391
#
# _framework density 22.603663000000001
#
# number of rings (size 3 to 8) (size 9 to 14) (size 15 to 20)
#    0.000    1.000    1.250    6.000    3.500    2.000 
#    6.750    0.000    0.000    0.000    0.000    0.000 
#    0.000    0.000    0.000    0.000    0.000    0.000 
#
# Total GULP energy -179243.548423 kJ/mol
# GULP energy per Si atom -5601.360888 kJ/mol
# Density = 2.255222 g / cm^3
# Si number density = 22.603663 Si / 1000 Ang^3
#
#
#
# Elastic Constant Matrix: (Units=GPa)
#
#
# Indices 1 2 3 4 5 6 
#
# 1 87.5560 13.7387 -1.7586 0.0000 0.0000 0.0000
# 2 13.7387 29.2451 1.3587 0.0000 0.0000 0.0000
# 3 -1.7586 1.3587 70.9312 0.0000 0.0000 0.0000
# 4 0.0000 0.0000 0.0000 44.0025 0.0000 0.0000
# 5 0.0000 0.0000 0.0000 0.0000 37.7181 0.0000
# 6 0.0000 0.0000 0.0000 0.0000 0.0000 27.6196
#
#
#
# Elastic Compliance Matrix: (Units=1/GPa)
#
#
# Indices 1 2 3 4 5 6 
#
# 1 0.012343 -0.005818 0.000417 0.000000 0.000000 0.000000
# 2 -0.005818 0.036966 -0.000852 0.000000 0.000000 0.000000
# 3 0.000417 -0.000852 0.014125 0.000000 0.000000 0.000000
# 4 0.000000 0.000000 0.000000 0.022726 0.000000 0.000000
# 5 0.000000 0.000000 0.000000 0.000000 0.026512 0.000000
# 6 0.000000 0.000000 0.000000 0.000000 0.000000 0.036206
#
#
# Mechanical properties :
#
#
# Convention : Reuss Voigt Hill
#
# Bulk Modulus (GPa) = 19.63533 23.82334 21.72934
# Shear Modulus (GPa) = 28.03325 33.49427 30.76376
#
# Velocity S-wave (km/s) = 3.52548 3.85360 3.69319
# Velocity P-wave (km/s) = 5.02769 5.51024 5.27449
#
# Compressibility (1/GPa) = 0.05092860
#
# Stress axis : x y z
#
# Youngs Moduli (GPa) = 81.02079 27.05165 70.79725
#
# Poissons Ratio (x) = 0.15738 -0.02955
# Poissons Ratio (y) = 0.47135 0.06034
# Poissons Ratio (z) = -0.03382 0.02306
#
# Static dielectric constant tensor:
#      x y z
#    x 1.816980 0.000000 0.000000 
#    y 0.000000 1.849200 0.000000 
#    z 0.000000 0.000000 1.794120 
# 
# From -- ./inp_files/1579.got.cif
#   From: 2010.05.17/outbox.cif.g08.bks.cpg/sg19_1_cif.got.tgz:1579.got - 2010.06.03 22:46:19.
