data_PCOD9314195
_publ_section_title
;
Structure prediction by ZEFSAII (Michael W. Deem and Ramdas Pophale) SiO2 
 PCOD9314195
Probable space group: P 21 21 21
;
_chemical_formula_sum "Si O2"
_cell_formula_units_Z 24
_cell_length_a 16.956541
_cell_length_b 4.920640
_cell_length_c 12.805462
_cell_angle_alpha 90.000000
_cell_angle_beta 90.000000
_cell_angle_gamma 90.000000
_cell_volume 1068.449767
_symmetry_space_group_name_H-M "P 21 21 21"
_symmetry_group_IT_number 19
_symmetry_cell_setting 'orthorhombic'
loop_
_space_group_symop_operation_xyz
x,y,z
1/2-x,-y,1/2+z
1/2+x,1/2-y,-z
-x,1/2+y,1/2-z
loop_
_atom_site_type_symbol
_atom_site_label
_atom_site_fract_x
_atom_site_fract_y
_atom_site_fract_z
Si Si1 0.304611 0.942202 0.464989
Si Si2 0.323006 0.267432 0.657553
Si Si3 0.463453 0.392052 0.297746
Si Si4 0.957901 0.466593 0.211463
Si Si5 0.050850 0.387990 0.021264
Si Si6 0.785444 0.046752 0.679106
O O1 0.277967 0.073616 0.574897
O O2 0.287243 0.159097 0.374393
O O3 0.397672 0.873254 0.486671
O O4 0.272058 0.662100 0.417622
O O5 0.373778 0.087913 0.738491
O O6 0.385253 0.440374 0.588595
O O7 0.271944 0.470383 0.727287
O O8 0.478470 0.083635 0.267279
O O9 0.474977 0.452443 0.419290
O O10 0.374106 0.486132 0.277771
O O11 0.981301 0.781033 0.220728
O O12 0.976042 0.355496 0.096264
#
# Coordination Sequence:
#
# PCOD9314195 Si02
#       6
#     4   4   4   4   4   4
#     4  11  21  43  65  91 131 176 206 264 340 373
#     4  11  23  44  70  95 132 174 216 275 327 384
#     4  11  23  43  65  91 127 174 215 259 319 392
#     4  10  21  36  66  99 122 164 214 261 322 382
#     4  10  22  43  69  93 133 174 211 272 328 377
#     4  11  26  41  69  95 129 172 224 261 326 392
#
# _framework density 22.462448999999999
#
# number of rings (size 3 to 8) (size 9 to 14) (size 15 to 20)
#    0.000    1.333    5.000    2.000    2.333    0.000 
#    6.000    0.000    0.000    0.000    0.000    0.000 
#    0.000    0.000    0.000    0.000    0.000    0.000 
#
# Total GULP energy -134045.304298 kJ/mol
# GULP energy per Si atom -5585.221012 kJ/mol
# Density = 2.241132 g / cm^3
# Si number density = 22.462449 Si / 1000 Ang^3
#
#
#
# Elastic Constant Matrix: (Units=GPa)
#
#
# Indices 1 2 3 4 5 6 
#
# 1 28.0195 -4.0017 25.2325 0.0000 0.0000 0.0000
# 2 -4.0017 92.8153 5.1544 0.0000 0.0000 0.0000
# 3 25.2325 5.1544 98.2993 0.0000 0.0000 0.0000
# 4 0.0000 0.0000 0.0000 33.4182 0.0000 0.0000
# 5 0.0000 0.0000 0.0000 0.0000 45.5799 0.0000
# 6 0.0000 0.0000 0.0000 0.0000 0.0000 22.2012
#
#
#
# Elastic Compliance Matrix: (Units=1/GPa)
#
#
# Indices 1 2 3 4 5 6 
#
# 1 0.047089 0.002709 -0.012229 0.000000 0.000000 0.000000
# 2 0.002709 0.010961 -0.001270 0.000000 0.000000 0.000000
# 3 -0.012229 -0.001270 0.013379 0.000000 0.000000 0.000000
# 4 0.000000 0.000000 0.000000 0.029924 0.000000 0.000000
# 5 0.000000 0.000000 0.000000 0.000000 0.021940 0.000000
# 6 0.000000 0.000000 0.000000 0.000000 0.000000 0.045043
#
#
# Mechanical properties :
#
#
# Convention : Reuss Voigt Hill
#
# Bulk Modulus (GPa) = 20.06060 30.21163 25.13611
# Shear Modulus (GPa) = 24.20925 33.08977 28.64951
#
# Velocity S-wave (km/s) = 3.28650 3.84228 3.57520
# Velocity P-wave (km/s) = 4.83234 5.75875 5.31577
#
# Compressibility (1/GPa) = 0.04984897
#
# Stress axis : x y z
#
# Youngs Moduli (GPa) = 21.23620 91.22892 74.74502
#
# Poissons Ratio (x) = -0.24717 0.91409
# Poissons Ratio (y) = -0.05754 0.09494
# Poissons Ratio (z) = 0.25971 0.11588
#
# Static dielectric constant tensor:
#      x y z
#    x 1.840210 0.000000 0.000000 
#    y 0.000000 1.858540 0.000000 
#    z 0.000000 0.000000 1.858570 
# 
# From -- ./inp_files/1008.got.cif
#   From: 2010.05.17/outbox.cif.g08.bks.cpg/sg19_1_cif.got.tgz:1008.got - 2010.06.03 22:46:19.
