data_PCOD9314457
_publ_section_title
;
Structure prediction by ZEFSAII (Michael W. Deem and Ramdas Pophale) SiO2 
 PCOD9314457
Probable space group: P 21 21 21
;
_chemical_formula_sum "Si O2"
_cell_formula_units_Z 28
_cell_length_a 10.113824
_cell_length_b 11.488984
_cell_length_c 10.852745
_cell_angle_alpha 90.000000
_cell_angle_beta 90.000000
_cell_angle_gamma 90.000000
_cell_volume 1261.062511
_symmetry_space_group_name_H-M "P 21 21 21"
_symmetry_group_IT_number 19
_symmetry_cell_setting 'orthorhombic'
loop_
_space_group_symop_operation_xyz
x,y,z
1/2-x,-y,1/2+z
1/2+x,1/2-y,-z
-x,1/2+y,1/2-z
loop_
_atom_site_type_symbol
_atom_site_label
_atom_site_fract_x
_atom_site_fract_y
_atom_site_fract_z
Si Si1 0.168847 0.484299 0.093768
Si Si2 0.826954 0.561536 0.583045
Si Si3 0.115444 0.646389 0.281979
Si Si4 0.090377 0.321325 0.870578
Si Si5 0.563456 0.056576 0.523313
Si Si6 0.194036 0.917693 0.682803
Si Si7 0.112674 0.283927 0.266892
O O1 0.085270 0.590091 0.148981
O O2 0.184766 0.391972 0.203240
O O3 0.109006 0.412188 0.982331
O O4 0.310402 0.532783 0.058910
O O5 0.902333 0.686555 0.586770
O O6 0.728121 0.565932 0.464103
O O7 0.789830 0.528606 0.724871
O O8 0.927867 0.458624 0.547202
O O9 0.271415 0.664985 0.296645
O O10 0.066591 0.550838 0.379439
O O11 0.029923 0.761883 0.295884
O O12 0.951960 0.359230 0.811073
O O13 0.584649 0.176180 0.595069
O O14 0.299572 0.827020 0.738308
#
# Coordination Sequence:
#
# PCOD9314457 Si02
#       7
#     4   4   4   4   4   4   4
#     4  10  21  41  69  97 140 188 246 280 366 436
#     4  12  27  47  75 108 152 183 252 294 370 425
#     4  10  22  39  67 102 132 190 241 291 342 444
#     4  11  25  43  75  96 148 195 233 293 376 427
#     4  10  22  42  67  99 138 189 237 297 346 446
#     4  12  28  47  75 112 146 191 240 310 355 441
#     4  11  23  41  72  98 142 190 243 291 375 421
#
# _framework density 22.203500999999999
#
# number of rings (size 3 to 8) (size 9 to 14) (size 15 to 20)
#    0.000    1.143    2.857    1.714    8.000    3.429 
#    2.571    0.000    0.000    0.000    0.000    0.000 
#    0.000    0.000    0.000    0.000    0.000    0.000 
#
# Total GULP energy -156226.305741 kJ/mol
# GULP energy per Si atom -5579.510919 kJ/mol
# Density = 2.215296 g / cm^3
# Si number density = 22.203501 Si / 1000 Ang^3
#
#
#
# Elastic Constant Matrix: (Units=GPa)
#
#
# Indices 1 2 3 4 5 6 
#
# 1 76.8867 17.9177 30.5207 0.0000 0.0000 0.0000
# 2 17.9177 52.3232 38.8044 0.0000 0.0000 0.0000
# 3 30.5207 38.8044 85.1397 0.0000 0.0000 0.0000
# 4 0.0000 0.0000 0.0000 42.5378 0.0000 0.0000
# 5 0.0000 0.0000 0.0000 0.0000 210.2641 0.0000
# 6 0.0000 0.0000 0.0000 0.0000 0.0000 19.1866
#
#
#
# Elastic Compliance Matrix: (Units=1/GPa)
#
#
# Indices 1 2 3 4 5 6 
#
# 1 0.015271 -0.001767 -0.004669 0.000000 0.000000 0.000000
# 2 -0.001767 0.029075 -0.012618 0.000000 0.000000 0.000000
# 3 -0.004669 -0.012618 0.019170 0.000000 0.000000 0.000000
# 4 0.000000 0.000000 0.000000 0.023509 0.000000 0.000000
# 5 0.000000 0.000000 0.000000 0.000000 0.004756 0.000000
# 6 0.000000 0.000000 0.000000 0.000000 0.000000 0.052120
#
#
# Mechanical properties :
#
#
# Convention : Reuss Voigt Hill
#
# Bulk Modulus (GPa) = 39.35738 43.20394 41.28066
# Shear Modulus (GPa) = 26.24965 62.87148 44.56056
#
# Velocity S-wave (km/s) = 3.44209 5.32705 4.48472
# Velocity P-wave (km/s) = 5.79323 7.57212 6.74161
#
# Compressibility (1/GPa) = 0.02540820
#
# Stress axis : x y z
#
# Youngs Moduli (GPa) = 65.48207 34.39370 52.16404
#
# Poissons Ratio (x) = 0.06077 0.24356
# Poissons Ratio (y) = 0.11569 0.65822
# Poissons Ratio (z) = 0.30575 0.43399
#
# Static dielectric constant tensor:
#      x y z
#    x 1.808790 0.000000 0.000000 
#    y 0.000000 1.745110 0.000000 
#    z 0.000000 0.000000 1.904560 
# 
# From -- ./inp_files/4594.got.cif
#   From: 2010.05.17/outbox.cif.g08.bks.cpg/sg19_3_cif.got.tgz:4594.got - 2010.06.03 22:46:19.
