data_PCOD9314297
_publ_section_title
;
Structure prediction by ZEFSAII (Michael W. Deem and Ramdas Pophale) SiO2 
 PCOD9314297
Probable space group: P 21 21 21
;
_chemical_formula_sum "Si O2"
_cell_formula_units_Z 24
_cell_length_a 12.395165
_cell_length_b 5.346824
_cell_length_c 15.452879
_cell_angle_alpha 90.000000
_cell_angle_beta 90.000000
_cell_angle_gamma 90.000000
_cell_volume 1024.135935
_symmetry_space_group_name_H-M "P 21 21 21"
_symmetry_group_IT_number 19
_symmetry_cell_setting 'orthorhombic'
loop_
_space_group_symop_operation_xyz
x,y,z
1/2-x,-y,1/2+z
1/2+x,1/2-y,-z
-x,1/2+y,1/2-z
loop_
_atom_site_type_symbol
_atom_site_label
_atom_site_fract_x
_atom_site_fract_y
_atom_site_fract_z
Si Si1 0.013750 0.478125 0.384370
Si Si2 0.638667 0.709806 0.731186
Si Si3 0.846030 0.494850 0.930469
Si Si4 0.737879 0.007091 0.869043
Si Si5 0.729756 0.356702 0.611422
Si Si6 0.419929 0.362087 0.480769
O O1 0.061027 0.739531 0.350895
O O2 0.120775 0.306648 0.384671
O O3 0.930505 0.410070 0.308090
O O4 0.958008 0.400811 0.473948
O O5 0.685448 0.958115 0.775747
O O6 0.731043 0.534472 0.693850
O O7 0.808147 0.759105 0.890038
O O8 0.973356 0.502223 0.947825
O O9 0.806033 0.256767 0.877640
O O10 0.785623 0.485077 0.023114
O O11 0.643844 0.003856 0.942158
O O12 0.834586 0.191339 0.594456
#
# Coordination Sequence:
#
# PCOD9314297 Si02
#       6
#     4   4   4   4   4   4
#     4  10  21  39  63 103 136 175 229 287 350 406
#     4  11  22  38  69 102 138 180 225 295 350 405
#     4  10  23  43  66 101 139 183 231 281 346 418
#     4  10  24  42  68 102 140 180 229 290 346 414
#     4  10  22  39  65 103 138 179 230 286 346 416
#     4   9  22  43  67 101 137 185 230 285 346 417
#
# _framework density 23.43439
#
# number of rings (size 3 to 8) (size 9 to 14) (size 15 to 20)
#    0.000    2.000    1.667    0.000    9.333    4.000 
#    0.000    0.000    3.667    0.000    0.000    0.000 
#    0.000    0.000    0.000    0.000    0.000    0.000 
#
# Total GULP energy -134239.808939 kJ/mol
# GULP energy per Si atom -5593.325372 kJ/mol
# Density = 2.338105 g / cm^3
# Si number density = 23.434390 Si / 1000 Ang^3
#
#
#
# Elastic Constant Matrix: (Units=GPa)
#
#
# Indices 1 2 3 4 5 6 
#
# 1 133.8704 54.2342 52.0925 0.0000 0.0000 0.0000
# 2 54.2342 88.1620 33.4697 0.0000 0.0000 0.0000
# 3 52.0925 33.4697 67.2499 0.0000 0.0000 0.0000
# 4 0.0000 0.0000 0.0000 36.7540 0.0000 0.0000
# 5 0.0000 0.0000 0.0000 0.0000 35.7015 0.0000
# 6 0.0000 0.0000 0.0000 0.0000 0.0000 34.7944
#
#
#
# Elastic Compliance Matrix: (Units=1/GPa)
#
#
# Indices 1 2 3 4 5 6 
#
# 1 0.012149 -0.004810 -0.007017 0.000000 0.000000 0.000000
# 2 -0.004810 0.015889 -0.004182 0.000000 0.000000 0.000000
# 3 -0.007017 -0.004182 0.022387 0.000000 0.000000 0.000000
# 4 0.000000 0.000000 0.000000 0.027208 0.000000 0.000000
# 5 0.000000 0.000000 0.000000 0.000000 0.028010 0.000000
# 6 0.000000 0.000000 0.000000 0.000000 0.000000 0.028740
#
#
# Mechanical properties :
#
#
# Convention : Reuss Voigt Hill
#
# Bulk Modulus (GPa) = 54.32682 63.20833 58.76758
# Shear Modulus (GPa) = 28.97933 31.41572 30.19752
#
# Velocity S-wave (km/s) = 3.52037 3.66537 3.59360
# Velocity P-wave (km/s) = 6.30530 6.70405 6.50773
#
# Compressibility (1/GPa) = 0.01840711
#
# Stress axis : x y z
#
# Youngs Moduli (GPa) = 82.31190 62.93550 44.66911
#
# Poissons Ratio (x) = 0.30270 0.31344
# Poissons Ratio (y) = 0.39589 0.18682
# Poissons Ratio (z) = 0.57758 0.26322
#
# Static dielectric constant tensor:
#      x y z
#    x 1.889290 0.000000 0.000000 
#    y 0.000000 1.959060 0.000000 
#    z 0.000000 0.000000 1.888700 
# 
# From -- ./inp_files/962.got.cif
#   From: 2010.05.17/outbox.cif.g08.bks.cpg/sg19_1_cif.got.tgz:962.got - 2010.06.03 22:46:19.
