data_PCOD9314501
_publ_section_title
;
Structure prediction by ZEFSAII (Michael W. Deem and Ramdas Pophale) SiO2 
 PCOD9314501
Probable space group: P 21 21 21
;
_chemical_formula_sum "Si O2"
_cell_formula_units_Z 32
_cell_length_a 21.937657
_cell_length_b 8.817297
_cell_length_c 8.342250
_cell_angle_alpha 90.000000
_cell_angle_beta 90.000000
_cell_angle_gamma 90.000000
_cell_volume 1613.648402
_symmetry_space_group_name_H-M "P 21 21 21"
_symmetry_group_IT_number 19
_symmetry_cell_setting 'orthorhombic'
loop_
_space_group_symop_operation_xyz
x,y,z
1/2-x,-y,1/2+z
1/2+x,1/2-y,-z
-x,1/2+y,1/2-z
loop_
_atom_site_type_symbol
_atom_site_label
_atom_site_fract_x
_atom_site_fract_y
_atom_site_fract_z
Si Si1 0.427529 0.998152 0.040260
Si Si2 0.167209 0.428261 0.206090
Si Si3 0.289722 0.006837 0.449012
Si Si4 0.572471 0.001848 0.040259
Si Si5 0.356388 0.750000 0.250000
Si Si6 0.832791 0.571739 0.206089
Si Si7 0.789722 0.006838 0.949012
Si Si8 0.135377 0.750000 0.750000
O O1 0.404857 0.147679 0.132467
O O2 0.399376 0.857900 0.142304
O O3 0.500000 1.000000 0.033190
O O4 0.396532 0.982804 0.865977
O O5 0.103468 0.482804 0.134024
O O6 0.165912 0.250000 0.250001
O O7 0.217776 0.469925 0.072337
O O8 0.189511 0.507683 0.368062
O O9 0.314359 0.854146 0.363956
O O10 0.310489 0.007682 0.631938
O O11 0.217776 0.030074 0.427664
O O12 0.321676 0.142190 0.353990
O O13 0.600625 0.142100 0.142304
O O14 0.595143 0.852320 0.132465
O O15 0.314359 0.645854 0.136044
O O16 0.821676 0.142191 0.853990
#
# Coordination Sequence:
#
# PCOD9314501 Si02
#       8
#     4   4   4   4   4   4   4   4
#     4  11  24  44  66  97 135 177 222 266 324 399
#     4  12  25  43  67 100 132 172 221 275 339 390
#     4  11  23  41  68  97 130 163 217 281 333 390
#     4  11  24  44  66  97 135 177 222 266 324 399
#     4  10  21  42  72  94 131 172 216 274 328 390
#     4  12  25  43  67 100 132 172 221 275 339 390
#     4  11  23  41  68  97 130 163 217 281 333 390
#     4  10  23  44  68 100 123 172 224 270 336 388
#
# _framework density 19.830839000000001
#
# number of rings (size 3 to 8) (size 9 to 14) (size 15 to 20)
#    0.000    1.000    3.750    3.750    0.000    1.000 
#    4.500    1.250    0.000    0.000    0.000    0.000 
#    0.000    0.000    0.000    0.000    0.000    0.000 
#
# Total GULP energy -179097.756494 kJ/mol
# GULP energy per Si atom -5596.804890 kJ/mol
# Density = 1.978570 g / cm^3
# Si number density = 19.830839 Si / 1000 Ang^3
#
#
#
# Elastic Constant Matrix: (Units=GPa)
#
#
# Indices 1 2 3 4 5 6 
#
# 1 127.3826 34.5813 12.3625 0.0000 0.0000 0.0000
# 2 34.5813 97.5561 22.3035 0.0000 0.0000 0.0000
# 3 12.3625 22.3035 93.0846 0.0000 0.0000 0.0000
# 4 0.0000 0.0000 0.0000 18.4940 0.0000 0.0000
# 5 0.0000 0.0000 0.0000 0.0000 21.0882 0.0000
# 6 0.0000 0.0000 0.0000 0.0000 0.0000 11.2140
#
#
#
# Elastic Compliance Matrix: (Units=1/GPa)
#
#
# Indices 1 2 3 4 5 6 
#
# 1 0.008703 -0.002984 -0.000441 0.000000 0.000000 0.000000
# 2 -0.002984 0.011868 -0.002447 0.000000 0.000000 0.000000
# 3 -0.000441 -0.002447 0.011388 0.000000 0.000000 0.000000
# 4 0.000000 0.000000 0.000000 0.054072 0.000000 0.000000
# 5 0.000000 0.000000 0.000000 0.000000 0.047420 0.000000
# 6 0.000000 0.000000 0.000000 0.000000 0.000000 0.089174
#
#
# Mechanical properties :
#
#
# Convention : Reuss Voigt Hill
#
# Bulk Modulus (GPa) = 49.47013 50.72421 50.09717
# Shear Modulus (GPa) = 20.73765 26.74431 23.74098
#
# Velocity S-wave (km/s) = 3.23728 3.67634 3.46377
# Velocity P-wave (km/s) = 6.24288 6.60717 6.42760
#
# Compressibility (1/GPa) = 0.02021422
#
# Stress axis : x y z
#
# Youngs Moduli (GPa) = 114.89860 84.26097 87.81305
#
# Poissons Ratio (x) = 0.25146 0.03871
# Poissons Ratio (y) = 0.34290 0.21490
# Poissons Ratio (z) = 0.05065 0.20621
#
# Static dielectric constant tensor:
#      x y z
#    x 1.659650 0.000000 0.000000 
#    y 0.000000 1.710370 0.000000 
#    z 0.000000 0.000000 1.721010 
# 
# From -- ./inp_files/4319.got.cif
#   From: 2010.05.17/outbox.cif.g08.bks.cpg/sg19_3_cif.got.tgz:4319.got - 2010.06.03 22:46:19.
