data_PCOD9314404
_publ_section_title
;
Structure prediction by ZEFSAII (Michael W. Deem and Ramdas Pophale) SiO2 
 PCOD9314404
Probable space group: P 21 21 21
;
_chemical_formula_sum "Si O2"
_cell_formula_units_Z 20
_cell_length_a 13.325576
_cell_length_b 7.673045
_cell_length_c 7.572175
_cell_angle_alpha 90.000000
_cell_angle_beta 90.000000
_cell_angle_gamma 90.000000
_cell_volume 774.237813
_symmetry_space_group_name_H-M "P 21 21 21"
_symmetry_group_IT_number 19
_symmetry_cell_setting 'orthorhombic'
loop_
_space_group_symop_operation_xyz
x,y,z
1/2-x,-y,1/2+z
1/2+x,1/2-y,-z
-x,1/2+y,1/2-z
loop_
_atom_site_type_symbol
_atom_site_label
_atom_site_fract_x
_atom_site_fract_y
_atom_site_fract_z
Si Si1 0.497914 0.973949 0.421749
Si Si2 0.644821 0.343732 0.791210
Si Si3 0.692738 0.809273 0.523094
Si Si4 0.142193 0.545474 0.119101
Si Si5 0.564455 0.356004 0.431317
O O1 0.434453 0.955541 0.599080
O O2 0.584335 0.828283 0.434488
O O3 0.557836 0.150961 0.396849
O O4 0.424882 0.943260 0.257729
O O5 0.743745 0.328651 0.910312
O O6 0.640999 0.398870 0.588438
O O7 0.611554 0.138787 0.789370
O O8 0.673174 0.813016 0.733331
O O9 0.762622 0.983766 0.496254
O O10 0.047400 0.600201 0.004211
#
# Coordination Sequence:
#
# PCOD9314404 Si02
#       5
#     4   4   4   4   4
#     4  12  24  42  69 100 139 187 222 276 345 406
#     4  10  23  42  69 101 132 181 229 282 331 403
#     4  10  21  41  70  98 131 186 230 264 351 414
#     4  10  21  40  72  95 132 173 232 281 332 409
#     4  12  23  41  66 104 138 175 231 277 337 400
#
# _framework density 25.831856999999999
#
# number of rings (size 3 to 8) (size 9 to 14) (size 15 to 20)
#    1.200    0.000    4.000    2.400    2.800    0.000 
#    0.000    2.000    4.400    0.000    0.000    0.000 
#    0.000    0.000    0.000    0.000    0.000    0.000 
#
# Total GULP energy -111848.356484 kJ/mol
# GULP energy per Si atom -5592.417824 kJ/mol
# Density = 2.577306 g / cm^3
# Si number density = 25.831857 Si / 1000 Ang^3
#
#
#
# Elastic Constant Matrix: (Units=GPa)
#
#
# Indices 1 2 3 4 5 6 
#
# 1 59.3085 31.6560 6.7442 0.0000 0.0000 0.0000
# 2 31.6560 28.4831 21.8728 0.0000 0.0000 0.0000
# 3 6.7442 21.8728 130.7964 0.0000 0.0000 0.0000
# 4 0.0000 0.0000 0.0000 36.1989 0.0000 0.0000
# 5 0.0000 0.0000 0.0000 0.0000 37.4909 0.0000
# 6 0.0000 0.0000 0.0000 0.0000 0.0000 38.9551
#
#
#
# Elastic Compliance Matrix: (Units=1/GPa)
#
#
# Indices 1 2 3 4 5 6 
#
# 1 0.046686 -0.057410 0.007193 0.000000 0.000000 0.000000
# 2 -0.057410 0.110880 -0.015582 0.000000 0.000000 0.000000
# 3 0.007193 -0.015582 0.009880 0.000000 0.000000 0.000000
# 4 0.000000 0.000000 0.000000 0.027625 0.000000 0.000000
# 5 0.000000 0.000000 0.000000 0.000000 0.026673 0.000000
# 6 0.000000 0.000000 0.000000 0.000000 0.000000 0.025671
#
#
# Mechanical properties :
#
#
# Convention : Reuss Voigt Hill
#
# Bulk Modulus (GPa) = 27.89547 37.68153 32.78850
# Shear Modulus (GPa) = 12.78895 33.08332 22.93613
#
# Velocity S-wave (km/s) = 2.22746 3.58259 2.98300
# Velocity P-wave (km/s) = 4.17585 5.63313 4.95832
#
# Compressibility (1/GPa) = 0.03584812
#
# Stress axis : x y z
#
# Youngs Moduli (GPa) = 21.41974 9.01876 101.21150
#
# Poissons Ratio (x) = 0.51777 -0.72805
# Poissons Ratio (y) = 1.22972 1.57707
# Poissons Ratio (z) = -0.15408 0.14053
#
# Static dielectric constant tensor:
#      x y z
#    x 1.990960 0.000000 0.000000 
#    y 0.000000 2.051660 0.000000 
#    z 0.000000 0.000000 1.992870 
# 
# From -- ./inp_files/3824.got.cif
#   From: 2010.05.17/outbox.cif.g08.bks.cpg/sg19_2_cif.got.tgz:3824.got - 2010.06.03 22:46:19.
