data_PCOD9314449
_publ_section_title
;
Structure prediction by ZEFSAII (Michael W. Deem and Ramdas Pophale) SiO2 
 PCOD9314449
Probable space group: P 21 21 21
;
_chemical_formula_sum "Si O2"
_cell_formula_units_Z 20
_cell_length_a 7.947589
_cell_length_b 21.785226
_cell_length_c 4.747327
_cell_angle_alpha 90.000000
_cell_angle_beta 90.000000
_cell_angle_gamma 90.000000
_cell_volume 821.952304
_symmetry_space_group_name_H-M "P 21 21 21"
_symmetry_group_IT_number 19
_symmetry_cell_setting 'orthorhombic'
loop_
_space_group_symop_operation_xyz
x,y,z
1/2-x,-y,1/2+z
1/2+x,1/2-y,-z
-x,1/2+y,1/2-z
loop_
_atom_site_type_symbol
_atom_site_label
_atom_site_fract_x
_atom_site_fract_y
_atom_site_fract_z
Si Si1 0.246296 0.712598 0.592179
Si Si2 0.029522 0.740927 0.064878
Si Si3 0.358990 0.011298 0.377146
Si Si4 0.569494 0.126580 0.561736
Si Si5 0.676732 0.965904 0.053769
O O1 0.178913 0.732215 0.291724
O O2 0.358914 0.764705 0.751203
O O3 0.366457 0.652674 0.631915
O O4 0.083431 0.702652 0.793145
O O5 0.007556 0.810285 0.949547
O O6 0.434924 0.073908 0.502849
O O7 0.277970 0.975320 0.636579
O O8 0.501670 0.972382 0.212978
O O9 0.744174 0.097478 0.446626
O O10 0.810194 0.988674 0.290702
#
# Coordination Sequence:
#
# PCOD9314449 Si02
#       5
#     4   4   4   4   4
#     4  10  22  41  65  91 125 164 207 260 307 374
#     4  10  22  41  65  89 126 159 214 254 308 374
#     4  11  23  42  64  97 126 160 216 267 301 374
#     4   9  24  43  66  87 134 167 203 256 328 363
#     4  10  21  41  68  88 125 168 206 247 318 379
#
# _framework density 24.332314
#
# number of rings (size 3 to 8) (size 9 to 14) (size 15 to 20)
#    1.200    0.800    0.000    3.600    0.000    9.600 
#   10.800    0.000    0.000    0.000    0.000    0.000 
#    0.000    0.000    0.000    0.000    0.000    0.000 
#
# Total GULP energy -111348.066206 kJ/mol
# GULP energy per Si atom -5567.403310 kJ/mol
# Density = 2.427693 g / cm^3
# Si number density = 24.332314 Si / 1000 Ang^3
#
#
#
# Elastic Constant Matrix: (Units=GPa)
#
#
# Indices 1 2 3 4 5 6 
#
# 1 80.0006 30.4602 24.4241 0.0000 0.0000 0.0000
# 2 30.4602 76.6690 11.2040 0.0000 0.0000 0.0000
# 3 24.4241 11.2040 126.2453 0.0000 0.0000 0.0000
# 4 0.0000 0.0000 0.0000 22.2351 0.0000 0.0000
# 5 0.0000 0.0000 0.0000 0.0000 65.2459 0.0000
# 6 0.0000 0.0000 0.0000 0.0000 0.0000 22.0043
#
#
#
# Elastic Compliance Matrix: (Units=1/GPa)
#
#
# Indices 1 2 3 4 5 6 
#
# 1 0.015457 -0.005779 -0.002477 0.000000 0.000000 0.000000
# 2 -0.005779 0.015375 -0.000247 0.000000 0.000000 0.000000
# 3 -0.002477 -0.000247 0.008422 0.000000 0.000000 0.000000
# 4 0.000000 0.000000 0.000000 0.044974 0.000000 0.000000
# 5 0.000000 0.000000 0.000000 0.000000 0.015327 0.000000
# 6 0.000000 0.000000 0.000000 0.000000 0.000000 0.045446
#
#
# Mechanical properties :
#
#
# Convention : Reuss Voigt Hill
#
# Bulk Modulus (GPa) = 44.94715 46.12126 45.53421
# Shear Modulus (GPa) = 29.51216 36.35215 32.93216
#
# Velocity S-wave (km/s) = 3.48642 3.86941 3.68289
# Velocity P-wave (km/s) = 5.89230 6.24171 6.06952
#
# Compressibility (1/GPa) = 0.02224835
#
# Stress axis : x y z
#
# Youngs Moduli (GPa) = 64.69760 65.04076 118.73289
#
# Poissons Ratio (x) = 0.37585 0.29416
# Poissons Ratio (y) = 0.37387 0.02927
# Poissons Ratio (z) = 0.16029 0.01603
#
# Static dielectric constant tensor:
#      x y z
#    x 2.042880 0.000000 0.000000 
#    y 0.000000 2.063480 0.000000 
#    z 0.000000 0.000000 1.953070 
# 
# From -- ./inp_files/402.got.cif
#   From: 2010.05.17/outbox.cif.g08.bks.cpg/sg19_1_cif.got.tgz:402.got - 2010.06.03 22:46:19.
