data_PCOD9314634
_publ_section_title
;
Structure prediction by ZEFSAII (Michael W. Deem and Ramdas Pophale) SiO2 
 PCOD9314634
Probable space group: P 21 21 21
;
_chemical_formula_sum "Si O2"
_cell_formula_units_Z 24
_cell_length_a 10.978448
_cell_length_b 11.094546
_cell_length_c 8.915871
_cell_angle_alpha 90.000000
_cell_angle_beta 90.000000
_cell_angle_gamma 90.000000
_cell_volume 1085.961079
_symmetry_space_group_name_H-M "P 21 21 21"
_symmetry_group_IT_number 19
_symmetry_cell_setting 'orthorhombic'
loop_
_space_group_symop_operation_xyz
x,y,z
1/2-x,-y,1/2+z
1/2+x,1/2-y,-z
-x,1/2+y,1/2-z
loop_
_atom_site_type_symbol
_atom_site_label
_atom_site_fract_x
_atom_site_fract_y
_atom_site_fract_z
Si Si1 0.126038 0.260224 0.801896
Si Si2 0.072410 0.684894 0.923749
Si Si3 0.188726 0.521974 0.697118
Si Si4 0.846324 0.375944 0.334375
Si Si5 0.973753 0.592684 0.464390
Si Si6 0.037133 0.505742 0.153288
O O1 0.177114 0.393483 0.780170
O O2 0.221917 0.159629 0.745614
O O3 0.014160 0.256028 0.686693
O O4 0.077348 0.213852 0.961608
O O5 0.124046 0.768061 0.053090
O O6 0.998297 0.577559 0.005773
O O7 0.175313 0.624743 0.822250
O O8 0.323059 0.529219 0.629980
O O9 0.078911 0.541644 0.577178
O O10 0.863723 0.496605 0.436004
O O11 0.948792 0.399832 0.207231
O O12 0.030551 0.595510 0.298159
#
# Coordination Sequence:
#
# PCOD9314634 Si02
#       6
#     4   4   4   4   4   4
#     4  11  22  42  66  91 136 168 218 270 322 386
#     4  11  23  39  70  92 124 176 212 266 330 376
#     4  11  21  41  65  94 125 172 214 268 321 386
#     4  10  23  40  65  89 131 164 216 261 322 378
#     4   9  23  41  61  96 127 168 216 268 320 388
#     4  10  22  39  63  94 125 166 218 257 323 384
#
# _framework density 22.100237
#
# number of rings (size 3 to 8) (size 9 to 14) (size 15 to 20)
#    1.000    0.667    3.333    1.000    4.667    1.333 
#    0.000    0.000    0.000    0.000    0.000    0.000 
#    0.000    0.000    0.000    0.000    0.000    0.000 
#
# Total GULP energy -133900.241561 kJ/mol
# GULP energy per Si atom -5579.176732 kJ/mol
# Density = 2.204994 g / cm^3
# Si number density = 22.100237 Si / 1000 Ang^3
#
#
#
# Elastic Constant Matrix: (Units=GPa)
#
#
# Indices 1 2 3 4 5 6 
#
# 1 27.3616 -5.2052 -8.5200 0.0000 0.0000 0.0000
# 2 -5.2052 38.2074 -2.4347 0.0000 0.0000 0.0000
# 3 -8.5200 -2.4347 57.1223 0.0000 0.0000 0.0000
# 4 0.0000 0.0000 0.0000 30.6738 0.0000 0.0000
# 5 0.0000 0.0000 0.0000 0.0000 25.0408 0.0000
# 6 0.0000 0.0000 0.0000 0.0000 0.0000 24.8603
#
#
#
# Elastic Compliance Matrix: (Units=1/GPa)
#
#
# Indices 1 2 3 4 5 6 
#
# 1 0.039562 0.005781 0.006147 0.000000 0.000000 0.000000
# 2 0.005781 0.027089 0.002017 0.000000 0.000000 0.000000
# 3 0.006147 0.002017 0.018509 0.000000 0.000000 0.000000
# 4 0.000000 0.000000 0.000000 0.032601 0.000000 0.000000
# 5 0.000000 0.000000 0.000000 0.000000 0.039935 0.000000
# 6 0.000000 0.000000 0.000000 0.000000 0.000000 0.040225
#
#
# Mechanical properties :
#
#
# Convention : Reuss Voigt Hill
#
# Bulk Modulus (GPa) = 8.84558 10.04129 9.44344
# Shear Modulus (GPa) = 24.07166 25.37173 24.72170
#
# Velocity S-wave (km/s) = 3.30389 3.39193 3.34820
# Velocity P-wave (km/s) = 4.30876 4.46023 4.38515
#
# Compressibility (1/GPa) = 0.11305077
#
# Stress axis : x y z
#
# Youngs Moduli (GPa) = 25.27704 36.91523 54.02743
#
# Poissons Ratio (x) = -0.21342 -0.33212
# Poissons Ratio (y) = -0.14614 -0.10897
# Poissons Ratio (z) = -0.15538 -0.07445
#
# Static dielectric constant tensor:
#      x y z
#    x 1.760910 0.000000 0.000000 
#    y 0.000000 1.837450 0.000000 
#    z 0.000000 0.000000 1.800020 
# 
# From -- ./inp_files/3398.got.cif
#   From: 2010.05.17/outbox.cif.g08.bks.cpg/sg19_2_cif.got.tgz:3398.got - 2010.06.03 22:46:19.
