data_PCOD9314980
_publ_section_title
;
Structure prediction by ZEFSAII (Michael W. Deem and Ramdas Pophale) SiO2 
 PCOD9314980
Probable space group: P 21 21 21
;
_chemical_formula_sum "Si O2"
_cell_formula_units_Z 32
_cell_length_a 20.473423
_cell_length_b 11.812614
_cell_length_c 5.213432
_cell_angle_alpha 90.000000
_cell_angle_beta 90.000000
_cell_angle_gamma 90.000000
_cell_volume 1260.840602
_symmetry_space_group_name_H-M "P 21 21 21"
_symmetry_group_IT_number 19
_symmetry_cell_setting 'orthorhombic'
loop_
_space_group_symop_operation_xyz
x,y,z
1/2-x,-y,1/2+z
1/2+x,1/2-y,-z
-x,1/2+y,1/2-z
loop_
_atom_site_type_symbol
_atom_site_label
_atom_site_fract_x
_atom_site_fract_y
_atom_site_fract_z
Si Si1 0.505991 0.263807 0.127724
Si Si2 0.376222 0.855429 0.086674
Si Si3 0.252193 0.576959 0.460708
Si Si4 0.943390 0.427504 0.057053
Si Si5 0.625538 0.174099 0.789170
Si Si6 0.756374 0.572242 0.689046
Si Si7 0.933359 0.052125 0.199403
Si Si8 0.848507 0.241061 0.252750
O O1 0.552852 0.306903 0.347932
O O2 0.467694 0.147189 0.186401
O O3 0.559273 0.225263 0.911845
O O4 0.461220 0.366177 0.023708
O O5 0.328964 0.875663 0.323356
O O6 0.344389 0.767673 0.894861
O O7 0.389149 0.978738 0.977060
O O8 0.253410 0.511803 0.191923
O O9 0.321526 0.637578 0.502809
O O10 0.192225 0.667113 0.460487
O O11 0.909075 0.326378 0.209982
O O12 0.004032 0.496442 0.167226
O O13 0.607913 0.059627 0.632292
O O14 0.741807 0.525940 0.405892
O O15 0.708253 0.667709 0.810127
O O16 0.887714 0.134065 0.376634
#
# Coordination Sequence:
#
# PCOD9314980 Si02
#       8
#     4   4   4   4   4   4   4   4
#     4  10  24  42  72 103 145 200 255 320 390 466
#     4  12  26  44  76 106 154 205 258 332 392 475
#     4  12  29  52  79 118 160 208 268 337 403 490
#     4  10  23  48  68 113 150 202 264 319 398 478
#     4  11  25  45  74 106 153 199 261 329 399 467
#     4  12  30  51  78 115 158 206 265 334 395 476
#     4  10  22  48  74 107 156 203 266 327 395 484
#     4  11  25  48  81 114 158 215 265 332 412 480
#
# _framework density 25.379894
#
# number of rings (size 3 to 8) (size 9 to 14) (size 15 to 20)
#    0.000    1.000    3.750    0.750   10.500    0.000 
#    9.000    0.000    0.000    0.000    0.000    0.000 
#    0.000    0.000    0.000    0.000    0.000    0.000 
#
# Total GULP energy -178557.082546 kJ/mol
# GULP energy per Si atom -5579.908830 kJ/mol
# Density = 2.532213 g / cm^3
# Si number density = 25.379894 Si / 1000 Ang^3
#
#
#
# Elastic Constant Matrix: (Units=GPa)
#
#
# Indices 1 2 3 4 5 6 
#
# 1 99.1985 45.2931 4.7709 0.0000 0.0000 0.0000
# 2 45.2931 176.8088 35.2376 0.0000 0.0000 0.0000
# 3 4.7709 35.2376 54.5558 0.0000 0.0000 0.0000
# 4 0.0000 0.0000 0.0000 12.7272 0.0000 0.0000
# 5 0.0000 0.0000 0.0000 0.0000 29.8326 0.0000
# 6 0.0000 0.0000 0.0000 0.0000 0.0000 35.6184
#
#
#
# Elastic Compliance Matrix: (Units=1/GPa)
#
#
# Indices 1 2 3 4 5 6 
#
# 1 0.011466 -0.003142 0.001027 0.000000 0.000000 0.000000
# 2 -0.003142 0.007352 -0.004474 0.000000 0.000000 0.000000
# 3 0.001027 -0.004474 0.021130 0.000000 0.000000 0.000000
# 4 0.000000 0.000000 0.000000 0.078572 0.000000 0.000000
# 5 0.000000 0.000000 0.000000 0.000000 0.033520 0.000000
# 6 0.000000 0.000000 0.000000 0.000000 0.000000 0.028075
#
#
# Mechanical properties :
#
#
# Convention : Reuss Voigt Hill
#
# Bulk Modulus (GPa) = 37.35589 55.68514 46.52052
# Shear Modulus (GPa) = 24.72583 31.98641 28.35612
#
# Velocity S-wave (km/s) = 3.12465 3.55393 3.34618
# Velocity P-wave (km/s) = 5.26959 6.23128 5.77050
#
# Compressibility (1/GPa) = 0.02676954
#
# Stress axis : x y z
#
# Youngs Moduli (GPa) = 87.21471 136.01085 47.32624
#
# Poissons Ratio (x) = 0.42732 -0.04859
# Poissons Ratio (y) = 0.27401 0.21174
# Poissons Ratio (z) = -0.08954 0.60853
#
# Static dielectric constant tensor:
#      x y z
#    x 2.042680 0.000000 0.000000 
#    y 0.000000 2.010500 0.000000 
#    z 0.000000 0.000000 1.989320 
# 
# From -- ./inp_files/2031.got.cif
#   From: 2010.05.17/outbox.cif.g08.bks.cpg/sg19_2_cif.got.tgz:2031.got - 2010.06.03 22:46:19.
