data_PCOD9314382
_publ_section_title
;
Structure prediction by ZEFSAII (Michael W. Deem and Ramdas Pophale) SiO2 
 PCOD9314382
Probable space group: P 21 21 21
;
_chemical_formula_sum "Si O2"
_cell_formula_units_Z 28
_cell_length_a 24.768424
_cell_length_b 8.922225
_cell_length_c 5.400248
_cell_angle_alpha 90.000000
_cell_angle_beta 90.000000
_cell_angle_gamma 90.000000
_cell_volume 1193.397845
_symmetry_space_group_name_H-M "P 21 21 21"
_symmetry_group_IT_number 19
_symmetry_cell_setting 'orthorhombic'
loop_
_space_group_symop_operation_xyz
x,y,z
1/2-x,-y,1/2+z
1/2+x,1/2-y,-z
-x,1/2+y,1/2-z
loop_
_atom_site_type_symbol
_atom_site_label
_atom_site_fract_x
_atom_site_fract_y
_atom_site_fract_z
Si Si1 0.132083 0.611325 0.077638
Si Si2 0.461177 0.359176 0.214628
Si Si3 0.374424 0.156398 0.959801
Si Si4 0.726303 0.066650 0.025485
Si Si5 0.760773 0.402560 0.890803
Si Si6 0.947834 0.918233 0.166845
Si Si7 0.454218 0.906350 0.921154
O O1 0.151063 0.755520 0.228430
O O2 0.170386 0.516749 0.900333
O O3 0.109680 0.485487 0.262497
O O4 0.077922 0.666953 0.945184
O O5 0.522049 0.355084 0.311930
O O6 0.429494 0.249150 0.027388
O O7 0.455204 0.527336 0.113968
O O8 0.398411 0.992968 0.921054
O O9 0.324073 0.144531 0.145160
O O10 0.730432 0.244040 0.959185
O O11 0.738334 0.978032 0.766115
O O12 0.743065 0.488086 0.635933
O O13 0.949078 0.746045 0.225481
O O14 0.998863 0.994149 0.300557
#
# Coordination Sequence:
#
# PCOD9314382 Si02
#       7
#     4   4   4   4   4   4   4
#     4  10  23  41  67  96 130 184 240 301 364 447
#     4  10  21  40  66  97 132 178 242 285 372 444
#     4  11  24  44  69  99 144 192 237 313 381 452
#     4  12  25  47  78 103 144 198 260 309 376 463
#     4  12  29  50  73 114 157 197 258 328 396 452
#     4  10  22  38  59  96 128 172 227 285 350 447
#     4  11  22  40  64  95 141 177 232 293 369 445
#
# _framework density 23.462419000000001
#
# number of rings (size 3 to 8) (size 9 to 14) (size 15 to 20)
#    0.000    1.143    1.429    5.143    6.000    2.286 
#    0.000    0.000    0.000    0.000    0.000    0.000 
#    0.000    0.000    0.000    0.000    0.000    0.000 
#
# Total GULP energy -155955.492944 kJ/mol
# GULP energy per Si atom -5569.839034 kJ/mol
# Density = 2.340902 g / cm^3
# Si number density = 23.462419 Si / 1000 Ang^3
#
#
#
# Elastic Constant Matrix: (Units=GPa)
#
#
# Indices 1 2 3 4 5 6 
#
# 1 55.1864 4.1966 -2.2897 0.0000 0.0000 0.0000
# 2 4.1966 127.5717 28.8110 0.0000 0.0000 0.0000
# 3 -2.2897 28.8110 82.2268 0.0000 0.0000 0.0000
# 4 0.0000 0.0000 0.0000 30.7310 0.0000 0.0000
# 5 0.0000 0.0000 0.0000 0.0000 21.1995 0.0000
# 6 0.0000 0.0000 0.0000 0.0000 0.0000 25.3691
#
#
#
# Elastic Compliance Matrix: (Units=1/GPa)
#
#
# Indices 1 2 3 4 5 6 
#
# 1 0.018212 -0.000775 0.000779 0.000000 0.000000 0.000000
# 2 -0.000775 0.008545 -0.003016 0.000000 0.000000 0.000000
# 3 0.000779 -0.003016 0.013240 0.000000 0.000000 0.000000
# 4 0.000000 0.000000 0.000000 0.032540 0.000000 0.000000
# 5 0.000000 0.000000 0.000000 0.000000 0.047171 0.000000
# 6 0.000000 0.000000 0.000000 0.000000 0.000000 0.039418
#
#
# Mechanical properties :
#
#
# Convention : Reuss Voigt Hill
#
# Bulk Modulus (GPa) = 29.43533 36.26894 32.85214
# Shear Modulus (GPa) = 28.33272 31.07772 29.70522
#
# Velocity S-wave (km/s) = 3.47879 3.64342 3.56206
# Velocity P-wave (km/s) = 5.35808 5.76118 5.56328
#
# Compressibility (1/GPa) = 0.03397278
#
# Stress axis : x y z
#
# Youngs Moduli (GPa) = 54.90989 117.02345 75.52969
#
# Poissons Ratio (x) = 0.09069 -0.05881
# Poissons Ratio (y) = 0.04255 0.22778
# Poissons Ratio (z) = -0.04276 0.35291
#
# Static dielectric constant tensor:
#      x y z
#    x 2.063530 0.000000 0.000000 
#    y 0.000000 1.997920 0.000000 
#    z 0.000000 0.000000 2.038170 
# 
# From -- ./inp_files/542.got.cif
#   From: 2010.05.17/outbox.cif.g08.bks.cpg/sg19_1_cif.got.tgz:542.got - 2010.06.03 22:46:19.
