data_PCOD9314657
_publ_section_title
;
Structure prediction by ZEFSAII (Michael W. Deem and Ramdas Pophale) SiO2 
 PCOD9314657
Probable space group: P 21 21 21
;
_chemical_formula_sum "Si O2"
_cell_formula_units_Z 32
_cell_length_a 15.283192
_cell_length_b 5.365035
_cell_length_c 15.274078
_cell_angle_alpha 90.000000
_cell_angle_beta 90.000000
_cell_angle_gamma 90.000000
_cell_volume 1252.395887
_symmetry_space_group_name_H-M "P 21 21 21"
_symmetry_group_IT_number 19
_symmetry_cell_setting 'orthorhombic'
loop_
_space_group_symop_operation_xyz
x,y,z
1/2-x,-y,1/2+z
1/2+x,1/2-y,-z
-x,1/2+y,1/2-z
loop_
_atom_site_type_symbol
_atom_site_label
_atom_site_fract_x
_atom_site_fract_y
_atom_site_fract_z
Si Si1 0.145650 0.322017 0.961703
Si Si2 0.409221 0.603288 0.805766
Si Si3 0.606236 0.610623 0.762886
Si Si4 0.355066 0.436425 0.277301
Si Si5 0.517687 0.245586 0.348270
Si Si6 0.543090 0.900382 0.504103
Si Si7 0.846141 0.380728 0.875303
Si Si8 0.805213 0.334213 0.443043
O O1 0.188183 0.058583 0.987546
O O2 0.177361 0.561699 0.018505
O O3 0.167914 0.391365 0.860567
O O4 0.042957 0.273429 0.989006
O O5 0.500911 0.634090 0.752971
O O6 0.366976 0.875017 0.795916
O O7 0.354946 0.377126 0.764268
O O8 0.434144 0.500631 0.900551
O O9 0.628203 0.589594 0.865070
O O10 0.416441 0.234884 0.325792
O O11 0.422789 0.586152 0.216048
O O12 0.303299 0.282644 0.202238
O O13 0.559666 0.518226 0.344851
O O14 0.525186 0.140786 0.445148
O O15 0.628336 0.771127 0.461682
O O16 0.788535 0.620915 0.897906
#
# Coordination Sequence:
#
# PCOD9314657 Si02
#       8
#     4   4   4   4   4   4   4   4
#     4  12  26  45  78 105 145 193 254 289 364 449
#     4  10  22  39  70  99 129 174 250 295 337 412
#     4  10  22  41  66  96 133 185 235 292 350 421
#     4  11  22  42  73 106 135 189 241 299 349 444
#     4  11  21  41  74 108 141 179 243 302 367 418
#     4  11  24  42  74 108 140 189 244 314 346 433
#     4  11  27  45  71 104 156 185 236 306 380 423
#     4  12  28  49  68 106 153 198 231 309 381 430
#
# _framework density 25.551026
#
# number of rings (size 3 to 8) (size 9 to 14) (size 15 to 20)
#    0.000    1.000    3.750    2.250   10.500    0.000 
#    4.500    0.000    0.000    0.000    0.000    0.000 
#    0.000    0.000    0.000    0.000    0.000    0.000 
#
# Total GULP energy -178764.949645 kJ/mol
# GULP energy per Si atom -5586.404676 kJ/mol
# Density = 2.549287 g / cm^3
# Si number density = 25.551026 Si / 1000 Ang^3
#
#
#
# Elastic Constant Matrix: (Units=GPa)
#
#
# Indices 1 2 3 4 5 6 
#
# 1 56.8943 16.9521 7.1617 0.0000 0.0000 0.0000
# 2 16.9521 142.9658 45.9744 0.0000 0.0000 0.0000
# 3 7.1617 45.9744 117.9066 0.0000 0.0000 0.0000
# 4 0.0000 0.0000 0.0000 42.0437 0.0000 0.0000
# 5 0.0000 0.0000 0.0000 0.0000 23.3504 0.0000
# 6 0.0000 0.0000 0.0000 0.0000 0.0000 35.9045
#
#
#
# Elastic Compliance Matrix: (Units=1/GPa)
#
#
# Indices 1 2 3 4 5 6 
#
# 1 0.018230 -0.002064 -0.000302 0.000000 0.000000 0.000000
# 2 -0.002064 0.008231 -0.003084 0.000000 0.000000 0.000000
# 3 -0.000302 -0.003084 0.009702 0.000000 0.000000 0.000000
# 4 0.000000 0.000000 0.000000 0.023785 0.000000 0.000000
# 5 0.000000 0.000000 0.000000 0.000000 0.042826 0.000000
# 6 0.000000 0.000000 0.000000 0.000000 0.000000 0.027852
#
#
# Mechanical properties :
#
#
# Convention : Reuss Voigt Hill
#
# Bulk Modulus (GPa) = 39.58608 50.88256 45.23432
# Shear Modulus (GPa) = 33.34502 36.77162 35.05832
#
# Velocity S-wave (km/s) = 3.61645 3.79772 3.70819
# Velocity P-wave (km/s) = 5.74150 6.26000 6.00635
#
# Compressibility (1/GPa) = 0.02526140
#
# Stress axis : x y z
#
# Youngs Moduli (GPa) = 54.85589 121.48822 103.06899
#
# Poissons Ratio (x) = 0.25079 0.03116
# Poissons Ratio (y) = 0.11324 0.31788
# Poissons Ratio (z) = 0.01658 0.37469
#
# Static dielectric constant tensor:
#      x y z
#    x 2.148450 0.000000 0.000000 
#    y 0.000000 2.055820 0.000000 
#    z 0.000000 0.000000 2.019360 
# 
# From -- ./inp_files/5771.got.cif
#   From: 2010.05.17/outbox.cif.g08.bks.cpg/sg19_3_cif.got.tgz:5771.got - 2010.06.03 22:46:19.
