data_PCOD9314568
_publ_section_title
;
Structure prediction by ZEFSAII (Michael W. Deem and Ramdas Pophale) SiO2 
 PCOD9314568
Probable space group: P 21 21 21
;
_chemical_formula_sum "Si O2"
_cell_formula_units_Z 24
_cell_length_a 9.426723
_cell_length_b 15.252059
_cell_length_c 7.996348
_cell_angle_alpha 90.000000
_cell_angle_beta 90.000000
_cell_angle_gamma 90.000000
_cell_volume 1149.690410
_symmetry_space_group_name_H-M "P 21 21 21"
_symmetry_group_IT_number 19
_symmetry_cell_setting 'orthorhombic'
loop_
_space_group_symop_operation_xyz
x,y,z
1/2-x,-y,1/2+z
1/2+x,1/2-y,-z
-x,1/2+y,1/2-z
loop_
_atom_site_type_symbol
_atom_site_label
_atom_site_fract_x
_atom_site_fract_y
_atom_site_fract_z
Si Si1 0.403285 0.806852 0.504343
Si Si2 0.864262 0.118377 0.807623
Si Si3 0.542003 0.118440 0.868995
Si Si4 0.276342 0.136291 0.680863
Si Si5 0.420671 0.021396 0.166103
Si Si6 0.198866 0.811169 0.817424
O O1 0.546396 0.862005 0.476478
O O2 0.444484 0.705710 0.519444
O O3 0.303630 0.823427 0.342724
O O4 0.317357 0.825340 0.673408
O O5 0.701802 0.091512 0.830193
O O6 0.862486 0.213662 0.715643
O O7 0.953205 0.043425 0.718091
O O8 0.444401 0.140885 0.711379
O O9 0.453435 0.051133 0.978924
O O10 0.242482 0.181687 0.504888
O O11 0.220891 0.036750 0.671607
O O12 0.405582 0.106656 0.283602
#
# Coordination Sequence:
#
# PCOD9314568 Si02
#       6
#     4   4   4   4   4   4
#     4  10  21  46  69  97 134 180 224 284 350 410
#     4  10  24  41  69 101 140 180 232 287 354 404
#     4  11  21  45  66  97 140 183 223 294 346 404
#     4  11  24  41  73  98 133 179 236 272 350 425
#     4  11  23  45  64 101 138 185 234 284 343 419
#     4  11  23  44  73 100 137 183 231 287 341 418
#
# _framework density 20.875185999999999
#
# number of rings (size 3 to 8) (size 9 to 14) (size 15 to 20)
#    0.000    1.333    3.333    2.000    2.333    6.667 
#    6.000    0.000    0.000    0.000    0.000    0.000 
#    0.000    0.000    0.000    0.000    0.000    0.000 
#
# Total GULP energy -134012.607409 kJ/mol
# GULP energy per Si atom -5583.858642 kJ/mol
# Density = 2.082767 g / cm^3
# Si number density = 20.875186 Si / 1000 Ang^3
#
#
#
# Elastic Constant Matrix: (Units=GPa)
#
#
# Indices 1 2 3 4 5 6 
#
# 1 117.2998 22.0631 47.0070 0.0000 0.0000 0.0000
# 2 22.0631 89.9912 27.1055 0.0000 0.0000 0.0000
# 3 47.0070 27.1055 124.1687 0.0000 0.0000 0.0000
# 4 0.0000 0.0000 0.0000 23.7268 0.0000 0.0000
# 5 0.0000 0.0000 0.0000 0.0000 9.4399 0.0000
# 6 0.0000 0.0000 0.0000 0.0000 0.0000 16.5463
#
#
#
# Elastic Compliance Matrix: (Units=1/GPa)
#
#
# Indices 1 2 3 4 5 6 
#
# 1 0.010220 -0.001435 -0.003556 0.000000 0.000000 0.000000
# 2 -0.001435 0.012096 -0.002097 0.000000 0.000000 0.000000
# 3 -0.003556 -0.002097 0.009858 0.000000 0.000000 0.000000
# 4 0.000000 0.000000 0.000000 0.042146 0.000000 0.000000
# 5 0.000000 0.000000 0.000000 0.000000 0.105933 0.000000
# 6 0.000000 0.000000 0.000000 0.000000 0.000000 0.060437
#
#
# Mechanical properties :
#
#
# Convention : Reuss Voigt Hill
#
# Bulk Modulus (GPa) = 55.56291 58.20121 56.88206
# Shear Modulus (GPa) = 19.16706 25.62821 22.39763
#
# Velocity S-wave (km/s) = 3.03343 3.50764 3.27912
# Velocity P-wave (km/s) = 6.24047 6.65926 6.45326
#
# Compressibility (1/GPa) = 0.01799762
#
# Stress axis : x y z
#
# Youngs Moduli (GPa) = 97.84760 82.67444 101.44518
#
# Poissons Ratio (x) = 0.11861 0.36072
# Poissons Ratio (y) = 0.14037 0.21276
# Poissons Ratio (z) = 0.34793 0.17339
#
# Static dielectric constant tensor:
#      x y z
#    x 1.786370 0.000000 0.000000 
#    y 0.000000 1.769150 0.000000 
#    z 0.000000 0.000000 1.780580 
# 
# From -- ./inp_files/2796.got.cif
#   From: 2010.05.17/outbox.cif.g08.bks.cpg/sg19_2_cif.got.tgz:2796.got - 2010.06.03 22:46:19.
