data_PCOD9314790
_publ_section_title
;
Structure prediction by ZEFSAII (Michael W. Deem and Ramdas Pophale) SiO2 
 PCOD9314790
Probable space group: P 21 21 21
;
_chemical_formula_sum "Si O2"
_cell_formula_units_Z 24
_cell_length_a 9.001393
_cell_length_b 5.072795
_cell_length_c 21.347767
_cell_angle_alpha 90.000000
_cell_angle_beta 90.000000
_cell_angle_gamma 90.000000
_cell_volume 974.786463
_symmetry_space_group_name_H-M "P 21 21 21"
_symmetry_group_IT_number 19
_symmetry_cell_setting 'orthorhombic'
loop_
_space_group_symop_operation_xyz
x,y,z
1/2-x,-y,1/2+z
1/2+x,1/2-y,-z
-x,1/2+y,1/2-z
loop_
_atom_site_type_symbol
_atom_site_label
_atom_site_fract_x
_atom_site_fract_y
_atom_site_fract_z
Si Si1 0.728996 0.697414 0.471098
Si Si2 0.072610 0.625667 0.217954
Si Si3 0.568628 0.910917 0.019729
Si Si4 0.527192 0.591395 0.906290
Si Si5 0.099712 0.232251 0.762791
Si Si6 0.268006 0.703433 0.393672
O O1 0.557966 0.632031 0.469491
O O2 0.773590 0.620257 0.543213
O O3 0.815024 0.549024 0.416416
O O4 0.799779 0.987538 0.473093
O O5 0.248323 0.680131 0.227718
O O6 0.021576 0.341863 0.242439
O O7 0.032797 0.685582 0.145991
O O8 0.648559 0.928844 0.086584
O O9 0.492907 0.692165 0.976925
O O10 0.401408 0.385273 0.886135
O O11 0.156641 0.179804 0.833377
O O12 0.982791 0.473173 0.762207
#
# Coordination Sequence:
#
# PCOD9314790 Si02
#       6
#     4   4   4   4   4   4
#     4  10  22  42  63 106 139 179 236 298 376 428
#     4  12  29  49  79 110 149 210 261 312 377 463
#     4  10  23  38  69 101 141 181 232 300 375 436
#     4  12  24  44  74 102 142 190 255 303 379 456
#     4  12  29  52  76 113 153 210 256 319 389 456
#     4  10  23  47  69 102 148 188 244 312 380 449
#
# _framework density 24.620774999999998
#
# number of rings (size 3 to 8) (size 9 to 14) (size 15 to 20)
#    1.000    0.000    3.333    2.000    7.000    2.667 
#    0.000    0.000    0.000    0.000    0.000    0.000 
#    0.000    0.000    0.000    0.000    0.000    0.000 
#
# Total GULP energy -133894.516660 kJ/mol
# GULP energy per Si atom -5578.938194 kJ/mol
# Density = 2.456474 g / cm^3
# Si number density = 24.620775 Si / 1000 Ang^3
#
#
#
# Elastic Constant Matrix: (Units=GPa)
#
#
# Indices 1 2 3 4 5 6 
#
# 1 137.1612 12.2544 18.1808 0.0000 0.0000 0.0000
# 2 12.2544 49.1235 -0.5488 0.0000 0.0000 0.0000
# 3 18.1808 -0.5488 85.2921 0.0000 0.0000 0.0000
# 4 0.0000 0.0000 0.0000 36.2479 0.0000 0.0000
# 5 0.0000 0.0000 0.0000 0.0000 34.9354 0.0000
# 6 0.0000 0.0000 0.0000 0.0000 0.0000 22.2649
#
#
#
# Elastic Compliance Matrix: (Units=1/GPa)
#
#
# Indices 1 2 3 4 5 6 
#
# 1 0.007682 -0.001935 -0.001650 0.000000 0.000000 0.000000
# 2 -0.001935 0.020846 0.000547 0.000000 0.000000 0.000000
# 3 -0.001650 0.000547 0.012080 0.000000 0.000000 0.000000
# 4 0.000000 0.000000 0.000000 0.027588 0.000000 0.000000
# 5 0.000000 0.000000 0.000000 0.000000 0.028624 0.000000
# 6 0.000000 0.000000 0.000000 0.000000 0.000000 0.044914
#
#
# Mechanical properties :
#
#
# Convention : Reuss Voigt Hill
#
# Bulk Modulus (GPa) = 28.95955 36.81663 32.88809
# Shear Modulus (GPa) = 31.38331 34.80232 33.09282
#
# Velocity S-wave (km/s) = 3.57412 3.76378 3.67018
# Velocity P-wave (km/s) = 5.36845 5.82014 5.59885
#
# Compressibility (1/GPa) = 0.03453093
#
# Stress axis : x y z
#
# Youngs Moduli (GPa) = 130.16992 47.97171 82.78389
#
# Poissons Ratio (x) = 0.09282 0.13659
# Poissons Ratio (y) = 0.25186 -0.04525
# Poissons Ratio (z) = 0.21478 -0.02622
#
# Static dielectric constant tensor:
#      x y z
#    x 1.927240 0.000000 0.000000 
#    y 0.000000 2.056770 0.000000 
#    z 0.000000 0.000000 1.943500 
# 
# From -- ./inp_files/7322.got.cif
#   From: 2010.05.17/outbox.cif.g08.bks.cpg/sg19_4_cif.got.tgz:7322.got - 2010.06.03 22:46:19.
