data_PCOD9314997
_publ_section_title
;
Structure prediction by ZEFSAII (Michael W. Deem and Ramdas Pophale) SiO2 
 PCOD9314997
Probable space group: P 21 21 21
;
_chemical_formula_sum "Si O2"
_cell_formula_units_Z 32
_cell_length_a 27.976059
_cell_length_b 8.273148
_cell_length_c 5.245303
_cell_angle_alpha 90.000000
_cell_angle_beta 90.000000
_cell_angle_gamma 90.000000
_cell_volume 1214.025781
_symmetry_space_group_name_H-M "P 21 21 21"
_symmetry_group_IT_number 19
_symmetry_cell_setting 'orthorhombic'
loop_
_space_group_symop_operation_xyz
x,y,z
1/2-x,-y,1/2+z
1/2+x,1/2-y,-z
-x,1/2+y,1/2-z
loop_
_atom_site_type_symbol
_atom_site_label
_atom_site_fract_x
_atom_site_fract_y
_atom_site_fract_z
Si Si1 0.470235 0.925262 0.776269
Si Si2 0.262568 0.223741 0.242505
Si Si3 0.928588 0.354078 0.577380
Si Si4 0.027098 0.360373 0.895918
Si Si5 0.175981 0.407912 0.436458
Si Si6 0.625249 0.982732 0.090140
Si Si7 0.620929 0.412280 0.454445
Si Si8 0.802793 0.397959 0.255492
O O1 0.444864 0.092953 0.701155
O O2 0.429319 0.843460 0.942165
O O3 0.477445 0.808741 0.541880
O O4 0.516305 0.985774 0.919753
O O5 0.228804 0.369551 0.333081
O O6 0.299822 0.183355 0.468340
O O7 0.229625 0.059754 0.232459
O O8 0.282093 0.225529 0.955161
O O9 0.981105 0.357818 0.712016
O O10 0.900099 0.190164 0.590109
O O11 0.895119 0.492558 0.702794
O O12 0.082088 0.394797 0.829179
O O13 0.165032 0.514057 0.686389
O O14 0.158052 0.233604 0.547408
O O15 0.145756 0.464747 0.186994
O O16 0.647348 0.540102 0.641530
#
# Coordination Sequence:
#
# PCOD9314997 Si02
#       8
#     4   4   4   4   4   4   4   4
#     4  11  23  41  63  92 130 171 228 275 334 395
#     4   9  18  35  60  95 129 160 204 270 331 396
#     4  11  26  40  63  92 133 179 227 277 333 399
#     4  11  24  40  65  91 132 177 229 276 339 393
#     4  11  24  42  67  99 132 169 222 275 338 397
#     4  12  26  42  67  94 134 178 223 276 331 400
#     4  10  23  39  65  99 127 172 219 282 329 402
#     4   9  18  33  62  94 129 160 206 267 335 386
#
# _framework density 26.358584
#
# number of rings (size 3 to 8) (size 9 to 14) (size 15 to 20)
#    0.000    1.500    1.250    3.000    8.750    4.000 
#    0.000    0.000    0.000    3.000    0.000    0.000 
#    0.000    0.000    0.000    0.000    0.000    0.000 
#
# Total GULP energy -179121.837281 kJ/mol
# GULP energy per Si atom -5597.557415 kJ/mol
# Density = 2.629859 g / cm^3
# Si number density = 26.358584 Si / 1000 Ang^3
#
#
#
# Elastic Constant Matrix: (Units=GPa)
#
#
# Indices 1 2 3 4 5 6 
#
# 1 97.7673 17.1027 32.1182 0.0000 0.0000 0.0000
# 2 17.1027 86.2554 16.7165 0.0000 0.0000 0.0000
# 3 32.1182 16.7165 95.0953 0.0000 0.0000 0.0000
# 4 0.0000 0.0000 0.0000 38.2968 0.0000 0.0000
# 5 0.0000 0.0000 0.0000 0.0000 45.5510 0.0000
# 6 0.0000 0.0000 0.0000 0.0000 0.0000 44.2613
#
#
#
# Elastic Compliance Matrix: (Units=1/GPa)
#
#
# Indices 1 2 3 4 5 6 
#
# 1 0.011717 -0.001611 -0.003674 0.000000 0.000000 0.000000
# 2 -0.001611 0.012224 -0.001605 0.000000 0.000000 0.000000
# 3 -0.003674 -0.001605 0.012039 0.000000 0.000000 0.000000
# 4 0.000000 0.000000 0.000000 0.026112 0.000000 0.000000
# 5 0.000000 0.000000 0.000000 0.000000 0.021953 0.000000
# 6 0.000000 0.000000 0.000000 0.000000 0.000000 0.022593
#
#
# Mechanical properties :
#
#
# Convention : Reuss Voigt Hill
#
# Bulk Modulus (GPa) = 45.04537 45.66585 45.35561
# Shear Modulus (GPa) = 39.11797 39.83386 39.47592
#
# Velocity S-wave (km/s) = 3.85654 3.89167 3.87415
# Velocity P-wave (km/s) = 6.07924 6.12829 6.10381
#
# Compressibility (1/GPa) = 0.02219984
#
# Stress axis : x y z
#
# Youngs Moduli (GPa) = 85.34408 81.80674 83.06474
#
# Poissons Ratio (x) = 0.13181 0.30520
# Poissons Ratio (y) = 0.13751 0.13329
# Poissons Ratio (z) = 0.31358 0.13127
#
# Static dielectric constant tensor:
#      x y z
#    x 2.048150 0.000000 0.000000 
#    y 0.000000 2.130590 0.000000 
#    z 0.000000 0.000000 2.086820 
# 
# From -- ./inp_files/2329.got.cif
#   From: 2010.05.17/outbox.cif.g08.bks.cpg/sg19_2_cif.got.tgz:2329.got - 2010.06.03 22:46:19.
