data_PCOD9314958
_publ_section_title
;
Structure prediction by ZEFSAII (Michael W. Deem and Ramdas Pophale) SiO2 
 PCOD9314958
Probable space group: P 21 21 21
;
_chemical_formula_sum "Si O2"
_cell_formula_units_Z 28
_cell_length_a 9.140541
_cell_length_b 10.995947
_cell_length_c 11.713900
_cell_angle_alpha 90.000000
_cell_angle_beta 90.000000
_cell_angle_gamma 90.000000
_cell_volume 1177.351255
_symmetry_space_group_name_H-M "P 21 21 21"
_symmetry_group_IT_number 19
_symmetry_cell_setting 'orthorhombic'
loop_
_space_group_symop_operation_xyz
x,y,z
1/2-x,-y,1/2+z
1/2+x,1/2-y,-z
-x,1/2+y,1/2-z
loop_
_atom_site_type_symbol
_atom_site_label
_atom_site_fract_x
_atom_site_fract_y
_atom_site_fract_z
Si Si1 0.336989 0.506933 0.218639
Si Si2 0.803730 0.753891 0.262615
Si Si3 0.469669 0.017390 0.502802
Si Si4 0.809958 0.362520 0.984893
Si Si5 0.235914 0.761978 0.005132
Si Si6 0.886646 0.158153 0.163734
Si Si7 0.490041 0.416158 0.447398
O O1 0.227697 0.392671 0.200667
O O2 0.434696 0.531721 0.109071
O O3 0.250346 0.626567 0.258263
O O4 0.437197 0.459723 0.323534
O O5 0.709471 0.673752 0.352234
O O6 0.758442 0.731021 0.132424
O O7 0.972014 0.714600 0.275939
O O8 0.346927 0.915608 0.479301
O O9 0.567011 0.969151 0.606160
O O10 0.381242 0.135837 0.539213
O O11 0.928784 0.468248 0.001732
O O12 0.846079 0.246969 0.060567
O O13 0.150607 0.634092 0.015851
O O14 0.388890 0.808118 0.057471
#
# Coordination Sequence:
#
# PCOD9314958 Si02
#       7
#     4   4   4   4   4   4   4
#     4  11  24  43  70 106 137 189 240 296 369 425
#     4  10  23  44  65 100 144 176 242 292 355 431
#     4  10  23  42  68 100 139 181 239 287 358 429
#     4  10  22  45  71  99 141 186 235 299 351 436
#     4  10  23  45  64 102 143 187 236 298 356 424
#     4  11  25  41  72 105 140 188 238 298 358 431
#     4  10  24  42  72 100 146 191 236 296 363 422
#
# _framework density 23.782198000000001
#
# number of rings (size 3 to 8) (size 9 to 14) (size 15 to 20)
#    0.000    1.714    1.429    0.857    8.000    5.714 
#    2.571    0.000    0.000    0.000    0.000    0.000 
#    0.000    0.000    0.000    0.000    0.000    0.000 
#
# Total GULP energy -156820.074125 kJ/mol
# GULP energy per Si atom -5600.716933 kJ/mol
# Density = 2.372807 g / cm^3
# Si number density = 23.782198 Si / 1000 Ang^3
#
#
#
# Elastic Constant Matrix: (Units=GPa)
#
#
# Indices 1 2 3 4 5 6 
#
# 1 107.7227 38.7951 46.5428 0.0000 0.0000 0.0000
# 2 38.7951 74.4802 9.9386 0.0000 0.0000 0.0000
# 3 46.5428 9.9386 70.7051 0.0000 0.0000 0.0000
# 4 0.0000 0.0000 0.0000 27.7587 0.0000 0.0000
# 5 0.0000 0.0000 0.0000 0.0000 34.2180 0.0000
# 6 0.0000 0.0000 0.0000 0.0000 0.0000 52.9883
#
#
#
# Elastic Compliance Matrix: (Units=1/GPa)
#
#
# Indices 1 2 3 4 5 6 
#
# 1 0.015911 -0.007022 -0.009486 0.000000 0.000000 0.000000
# 2 -0.007022 0.016782 0.002263 0.000000 0.000000 0.000000
# 3 -0.009486 0.002263 0.020070 0.000000 0.000000 0.000000
# 4 0.000000 0.000000 0.000000 0.036025 0.000000 0.000000
# 5 0.000000 0.000000 0.000000 0.000000 0.029224 0.000000
# 6 0.000000 0.000000 0.000000 0.000000 0.000000 0.018872
#
#
# Mechanical properties :
#
#
# Convention : Reuss Voigt Hill
#
# Bulk Modulus (GPa) = 41.19909 49.27346 45.23627
# Shear Modulus (GPa) = 28.82448 33.50178 31.16313
#
# Velocity S-wave (km/s) = 3.48518 3.75733 3.62381
# Velocity P-wave (km/s) = 5.79279 6.29182 6.04745
#
# Compressibility (1/GPa) = 0.02427238
#
# Stress axis : x y z
#
# Youngs Moduli (GPa) = 62.85140 59.58841 49.82629
#
# Poissons Ratio (x) = 0.41841 0.47267
# Poissons Ratio (y) = 0.44132 -0.11276
# Poissons Ratio (z) = 0.59623 -0.13486
#
# Static dielectric constant tensor:
#      x y z
#    x 1.900800 0.000000 0.000000 
#    y 0.000000 1.916850 0.000000 
#    z 0.000000 0.000000 1.877840 
# 
# From -- ./inp_files/4624.got.cif
#   From: 2010.05.17/outbox.cif.g08.bks.cpg/sg19_3_cif.got.tgz:4624.got - 2010.06.03 22:46:19.
