data_PCOD9314377
_publ_section_title
;
Structure prediction by ZEFSAII (Michael W. Deem and Ramdas Pophale) SiO2 
 PCOD9314377
Probable space group: P 21 21 21
;
_chemical_formula_sum "Si O2"
_cell_formula_units_Z 32
_cell_length_a 9.365311
_cell_length_b 29.194229
_cell_length_c 4.744364
_cell_angle_alpha 90.000000
_cell_angle_beta 90.000000
_cell_angle_gamma 90.000000
_cell_volume 1297.170956
_symmetry_space_group_name_H-M "P 21 21 21"
_symmetry_group_IT_number 19
_symmetry_cell_setting 'orthorhombic'
loop_
_space_group_symop_operation_xyz
x,y,z
1/2-x,-y,1/2+z
1/2+x,1/2-y,-z
-x,1/2+y,1/2-z
loop_
_atom_site_type_symbol
_atom_site_label
_atom_site_fract_x
_atom_site_fract_y
_atom_site_fract_z
Si Si1 0.285148 0.786207 0.265612
Si Si2 0.242211 0.708641 0.681699
Si Si3 0.492591 0.736155 0.979295
Si Si4 0.087518 0.966518 0.333888
Si Si5 0.871052 0.121401 0.169820
Si Si6 0.747933 0.561469 0.165780
Si Si7 0.435721 0.873226 0.192477
Si Si8 0.707239 0.029509 0.151052
O O1 0.320469 0.742175 0.455154
O O2 0.376361 0.777570 0.978952
O O3 0.352003 0.833300 0.358000
O O4 0.116955 0.783989 0.218777
O O5 0.106165 0.738274 0.800028
O O6 0.191627 0.664710 0.503058
O O7 0.364043 0.698413 0.917949
O O8 0.107520 0.951348 0.014945
O O9 0.935733 0.963699 0.473981
O O10 0.146032 0.018214 0.362599
O O11 0.196607 0.935336 0.516229
O O12 0.767923 0.079092 0.232327
O O13 0.939958 0.138053 0.462804
O O14 0.986457 0.100601 0.946912
O O15 0.822713 0.602810 0.010605
O O16 0.693505 0.997911 0.426770
#
# Coordination Sequence:
#
# PCOD9314377 Si02
#       8
#     4   4   4   4   4   4   4   4
#     4  11  23  42  67  98 140 185 238 300 357 437
#     4  11  24  44  70 104 144 194 244 301 370 425
#     4  10  23  42  68  97 138 191 235 295 362 426
#     4  10  21  40  66  95 137 178 223 289 350 420
#     4  12  27  46  73 104 145 186 244 302 353 444
#     4  10  21  40  65  97 134 177 228 283 352 417
#     4  12  26  44  71 104 140 186 246 292 362 429
#     4  12  25  46  74 105 144 187 238 294 372 438
#
# _framework density 24.669066000000001
#
# number of rings (size 3 to 8) (size 9 to 14) (size 15 to 20)
#    0.000    1.000    1.250    5.250    5.250    3.000 
#    2.250    0.000    0.000    0.000    0.000    0.000 
#    0.000    0.000    0.000    0.000    0.000    0.000 
#
# Total GULP energy -178241.596187 kJ/mol
# GULP energy per Si atom -5570.049881 kJ/mol
# Density = 2.461292 g / cm^3
# Si number density = 24.669066 Si / 1000 Ang^3
#
#
#
# Elastic Constant Matrix: (Units=GPa)
#
#
# Indices 1 2 3 4 5 6 
#
# 1 139.8245 28.2954 17.0052 0.0000 0.0000 0.0000
# 2 28.2954 88.6896 30.0300 0.0000 0.0000 0.0000
# 3 17.0052 30.0300 96.4019 0.0000 0.0000 0.0000
# 4 0.0000 0.0000 0.0000 18.8635 0.0000 0.0000
# 5 0.0000 0.0000 0.0000 0.0000 19.1095 0.0000
# 6 0.0000 0.0000 0.0000 0.0000 0.0000 30.9559
#
#
#
# Elastic Compliance Matrix: (Units=1/GPa)
#
#
# Indices 1 2 3 4 5 6 
#
# 1 0.007683 -0.002227 -0.000661 0.000000 0.000000 0.000000
# 2 -0.002227 0.013250 -0.003735 0.000000 0.000000 0.000000
# 3 -0.000661 -0.003735 0.011653 0.000000 0.000000 0.000000
# 4 0.000000 0.000000 0.000000 0.053012 0.000000 0.000000
# 5 0.000000 0.000000 0.000000 0.000000 0.052330 0.000000
# 6 0.000000 0.000000 0.000000 0.000000 0.000000 0.032304
#
#
# Mechanical properties :
#
#
# Convention : Reuss Voigt Hill
#
# Bulk Modulus (GPa) = 51.70662 52.84193 52.27427
# Shear Modulus (GPa) = 26.32598 30.42481 28.37539
#
# Velocity S-wave (km/s) = 3.27029 3.51567 3.39520
# Velocity P-wave (km/s) = 5.93847 6.16009 6.05029
#
# Compressibility (1/GPa) = 0.01933988
#
# Stress axis : x y z
#
# Youngs Moduli (GPa) = 130.15796 75.46935 85.81234
#
# Poissons Ratio (x) = 0.16808 0.05676
# Poissons Ratio (y) = 0.28989 0.32049
# Poissons Ratio (z) = 0.08610 0.28186
#
# Static dielectric constant tensor:
#      x y z
#    x 2.003710 0.000000 0.000000 
#    y 0.000000 2.015610 0.000000 
#    z 0.000000 0.000000 2.068630 
# 
# From -- ./inp_files/718.got.cif
#   From: 2010.05.17/outbox.cif.g08.bks.cpg/sg19_1_cif.got.tgz:718.got - 2010.06.03 22:46:19.
