data_PCOD9314272
_publ_section_title
;
Structure prediction by ZEFSAII (Michael W. Deem and Ramdas Pophale) SiO2 
 PCOD9314272
Probable space group: P 21 21 21
;
_chemical_formula_sum "Si O2"
_cell_formula_units_Z 32
_cell_length_a 7.588971
_cell_length_b 11.870615
_cell_length_c 15.176079
_cell_angle_alpha 90.000000
_cell_angle_beta 90.000000
_cell_angle_gamma 90.000000
_cell_volume 1367.148504
_symmetry_space_group_name_H-M "P 21 21 21"
_symmetry_group_IT_number 19
_symmetry_cell_setting 'orthorhombic'
loop_
_space_group_symop_operation_xyz
x,y,z
1/2-x,-y,1/2+z
1/2+x,1/2-y,-z
-x,1/2+y,1/2-z
loop_
_atom_site_type_symbol
_atom_site_label
_atom_site_fract_x
_atom_site_fract_y
_atom_site_fract_z
Si Si1 0.346776 0.202251 0.673536
Si Si2 0.181974 0.399762 0.035821
Si Si3 0.282021 0.452298 0.712132
Si Si4 0.281400 0.141285 0.025781
Si Si5 0.285113 0.780771 0.843152
Si Si6 0.381478 0.449604 0.382962
Si Si7 0.263151 0.915686 0.009739
Si Si8 0.312798 0.958441 0.717747
O O1 0.251758 0.321970 0.683327
O O2 0.546587 0.224979 0.703787
O O3 0.358789 0.160059 0.571914
O O4 0.271769 0.091847 0.721907
O O5 0.216547 0.463628 0.128052
O O6 0.259502 0.275179 0.024157
O O7 0.233669 0.484100 0.955882
O O8 0.974619 0.375060 0.017919
O O9 0.150731 0.489662 0.790008
O O10 0.480097 0.454645 0.754587
O O11 0.222092 0.104945 0.125265
O O12 0.182245 0.034981 0.977881
O O13 0.163335 0.679524 0.868976
O O14 0.207911 0.879918 0.784834
O O15 0.342523 0.845481 0.930714
O O16 0.573435 0.445208 0.426234
#
# Coordination Sequence:
#
# PCOD9314272 Si02
#       8
#     4   4   4   4   4   4   4   4
#     4  10  21  39  63  90 125 170 222 270 331 404
#     4  11  25  44  69 101 142 180 230 280 353 402
#     4  11  23  42  70  98 131 188 226 273 346 422
#     4  10  23  41  67  95 137 175 219 287 330 415
#     4  11  20  39  70  89 125 179 221 276 340 412
#     4  11  23  41  66  97 135 172 227 284 328 409
#     4  10  22  42  61  97 133 169 224 281 333 390
#     4  10  21  38  66  95 124 167 235 271 329 406
#
# _framework density 23.406382000000001
#
# number of rings (size 3 to 8) (size 9 to 14) (size 15 to 20)
#    0.000    1.500    1.250    5.250    3.500    1.000 
#   11.250    1.250    8.250    0.000    0.000    0.000 
#    0.000    0.000    0.000    0.000    0.000    0.000 
#
# Total GULP energy -178216.217300 kJ/mol
# GULP energy per Si atom -5569.256791 kJ/mol
# Density = 2.335311 g / cm^3
# Si number density = 23.406382 Si / 1000 Ang^3
#
#
#
# Elastic Constant Matrix: (Units=GPa)
#
#
# Indices 1 2 3 4 5 6 
#
# 1 16.6399 6.7137 4.9031 0.0000 0.0000 0.0000
# 2 6.7137 184.0456 46.9987 0.0000 0.0000 0.0000
# 3 4.9031 46.9987 83.3097 0.0000 0.0000 0.0000
# 4 0.0000 0.0000 0.0000 38.6644 0.0000 0.0000
# 5 0.0000 0.0000 0.0000 0.0000 19.9131 0.0000
# 6 0.0000 0.0000 0.0000 0.0000 0.0000 32.1229
#
#
#
# Elastic Compliance Matrix: (Units=1/GPa)
#
#
# Indices 1 2 3 4 5 6 
#
# 1 0.061529 -0.001542 -0.002751 0.000000 0.000000 0.000000
# 2 -0.001542 0.006387 -0.003512 0.000000 0.000000 0.000000
# 3 -0.002751 -0.003512 0.014147 0.000000 0.000000 0.000000
# 4 0.000000 0.000000 0.000000 0.025864 0.000000 0.000000
# 5 0.000000 0.000000 0.000000 0.000000 0.050218 0.000000
# 6 0.000000 0.000000 0.000000 0.000000 0.000000 0.031130
#
#
# Mechanical properties :
#
#
# Convention : Reuss Voigt Hill
#
# Bulk Modulus (GPa) = 15.04854 44.58070 29.81462
# Shear Modulus (GPa) = 22.02288 33.16537 27.59412
#
# Velocity S-wave (km/s) = 3.07072 3.76831 3.43726
# Velocity P-wave (km/s) = 4.36070 6.16614 5.34027
#
# Compressibility (1/GPa) = 0.06645165
#
# Stress axis : x y z
#
# Youngs Moduli (GPa) = 16.25240 156.57849 70.68778
#
# Poissons Ratio (x) = 0.24143 0.19449
# Poissons Ratio (y) = 0.02506 0.24827
# Poissons Ratio (z) = 0.04472 0.54993
#
# Static dielectric constant tensor:
#      x y z
#    x 1.969940 0.000000 0.000000 
#    y 0.000000 2.093510 0.000000 
#    z 0.000000 0.000000 1.988710 
# 
# From -- ./inp_files/5907.got.cif
#   From: 2010.05.17/outbox.cif.g08.bks.cpg/sg19_3_cif.got.tgz:5907.got - 2010.06.03 22:46:19.
