data_PCOD9314249
_publ_section_title
;
Structure prediction by ZEFSAII (Michael W. Deem and Ramdas Pophale) SiO2 
 PCOD9314249
Probable space group: P 21 21 21
;
_chemical_formula_sum "Si O2"
_cell_formula_units_Z 32
_cell_length_a 16.527663
_cell_length_b 9.547208
_cell_length_c 8.736694
_cell_angle_alpha 90.000000
_cell_angle_beta 90.000000
_cell_angle_gamma 90.000000
_cell_volume 1378.589474
_symmetry_space_group_name_H-M "P 21 21 21"
_symmetry_group_IT_number 19
_symmetry_cell_setting 'orthorhombic'
loop_
_space_group_symop_operation_xyz
x,y,z
1/2-x,-y,1/2+z
1/2+x,1/2-y,-z
-x,1/2+y,1/2-z
loop_
_atom_site_type_symbol
_atom_site_label
_atom_site_fract_x
_atom_site_fract_y
_atom_site_fract_z
Si Si1 0.858109 0.577367 0.890105
Si Si2 0.282243 0.015385 0.412281
Si Si3 0.077096 0.015283 0.152430
Si Si4 0.006160 0.910735 0.436571
Si Si5 0.908062 0.013439 0.985496
Si Si6 0.636509 0.176618 0.749049
Si Si7 0.758205 0.200051 0.004160
Si Si8 0.105330 0.348914 0.806807
O O1 0.815237 0.476342 0.761019
O O2 0.791646 0.605918 0.022539
O O3 0.881580 0.711308 0.792563
O O4 0.938967 0.517015 0.965965
O O5 0.354584 0.028985 0.533303
O O6 0.247929 0.858202 0.436426
O O7 0.097457 0.169081 0.222712
O O8 0.063186 0.899682 0.285546
O O9 0.995162 0.032422 0.058308
O O10 0.920998 0.933145 0.345305
O O11 0.966747 0.819247 0.572885
O O12 0.867919 0.884458 0.080044
O O13 0.914992 0.973214 0.808528
O O14 0.847817 0.141897 0.010735
O O15 0.722258 0.183738 0.833317
O O16 0.690715 0.122693 0.108631
#
# Coordination Sequence:
#
# PCOD9314249 Si02
#       8
#     4   4   4   4   4   4   4   4
#     4  11  22  40  66  89 131 168 215 266 321 386
#     4  10  22  40  61  94 122 167 215 264 322 381
#     4  10  21  39  63  92 128 164 217 267 320 387
#     4  10  21  38  62  87 123 170 206 261 320 373
#     4  11  20  35  65  89 126 168 210 263 322 391
#     4   9  20  37  59  91 131 164 209 267 324 379
#     4   9  20  38  60  88 122 167 208 261 324 385
#     4  10  22  39  60  92 129 162 212 267 317 380
#
# _framework density 23.212130999999999
#
# number of rings (size 3 to 8) (size 9 to 14) (size 15 to 20)
#    0.000    2.000    0.000    3.750    1.750    1.000 
#    2.250    0.000   13.750    0.000    0.000    0.000 
#    0.000    0.000    0.000    0.000    0.000    0.000 
#
# Total GULP energy -178473.728981 kJ/mol
# GULP energy per Si atom -5577.304031 kJ/mol
# Density = 2.315930 g / cm^3
# Si number density = 23.212131 Si / 1000 Ang^3
#
#
#
# Elastic Constant Matrix: (Units=GPa)
#
#
# Indices 1 2 3 4 5 6 
#
# 1 131.5185 35.4167 37.6122 0.0000 0.0000 0.0000
# 2 35.4167 31.8979 22.0265 0.0000 0.0000 0.0000
# 3 37.6122 22.0265 122.5567 0.0000 0.0000 0.0000
# 4 0.0000 0.0000 0.0000 36.1147 0.0000 0.0000
# 5 0.0000 0.0000 0.0000 0.0000 38.9193 0.0000
# 6 0.0000 0.0000 0.0000 0.0000 0.0000 -30.9215
#
#
#
# Elastic Compliance Matrix: (Units=1/GPa)
#
#
# Indices 1 2 3 4 5 6 
#
# 1 0.011040 -0.011323 -0.001353 0.000000 0.000000 0.000000
# 2 -0.011323 0.047406 -0.005045 0.000000 0.000000 0.000000
# 3 -0.001353 -0.005045 0.009481 0.000000 0.000000 0.000000
# 4 0.000000 0.000000 0.000000 0.027690 0.000000 0.000000
# 5 0.000000 0.000000 0.000000 0.000000 0.025694 0.000000
# 6 0.000000 0.000000 0.000000 0.000000 0.000000 -0.032340
#
#
# Mechanical properties :
#
#
# Convention : Reuss Voigt Hill
#
# Bulk Modulus (GPa) = 30.78360 52.89819 41.84090
# Shear Modulus (GPa) = 36.97084 21.55035 29.26060
#
# Velocity S-wave (km/s) = 3.99524 3.05029 3.55431
# Velocity P-wave (km/s) = 5.87990 5.93668 5.90836
#
# Compressibility (1/GPa) = 0.03248483
#
# Stress axis : x y z
#
# Youngs Moduli (GPa) = 90.58252 21.09430 105.46943
#
# Poissons Ratio (x) = 0.23886 0.14270
# Poissons Ratio (y) = 1.02569 0.53209
# Poissons Ratio (z) = 0.12255 0.10642
#
# Static dielectric constant tensor:
#      x y z
#    x 1.853810 0.000000 0.000000 
#    y 0.000000 1.976280 0.000000 
#    z 0.000000 0.000000 1.902880 
# 
# From -- ./inp_files/3990.got.cif
#   From: 2010.05.17/outbox.cif.g08.bks.cpg/sg19_2_cif.got.tgz:3990.got - 2010.06.03 22:46:19.
