data_PCOD9314411
_publ_section_title
;
Structure prediction by ZEFSAII (Michael W. Deem and Ramdas Pophale) SiO2 
 PCOD9314411
Probable space group: P 21 21 21
;
_chemical_formula_sum "Si O2"
_cell_formula_units_Z 28
_cell_length_a 8.503570
_cell_length_b 11.330650
_cell_length_c 13.130318
_cell_angle_alpha 90.000000
_cell_angle_beta 90.000000
_cell_angle_gamma 90.000000
_cell_volume 1265.118947
_symmetry_space_group_name_H-M "P 21 21 21"
_symmetry_group_IT_number 19
_symmetry_cell_setting 'orthorhombic'
loop_
_space_group_symop_operation_xyz
x,y,z
1/2-x,-y,1/2+z
1/2+x,1/2-y,-z
-x,1/2+y,1/2-z
loop_
_atom_site_type_symbol
_atom_site_label
_atom_site_fract_x
_atom_site_fract_y
_atom_site_fract_z
Si Si1 0.365380 0.997429 0.604699
Si Si2 0.027755 0.745714 0.426570
Si Si3 0.368005 0.582155 0.736096
Si Si4 0.735288 0.172386 0.245798
Si Si5 0.959300 0.390957 0.870973
Si Si6 0.860329 0.127121 0.596360
Si Si7 0.794799 0.711926 0.946460
O O1 0.438111 0.878205 0.558113
O O2 0.202940 0.954369 0.658210
O O3 0.493627 0.049643 0.683001
O O4 0.300329 0.093505 0.523514
O O5 0.929414 0.838819 0.356812
O O6 0.176787 0.711340 0.356801
O O7 0.067572 0.805435 0.533649
O O8 0.298184 0.452808 0.712212
O O9 0.226592 0.646889 0.796327
O O10 0.550690 0.168360 0.221685
O O11 0.768885 0.263683 0.334041
O O12 0.086988 0.490723 0.905342
O O13 0.736851 0.175862 0.515464
O O14 0.021511 0.190078 0.565756
#
# Coordination Sequence:
#
# PCOD9314411 Si02
#       7
#     4   4   4   4   4   4   4
#     4  10  22  39  61  90 129 155 221 256 302 391
#     4  11  21  39  65  86 127 169 203 258 319 376
#     4  10  21  41  61  93 120 171 208 259 311 379
#     4  10  22  38  62  88 128 159 211 259 308 374
#     4  10  22  41  60  95 126 165 211 261 312 371
#     4  10  23  39  66  87 130 160 210 265 309 382
#     4  11  21  41  61  95 124 169 206 266 319 367
#
# _framework density 22.132307000000001
#
# number of rings (size 3 to 8) (size 9 to 14) (size 15 to 20)
#    0.000    1.714    1.429    2.571    2.000    0.000 
#    2.571    2.857    0.000    0.000    0.000    0.000 
#    0.000    0.000    0.000    0.000    0.000    0.000 
#
# Total GULP energy -156265.875981 kJ/mol
# GULP energy per Si atom -5580.924142 kJ/mol
# Density = 2.208193 g / cm^3
# Si number density = 22.132307 Si / 1000 Ang^3
#
#
#
# Elastic Constant Matrix: (Units=GPa)
#
#
# Indices 1 2 3 4 5 6 
#
# 1 78.1495 33.3179 -0.5100 0.0000 0.0000 0.0000
# 2 33.3179 62.1068 20.1629 0.0000 0.0000 0.0000
# 3 -0.5100 20.1629 20.7064 0.0000 0.0000 0.0000
# 4 0.0000 0.0000 0.0000 17.8705 0.0000 0.0000
# 5 0.0000 0.0000 0.0000 0.0000 23.3827 0.0000
# 6 0.0000 0.0000 0.0000 0.0000 0.0000 37.1515
#
#
#
# Elastic Compliance Matrix: (Units=1/GPa)
#
#
# Indices 1 2 3 4 5 6 
#
# 1 0.019525 -0.015545 0.015618 0.000000 0.000000 0.000000
# 2 -0.015545 0.035920 -0.035360 0.000000 0.000000 0.000000
# 3 0.015618 -0.035360 0.083111 0.000000 0.000000 0.000000
# 4 0.000000 0.000000 0.000000 0.055958 0.000000 0.000000
# 5 0.000000 0.000000 0.000000 0.000000 0.042767 0.000000
# 6 0.000000 0.000000 0.000000 0.000000 0.000000 0.026917
#
#
# Mechanical properties :
#
#
# Convention : Reuss Voigt Hill
#
# Bulk Modulus (GPa) = 14.70984 29.65602 22.18293
# Shear Modulus (GPa) = 13.98867 22.88041 18.43454
#
# Velocity S-wave (km/s) = 2.51678 3.21877 2.88917
# Velocity P-wave (km/s) = 3.88669 5.21943 4.60156
#
# Compressibility (1/GPa) = 0.06798171
#
# Stress axis : x y z
#
# Youngs Moduli (GPa) = 51.21590 27.83966 12.03214
#
# Poissons Ratio (x) = 0.43276 -0.18791
# Poissons Ratio (y) = 0.79614 0.42546
# Poissons Ratio (z) = -0.79987 0.98441
#
# Static dielectric constant tensor:
#      x y z
#    x 1.845740 0.000000 0.000000 
#    y 0.000000 1.853030 0.000000 
#    z 0.000000 0.000000 1.762660 
# 
# From -- ./inp_files/4618.got.cif
#   From: 2010.05.17/outbox.cif.g08.bks.cpg/sg19_3_cif.got.tgz:4618.got - 2010.06.03 22:46:19.
