data_PCOD9314886
_publ_section_title
;
Structure prediction by ZEFSAII (Michael W. Deem and Ramdas Pophale) SiO2 
 PCOD9314886
Probable space group: P 21 21 21
;
_chemical_formula_sum "Si O2"
_cell_formula_units_Z 28
_cell_length_a 4.780805
_cell_length_b 18.612933
_cell_length_c 12.382562
_cell_angle_alpha 90.000000
_cell_angle_beta 90.000000
_cell_angle_gamma 90.000000
_cell_volume 1101.859842
_symmetry_space_group_name_H-M "P 21 21 21"
_symmetry_group_IT_number 19
_symmetry_cell_setting 'orthorhombic'
loop_
_space_group_symop_operation_xyz
x,y,z
1/2-x,-y,1/2+z
1/2+x,1/2-y,-z
-x,1/2+y,1/2-z
loop_
_atom_site_type_symbol
_atom_site_label
_atom_site_fract_x
_atom_site_fract_y
_atom_site_fract_z
Si Si1 0.958777 0.068386 0.425866
Si Si2 0.071479 0.617907 0.652730
Si Si3 0.423938 0.290869 0.458460
Si Si4 0.603502 0.956023 0.561953
Si Si5 0.162984 0.249846 0.235520
Si Si6 0.606443 0.536395 0.739941
Si Si7 0.656870 0.149823 0.233981
O O1 0.053158 0.134922 0.499205
O O2 0.757412 0.104713 0.336956
O O3 0.794647 0.015096 0.504106
O O4 0.174676 0.022843 0.352813
O O5 0.806018 0.604947 0.729442
O O6 0.979340 0.591857 0.534340
O O7 0.218722 0.695032 0.647556
O O8 0.301420 0.564299 0.704600
O O9 0.683070 0.236378 0.459474
O O10 0.255540 0.289826 0.346320
O O11 0.784830 0.901952 0.633897
O O12 0.402394 0.998190 0.644688
O O13 0.341482 0.176598 0.237475
O O14 0.849738 0.221684 0.224171
#
# Coordination Sequence:
#
# PCOD9314886 Si02
#       7
#     4   4   4   4   4   4   4
#     4  10  22  43  69  99 136 176 232 289 347 411
#     4  11  25  44  70 102 137 184 233 286 346 416
#     4  12  23  40  68 101 131 182 225 286 358 415
#     4  10  25  45  72 100 138 188 233 285 357 421
#     4  12  24  44  66  99 144 176 230 287 342 424
#     4  10  24  44  68 103 139 178 234 293 343 412
#     4  11  25  44  67 100 139 180 227 290 349 413
#
# _framework density 25.411577000000001
#
# number of rings (size 3 to 8) (size 9 to 14) (size 15 to 20)
#    0.000    1.143    2.857    1.714    0.000   17.143 
#    0.000    0.000    0.000    0.000    0.000    0.000 
#    0.000    0.000    0.000    0.000    0.000    0.000 
#
# Total GULP energy -156835.828969 kJ/mol
# GULP energy per Si atom -5601.279606 kJ/mol
# Density = 2.535374 g / cm^3
# Si number density = 25.411577 Si / 1000 Ang^3
#
#
#
# Elastic Constant Matrix: (Units=GPa)
#
#
# Indices 1 2 3 4 5 6 
#
# 1 69.9469 -0.1882 5.0545 0.0000 0.0000 0.0000
# 2 -0.1882 116.2581 40.8230 0.0000 0.0000 0.0000
# 3 5.0545 40.8230 118.5888 0.0000 0.0000 0.0000
# 4 0.0000 0.0000 0.0000 47.1779 0.0000 0.0000
# 5 0.0000 0.0000 0.0000 0.0000 15.7533 0.0000
# 6 0.0000 0.0000 0.0000 0.0000 0.0000 46.8083
#
#
#
# Elastic Compliance Matrix: (Units=1/GPa)
#
#
# Indices 1 2 3 4 5 6 
#
# 1 0.014348 0.000271 -0.000705 0.000000 0.000000 0.000000
# 2 0.000271 0.009789 -0.003381 0.000000 0.000000 0.000000
# 3 -0.000705 -0.003381 0.009627 0.000000 0.000000 0.000000
# 4 0.000000 0.000000 0.000000 0.021196 0.000000 0.000000
# 5 0.000000 0.000000 0.000000 0.000000 0.063479 0.000000
# 6 0.000000 0.000000 0.000000 0.000000 0.000000 0.021364
#
#
# Mechanical properties :
#
#
# Convention : Reuss Voigt Hill
#
# Bulk Modulus (GPa) = 38.26554 44.01917 41.14235
# Shear Modulus (GPa) = 32.02150 39.22152 35.62151
#
# Velocity S-wave (km/s) = 3.55366 3.93294 3.74810
# Velocity P-wave (km/s) = 5.65058 6.16313 5.91241
#
# Compressibility (1/GPa) = 0.02613317
#
# Stress axis : x y z
#
# Youngs Moduli (GPa) = 69.69512 102.15183 103.87928
#
# Poissons Ratio (x) = -0.02765 0.07321
# Poissons Ratio (y) = -0.01887 0.35126
# Poissons Ratio (z) = 0.04912 0.34542
#
# Static dielectric constant tensor:
#      x y z
#    x 1.945860 0.000000 0.000000 
#    y 0.000000 2.023990 0.000000 
#    z 0.000000 0.000000 2.043340 
# 
# From -- ./inp_files/4503.got.cif
#   From: 2010.05.17/outbox.cif.g08.bks.cpg/sg19_3_cif.got.tgz:4503.got - 2010.06.03 22:46:19.
