data_PCOD9314448
_publ_section_title
;
Structure prediction by ZEFSAII (Michael W. Deem and Ramdas Pophale) SiO2 
 PCOD9314448
Probable space group: P 21 21 21
;
_chemical_formula_sum "Si O2"
_cell_formula_units_Z 32
_cell_length_a 5.255424
_cell_length_b 31.672493
_cell_length_c 9.348290
_cell_angle_alpha 90.000000
_cell_angle_beta 90.000000
_cell_angle_gamma 90.000000
_cell_volume 1556.045118
_symmetry_space_group_name_H-M "P 21 21 21"
_symmetry_group_IT_number 19
_symmetry_cell_setting 'orthorhombic'
loop_
_space_group_symop_operation_xyz
x,y,z
1/2-x,-y,1/2+z
1/2+x,1/2-y,-z
-x,1/2+y,1/2-z
loop_
_atom_site_type_symbol
_atom_site_label
_atom_site_fract_x
_atom_site_fract_y
_atom_site_fract_z
Si Si1 0.077811 0.249825 0.147514
Si Si2 0.000801 0.017295 0.114461
Si Si3 0.537263 0.624152 0.259896
Si Si4 0.732033 0.200814 0.373027
Si Si5 0.032819 0.615863 0.430064
Si Si6 0.497944 0.526637 0.194031
Si Si7 0.276904 0.814218 0.397801
Si Si8 0.484883 0.281860 0.373981
O O1 0.300519 0.258830 0.259129
O O2 0.872703 0.222127 0.238180
O O3 0.012828 0.297681 0.095338
O O4 0.117824 0.221131 0.008611
O O5 0.252665 0.012865 0.213846
O O6 0.752829 0.012157 0.216687
O O7 0.993591 0.065685 0.057770
O O8 0.000893 0.989681 0.969462
O O9 0.458504 0.664439 0.169108
O O10 0.325272 0.625195 0.388588
O O11 0.498855 0.577894 0.193233
O O12 0.831318 0.628175 0.304873
O O13 0.607908 0.241371 0.449526
O O14 0.907260 0.185979 0.502485
O O15 0.830989 0.693629 0.767488
O O16 0.906158 0.642365 0.557459
#
# Coordination Sequence:
#
# PCOD9314448 Si02
#       8
#     4   4   4   4   4   4   4   4
#     4  11  21  35  55  76 105 153 197 240 288 345
#     4  10  21  41  68  95 128 163 203 254 315 378
#     4  10  22  38  64  88 116 160 203 237 296 374
#     4  11  22  38  56  76 114 158 199 246 298 349
#     4  10  22  39  62  90 119 155 199 248 298 359
#     4  10  21  41  67  98 124 163 207 251 313 385
#     4  11  22  34  55  82 109 149 202 246 287 344
#     4  11  23  36  53  79 111 153 200 250 297 346
#
# _framework density 20.564959000000002
#
# number of rings (size 3 to 8) (size 9 to 14) (size 15 to 20)
#    0.000    1.500    3.750    1.500    3.500    0.000 
#    2.250    1.250    0.000    0.000    0.000    0.000 
#    0.000    0.000    0.000    0.000    0.000    0.000 
#
# Total GULP energy -178148.249136 kJ/mol
# GULP energy per Si atom -5567.132785 kJ/mol
# Density = 2.051815 g / cm^3
# Si number density = 20.564959 Si / 1000 Ang^3
#
#
#
# Elastic Constant Matrix: (Units=GPa)
#
#
# Indices 1 2 3 4 5 6 
#
# 1 66.0186 -7.2670 1.6262 0.0000 0.0000 0.0000
# 2 -7.2670 27.6813 5.3529 0.0000 0.0000 0.0000
# 3 1.6262 5.3529 67.7113 0.0000 0.0000 0.0000
# 4 0.0000 0.0000 0.0000 25.6623 0.0000 0.0000
# 5 0.0000 0.0000 0.0000 0.0000 27.8110 0.0000
# 6 0.0000 0.0000 0.0000 0.0000 0.0000 18.9037
#
#
#
# Elastic Compliance Matrix: (Units=1/GPa)
#
#
# Indices 1 2 3 4 5 6 
#
# 1 0.015632 0.004241 -0.000711 0.000000 0.000000 0.000000
# 2 0.004241 0.037837 -0.003093 0.000000 0.000000 0.000000
# 3 -0.000711 -0.003093 0.015030 0.000000 0.000000 0.000000
# 4 0.000000 0.000000 0.000000 0.038968 0.000000 0.000000
# 5 0.000000 0.000000 0.000000 0.000000 0.035957 0.000000
# 6 0.000000 0.000000 0.000000 0.000000 0.000000 0.052900
#
#
# Mechanical properties :
#
#
# Convention : Reuss Voigt Hill
#
# Bulk Modulus (GPa) = 14.41474 17.87061 16.14267
# Shear Modulus (GPa) = 22.87568 25.25535 24.06552
#
# Velocity S-wave (km/s) = 3.33883 3.50819 3.42456
# Velocity P-wave (km/s) = 4.67849 5.01185 4.84803
#
# Compressibility (1/GPa) = 0.06937343
#
# Stress axis : x y z
#
# Youngs Moduli (GPa) = 63.97296 26.42916 66.53286
#
# Poissons Ratio (x) = -0.11209 0.04729
# Poissons Ratio (y) = -0.27132 0.20579
# Poissons Ratio (z) = 0.04547 0.08175
#
# Static dielectric constant tensor:
#      x y z
#    x 1.930550 0.000000 0.000000 
#    y 0.000000 1.725120 0.000000 
#    z 0.000000 0.000000 1.735430 
# 
# From -- ./inp_files/2506.got.cif
#   From: 2010.05.17/outbox.cif.g08.bks.cpg/sg19_2_cif.got.tgz:2506.got - 2010.06.03 22:46:19.
