data_PCOD9314969
_publ_section_title
;
Structure prediction by ZEFSAII (Michael W. Deem and Ramdas Pophale) SiO2 
 PCOD9314969
Probable space group: P 21 21 21
;
_chemical_formula_sum "Si O2"
_cell_formula_units_Z 28
_cell_length_a 14.163443
_cell_length_b 4.937499
_cell_length_c 14.314049
_cell_angle_alpha 90.000000
_cell_angle_beta 90.000000
_cell_angle_gamma 90.000000
_cell_volume 1001.009869
_symmetry_space_group_name_H-M "P 21 21 21"
_symmetry_group_IT_number 19
_symmetry_cell_setting 'orthorhombic'
loop_
_space_group_symop_operation_xyz
x,y,z
1/2-x,-y,1/2+z
1/2+x,1/2-y,-z
-x,1/2+y,1/2-z
loop_
_atom_site_type_symbol
_atom_site_label
_atom_site_fract_x
_atom_site_fract_y
_atom_site_fract_z
Si Si1 0.605799 0.135289 0.686987
Si Si2 0.580238 0.960261 0.057243
Si Si3 0.464450 0.465799 0.085846
Si Si4 0.745125 0.761628 0.573563
Si Si5 0.807068 0.599149 0.907931
Si Si6 0.379904 0.086708 0.288004
Si Si7 0.610730 0.642397 0.811567
O O1 0.675874 0.988358 0.615637
O O2 0.617179 0.952298 0.779173
O O3 0.497062 0.096459 0.658842
O O4 0.622510 0.441352 0.721401
O O5 0.673678 0.083723 0.013767
O O6 0.496725 0.175791 0.049503
O O7 0.533000 0.678695 0.031563
O O8 0.618702 0.879050 0.161776
O O9 0.354050 0.061757 0.180200
O O10 0.516105 0.473600 0.187446
O O11 0.364317 0.616483 0.088768
O O12 0.691273 0.555095 0.506181
O O13 0.805551 0.591026 0.650450
O O14 0.197510 0.895664 0.120025
#
# Coordination Sequence:
#
# PCOD9314969 Si02
#       7
#     4   4   4   4   4   4   4
#     4  10  22  46  74 101 151 206 250 323 378 462
#     4   9  21  49  70  96 151 206 236 316 387 460
#     4   9  23  44  70 103 147 197 252 312 397 448
#     4  11  23  43  76 112 151 202 258 324 386 447
#     4  12  24  45  78 120 148 209 268 324 385 486
#     4   9  22  48  71 102 162 199 250 322 396 459
#     4  10  23  45  73 106 144 205 260 303 393 454
#
# _framework density 27.97175
#
# number of rings (size 3 to 8) (size 9 to 14) (size 15 to 20)
#    0.857    1.143    1.429    0.857    0.000    4.571 
#   10.286    7.143    0.000    0.000    0.000    0.000 
#    0.000    0.000    0.000    0.000    0.000    0.000 
#
# Total GULP energy -156742.194358 kJ/mol
# GULP energy per Si atom -5597.935513 kJ/mol
# Density = 2.790808 g / cm^3
# Si number density = 27.971750 Si / 1000 Ang^3
#
#
#
# Elastic Constant Matrix: (Units=GPa)
#
#
# Indices 1 2 3 4 5 6 
#
# 1 217.2927 27.0237 49.5442 0.0000 0.0000 0.0000
# 2 27.0237 126.4518 34.8445 0.0000 0.0000 0.0000
# 3 49.5442 34.8445 114.6045 0.0000 0.0000 0.0000
# 4 0.0000 0.0000 0.0000 34.2388 0.0000 0.0000
# 5 0.0000 0.0000 0.0000 0.0000 26.0546 0.0000
# 6 0.0000 0.0000 0.0000 0.0000 0.0000 42.5221
#
#
#
# Elastic Compliance Matrix: (Units=1/GPa)
#
#
# Indices 1 2 3 4 5 6 
#
# 1 0.005138 -0.000530 -0.002060 0.000000 0.000000 0.000000
# 2 -0.000530 0.008686 -0.002412 0.000000 0.000000 0.000000
# 3 -0.002060 -0.002412 0.010349 0.000000 0.000000 0.000000
# 4 0.000000 0.000000 0.000000 0.029207 0.000000 0.000000
# 5 0.000000 0.000000 0.000000 0.000000 0.038381 0.000000
# 6 0.000000 0.000000 0.000000 0.000000 0.000000 0.023517
#
#
# Mechanical properties :
#
#
# Convention : Reuss Voigt Hill
#
# Bulk Modulus (GPa) = 70.57421 75.68598 73.13009
# Shear Modulus (GPa) = 38.46019 43.69222 41.07621
#
# Velocity S-wave (km/s) = 3.71208 3.95652 3.83624
# Velocity P-wave (km/s) = 6.60742 6.92739 6.76930
#
# Compressibility (1/GPa) = 0.01416948
#
# Stress axis : x y z
#
# Youngs Moduli (GPa) = 194.63977 115.12738 96.62430
#
# Poissons Ratio (x) = 0.06106 0.19903
# Poissons Ratio (y) = 0.10323 0.23302
# Poissons Ratio (z) = 0.40092 0.27764
#
# Static dielectric constant tensor:
#      x y z
#    x 2.186800 0.000000 0.000000 
#    y 0.000000 2.209360 0.000000 
#    z 0.000000 0.000000 2.272470 
# 
# From -- ./inp_files/1352.got.cif
#   From: 2010.05.17/outbox.cif.g08.bks.cpg/sg19_1_cif.got.tgz:1352.got - 2010.06.03 22:46:19.
