data_PCOD9314770
_publ_section_title
;
Structure prediction by ZEFSAII (Michael W. Deem and Ramdas Pophale) SiO2 
 PCOD9314770
Probable space group: P 21 21 21
;
_chemical_formula_sum "Si O2"
_cell_formula_units_Z 28
_cell_length_a 11.478567
_cell_length_b 5.480961
_cell_length_c 17.384508
_cell_angle_alpha 90.000000
_cell_angle_beta 90.000000
_cell_angle_gamma 90.000000
_cell_volume 1093.721601
_symmetry_space_group_name_H-M "P 21 21 21"
_symmetry_group_IT_number 19
_symmetry_cell_setting 'orthorhombic'
loop_
_space_group_symop_operation_xyz
x,y,z
1/2-x,-y,1/2+z
1/2+x,1/2-y,-z
-x,1/2+y,1/2-z
loop_
_atom_site_type_symbol
_atom_site_label
_atom_site_fract_x
_atom_site_fract_y
_atom_site_fract_z
Si Si1 0.011551 0.020287 0.405523
Si Si2 0.843402 0.048396 0.884324
Si Si3 0.340189 0.847395 0.556091
Si Si4 0.523819 0.200632 0.203380
Si Si5 0.563323 0.715635 0.060794
Si Si6 0.740036 0.491779 0.156810
Si Si7 0.326657 0.207900 0.685670
O O1 0.962638 0.105279 0.489393
O O2 0.954266 0.191209 0.339047
O O3 0.149483 0.999215 0.400096
O O4 0.950636 0.759151 0.397675
O O5 0.922709 0.274588 0.859439
O O6 0.759761 0.941680 0.817782
O O7 0.937564 0.849053 0.906644
O O8 0.756526 0.138153 0.950602
O O9 0.386315 0.974549 0.481172
O O10 0.290080 0.054428 0.611078
O O11 0.496783 0.445705 0.254192
O O12 0.647364 0.268725 0.165196
O O13 0.658348 0.721581 0.130198
O O14 0.804456 0.457795 0.239970
#
# Coordination Sequence:
#
# PCOD9314770 Si02
#       7
#     4   4   4   4   4   4   4
#     4  10  25  44  67 101 145 183 245 303 383 454
#     4  10  22  41  70  95 141 188 238 309 372 433
#     4  10  23  43  69  96 138 189 236 307 378 447
#     4  11  23  46  70 109 148 190 251 310 379 454
#     4  10  25  44  67 101 135 192 245 305 374 459
#     4  11  24  45  72 105 142 194 247 311 388 453
#     4  10  22  45  67 101 143 180 240 313 370 458
#
# _framework density 25.600667999999999
#
# number of rings (size 3 to 8) (size 9 to 14) (size 15 to 20)
#    0.000    1.714    1.429    0.857   10.000    0.000 
#   12.857    0.000    0.000    0.000    0.000    0.000 
#    0.000    0.000    0.000    0.000    0.000    0.000 
#
# Total GULP energy -156186.293858 kJ/mol
# GULP energy per Si atom -5578.081924 kJ/mol
# Density = 2.554240 g / cm^3
# Si number density = 25.600668 Si / 1000 Ang^3
#
#
#
# Elastic Constant Matrix: (Units=GPa)
#
#
# Indices 1 2 3 4 5 6 
#
# 1 198.7919 45.9662 28.7668 0.0000 0.0000 0.0000
# 2 45.9662 87.1565 45.0177 0.0000 0.0000 0.0000
# 3 28.7668 45.0177 95.3393 0.0000 0.0000 0.0000
# 4 0.0000 0.0000 0.0000 46.0309 0.0000 0.0000
# 5 0.0000 0.0000 0.0000 0.0000 32.7069 0.0000
# 6 0.0000 0.0000 0.0000 0.0000 0.0000 20.8890
#
#
#
# Elastic Compliance Matrix: (Units=1/GPa)
#
#
# Indices 1 2 3 4 5 6 
#
# 1 0.005741 -0.002821 -0.000400 0.000000 0.000000 0.000000
# 2 -0.002821 0.016561 -0.006969 0.000000 0.000000 0.000000
# 3 -0.000400 -0.006969 0.013900 0.000000 0.000000 0.000000
# 4 0.000000 0.000000 0.000000 0.021725 0.000000 0.000000
# 5 0.000000 0.000000 0.000000 0.000000 0.030575 0.000000
# 6 0.000000 0.000000 0.000000 0.000000 0.000000 0.047872
#
#
# Mechanical properties :
#
#
# Convention : Reuss Voigt Hill
#
# Bulk Modulus (GPa) = 63.20250 68.97655 66.08953
# Shear Modulus (GPa) = 30.85930 37.36116 34.11023
#
# Velocity S-wave (km/s) = 3.47567 3.82433 3.65416
# Velocity P-wave (km/s) = 6.39128 6.81927 6.60874
#
# Compressibility (1/GPa) = 0.01582216
#
# Stress axis : x y z
#
# Youngs Moduli (GPa) = 174.19916 60.38393 71.94237
#
# Poissons Ratio (x) = 0.17034 0.02879
# Poissons Ratio (y) = 0.49140 0.50133
# Poissons Ratio (z) = 0.06970 0.42079
#
# Static dielectric constant tensor:
#      x y z
#    x 1.972910 0.000000 0.000000 
#    y 0.000000 2.068650 0.000000 
#    z 0.000000 0.000000 2.153150 
# 
# From -- ./inp_files/6710.got.cif
#   From: 2010.05.17/outbox.cif.g08.bks.cpg/sg19_4_cif.got.tgz:6710.got - 2010.06.03 22:46:19.
