data_PCOD9314371
_publ_section_title
;
Structure prediction by ZEFSAII (Michael W. Deem and Ramdas Pophale) SiO2 
 PCOD9314371
Probable space group: P 21 21 21
;
_chemical_formula_sum "Si O2"
_cell_formula_units_Z 20
_cell_length_a 6.905071
_cell_length_b 22.693323
_cell_length_c 5.112909
_cell_angle_alpha 90.000000
_cell_angle_beta 90.000000
_cell_angle_gamma 90.000000
_cell_volume 801.187761
_symmetry_space_group_name_H-M "P 21 21 21"
_symmetry_group_IT_number 19
_symmetry_cell_setting 'orthorhombic'
loop_
_space_group_symop_operation_xyz
x,y,z
1/2-x,-y,1/2+z
1/2+x,1/2-y,-z
-x,1/2+y,1/2-z
loop_
_atom_site_type_symbol
_atom_site_label
_atom_site_fract_x
_atom_site_fract_y
_atom_site_fract_z
Si Si1 0.317498 0.343491 0.234450
Si Si2 0.605255 0.776945 0.769825
Si Si3 0.711897 0.462655 0.622260
Si Si4 0.272311 0.838703 0.050968
Si Si5 0.289240 0.466528 0.401791
O O1 0.277544 0.307716 0.495694
O O2 0.552575 0.353675 0.247277
O O3 0.218662 0.406835 0.260333
O O4 0.294950 0.302342 0.986843
O O5 0.630664 0.707403 0.809843
O O6 0.392020 0.803841 0.823493
O O7 0.731869 0.487658 0.911502
O O8 0.808119 0.399535 0.562550
O O9 0.485526 0.452320 0.559093
O O10 0.169446 0.491910 0.649169
#
# Coordination Sequence:
#
# PCOD9314371 Si02
#       5
#     4   4   4   4   4
#     4   9  22  37  62  86 129 157 205 266 318 367
#     4  10  21  40  65  90 123 165 208 259 328 371
#     4  11  25  44  67  94 136 174 217 269 331 391
#     4   9  24  41  67  89 130 165 214 263 324 380
#     4  11  22  42  65  93 130 173 220 267 323 381
#
# _framework density 24.962935000000002
#
# number of rings (size 3 to 8) (size 9 to 14) (size 15 to 20)
#    1.200    0.800    0.000    2.400    8.400    0.000 
#   10.800    0.000    0.000    0.000    0.000    0.000 
#    0.000    0.000    0.000    0.000    0.000    0.000 
#
# Total GULP energy -111581.009088 kJ/mol
# GULP energy per Si atom -5579.050454 kJ/mol
# Density = 2.490612 g / cm^3
# Si number density = 24.962935 Si / 1000 Ang^3
#
#
#
# Elastic Constant Matrix: (Units=GPa)
#
#
# Indices 1 2 3 4 5 6 
#
# 1 37.5558 -7.0984 -9.5910 0.0000 0.0000 0.0000
# 2 -7.0984 113.9347 -6.7767 0.0000 0.0000 0.0000
# 3 -9.5910 -6.7767 102.5174 0.0000 0.0000 0.0000
# 4 0.0000 0.0000 0.0000 26.8426 0.0000 0.0000
# 5 0.0000 0.0000 0.0000 0.0000 20.6403 0.0000
# 6 0.0000 0.0000 0.0000 0.0000 0.0000 27.0350
#
#
#
# Elastic Compliance Matrix: (Units=1/GPa)
#
#
# Indices 1 2 3 4 5 6 
#
# 1 0.027677 0.001886 0.002714 0.000000 0.000000 0.000000
# 2 0.001886 0.008940 0.000767 0.000000 0.000000 0.000000
# 3 0.002714 0.000767 0.010059 0.000000 0.000000 0.000000
# 4 0.000000 0.000000 0.000000 0.037254 0.000000 0.000000
# 5 0.000000 0.000000 0.000000 0.000000 0.048449 0.000000
# 6 0.000000 0.000000 0.000000 0.000000 0.000000 0.036989
#
#
# Mechanical properties :
#
#
# Convention : Reuss Voigt Hill
#
# Bulk Modulus (GPa) = 17.41864 23.00841 20.21353
# Shear Modulus (GPa) = 28.12614 33.40183 30.76398
#
# Velocity S-wave (km/s) = 3.36030 3.66191 3.51434
# Velocity P-wave (km/s) = 4.69558 5.20735 4.95807
#
# Compressibility (1/GPa) = 0.05740977
#
# Stress axis : x y z
#
# Youngs Moduli (GPa) = 36.13171 111.85573 99.41275
#
# Poissons Ratio (x) = -0.21093 -0.26980
# Poissons Ratio (y) = -0.06813 -0.07629
# Poissons Ratio (z) = -0.09806 -0.08584
#
# Static dielectric constant tensor:
#      x y z
#    x 2.099060 0.000000 0.000000 
#    y 0.000000 2.026300 0.000000 
#    z 0.000000 0.000000 1.913770 
# 
# From -- ./inp_files/452.got.cif
#   From: 2010.05.17/outbox.cif.g08.bks.cpg/sg19_1_cif.got.tgz:452.got - 2010.06.03 22:46:19.
