data_PCOD9314629
_publ_section_title
;
Structure prediction by ZEFSAII (Michael W. Deem and Ramdas Pophale) SiO2 
 PCOD9314629
Probable space group: P 21 21 21
;
_chemical_formula_sum "Si O2"
_cell_formula_units_Z 28
_cell_length_a 8.236685
_cell_length_b 12.891594
_cell_length_c 12.454280
_cell_angle_alpha 90.000000
_cell_angle_beta 90.000000
_cell_angle_gamma 90.000000
_cell_volume 1322.445254
_symmetry_space_group_name_H-M "P 21 21 21"
_symmetry_group_IT_number 19
_symmetry_cell_setting 'orthorhombic'
loop_
_space_group_symop_operation_xyz
x,y,z
1/2-x,-y,1/2+z
1/2+x,1/2-y,-z
-x,1/2+y,1/2-z
loop_
_atom_site_type_symbol
_atom_site_label
_atom_site_fract_x
_atom_site_fract_y
_atom_site_fract_z
Si Si1 0.922230 0.178086 0.288593
Si Si2 0.763988 0.391328 0.799766
Si Si3 0.784152 0.108859 0.068034
Si Si4 0.270086 0.868903 0.242627
Si Si5 0.261991 0.628478 0.997163
Si Si6 0.963671 0.274305 0.632057
Si Si7 0.631122 0.314155 0.018027
O O1 0.812090 0.128995 0.194089
O O2 0.891051 0.301318 0.279497
O O3 0.858313 0.136952 0.400999
O O4 0.103384 0.147426 0.261788
O O5 0.761062 0.514717 0.796670
O O6 0.911972 0.346460 0.731117
O O7 0.745990 0.350348 0.920420
O O8 0.647897 0.189546 0.028021
O O9 0.951625 0.146711 0.011547
O O10 0.757950 0.988373 0.045720
O O11 0.409799 0.809598 0.177114
O O12 0.311684 0.861378 0.368767
O O13 0.439489 0.661131 0.041279
O O14 0.190175 0.712697 0.914879
#
# Coordination Sequence:
#
# PCOD9314629 Si02
#       7
#     4   4   4   4   4   4   4
#     4   9  23  41  59  91 124 161 211 252 308 382
#     4  11  23  40  66  92 125 167 207 259 315 367
#     4  10  22  39  62  87 121 162 204 257 312 364
#     4  10  23  42  62  91 129 163 208 260 308 369
#     4  11  24  43  65  90 129 167 205 263 315 363
#     4  11  25  41  64  96 124 164 218 253 307 385
#     4  10  22  40  62  91 122 160 211 256 305 372
#
# _framework density 21.172899000000001
#
# number of rings (size 3 to 8) (size 9 to 14) (size 15 to 20)
#    0.000    1.714    0.000    2.571    0.000   20.571 
#    0.000    0.000    0.000    0.000    0.000    0.000 
#    0.000    0.000    0.000    0.000    0.000    0.000 
#
# Total GULP energy -156633.212338 kJ/mol
# GULP energy per Si atom -5594.043298 kJ/mol
# Density = 2.112471 g / cm^3
# Si number density = 21.172899 Si / 1000 Ang^3
#
#
#
# Elastic Constant Matrix: (Units=GPa)
#
#
# Indices 1 2 3 4 5 6 
#
# 1 41.1021 5.9922 -11.2247 0.0000 0.0000 0.0000
# 2 5.9922 136.2161 34.2575 0.0000 0.0000 0.0000
# 3 -11.2247 34.2575 74.4778 0.0000 0.0000 0.0000
# 4 0.0000 0.0000 0.0000 -145.8651 0.0000 0.0000
# 5 0.0000 0.0000 0.0000 0.0000 16.1726 0.0000
# 6 0.0000 0.0000 0.0000 0.0000 0.0000 23.2144
#
#
#
# Elastic Compliance Matrix: (Units=1/GPa)
#
#
# Indices 1 2 3 4 5 6 
#
# 1 0.026057 -0.002413 0.005037 0.000000 0.000000 0.000000
# 2 -0.002413 0.008525 -0.004285 0.000000 0.000000 0.000000
# 3 0.005037 -0.004285 0.016157 0.000000 0.000000 0.000000
# 4 0.000000 0.000000 0.000000 -0.006856 0.000000 0.000000
# 5 0.000000 0.000000 0.000000 0.000000 0.061833 0.000000
# 6 0.000000 0.000000 0.000000 0.000000 0.000000 0.043077
#
#
# Mechanical properties :
#
#
# Convention : Reuss Voigt Hill
#
# Bulk Modulus (GPa) = 21.08947 34.42735 27.75841
# Shear Modulus (GPa) = 29.77597 -6.44422 11.66587
#
# Velocity S-wave (km/s) = 3.75417 -1.74649 2.34985
# Velocity P-wave (km/s) = 5.36413 3.49692 4.52782
#
# Compressibility (1/GPa) = 0.04741702
#
# Stress axis : x y z
#
# Youngs Moduli (GPa) = 38.37742 117.30127 61.89312
#
# Poissons Ratio (x) = 0.28305 -0.31176
# Poissons Ratio (y) = 0.09261 0.26521
# Poissons Ratio (z) = -0.19331 0.50263
#
# Static dielectric constant tensor:
#      x y z
#    x 1.794240 0.000000 0.000000 
#    y 0.000000 1.736000 0.000000 
#    z 0.000000 0.000000 1.743710 
# 
# From -- ./inp_files/3458.got.cif
#   From: 2010.05.17/outbox.cif.g08.bks.cpg/sg19_2_cif.got.tgz:3458.got - 2010.06.03 22:46:19.
