data_PCOD9314127
_publ_section_title
;
Structure prediction by ZEFSAII (Michael W. Deem and Ramdas Pophale) SiO2 
 PCOD9314127
Probable space group: P 21 21 21
;
_chemical_formula_sum "Si O2"
_cell_formula_units_Z 32
_cell_length_a 13.031049
_cell_length_b 12.242646
_cell_length_c 8.994904
_cell_angle_alpha 90.000000
_cell_angle_beta 90.000000
_cell_angle_gamma 90.000000
_cell_volume 1434.997691
_symmetry_space_group_name_H-M "P 21 21 21"
_symmetry_group_IT_number 19
_symmetry_cell_setting 'orthorhombic'
loop_
_space_group_symop_operation_xyz
x,y,z
1/2-x,-y,1/2+z
1/2+x,1/2-y,-z
-x,1/2+y,1/2-z
loop_
_atom_site_type_symbol
_atom_site_label
_atom_site_fract_x
_atom_site_fract_y
_atom_site_fract_z
Si Si1 0.882926 0.297435 0.904612
Si Si2 0.409824 0.414889 0.970569
Si Si3 0.384558 0.195038 0.592140
Si Si4 0.931539 0.468690 0.669805
Si Si5 0.165327 0.400858 0.942223
Si Si6 0.816177 0.139051 0.636133
Si Si7 0.781933 0.671772 0.653257
Si Si8 0.085951 0.394580 0.270243
O O1 0.935954 0.399625 0.822760
O O2 0.855227 0.215597 0.769146
O O3 0.941863 0.211831 0.012856
O O4 0.782999 0.336296 0.998296
O O5 0.435368 0.479662 0.819643
O O6 0.464963 0.488505 0.093507
O O7 0.286864 0.411425 0.984131
O O8 0.357238 0.309782 0.516757
O O9 0.301090 0.170850 0.716629
O O10 0.495427 0.179947 0.666563
O O11 0.381452 0.109371 0.455932
O O12 0.860044 0.574485 0.681369
O O13 0.103701 0.390586 0.094992
O O14 0.146484 0.514610 0.860858
O O15 0.161005 0.288875 0.850348
O O16 0.692948 0.138139 0.650821
#
# Coordination Sequence:
#
# PCOD9314127 Si02
#       8
#     4   4   4   4   4   4   4   4
#     4  10  21  42  63  92 135 170 220 273 327 399
#     4   9  20  39  64  89 129 170 215 275 327 390
#     4  10  24  41  66  95 130 177 226 269 335 411
#     4  10  22  44  63  91 134 175 217 276 331 398
#     4  10  22  37  65  97 130 165 221 276 336 386
#     4  10  21  42  64  93 136 169 220 283 335 385
#     4  11  22  40  65  95 129 176 215 274 330 402
#     4  10  20  43  64  96 133 178 218 280 337 397
#
# _framework density 22.299689000000001
#
# number of rings (size 3 to 8) (size 9 to 14) (size 15 to 20)
#    0.000    2.000    2.500    0.750    5.250    2.000 
#   15.750    0.000    0.000    0.000    0.000    0.000 
#    0.000    0.000    0.000    0.000    0.000    0.000 
#
# Total GULP energy -178767.507829 kJ/mol
# GULP energy per Si atom -5586.484620 kJ/mol
# Density = 2.224893 g / cm^3
# Si number density = 22.299689 Si / 1000 Ang^3
#
#
#
# Elastic Constant Matrix: (Units=GPa)
#
#
# Indices 1 2 3 4 5 6 
#
# 1 52.5211 51.0243 36.6549 0.0000 0.0000 0.0000
# 2 51.0243 149.1202 44.0921 0.0000 0.0000 0.0000
# 3 36.6549 44.0921 92.7321 0.0000 0.0000 0.0000
# 4 0.0000 0.0000 0.0000 36.9458 0.0000 0.0000
# 5 0.0000 0.0000 0.0000 0.0000 31.4240 0.0000
# 6 0.0000 0.0000 0.0000 0.0000 0.0000 36.1498
#
#
#
# Elastic Compliance Matrix: (Units=1/GPa)
#
#
# Indices 1 2 3 4 5 6 
#
# 1 0.034217 -0.008970 -0.009260 0.000000 0.000000 0.000000
# 2 -0.008970 0.010154 -0.001283 0.000000 0.000000 0.000000
# 3 -0.009260 -0.001283 0.015054 0.000000 0.000000 0.000000
# 4 0.000000 0.000000 0.000000 0.027067 0.000000 0.000000
# 5 0.000000 0.000000 0.000000 0.000000 0.031823 0.000000
# 6 0.000000 0.000000 0.000000 0.000000 0.000000 0.027663
#
#
# Mechanical properties :
#
#
# Convention : Reuss Voigt Hill
#
# Bulk Modulus (GPa) = 49.01975 61.99066 55.50521
# Shear Modulus (GPa) = 26.06838 31.74407 28.90623
#
# Velocity S-wave (km/s) = 3.42278 3.77705 3.60427
# Velocity P-wave (km/s) = 6.13600 6.84695 6.50120
#
# Compressibility (1/GPa) = 0.02039994
#
# Stress axis : x y z
#
# Youngs Moduli (GPa) = 29.22518 98.47877 66.42760
#
# Poissons Ratio (x) = 0.88335 0.61514
# Poissons Ratio (y) = 0.26215 0.08520
# Poissons Ratio (z) = 0.27063 0.12631
#
# Static dielectric constant tensor:
#      x y z
#    x 1.835720 0.000000 0.000000 
#    y 0.000000 1.844100 0.000000 
#    z 0.000000 0.000000 1.846860 
# 
# From -- ./inp_files/4006.got.cif
#   From: 2010.05.17/outbox.cif.g08.bks.cpg/sg19_3_cif.got.tgz:4006.got - 2010.06.03 22:46:19.
