data_PCOD9314823
_publ_section_title
;
Structure prediction by ZEFSAII (Michael W. Deem and Ramdas Pophale) SiO2 
 PCOD9314823
Probable space group: P 21 21 21
;
_chemical_formula_sum "Si O2"
_cell_formula_units_Z 28
_cell_length_a 7.724983
_cell_length_b 6.050661
_cell_length_c 26.778752
_cell_angle_alpha 90.000000
_cell_angle_beta 90.000000
_cell_angle_gamma 90.000000
_cell_volume 1251.672432
_symmetry_space_group_name_H-M "P 21 21 21"
_symmetry_group_IT_number 19
_symmetry_cell_setting 'orthorhombic'
loop_
_space_group_symop_operation_xyz
x,y,z
1/2-x,-y,1/2+z
1/2+x,1/2-y,-z
-x,1/2+y,1/2-z
loop_
_atom_site_type_symbol
_atom_site_label
_atom_site_fract_x
_atom_site_fract_y
_atom_site_fract_z
Si Si1 0.057044 0.420843 0.231979
Si Si2 0.185789 0.977888 0.344142
Si Si3 0.058170 0.983904 0.018674
Si Si4 0.876376 0.844651 0.728616
Si Si5 0.966856 0.200289 0.668163
Si Si6 0.789751 0.814284 0.560909
Si Si7 0.092603 0.169352 0.567307
O O1 0.246436 0.465403 0.252805
O O2 0.976003 0.659321 0.254106
O O3 0.012632 0.456304 0.173215
O O4 0.271691 0.857028 0.295640
O O5 0.239287 0.848695 0.393751
O O6 0.274292 0.217444 0.346592
O O7 0.887145 0.056187 0.048437
O O8 0.211766 0.887528 0.052582
O O9 0.150508 0.180703 0.988117
O O10 0.989421 0.816556 0.976428
O O11 0.980142 0.942596 0.681954
O O12 0.972623 0.795533 0.779257
O O13 0.084380 0.275050 0.622239
O O14 0.954973 0.968101 0.572419
#
# Coordination Sequence:
#
# PCOD9314823 Si02
#       7
#     4   4   4   4   4   4   4
#     4  10  22  42  67  96 139 188 241 298 365 442
#     4  11  23  43  68  97 140 189 234 305 372 447
#     4  12  26  48  76 106 144 186 245 314 382 451
#     4  11  23  42  66  98 144 186 235 299 365 441
#     4  12  23  43  69  99 140 187 242 298 374 445
#     4  12  25  47  75 103 146 189 240 313 382 451
#     4  12  26  47  75 109 143 189 247 309 382 455
#
# _framework density 22.370069999999998
#
# number of rings (size 3 to 8) (size 9 to 14) (size 15 to 20)
#    0.000    0.571    8.571    0.000    0.000    0.000 
#   23.143    0.000    0.000    0.000    0.000    0.000 
#    0.000    0.000    0.000    0.000    0.000    0.000 
#
# Total GULP energy -155926.482320 kJ/mol
# GULP energy per Si atom -5568.802940 kJ/mol
# Density = 2.231915 g / cm^3
# Si number density = 22.370070 Si / 1000 Ang^3
#
#
#
# Elastic Constant Matrix: (Units=GPa)
#
#
# Indices 1 2 3 4 5 6 
#
# 1 76.7632 16.9503 23.5891 0.0000 0.0000 0.0000
# 2 16.9503 55.8010 6.7151 0.0000 0.0000 0.0000
# 3 23.5891 6.7151 84.6811 0.0000 0.0000 0.0000
# 4 0.0000 0.0000 0.0000 30.5328 0.0000 0.0000
# 5 0.0000 0.0000 0.0000 0.0000 34.4461 0.0000
# 6 0.0000 0.0000 0.0000 0.0000 0.0000 12.8524
#
#
#
# Elastic Compliance Matrix: (Units=1/GPa)
#
#
# Indices 1 2 3 4 5 6 
#
# 1 0.015134 -0.004129 -0.003888 0.000000 0.000000 0.000000
# 2 -0.004129 0.019220 -0.000374 0.000000 0.000000 0.000000
# 3 -0.003888 -0.000374 0.012922 0.000000 0.000000 0.000000
# 4 0.000000 0.000000 0.000000 0.032752 0.000000 0.000000
# 5 0.000000 0.000000 0.000000 0.000000 0.029031 0.000000
# 6 0.000000 0.000000 0.000000 0.000000 0.000000 0.077806
#
#
# Mechanical properties :
#
#
# Convention : Reuss Voigt Hill
#
# Bulk Modulus (GPa) = 32.79446 34.63939 33.71692
# Shear Modulus (GPa) = 23.38508 26.89897 25.14203
#
# Velocity S-wave (km/s) = 3.23673 3.47140 3.35612
# Velocity P-wave (km/s) = 5.35354 5.62013 5.48845
#
# Compressibility (1/GPa) = 0.03049295
#
# Stress axis : x y z
#
# Youngs Moduli (GPa) = 66.07769 52.02888 77.38865
#
# Poissons Ratio (x) = 0.21484 0.30091
# Poissons Ratio (y) = 0.27285 0.02893
# Poissons Ratio (z) = 0.25693 0.01945
#
# Static dielectric constant tensor:
#      x y z
#    x 1.884970 0.000000 0.000000 
#    y 0.000000 1.943550 0.000000 
#    z 0.000000 0.000000 1.871770 
# 
# From -- ./inp_files/593.got.cif
#   From: 2010.05.17/outbox.cif.g08.bks.cpg/sg19_1_cif.got.tgz:593.got - 2010.06.03 22:46:19.
