data_PCOD9314425
_publ_section_title
;
Structure prediction by ZEFSAII (Michael W. Deem and Ramdas Pophale) SiO2 
 PCOD9314425
Probable space group: P 21 21 21
;
_chemical_formula_sum "Si O2"
_cell_formula_units_Z 28
_cell_length_a 9.067160
_cell_length_b 14.928550
_cell_length_c 8.010147
_cell_angle_alpha 90.000000
_cell_angle_beta 90.000000
_cell_angle_gamma 90.000000
_cell_volume 1084.249905
_symmetry_space_group_name_H-M "P 21 21 21"
_symmetry_group_IT_number 19
_symmetry_cell_setting 'orthorhombic'
loop_
_space_group_symop_operation_xyz
x,y,z
1/2-x,-y,1/2+z
1/2+x,1/2-y,-z
-x,1/2+y,1/2-z
loop_
_atom_site_type_symbol
_atom_site_label
_atom_site_fract_x
_atom_site_fract_y
_atom_site_fract_z
Si Si1 0.799699 0.419777 0.405377
Si Si2 0.344557 0.726546 0.114436
Si Si3 0.282070 0.417253 0.028538
Si Si4 0.394234 0.758887 0.476045
Si Si5 0.470678 0.295015 0.673906
Si Si6 0.575639 0.454075 0.168893
Si Si7 0.466691 0.483133 0.703650
O O1 0.749178 0.318460 0.397621
O O2 0.649659 0.467480 0.346690
O O3 0.878717 0.459613 0.564710
O O4 0.914996 0.443587 0.259491
O O5 0.434071 0.723730 0.288278
O O6 0.195295 0.669156 0.127139
O O7 0.452006 0.728519 0.957737
O O8 0.402618 0.434034 0.173236
O O9 0.137559 0.473065 0.067646
O O10 0.233475 0.312905 0.022204
O O11 0.368667 0.455658 0.867806
O O12 0.500180 0.760722 0.637962
O O13 0.364500 0.864336 0.431301
O O14 0.552317 0.391101 0.663961
#
# Coordination Sequence:
#
# PCOD9314425 Si02
#       7
#     4   4   4   4   4   4   4
#     4  10  21  41  64  99 137 180 229 289 357 431
#     4  11  26  42  75 106 142 191 242 298 365 437
#     4  11  24  44  72 100 140 184 241 303 358 435
#     4  11  22  47  73 100 144 190 241 301 359 436
#     4  12  25  48  70 108 148 184 247 299 367 435
#     4  10  22  41  69  98 138 180 238 285 364 428
#     4  11  24  45  69 103 145 183 242 303 362 442
#
# _framework density 25.824304999999999
#
# number of rings (size 3 to 8) (size 9 to 14) (size 15 to 20)
#    0.000    1.143    4.286    1.714    0.000   11.429 
#    0.000    0.000    0.000    0.000    0.000    0.000 
#    0.000    0.000    0.000    0.000    0.000    0.000 
#
# Total GULP energy -156218.600005 kJ/mol
# GULP energy per Si atom -5579.235714 kJ/mol
# Density = 2.576553 g / cm^3
# Si number density = 25.824305 Si / 1000 Ang^3
#
#
#
# Elastic Constant Matrix: (Units=GPa)
#
#
# Indices 1 2 3 4 5 6 
#
# 1 107.9513 6.9087 50.4763 0.0000 0.0000 0.0000
# 2 6.9087 65.5873 -5.2779 0.0000 0.0000 0.0000
# 3 50.4763 -5.2779 119.5113 0.0000 0.0000 0.0000
# 4 0.0000 0.0000 0.0000 24.8488 0.0000 0.0000
# 5 0.0000 0.0000 0.0000 0.0000 36.6056 0.0000
# 6 0.0000 0.0000 0.0000 0.0000 0.0000 45.7376
#
#
#
# Elastic Compliance Matrix: (Units=1/GPa)
#
#
# Indices 1 2 3 4 5 6 
#
# 1 0.011716 -0.001638 -0.005021 0.000000 0.000000 0.000000
# 2 -0.001638 0.015530 0.001378 0.000000 0.000000 0.000000
# 3 -0.005021 0.001378 0.010549 0.000000 0.000000 0.000000
# 4 0.000000 0.000000 0.000000 0.040243 0.000000 0.000000
# 5 0.000000 0.000000 0.000000 0.000000 0.027318 0.000000
# 6 0.000000 0.000000 0.000000 0.000000 0.000000 0.021864
#
#
# Mechanical properties :
#
#
# Convention : Reuss Voigt Hill
#
# Bulk Modulus (GPa) = 36.72032 44.14044 40.43038
# Shear Modulus (GPa) = 34.04607 37.50126 35.77366
#
# Velocity S-wave (km/s) = 3.63488 3.81487 3.72596
# Velocity P-wave (km/s) = 5.64505 6.04434 5.84810
#
# Compressibility (1/GPa) = 0.02723288
#
# Stress axis : x y z
#
# Youngs Moduli (GPa) = 85.35468 64.39031 94.79816
#
# Poissons Ratio (x) = 0.10548 0.47594
# Poissons Ratio (y) = 0.13982 -0.13061
# Poissons Ratio (z) = 0.42853 -0.08871
#
# Static dielectric constant tensor:
#      x y z
#    x 2.295790 0.000000 0.000000 
#    y 0.000000 2.111350 0.000000 
#    z 0.000000 0.000000 2.053680 
# 
# From -- ./inp_files/2938.got.cif
#   From: 2010.05.17/outbox.cif.g08.bks.cpg/sg19_2_cif.got.tgz:2938.got - 2010.06.03 22:46:19.
