data_PCOD9314610
_publ_section_title
;
Structure prediction by ZEFSAII (Michael W. Deem and Ramdas Pophale) SiO2 
 PCOD9314610
Probable space group: P 21 21 21
;
_chemical_formula_sum "Si O2"
_cell_formula_units_Z 32
_cell_length_a 22.706670
_cell_length_b 5.378238
_cell_length_c 10.151901
_cell_angle_alpha 90.000000
_cell_angle_beta 90.000000
_cell_angle_gamma 90.000000
_cell_volume 1239.769189
_symmetry_space_group_name_H-M "P 21 21 21"
_symmetry_group_IT_number 19
_symmetry_cell_setting 'orthorhombic'
loop_
_space_group_symop_operation_xyz
x,y,z
1/2-x,-y,1/2+z
1/2+x,1/2-y,-z
-x,1/2+y,1/2-z
loop_
_atom_site_type_symbol
_atom_site_label
_atom_site_fract_x
_atom_site_fract_y
_atom_site_fract_z
Si Si1 0.741077 0.341874 0.812565
Si Si2 0.810827 0.889512 0.052271
Si Si3 0.838640 0.286091 0.230337
Si Si4 0.984352 0.096964 0.426626
Si Si5 0.408915 0.825762 0.124719
Si Si6 0.870740 0.183704 0.751604
Si Si7 0.058577 0.090903 0.160511
Si Si8 0.681668 0.011072 0.979356
O O1 0.712477 0.180822 0.696454
O O2 0.727717 0.610636 0.749755
O O3 0.807669 0.249122 0.821219
O O4 0.700698 0.296104 0.943110
O O5 0.852633 0.703214 0.974381
O O6 0.748342 0.905674 0.981463
O O7 0.845860 0.141179 0.093674
O O8 0.883736 0.511652 0.256398
O O9 0.849666 0.109016 0.354172
O O10 0.010709 0.108973 0.277703
O O11 0.947489 0.841703 0.423974
O O12 0.035511 0.102461 0.535085
O O13 0.953332 0.362921 0.437009
O O14 0.407393 0.545566 0.185252
O O15 0.401479 0.047697 0.231075
O O16 0.850926 0.074424 0.610255
#
# Coordination Sequence:
#
# PCOD9314610 Si02
#       8
#     4   4   4   4   4   4   4   4
#     4  10  22  38  63  94 135 181 223 285 333 410
#     4  10  23  37  63 101 138 177 232 276 355 418
#     4  11  24  38  69  95 141 188 228 293 349 421
#     4  10  23  40  66  96 138 158 222 294 356 424
#     4  12  24  43  66  98 134 181 218 291 351 424
#     4  11  26  40  66  96 137 184 232 272 350 417
#     4  10  23  40  65 102 128 173 216 289 363 409
#     4  10  23  42  58  98 139 186 239 276 327 429
#
# _framework density 25.811254000000002
#
# number of rings (size 3 to 8) (size 9 to 14) (size 15 to 20)
#    0.000    1.500    1.250    2.250   17.500    1.000 
#    0.000    0.000    0.000    3.000    0.000    0.000 
#    0.000    0.000    0.000    0.000    0.000    0.000 
#
# Total GULP energy -178495.961688 kJ/mol
# GULP energy per Si atom -5577.998803 kJ/mol
# Density = 2.575251 g / cm^3
# Si number density = 25.811254 Si / 1000 Ang^3
#
#
#
# Elastic Constant Matrix: (Units=GPa)
#
#
# Indices 1 2 3 4 5 6 
#
# 1 25.0098 36.6245 -3.3429 0.0000 0.0000 0.0000
# 2 36.6245 150.3502 35.7497 0.0000 0.0000 0.0000
# 3 -3.3429 35.7497 70.7544 0.0000 0.0000 0.0000
# 4 0.0000 0.0000 0.0000 36.0160 0.0000 0.0000
# 5 0.0000 0.0000 0.0000 0.0000 22.6329 0.0000
# 6 0.0000 0.0000 0.0000 0.0000 0.0000 31.9275
#
#
#
# Elastic Compliance Matrix: (Units=1/GPa)
#
#
# Indices 1 2 3 4 5 6 
#
# 1 0.072699 -0.021056 0.014073 0.000000 0.000000 0.000000
# 2 -0.021056 0.013658 -0.007895 0.000000 0.000000 0.000000
# 3 0.014073 -0.007895 0.018788 0.000000 0.000000 0.000000
# 4 0.000000 0.000000 0.000000 0.027765 0.000000 0.000000
# 5 0.000000 0.000000 0.000000 0.000000 0.044183 0.000000
# 6 0.000000 0.000000 0.000000 0.000000 0.000000 0.031321
#
#
# Mechanical properties :
#
#
# Convention : Reuss Voigt Hill
#
# Bulk Modulus (GPa) = 13.26449 42.68635 27.97542
# Shear Modulus (GPa) = 18.98980 29.92081 24.45531
#
# Velocity S-wave (km/s) = 2.71535 3.40842 3.08143
# Velocity P-wave (km/s) = 3.87054 5.66247 4.84998
#
# Compressibility (1/GPa) = 0.07538928
#
# Stress axis : x y z
#
# Youngs Moduli (GPa) = 13.75528 73.21982 53.22661
#
# Poissons Ratio (x) = 1.54168 -0.74908
# Poissons Ratio (y) = 0.28962 0.42025
# Poissons Ratio (z) = -0.19358 0.57810
#
# Static dielectric constant tensor:
#      x y z
#    x 2.093410 0.000000 0.000000 
#    y 0.000000 2.238730 0.000000 
#    z 0.000000 0.000000 2.008940 
# 
# From -- ./inp_files/5574.got.cif
#   From: 2010.05.17/outbox.cif.g08.bks.cpg/sg19_3_cif.got.tgz:5574.got - 2010.06.03 22:46:19.
