data_PCOD9314163
_publ_section_title
;
Structure prediction by ZEFSAII (Michael W. Deem and Ramdas Pophale) SiO2 
 PCOD9314163
Probable space group: P 21 21 21
;
_chemical_formula_sum "Si O2"
_cell_formula_units_Z 28
_cell_length_a 12.453845
_cell_length_b 5.459330
_cell_length_c 21.114144
_cell_angle_alpha 90.000000
_cell_angle_beta 90.000000
_cell_angle_gamma 90.000000
_cell_volume 1435.543253
_symmetry_space_group_name_H-M "P 21 21 21"
_symmetry_group_IT_number 19
_symmetry_cell_setting 'orthorhombic'
loop_
_space_group_symop_operation_xyz
x,y,z
1/2-x,-y,1/2+z
1/2+x,1/2-y,-z
-x,1/2+y,1/2-z
loop_
_atom_site_type_symbol
_atom_site_label
_atom_site_fract_x
_atom_site_fract_y
_atom_site_fract_z
Si Si1 0.241095 0.513889 0.090772
Si Si2 0.270856 0.147242 0.915448
Si Si3 0.988055 0.029637 0.092772
Si Si4 0.613959 0.354309 0.674947
Si Si5 0.152516 0.995158 0.550097
Si Si6 0.093202 0.354404 0.196166
Si Si7 0.580950 0.155675 0.014921
O O1 0.311761 0.756051 0.083608
O O2 0.175293 0.515073 0.155753
O O3 0.307001 0.258708 0.082494
O O4 0.152489 0.500083 0.034440
O O5 0.374293 0.325315 0.908896
O O6 0.158871 0.278089 0.927396
O O7 0.282091 0.977201 0.854690
O O8 0.292172 0.004278 0.980861
O O9 0.067002 0.128472 0.148253
O O10 0.950441 0.764553 0.115626
O O11 0.043235 0.105300 0.026682
O O12 0.525447 0.534932 0.704342
O O13 0.638754 0.183614 0.733987
O O14 0.025922 0.976234 0.537967
#
# Coordination Sequence:
#
# PCOD9314163 Si02
#       7
#     4   4   4   4   4   4   4
#     4  10  23  38  59  91 123 164 205 252 310 368
#     4   9  21  34  54  88 120 160 197 250 305 367
#     4   9  19  36  51  84 120 154 201 244 304 377
#     4  11  20  34  57  88 124 156 207 248 315 373
#     4  10  22  39  59  89 127 162 209 246 306 386
#     4  10  21  34  57  85 122 164 197 260 308 364
#     4   9  20  39  57  85 128 162 200 256 316 361
#
# _framework density 19.504809999999999
#
# number of rings (size 3 to 8) (size 9 to 14) (size 15 to 20)
#    0.000    2.286    1.429    0.857   12.000    2.286 
#    0.000    0.000    0.000    0.000    3.714    0.000 
#    0.000    0.000    0.000    0.000    0.000    0.000 
#
# Total GULP energy -156152.233022 kJ/mol
# GULP energy per Si atom -5576.865465 kJ/mol
# Density = 1.946042 g / cm^3
# Si number density = 19.504810 Si / 1000 Ang^3
#
#
#
# Elastic Constant Matrix: (Units=GPa)
#
#
# Indices 1 2 3 4 5 6 
#
# 1 115.9855 40.6471 38.6612 0.0000 0.0000 0.0000
# 2 40.6471 68.1719 30.4396 0.0000 0.0000 0.0000
# 3 38.6612 30.4396 77.2080 0.0000 0.0000 0.0000
# 4 0.0000 0.0000 0.0000 18.0380 0.0000 0.0000
# 5 0.0000 0.0000 0.0000 0.0000 27.9451 0.0000
# 6 0.0000 0.0000 0.0000 0.0000 0.0000 28.3209
#
#
#
# Elastic Compliance Matrix: (Units=1/GPa)
#
#
# Indices 1 2 3 4 5 6 
#
# 1 0.011746 -0.005312 -0.003787 0.000000 0.000000 0.000000
# 2 -0.005312 0.020205 -0.005306 0.000000 0.000000 0.000000
# 3 -0.003787 -0.005306 0.016940 0.000000 0.000000 0.000000
# 4 0.000000 0.000000 0.000000 0.055438 0.000000 0.000000
# 5 0.000000 0.000000 0.000000 0.000000 0.035784 0.000000
# 6 0.000000 0.000000 0.000000 0.000000 0.000000 0.035310
#
#
# Mechanical properties :
#
#
# Convention : Reuss Voigt Hill
#
# Bulk Modulus (GPa) = 49.79940 53.42902 51.61421
# Shear Modulus (GPa) = 23.70468 24.96864 24.33666
#
# Velocity S-wave (km/s) = 3.48993 3.58177 3.53615
# Velocity P-wave (km/s) = 6.46736 6.67515 6.57208
#
# Compressibility (1/GPa) = 0.02008056
#
# Stress axis : x y z
#
# Youngs Moduli (GPa) = 85.13632 49.49160 59.03067
#
# Poissons Ratio (x) = 0.26292 0.22356
# Poissons Ratio (y) = 0.45228 0.31322
# Poissons Ratio (z) = 0.32243 0.26260
#
# Static dielectric constant tensor:
#      x y z
#    x 1.674620 0.000000 0.000000 
#    y 0.000000 1.822040 0.000000 
#    z 0.000000 0.000000 1.701350 
# 
# From -- ./inp_files/1037.got.cif
#   From: 2010.05.17/outbox.cif.g08.bks.cpg/sg19_1_cif.got.tgz:1037.got - 2010.06.03 22:46:19.
