data_PCOD9314259
_publ_section_title
;
Structure prediction by ZEFSAII (Michael W. Deem and Ramdas Pophale) SiO2 
 PCOD9314259
Probable space group: P 21 21 21
;
_chemical_formula_sum "Si O2"
_cell_formula_units_Z 24
_cell_length_a 11.947405
_cell_length_b 4.876075
_cell_length_c 16.306165
_cell_angle_alpha 90.000000
_cell_angle_beta 90.000000
_cell_angle_gamma 90.000000
_cell_volume 949.939169
_symmetry_space_group_name_H-M "P 21 21 21"
_symmetry_group_IT_number 19
_symmetry_cell_setting 'orthorhombic'
loop_
_space_group_symop_operation_xyz
x,y,z
1/2-x,-y,1/2+z
1/2+x,1/2-y,-z
-x,1/2+y,1/2-z
loop_
_atom_site_type_symbol
_atom_site_label
_atom_site_fract_x
_atom_site_fract_y
_atom_site_fract_z
Si Si1 0.013792 0.594960 0.059167
Si Si2 0.770170 0.845201 0.350659
Si Si3 0.301114 0.210862 0.981117
Si Si4 0.168525 0.721497 0.919617
Si Si5 0.076681 0.453749 0.753789
Si Si6 0.939342 0.836114 0.221416
O O1 0.123639 0.490766 0.107032
O O2 0.930106 0.353138 0.034188
O O3 0.949549 0.773989 0.126361
O O4 0.059645 0.738767 0.978173
O O5 0.726050 0.649944 0.422915
O O6 0.668082 0.028851 0.318518
O O7 0.828132 0.733758 0.267574
O O8 0.256492 0.513113 0.962586
O O9 0.227760 0.014067 0.922880
O O10 0.131214 0.585021 0.835028
O O11 0.027663 0.152764 0.767608
O O12 0.037417 0.656149 0.264193
#
# Coordination Sequence:
#
# PCOD9314259 Si02
#       6
#     4   4   4   4   4   4
#     4  10  23  42  69  97 131 175 225 280 337 405
#     4  10  24  44  67  98 134 174 224 277 338 407
#     4  11  24  42  66  97 133 173 221 282 341 402
#     4  11  25  44  66  98 135 175 225 282 344 408
#     4  12  27  46  69  97 136 184 227 278 346 421
#     4  10  21  38  63  95 127 165 214 273 330 387
#
# _framework density 25.264773999999999
#
# number of rings (size 3 to 8) (size 9 to 14) (size 15 to 20)
#    0.000    1.333    0.000    4.000    0.000   20.000 
#    0.000    0.000    0.000    0.000    0.000    0.000 
#    0.000    0.000    0.000    0.000    0.000    0.000 
#
# Total GULP energy -134327.732242 kJ/mol
# GULP energy per Si atom -5596.988843 kJ/mol
# Density = 2.520727 g / cm^3
# Si number density = 25.264774 Si / 1000 Ang^3
#
#
#
# Elastic Constant Matrix: (Units=GPa)
#
#
# Indices 1 2 3 4 5 6 
#
# 1 116.6594 14.9652 48.4693 0.0000 0.0000 0.0000
# 2 14.9652 75.7463 -0.5746 0.0000 0.0000 0.0000
# 3 48.4693 -0.5746 87.4634 0.0000 0.0000 0.0000
# 4 0.0000 0.0000 0.0000 27.2685 0.0000 0.0000
# 5 0.0000 0.0000 0.0000 0.0000 54.0379 0.0000
# 6 0.0000 0.0000 0.0000 0.0000 0.0000 26.0658
#
#
#
# Elastic Compliance Matrix: (Units=1/GPa)
#
#
# Indices 1 2 3 4 5 6 
#
# 1 0.011532 -0.002327 -0.006406 0.000000 0.000000 0.000000
# 2 -0.002327 0.013672 0.001379 0.000000 0.000000 0.000000
# 3 -0.006406 0.001379 0.014992 0.000000 0.000000 0.000000
# 4 0.000000 0.000000 0.000000 0.036672 0.000000 0.000000
# 5 0.000000 0.000000 0.000000 0.000000 0.018506 0.000000
# 6 0.000000 0.000000 0.000000 0.000000 0.000000 0.038364
#
#
# Mechanical properties :
#
#
# Convention : Reuss Voigt Hill
#
# Bulk Modulus (GPa) = 39.23197 45.06545 42.14871
# Shear Modulus (GPa) = 31.85881 35.94171 33.90026
#
# Velocity S-wave (km/s) = 3.55490 3.77583 3.66703
# Velocity P-wave (km/s) = 5.69314 6.07332 5.88630
#
# Compressibility (1/GPa) = 0.02548942
#
# Stress axis : x y z
#
# Youngs Moduli (GPa) = 86.71531 73.14125 66.70063
#
# Poissons Ratio (x) = 0.17020 0.42728
# Poissons Ratio (y) = 0.20178 -0.09200
# Poissons Ratio (z) = 0.55549 -0.10089
#
# Static dielectric constant tensor:
#      x y z
#    x 2.017370 0.000000 0.000000 
#    y 0.000000 1.945360 0.000000 
#    z 0.000000 0.000000 2.047730 
# 
# From -- ./inp_files/1720.got.cif
#   From: 2010.05.17/outbox.cif.g08.bks.cpg/sg19_1_cif.got.tgz:1720.got - 2010.06.03 22:46:19.
