data_PCOD9314274
_publ_section_title
;
Structure prediction by ZEFSAII (Michael W. Deem and Ramdas Pophale) SiO2 
 PCOD9314274
Probable space group: P 21 21 21
;
_chemical_formula_sum "Si O2"
_cell_formula_units_Z 32
_cell_length_a 13.622611
_cell_length_b 5.277809
_cell_length_c 18.150945
_cell_angle_alpha 90.000000
_cell_angle_beta 90.000000
_cell_angle_gamma 90.000000
_cell_volume 1305.008275
_symmetry_space_group_name_H-M "P 21 21 21"
_symmetry_group_IT_number 19
_symmetry_cell_setting 'orthorhombic'
loop_
_space_group_symop_operation_xyz
x,y,z
1/2-x,-y,1/2+z
1/2+x,1/2-y,-z
-x,1/2+y,1/2-z
loop_
_atom_site_type_symbol
_atom_site_label
_atom_site_fract_x
_atom_site_fract_y
_atom_site_fract_z
Si Si1 0.893744 0.901125 0.208787
Si Si2 0.875789 0.276371 0.087425
Si Si3 0.102359 0.546555 0.979581
Si Si4 0.105323 0.680130 0.696509
Si Si5 0.620377 0.325356 0.238422
Si Si6 0.524496 0.960570 0.458827
Si Si7 0.730562 0.633942 0.119288
Si Si8 0.439746 0.404602 0.636458
O O1 0.815009 0.703973 0.177948
O O2 0.897367 0.935682 0.295800
O O3 0.002799 0.827923 0.176909
O O4 0.861426 0.155047 0.167305
O O5 0.785335 0.447190 0.062956
O O6 0.970906 0.449434 0.097435
O O7 0.905093 0.064577 0.029237
O O8 0.187175 0.622694 0.921663
O O9 0.056842 0.266582 0.967674
O O10 0.129791 0.615925 0.064857
O O11 0.022343 0.762560 0.958587
O O12 0.148290 0.961851 0.701430
O O13 0.085611 0.591321 0.614354
O O14 0.997058 0.710290 0.733148
O O15 0.158262 0.454527 0.741507
O O16 0.652562 0.466258 0.163921
#
# Coordination Sequence:
#
# PCOD9314274 Si02
#       8
#     4   4   4   4   4   4   4   4
#     4  11  21  40  71  99 135 178 239 297 344 413
#     4  10  23  41  69  97 133 176 235 284 348 408
#     4  11  24  41  72 103 138 183 230 283 359 419
#     4  10  21  38  66  96 129 179 233 267 323 419
#     4  10  22  38  63  96 133 180 224 275 334 406
#     4  11  22  43  71  99 133 183 233 281 334 423
#     4  11  26  41  66 105 141 180 226 297 366 413
#     4  10  21  42  70 101 128 187 240 286 338 427
#
# _framework density 24.52092
#
# number of rings (size 3 to 8) (size 9 to 14) (size 15 to 20)
#    0.000    1.500    3.750    0.750    7.000    0.000 
#    0.000    2.500    0.000    0.000    0.000    0.000 
#    0.000    0.000    0.000    0.000    0.000    0.000 
#
# Total GULP energy -178775.897587 kJ/mol
# GULP energy per Si atom -5586.746800 kJ/mol
# Density = 2.446511 g / cm^3
# Si number density = 24.520920 Si / 1000 Ang^3
#
#
#
# Elastic Constant Matrix: (Units=GPa)
#
#
# Indices 1 2 3 4 5 6 
#
# 1 48.6666 24.1275 16.4887 0.0000 0.0000 0.0000
# 2 24.1275 63.7252 -11.4018 0.0000 0.0000 0.0000
# 3 16.4887 -11.4018 127.9668 0.0000 0.0000 0.0000
# 4 0.0000 0.0000 0.0000 36.9694 0.0000 0.0000
# 5 0.0000 0.0000 0.0000 0.0000 21.9295 0.0000
# 6 0.0000 0.0000 0.0000 0.0000 0.0000 29.6359
#
#
#
# Elastic Compliance Matrix: (Units=1/GPa)
#
#
# Indices 1 2 3 4 5 6 
#
# 1 0.027705 -0.011309 -0.004578 0.000000 0.000000 0.000000
# 2 -0.011309 0.020563 0.003289 0.000000 0.000000 0.000000
# 3 -0.004578 0.003289 0.008697 0.000000 0.000000 0.000000
# 4 0.000000 0.000000 0.000000 0.027049 0.000000 0.000000
# 5 0.000000 0.000000 0.000000 0.000000 0.045601 0.000000
# 6 0.000000 0.000000 0.000000 0.000000 0.000000 0.033743
#
#
# Mechanical properties :
#
#
# Convention : Reuss Voigt Hill
#
# Bulk Modulus (GPa) = 31.47480 33.19861 32.33671
# Shear Modulus (GPa) = 25.10758 31.78323 28.44541
#
# Velocity S-wave (km/s) = 3.20335 3.60414 3.40964
# Velocity P-wave (km/s) = 5.15226 5.55770 5.35881
#
# Compressibility (1/GPa) = 0.03177145
#
# Stress axis : x y z
#
# Youngs Moduli (GPa) = 36.09397 48.63189 114.97662
#
# Poissons Ratio (x) = 0.54997 0.52631
# Poissons Ratio (y) = 0.40818 -0.37819
# Poissons Ratio (z) = 0.16522 -0.15996
#
# Static dielectric constant tensor:
#      x y z
#    x 2.043770 0.000000 0.000000 
#    y 0.000000 1.983620 0.000000 
#    z 0.000000 0.000000 1.968170 
# 
# From -- ./inp_files/6787.got.cif
#   From: 2010.05.17/outbox.cif.g08.bks.cpg/sg19_4_cif.got.tgz:6787.got - 2010.06.03 22:46:19.
