data_PCOD9314296
_publ_section_title
;
Structure prediction by ZEFSAII (Michael W. Deem and Ramdas Pophale) SiO2 
 PCOD9314296
Probable space group: P 21 21 21
;
_chemical_formula_sum "Si O2"
_cell_formula_units_Z 28
_cell_length_a 10.996543
_cell_length_b 22.125722
_cell_length_c 5.138641
_cell_angle_alpha 90.000000
_cell_angle_beta 90.000000
_cell_angle_gamma 90.000000
_cell_volume 1250.264517
_symmetry_space_group_name_H-M "P 21 21 21"
_symmetry_group_IT_number 19
_symmetry_cell_setting 'orthorhombic'
loop_
_space_group_symop_operation_xyz
x,y,z
1/2-x,-y,1/2+z
1/2+x,1/2-y,-z
-x,1/2+y,1/2-z
loop_
_atom_site_type_symbol
_atom_site_label
_atom_site_fract_x
_atom_site_fract_y
_atom_site_fract_z
Si Si1 0.983758 0.408833 0.067819
Si Si2 0.823201 0.513111 0.260026
Si Si3 0.613428 0.135122 0.448651
Si Si4 0.531867 0.262091 0.299061
Si Si5 0.339845 0.203122 0.990230
Si Si6 0.856546 0.182242 0.323285
Si Si7 0.115570 0.147732 0.084303
O O1 0.931634 0.474650 0.131195
O O2 0.872540 0.362096 0.132091
O O3 0.088134 0.393927 0.274156
O O4 0.029975 0.396341 0.773950
O O5 0.768429 0.479569 0.514780
O O6 0.859343 0.577971 0.374591
O O7 0.584412 0.207574 0.470756
O O8 0.753824 0.133017 0.365698
O O9 0.406349 0.287737 0.415194
O O10 0.477318 0.223513 0.061546
O O11 0.605880 0.320365 0.201424
O O12 0.298487 0.262712 0.839062
O O13 0.232912 0.184849 0.191693
O O14 0.982682 0.159726 0.200328
#
# Coordination Sequence:
#
# PCOD9314296 Si02
#       7
#     4   4   4   4   4   4   4
#     4  11  24  45  67 101 134 188 229 286 342 414
#     4  12  27  47  74 103 136 180 239 296 346 404
#     4  11  24  43  68  99 144 184 231 276 351 429
#     4  10  23  36  64 101 142 175 222 285 349 416
#     4  10  21  39  63 101 139 174 226 282 355 402
#     4  11  24  38  67 101 140 191 220 289 353 427
#     4  11  25  42  65 102 143 176 235 294 346 418
#
# _framework density 22.395261000000001
#
# number of rings (size 3 to 8) (size 9 to 14) (size 15 to 20)
#    0.000    1.143    4.286    0.857   10.000    0.000 
#    0.000    1.429    0.000    0.000    0.000    0.000 
#    0.000    0.000    0.000    0.000    0.000    0.000 
#
# Total GULP energy -155957.996291 kJ/mol
# GULP energy per Si atom -5569.928439 kJ/mol
# Density = 2.234429 g / cm^3
# Si number density = 22.395261 Si / 1000 Ang^3
#
#
#
# Elastic Constant Matrix: (Units=GPa)
#
#
# Indices 1 2 3 4 5 6 
#
# 1 91.7623 29.7194 7.7249 0.0000 0.0000 0.0000
# 2 29.7194 104.1571 16.1423 0.0000 0.0000 0.0000
# 3 7.7249 16.1423 60.6545 0.0000 0.0000 0.0000
# 4 0.0000 0.0000 0.0000 26.2557 0.0000 0.0000
# 5 0.0000 0.0000 0.0000 0.0000 31.5893 0.0000
# 6 0.0000 0.0000 0.0000 0.0000 0.0000 20.0874
#
#
#
# Elastic Compliance Matrix: (Units=1/GPa)
#
#
# Indices 1 2 3 4 5 6 
#
# 1 0.012032 -0.003333 -0.000645 0.000000 0.000000 0.000000
# 2 -0.003333 0.010937 -0.002486 0.000000 0.000000 0.000000
# 3 -0.000645 -0.002486 0.017231 0.000000 0.000000 0.000000
# 4 0.000000 0.000000 0.000000 0.038087 0.000000 0.000000
# 5 0.000000 0.000000 0.000000 0.000000 0.031656 0.000000
# 6 0.000000 0.000000 0.000000 0.000000 0.000000 0.049782
#
#
# Mechanical properties :
#
#
# Convention : Reuss Voigt Hill
#
# Bulk Modulus (GPa) = 36.66992 40.41632 38.54312
# Shear Modulus (GPa) = 27.51117 29.11897 28.31507
#
# Velocity S-wave (km/s) = 3.50871 3.60978 3.55960
# Velocity P-wave (km/s) = 5.72924 5.95483 5.84313
#
# Compressibility (1/GPa) = 0.02727031
#
# Stress axis : x y z
#
# Youngs Moduli (GPa) = 83.11508 91.43101 58.03594
#
# Poissons Ratio (x) = 0.30474 0.03745
# Poissons Ratio (y) = 0.27702 0.14429
# Poissons Ratio (z) = 0.05363 0.22732
#
# Static dielectric constant tensor:
#      x y z
#    x 1.947180 0.000000 0.000000 
#    y 0.000000 1.901860 0.000000 
#    z 0.000000 0.000000 2.000350 
# 
# From -- ./inp_files/1136.got.cif
#   From: 2010.05.17/outbox.cif.g08.bks.cpg/sg19_1_cif.got.tgz:1136.got - 2010.06.03 22:46:19.
