data_PCOD9314689
_publ_section_title
;
Structure prediction by ZEFSAII (Michael W. Deem and Ramdas Pophale) SiO2 
 PCOD9314689
Probable space group: P 21 21 21
;
_chemical_formula_sum "Si O2"
_cell_formula_units_Z 24
_cell_length_a 5.003012
_cell_length_b 19.641280
_cell_length_c 9.272755
_cell_angle_alpha 90.000000
_cell_angle_beta 90.000000
_cell_angle_gamma 90.000000
_cell_volume 911.192459
_symmetry_space_group_name_H-M "P 21 21 21"
_symmetry_group_IT_number 19
_symmetry_cell_setting 'orthorhombic'
loop_
_space_group_symop_operation_xyz
x,y,z
1/2-x,-y,1/2+z
1/2+x,1/2-y,-z
-x,1/2+y,1/2-z
loop_
_atom_site_type_symbol
_atom_site_label
_atom_site_fract_x
_atom_site_fract_y
_atom_site_fract_z
Si Si1 0.768453 0.836125 0.703625
Si Si2 0.100741 0.739112 0.913343
Si Si3 0.730887 0.979905 0.866067
Si Si4 0.519808 0.389101 0.267306
Si Si5 0.899231 0.489505 0.375329
Si Si6 0.747362 0.361647 0.970171
O O1 0.918033 0.783132 0.805917
O O2 0.794021 0.908243 0.788815
O O3 0.469918 0.829045 0.639972
O O4 0.955037 0.838852 0.562404
O O5 0.162347 0.666152 0.844164
O O6 0.881415 0.728234 0.040878
O O7 0.442240 0.994763 0.795241
O O8 0.875070 0.047119 0.804656
O O9 0.831422 0.979142 0.030077
O O10 0.724983 0.421888 0.381308
O O11 0.668977 0.351948 0.135279
O O12 0.765783 0.557689 0.434896
#
# Coordination Sequence:
#
# PCOD9314689 Si02
#       6
#     4   4   4   4   4   4
#     4  11  23  47  66 102 143 182 236 294 355 429
#     4  12  29  48  72 105 143 194 239 291 372 436
#     4  10  23  39  68 100 138 191 232 301 355 416
#     4  11  25  42  70 101 143 184 245 293 359 435
#     4  10  22  40  66 103 142 181 237 301 350 429
#     4  10  24  42  70 103 133 188 235 288 367 407
#
# _framework density 26.339110999999999
#
# number of rings (size 3 to 8) (size 9 to 14) (size 15 to 20)
#    0.000    1.333    1.667    2.000   11.667    1.333 
#    0.000    0.000    0.000    0.000    0.000    0.000 
#    0.000    0.000    0.000    0.000    0.000    0.000 
#
# Total GULP energy -134303.773359 kJ/mol
# GULP energy per Si atom -5595.990557 kJ/mol
# Density = 2.627916 g / cm^3
# Si number density = 26.339111 Si / 1000 Ang^3
#
#
#
# Elastic Constant Matrix: (Units=GPa)
#
#
# Indices 1 2 3 4 5 6 
#
# 1 65.1541 4.9383 4.3343 0.0000 0.0000 0.0000
# 2 4.9383 65.8526 0.9717 0.0000 0.0000 0.0000
# 3 4.3343 0.9717 77.7378 0.0000 0.0000 0.0000
# 4 0.0000 0.0000 0.0000 41.9577 0.0000 0.0000
# 5 0.0000 0.0000 0.0000 0.0000 39.3986 0.0000
# 6 0.0000 0.0000 0.0000 0.0000 0.0000 17.8744
#
#
#
# Elastic Compliance Matrix: (Units=1/GPa)
#
#
# Indices 1 2 3 4 5 6 
#
# 1 0.015492 -0.001149 -0.000849 0.000000 0.000000 0.000000
# 2 -0.001149 0.015273 -0.000127 0.000000 0.000000 0.000000
# 3 -0.000849 -0.000127 0.012913 0.000000 0.000000 0.000000
# 4 0.000000 0.000000 0.000000 0.023834 0.000000 0.000000
# 5 0.000000 0.000000 0.000000 0.000000 0.025382 0.000000
# 6 0.000000 0.000000 0.000000 0.000000 0.000000 0.055946
#
#
# Mechanical properties :
#
#
# Convention : Reuss Voigt Hill
#
# Bulk Modulus (GPa) = 25.36321 25.47032 25.41676
# Shear Modulus (GPa) = 30.07839 33.07949 31.57894
#
# Velocity S-wave (km/s) = 3.38297 3.54772 3.46632
# Velocity P-wave (km/s) = 4.99096 5.14519 5.06866
#
# Compressibility (1/GPa) = 0.03942719
#
# Stress axis : x y z
#
# Youngs Moduli (GPa) = 64.55009 65.47295 77.44311
#
# Poissons Ratio (x) = 0.07524 0.06578
# Poissons Ratio (y) = 0.07418 0.00982
# Poissons Ratio (z) = 0.05483 0.00830
#
# Static dielectric constant tensor:
#      x y z
#    x 2.088070 0.000000 0.000000 
#    y 0.000000 2.032470 0.000000 
#    z 0.000000 0.000000 2.122860 
# 
# From -- ./inp_files/2389.got.cif
#   From: 2010.05.17/outbox.cif.g08.bks.cpg/sg19_2_cif.got.tgz:2389.got - 2010.06.03 22:46:19.
