data_PCOD9314233
_publ_section_title
;
Structure prediction by ZEFSAII (Michael W. Deem and Ramdas Pophale) SiO2 
 PCOD9314233
Probable space group: P 21 21 21
;
_chemical_formula_sum "Si O2"
_cell_formula_units_Z 28
_cell_length_a 5.625296
_cell_length_b 17.755241
_cell_length_c 13.109366
_cell_angle_alpha 90.000000
_cell_angle_beta 90.000000
_cell_angle_gamma 90.000000
_cell_volume 1309.343631
_symmetry_space_group_name_H-M "P 21 21 21"
_symmetry_group_IT_number 19
_symmetry_cell_setting 'orthorhombic'
loop_
_space_group_symop_operation_xyz
x,y,z
1/2-x,-y,1/2+z
1/2+x,1/2-y,-z
-x,1/2+y,1/2-z
loop_
_atom_site_type_symbol
_atom_site_label
_atom_site_fract_x
_atom_site_fract_y
_atom_site_fract_z
Si Si1 0.874724 0.350111 0.723448
Si Si2 0.755929 0.901768 0.392194
Si Si3 0.919725 0.511870 0.234363
Si Si4 0.244791 0.611247 0.379792
Si Si5 0.635878 0.375195 0.281382
Si Si6 0.997418 0.759826 0.319871
Si Si7 0.956367 0.744335 0.939123
O O1 0.747638 0.425120 0.683937
O O2 0.687724 0.283842 0.747604
O O3 0.052659 0.313124 0.642763
O O4 0.997583 0.374760 0.829671
O O5 0.714305 0.922335 0.508607
O O6 0.539772 0.894561 0.312339
O O7 0.865880 0.818000 0.392964
O O8 0.942021 0.960306 0.345347
O O9 0.770422 0.453042 0.302660
O O10 0.105308 0.558328 0.301381
O O11 0.128957 0.693875 0.378809
O O12 0.822915 0.312234 0.243127
O O13 0.516060 0.334470 0.377312
O O14 0.202377 0.756456 0.002284
#
# Coordination Sequence:
#
# PCOD9314233 Si02
#       7
#     4   4   4   4   4   4   4
#     4  11  23  49  67 103 149 184 245 310 355 451
#     4  11  24  43  72 104 139 191 242 301 380 433
#     4  10  26  46  68 100 154 190 236 310 366 446
#     4  11  24  43  72 104 139 191 242 301 380 433
#     4  11  23  49  67 103 149 184 245 310 355 451
#     4  10  21  37  74  98 142 180 233 311 358 430
#     4  12  27  47  80 112 142 204 255 307 380 436
#
# _framework density 21.384763
#
# number of rings (size 3 to 8) (size 9 to 14) (size 15 to 20)
#    0.000    1.143    2.857    1.714    8.000    3.429 
#   10.286    0.000    0.000    0.000    0.000    0.000 
#    0.000    0.000    0.000    0.000    0.000    0.000 
#
# Total GULP energy -156413.129903 kJ/mol
# GULP energy per Si atom -5586.183211 kJ/mol
# Density = 2.133609 g / cm^3
# Si number density = 21.384763 Si / 1000 Ang^3
#
#
#
# Elastic Constant Matrix: (Units=GPa)
#
#
# Indices 1 2 3 4 5 6 
#
# 1 56.7637 -1.2137 -2.0663 0.0000 0.0000 0.0000
# 2 -1.2137 94.2477 -3.3059 0.0000 0.0000 0.0000
# 3 -2.0663 -3.3059 42.8114 0.0000 0.0000 0.0000
# 4 0.0000 0.0000 0.0000 6.4203 0.0000 0.0000
# 5 0.0000 0.0000 0.0000 0.0000 27.8911 0.0000
# 6 0.0000 0.0000 0.0000 0.0000 0.0000 28.4636
#
#
#
# Elastic Compliance Matrix: (Units=1/GPa)
#
#
# Indices 1 2 3 4 5 6 
#
# 1 0.017654 0.000258 0.000872 0.000000 0.000000 0.000000
# 2 0.000258 0.010643 0.000834 0.000000 0.000000 0.000000
# 3 0.000872 0.000834 0.023465 0.000000 0.000000 0.000000
# 4 0.000000 0.000000 0.000000 0.155755 0.000000 0.000000
# 5 0.000000 0.000000 0.000000 0.000000 0.035854 0.000000
# 6 0.000000 0.000000 0.000000 0.000000 0.000000 0.035133
#
#
# Mechanical properties :
#
#
# Convention : Reuss Voigt Hill
#
# Bulk Modulus (GPa) = 17.95647 20.07236 19.01441
# Shear Modulus (GPa) = 17.05680 25.91559 21.48620
#
# Velocity S-wave (km/s) = 2.82727 3.48497 3.17321
# Velocity P-wave (km/s) = 4.36727 5.05965 4.72615
#
# Compressibility (1/GPa) = 0.05569023
#
# Stress axis : x y z
#
# Youngs Moduli (GPa) = 56.64393 93.95911 42.61708
#
# Poissons Ratio (x) = -0.02423 -0.03716
# Poissons Ratio (y) = -0.01461 -0.03555
# Poissons Ratio (z) = -0.04939 -0.07839
#
# Static dielectric constant tensor:
#      x y z
#    x 1.847130 0.000000 0.000000 
#    y 0.000000 1.743130 0.000000 
#    z 0.000000 0.000000 1.795450 
# 
# From -- ./inp_files/1064.got.cif
#   From: 2010.05.17/outbox.cif.g08.bks.cpg/sg19_1_cif.got.tgz:1064.got - 2010.06.03 22:46:19.
