data_PCOD9314526
_publ_section_title
;
Structure prediction by ZEFSAII (Michael W. Deem and Ramdas Pophale) SiO2 
 PCOD9314526
Probable space group: P 21 21 21
;
_chemical_formula_sum "Si O2"
_cell_formula_units_Z 32
_cell_length_a 19.254910
_cell_length_b 12.362103
_cell_length_c 5.636335
_cell_angle_alpha 90.000000
_cell_angle_beta 90.000000
_cell_angle_gamma 90.000000
_cell_volume 1341.623475
_symmetry_space_group_name_H-M "P 21 21 21"
_symmetry_group_IT_number 19
_symmetry_cell_setting 'orthorhombic'
loop_
_space_group_symop_operation_xyz
x,y,z
1/2-x,-y,1/2+z
1/2+x,1/2-y,-z
-x,1/2+y,1/2-z
loop_
_atom_site_type_symbol
_atom_site_label
_atom_site_fract_x
_atom_site_fract_y
_atom_site_fract_z
Si Si1 0.064509 0.584453 0.027164
Si Si2 0.710720 0.983500 0.474022
Si Si3 0.689356 0.413003 0.142377
Si Si4 0.490268 0.251536 0.910725
Si Si5 0.537117 0.458478 0.165555
Si Si6 0.144021 0.728918 0.656204
Si Si7 0.767140 0.631422 0.145002
Si Si8 0.420121 0.584694 0.869307
O O1 0.105305 0.643868 0.824428
O O2 0.994378 0.531788 0.925878
O O3 0.044345 0.671495 0.218201
O O4 0.105199 0.490582 0.153436
O O5 0.685171 0.857465 0.508221
O O6 0.754064 0.012534 0.712148
O O7 0.646302 0.070584 0.463049
O O8 0.617725 0.478889 0.149704
O O9 0.750736 0.502332 0.135885
O O10 0.698842 0.346670 0.387816
O O11 0.690775 0.351389 0.890287
O O12 0.546884 0.185627 0.763620
O O13 0.527824 0.331662 0.095494
O O14 0.420244 0.204889 0.036983
O O15 0.486232 0.529397 0.001695
O O16 0.197281 0.801255 0.804224
#
# Coordination Sequence:
#
# PCOD9314526 Si02
#       8
#     4   4   4   4   4   4   4   4
#     4  10  21  43  68  97 144 171 243 300 352 430
#     4  12  27  49  74 101 148 195 240 296 363 441
#     4  10  24  44  65 106 137 183 236 291 367 415
#     4  10  24  41  71 104 134 183 244 302 362 420
#     4  10  23  42  68  96 143 179 228 311 350 420
#     4  11  24  47  69 102 136 195 242 292 363 444
#     4  10  25  42  69  99 143 183 237 288 350 454
#     4  11  24  44  72 105 137 187 244 304 363 424
#
# _framework density 23.851700000000001
#
# number of rings (size 3 to 8) (size 9 to 14) (size 15 to 20)
#    0.000    1.500    3.750    0.750    8.750    3.000 
#    2.250    0.000    0.000    0.000    0.000    0.000 
#    0.000    0.000    0.000    0.000    0.000    0.000 
#
# Total GULP energy -178448.713302 kJ/mol
# GULP energy per Si atom -5576.522291 kJ/mol
# Density = 2.379741 g / cm^3
# Si number density = 23.851700 Si / 1000 Ang^3
#
#
#
# Elastic Constant Matrix: (Units=GPa)
#
#
# Indices 1 2 3 4 5 6 
#
# 1 90.2474 11.8469 43.0817 0.0000 0.0000 0.0000
# 2 11.8469 26.3368 -25.6269 0.0000 0.0000 0.0000
# 3 43.0817 -25.6269 82.1739 0.0000 0.0000 0.0000
# 4 0.0000 0.0000 0.0000 9.1804 0.0000 0.0000
# 5 0.0000 0.0000 0.0000 0.0000 29.5600 0.0000
# 6 0.0000 0.0000 0.0000 0.0000 0.0000 25.7926
#
#
#
# Elastic Compliance Matrix: (Units=1/GPa)
#
#
# Indices 1 2 3 4 5 6 
#
# 1 0.030472 -0.041996 -0.029072 0.000000 0.000000 0.000000
# 2 -0.041996 0.112389 0.057067 0.000000 0.000000 0.000000
# 3 -0.029072 0.057067 0.045208 0.000000 0.000000 0.000000
# 4 0.000000 0.000000 0.000000 0.108927 0.000000 0.000000
# 5 0.000000 0.000000 0.000000 0.000000 0.033830 0.000000
# 6 0.000000 0.000000 0.000000 0.000000 0.000000 0.038771
#
#
# Mechanical properties :
#
#
# Convention : Reuss Voigt Hill
#
# Bulk Modulus (GPa) = 6.24740 28.59573 17.42156
# Shear Modulus (GPa) = 11.08759 24.20369 17.64564
#
# Velocity S-wave (km/s) = 2.15839 3.18898 2.72289
# Velocity P-wave (km/s) = 2.97262 5.05712 4.14795
#
# Compressibility (1/GPa) = 0.16006664
#
# Stress axis : x y z
#
# Youngs Moduli (GPa) = 32.81717 8.89769 22.11988
#
# Poissons Ratio (x) = 0.37366 0.64308
# Poissons Ratio (y) = 1.37818 -1.26231
# Poissons Ratio (z) = 0.95407 -0.50776
#
# Static dielectric constant tensor:
#      x y z
#    x 1.989910 0.000000 0.000000 
#    y 0.000000 1.939230 0.000000 
#    z 0.000000 0.000000 1.965590 
# 
# From -- ./inp_files/2025.got.cif
#   From: 2010.05.17/outbox.cif.g08.bks.cpg/sg19_2_cif.got.tgz:2025.got - 2010.06.03 22:46:19.
