data_PCOD9314430
_publ_section_title
;
Structure prediction by ZEFSAII (Michael W. Deem and Ramdas Pophale) SiO2 
 PCOD9314430
Probable space group: P 21 21 21
;
_chemical_formula_sum "Si O2"
_cell_formula_units_Z 32
_cell_length_a 20.423386
_cell_length_b 13.545375
_cell_length_c 5.470972
_cell_angle_alpha 90.000000
_cell_angle_beta 90.000000
_cell_angle_gamma 90.000000
_cell_volume 1513.502946
_symmetry_space_group_name_H-M "P 21 21 21"
_symmetry_group_IT_number 19
_symmetry_cell_setting 'orthorhombic'
loop_
_space_group_symop_operation_xyz
x,y,z
1/2-x,-y,1/2+z
1/2+x,1/2-y,-z
-x,1/2+y,1/2-z
loop_
_atom_site_type_symbol
_atom_site_label
_atom_site_fract_x
_atom_site_fract_y
_atom_site_fract_z
Si Si1 0.143195 0.696800 0.033179
Si Si2 0.486142 0.248952 0.295836
Si Si3 0.332442 0.018702 0.190913
Si Si4 0.209350 0.511675 0.817998
Si Si5 0.784213 0.380901 0.307128
Si Si6 0.968582 0.543054 0.018129
Si Si7 0.041743 0.611565 0.406518
Si Si8 0.573805 0.066704 0.234274
O O1 0.101572 0.630326 0.221232
O O2 0.085889 0.763467 0.911135
O O3 0.177057 0.620582 0.848352
O O4 0.196648 0.767411 0.154332
O O5 0.514038 0.351383 0.401482
O O6 0.538200 0.163568 0.333223
O O7 0.472325 0.280620 0.017752
O O8 0.306896 0.085688 0.963619
O O9 0.290799 0.916876 0.174647
O O10 0.406911 0.999777 0.118056
O O11 0.318588 0.063004 0.460374
O O12 0.246386 0.502710 0.559899
O O13 0.150105 0.432081 0.824887
O O14 0.972567 0.571157 0.301200
O O15 0.028252 0.466304 0.991162
O O16 0.065046 0.526359 0.586498
#
# Coordination Sequence:
#
# PCOD9314430 Si02
#       8
#     4   4   4   4   4   4   4   4
#     4  11  23  44  66 100 131 184 233 278 345 431
#     4  10  23  39  66  97 130 173 230 282 354 402
#     4  10  23  43  62 105 132 176 225 281 348 401
#     4  12  27  47  71  96 140 189 232 284 351 423
#     4  10  24  41  69  94 138 178 224 277 339 420
#     4  10  22  38  65  93 131 173 215 294 332 413
#     4  10  21  41  65  96 138 170 229 291 344 418
#     4  11  23  43  66  99 136 175 236 293 351 408
#
# _framework density 21.143006
#
# number of rings (size 3 to 8) (size 9 to 14) (size 15 to 20)
#    0.000    1.500    3.750    1.500    8.750    2.000 
#    2.250    0.000    0.000    0.000    0.000    0.000 
#    0.000    0.000    0.000    0.000    0.000    0.000 
#
# Total GULP energy -178348.503604 kJ/mol
# GULP energy per Si atom -5573.390738 kJ/mol
# Density = 2.109488 g / cm^3
# Si number density = 21.143006 Si / 1000 Ang^3
#
#
#
# Elastic Constant Matrix: (Units=GPa)
#
#
# Indices 1 2 3 4 5 6 
#
# 1 92.6538 14.8394 15.4023 0.0000 0.0000 0.0000
# 2 14.8394 55.3778 10.2115 0.0000 0.0000 0.0000
# 3 15.4023 10.2115 51.9311 0.0000 0.0000 0.0000
# 4 0.0000 0.0000 0.0000 16.0445 0.0000 0.0000
# 5 0.0000 0.0000 0.0000 0.0000 24.6315 0.0000
# 6 0.0000 0.0000 0.0000 0.0000 0.0000 33.0635
#
#
#
# Elastic Compliance Matrix: (Units=1/GPa)
#
#
# Indices 1 2 3 4 5 6 
#
# 1 0.011700 -0.002589 -0.002961 0.000000 0.000000 0.000000
# 2 -0.002589 0.019310 -0.003029 0.000000 0.000000 0.000000
# 3 -0.002961 -0.003029 0.020730 0.000000 0.000000 0.000000
# 4 0.000000 0.000000 0.000000 0.062326 0.000000 0.000000
# 5 0.000000 0.000000 0.000000 0.000000 0.040598 0.000000
# 6 0.000000 0.000000 0.000000 0.000000 0.000000 0.030245
#
#
# Mechanical properties :
#
#
# Convention : Reuss Voigt Hill
#
# Bulk Modulus (GPa) = 28.91717 31.20770 30.06243
# Shear Modulus (GPa) = 23.40875 25.38189 24.39532
#
# Velocity S-wave (km/s) = 3.33102 3.46856 3.40048
# Velocity P-wave (km/s) = 5.33862 5.55280 5.44676
#
# Compressibility (1/GPa) = 0.03458153
#
# Stress axis : x y z
#
# Youngs Moduli (GPa) = 85.47187 51.78625 48.23902
#
# Poissons Ratio (x) = 0.13408 0.14283
# Poissons Ratio (y) = 0.22130 0.14612
# Poissons Ratio (z) = 0.25308 0.15687
#
# Static dielectric constant tensor:
#      x y z
#    x 1.796260 0.000000 0.000000 
#    y 0.000000 1.775140 0.000000 
#    z 0.000000 0.000000 1.986410 
# 
# From -- ./inp_files/1567.got.cif
#   From: 2010.05.17/outbox.cif.g08.bks.cpg/sg19_1_cif.got.tgz:1567.got - 2010.06.03 22:46:19.
