data_PCOD9314410
_publ_section_title
;
Structure prediction by ZEFSAII (Michael W. Deem and Ramdas Pophale) SiO2 
 PCOD9314410
Probable space group: P 21 21 21
;
_chemical_formula_sum "Si O2"
_cell_formula_units_Z 28
_cell_length_a 8.796383
_cell_length_b 11.329571
_cell_length_c 10.851153
_cell_angle_alpha 90.000000
_cell_angle_beta 90.000000
_cell_angle_gamma 90.000000
_cell_volume 1081.417723
_symmetry_space_group_name_H-M "P 21 21 21"
_symmetry_group_IT_number 19
_symmetry_cell_setting 'orthorhombic'
loop_
_space_group_symop_operation_xyz
x,y,z
1/2-x,-y,1/2+z
1/2+x,1/2-y,-z
-x,1/2+y,1/2-z
loop_
_atom_site_type_symbol
_atom_site_label
_atom_site_fract_x
_atom_site_fract_y
_atom_site_fract_z
Si Si1 0.410080 0.153666 0.594950
Si Si2 0.975184 0.028249 0.611114
Si Si3 0.206546 0.022062 0.801613
Si Si4 0.305562 0.173720 0.015587
Si Si5 0.881217 0.788197 0.894082
Si Si6 0.599568 0.329722 0.745793
Si Si7 0.208999 0.613424 0.342521
O O1 0.307737 0.066758 0.681600
O O2 0.515503 0.124653 0.477331
O O3 0.284980 0.251742 0.555969
O O4 0.528803 0.213307 0.689119
O O5 0.057949 0.920804 0.535591
O O6 0.798393 0.998866 0.607432
O O7 0.042695 0.004817 0.746706
O O8 0.025657 0.163814 0.595363
O O9 0.204112 0.110857 0.912570
O O10 0.293336 0.905045 0.843302
O O11 0.341106 0.297451 0.951168
O O12 0.208544 0.192773 0.138225
O O13 0.827410 0.824915 0.755185
O O14 0.449116 0.407518 0.773836
#
# Coordination Sequence:
#
# PCOD9314410 Si02
#       7
#     4   4   4   4   4   4   4
#     4  10  21  41  62  89 125 166 208 263 308 379
#     4  10  22  38  65  91 128 167 207 258 319 385
#     4  10  21  41  61  89 123 170 214 244 321 388
#     4  11  20  40  66  86 128 170 206 257 316 382
#     4  10  22  42  64  89 130 165 209 261 317 377
#     4  10  22  38  64  92 121 164 211 263 314 369
#     4  11  22  40  62  98 129 156 215 270 311 372
#
# _framework density 25.891935
#
# number of rings (size 3 to 8) (size 9 to 14) (size 15 to 20)
#    0.000    1.714    4.286    1.714    0.000    6.857 
#    0.000    2.857    0.000    0.000    0.000    0.000 
#    0.000    0.000    0.000    0.000    0.000    0.000 
#
# Total GULP energy -156281.185400 kJ/mol
# GULP energy per Si atom -5581.470907 kJ/mol
# Density = 2.583300 g / cm^3
# Si number density = 25.891935 Si / 1000 Ang^3
#
#
#
# Elastic Constant Matrix: (Units=GPa)
#
#
# Indices 1 2 3 4 5 6 
#
# 1 70.1337 25.7730 12.5622 0.0000 0.0000 0.0000
# 2 25.7730 54.1190 10.5238 0.0000 0.0000 0.0000
# 3 12.5622 10.5238 83.6911 0.0000 0.0000 0.0000
# 4 0.0000 0.0000 0.0000 28.2788 0.0000 0.0000
# 5 0.0000 0.0000 0.0000 0.0000 22.4796 0.0000
# 6 0.0000 0.0000 0.0000 0.0000 0.0000 42.6735
#
#
#
# Elastic Compliance Matrix: (Units=1/GPa)
#
#
# Indices 1 2 3 4 5 6 
#
# 1 0.017494 -0.008017 -0.001618 0.000000 0.000000 0.000000
# 2 -0.008017 0.022615 -0.001640 0.000000 0.000000 0.000000
# 3 -0.001618 -0.001640 0.012398 0.000000 0.000000 0.000000
# 4 0.000000 0.000000 0.000000 0.035362 0.000000 0.000000
# 5 0.000000 0.000000 0.000000 0.000000 0.044485 0.000000
# 6 0.000000 0.000000 0.000000 0.000000 0.000000 0.023434
#
#
# Mechanical properties :
#
#
# Convention : Reuss Voigt Hill
#
# Bulk Modulus (GPa) = 33.38134 33.96240 33.67187
# Shear Modulus (GPa) = 26.55018 29.29203 27.92110
#
# Velocity S-wave (km/s) = 3.20570 3.36716 3.28742
# Velocity P-wave (km/s) = 5.15970 5.31624 5.23856
#
# Compressibility (1/GPa) = 0.02995686
#
# Stress axis : x y z
#
# Youngs Moduli (GPa) = 57.16160 44.21938 80.65935
#
# Poissons Ratio (x) = 0.35449 0.13050
# Poissons Ratio (y) = 0.45824 0.13231
# Poissons Ratio (z) = 0.09248 0.07254
#
# Static dielectric constant tensor:
#      x y z
#    x 1.971240 0.000000 0.000000 
#    y 0.000000 2.137720 0.000000 
#    z 0.000000 0.000000 2.110070 
# 
# From -- ./inp_files/4596.got.cif
#   From: 2010.05.17/outbox.cif.g08.bks.cpg/sg19_3_cif.got.tgz:4596.got - 2010.06.03 22:46:19.
