data_PCOD9314407
_publ_section_title
;
Structure prediction by ZEFSAII (Michael W. Deem and Ramdas Pophale) SiO2 
 PCOD9314407
Probable space group: P 21 21 21
;
_chemical_formula_sum "Si O2"
_cell_formula_units_Z 32
_cell_length_a 13.391940
_cell_length_b 13.268992
_cell_length_c 8.085460
_cell_angle_alpha 90.000000
_cell_angle_beta 90.000000
_cell_angle_gamma 90.000000
_cell_volume 1436.766390
_symmetry_space_group_name_H-M "P 21 21 21"
_symmetry_group_IT_number 19
_symmetry_cell_setting 'orthorhombic'
loop_
_space_group_symop_operation_xyz
x,y,z
1/2-x,-y,1/2+z
1/2+x,1/2-y,-z
-x,1/2+y,1/2-z
loop_
_atom_site_type_symbol
_atom_site_label
_atom_site_fract_x
_atom_site_fract_y
_atom_site_fract_z
Si Si1 0.883604 0.498161 0.915956
Si Si2 0.064116 0.507299 0.136282
Si Si3 0.310072 0.792288 0.086792
Si Si4 0.241820 0.409120 0.739621
Si Si5 0.546674 0.383853 0.932971
Si Si6 0.842462 0.101275 0.901639
Si Si7 0.309779 0.051813 0.421500
Si Si8 0.156243 0.296007 0.233688
O O1 0.842681 0.431070 0.766507
O O2 0.876073 0.614131 0.852737
O O3 0.800518 0.500086 0.063031
O O4 0.992841 0.480211 0.984370
O O5 0.165963 0.570078 0.112945
O O6 0.099891 0.402421 0.216542
O O7 0.999934 0.574494 0.261852
O O8 0.207280 0.847901 0.029836
O O9 0.353325 0.746606 0.917843
O O10 0.297125 0.702725 0.213145
O O11 0.287674 0.417997 0.921711
O O12 0.162567 0.495584 0.696424
O O13 0.453295 0.364621 0.054049
O O14 0.610667 0.285546 0.891077
O O15 0.613275 0.474867 0.999823
O O16 0.771452 0.179284 0.806983
#
# Coordination Sequence:
#
# PCOD9314407 Si02
#       8
#     4   4   4   4   4   4   4   4
#     4  10  21  41  59  92 126 169 205 274 319 380
#     4  10  22  41  63  89 130 169 214 264 321 396
#     4  10  22  40  61  91 126 166 210 262 325 383
#     4  10  21  43  64  92 124 174 210 264 326 382
#     4  11  22  41  62  97 122 171 215 263 329 385
#     4  10  24  41  68  91 132 166 219 268 322 390
#     4  10  23  38  62  89 132 160 207 276 318 380
#     4  11  23  41  65  93 130 173 216 269 324 394
#
# _framework density 22.272234000000001
#
# number of rings (size 3 to 8) (size 9 to 14) (size 15 to 20)
#    0.750    1.000    1.250    3.750    1.750    7.000 
#    2.250    0.000    0.000    0.000    0.000    0.000 
#    0.000    0.000    0.000    0.000    0.000    0.000 
#
# Total GULP energy -178740.464448 kJ/mol
# GULP energy per Si atom -5585.639514 kJ/mol
# Density = 2.222154 g / cm^3
# Si number density = 22.272234 Si / 1000 Ang^3
#
#
#
# Elastic Constant Matrix: (Units=GPa)
#
#
# Indices 1 2 3 4 5 6 
#
# 1 56.4139 11.2350 6.2651 0.0000 0.0000 0.0000
# 2 11.2350 101.1300 -0.5676 0.0000 0.0000 0.0000
# 3 6.2651 -0.5676 45.9700 0.0000 0.0000 0.0000
# 4 0.0000 0.0000 0.0000 22.6237 0.0000 0.0000
# 5 0.0000 0.0000 0.0000 0.0000 30.1921 0.0000
# 6 0.0000 0.0000 0.0000 0.0000 0.0000 26.7728
#
#
#
# Elastic Compliance Matrix: (Units=1/GPa)
#
#
# Indices 1 2 3 4 5 6 
#
# 1 0.018418 -0.002060 -0.002536 0.000000 0.000000 0.000000
# 2 -0.002060 0.010119 0.000406 0.000000 0.000000 0.000000
# 3 -0.002536 0.000406 0.022104 0.000000 0.000000 0.000000
# 4 0.000000 0.000000 0.000000 0.044202 0.000000 0.000000
# 5 0.000000 0.000000 0.000000 0.000000 0.033121 0.000000
# 6 0.000000 0.000000 0.000000 0.000000 0.000000 0.037351
#
#
# Mechanical properties :
#
#
# Convention : Reuss Voigt Hill
#
# Bulk Modulus (GPa) = 23.66247 26.37542 25.01895
# Shear Modulus (GPa) = 26.62649 28.35647 27.49148
#
# Velocity S-wave (km/s) = 3.46135 3.57203 3.51713
# Velocity P-wave (km/s) = 5.15964 5.37406 5.26794
#
# Compressibility (1/GPa) = 0.04226101
#
# Stress axis : x y z
#
# Youngs Moduli (GPa) = 54.29454 98.81977 45.24086
#
# Poissons Ratio (x) = 0.20361 0.11471
# Poissons Ratio (y) = 0.11187 -0.01836
# Poissons Ratio (z) = 0.13767 -0.04010
#
# Static dielectric constant tensor:
#      x y z
#    x 1.838110 0.000000 0.000000 
#    y 0.000000 1.797180 0.000000 
#    z 0.000000 0.000000 1.870150 
# 
# From -- ./inp_files/3643.got.cif
#   From: 2010.05.17/outbox.cif.g08.bks.cpg/sg19_2_cif.got.tgz:3643.got - 2010.06.03 22:46:19.
