data_PCOD9314475
_publ_section_title
;
Structure prediction by ZEFSAII (Michael W. Deem and Ramdas Pophale) SiO2 
 PCOD9314475
Probable space group: P 21 21 21
;
_chemical_formula_sum "Si O2"
_cell_formula_units_Z 20
_cell_length_a 14.689183
_cell_length_b 6.925468
_cell_length_c 7.877198
_cell_angle_alpha 90.000000
_cell_angle_beta 90.000000
_cell_angle_gamma 90.000000
_cell_volume 801.343153
_symmetry_space_group_name_H-M "P 21 21 21"
_symmetry_group_IT_number 19
_symmetry_cell_setting 'orthorhombic'
loop_
_space_group_symop_operation_xyz
x,y,z
1/2-x,-y,1/2+z
1/2+x,1/2-y,-z
-x,1/2+y,1/2-z
loop_
_atom_site_type_symbol
_atom_site_label
_atom_site_fract_x
_atom_site_fract_y
_atom_site_fract_z
Si Si1 0.470001 0.304731 0.535570
Si Si2 0.094177 0.712127 0.690289
Si Si3 0.903729 0.674962 0.748083
Si Si4 0.750817 0.285694 0.020355
Si Si5 0.377702 0.981943 0.747191
O O1 0.413101 0.388463 0.375182
O O2 0.555363 0.230503 0.418830
O O3 0.402402 0.163700 0.630280
O O4 0.524847 0.422676 0.675582
O O5 0.173076 0.651777 0.563747
O O6 0.990964 0.694874 0.621661
O O7 0.108978 0.942756 0.728636
O O8 0.811604 0.762991 0.680133
O O9 0.679190 0.339576 0.872990
O O10 0.811706 0.460158 0.097810
#
# Coordination Sequence:
#
# PCOD9314475 Si02
#       5
#     4   4   4   4   4
#     4  10  24  38  64 100 132 162 218 256 332 364
#     4  10  21  42  65  94 130 165 213 269 310 385
#     4  10  21  42  65  94 130 165 213 269 310 385
#     4  12  20  38  72  96 120 172 226 252 314 386
#     4  12  22  40  68  98 126 174 210 268 310 394
#
# _framework density 24.958098
#
# number of rings (size 3 to 8) (size 9 to 14) (size 15 to 20)
#    1.200    0.000    6.000    0.000    2.800    0.000 
#    0.000    0.000   13.200    2.400    0.000    0.000 
#    0.000    0.000    0.000    0.000    0.000    0.000 
#
# Total GULP energy -111428.699019 kJ/mol
# GULP energy per Si atom -5571.434951 kJ/mol
# Density = 2.490129 g / cm^3
# Si number density = 24.958098 Si / 1000 Ang^3
#
#
#
# Elastic Constant Matrix: (Units=GPa)
#
#
# Indices 1 2 3 4 5 6 
#
# 1 87.8084 22.1043 3.1522 0.0000 0.0000 0.0000
# 2 22.1043 42.4678 -7.7566 0.0000 0.0000 0.0000
# 3 3.1522 -7.7566 74.0361 0.0000 0.0000 0.0000
# 4 0.0000 0.0000 0.0000 14.0336 0.0000 0.0000
# 5 0.0000 0.0000 0.0000 0.0000 75.2360 0.0000
# 6 0.0000 0.0000 0.0000 0.0000 0.0000 35.7229
#
#
#
# Elastic Compliance Matrix: (Units=1/GPa)
#
#
# Indices 1 2 3 4 5 6 
#
# 1 0.013229 -0.007125 -0.001310 0.000000 0.000000 0.000000
# 2 -0.007125 0.027844 0.003220 0.000000 0.000000 0.000000
# 3 -0.001310 0.003220 0.013900 0.000000 0.000000 0.000000
# 4 0.000000 0.000000 0.000000 0.071258 0.000000 0.000000
# 5 0.000000 0.000000 0.000000 0.000000 0.013292 0.000000
# 6 0.000000 0.000000 0.000000 0.000000 0.000000 0.027993
#
#
# Mechanical properties :
#
#
# Convention : Reuss Voigt Hill
#
# Bulk Modulus (GPa) = 22.44927 26.59024 24.51975
# Shear Modulus (GPa) = 25.93472 37.45265 31.69369
#
# Velocity S-wave (km/s) = 3.22705 3.87799 3.56740
# Velocity P-wave (km/s) = 4.78534 5.54336 5.17824
#
# Compressibility (1/GPa) = 0.04454488
#
# Stress axis : x y z
#
# Youngs Moduli (GPa) = 75.59147 35.91451 71.94196
#
# Poissons Ratio (x) = 0.25589 0.09422
# Poissons Ratio (y) = 0.53858 -0.23169
# Poissons Ratio (z) = 0.09900 -0.11566
#
# Static dielectric constant tensor:
#      x y z
#    x 1.979950 0.000000 0.000000 
#    y 0.000000 2.022500 0.000000 
#    z 0.000000 0.000000 2.053160 
# 
# From -- ./inp_files/2768.got.cif
#   From: 2010.05.17/outbox.cif.g08.bks.cpg/sg19_2_cif.got.tgz:2768.got - 2010.06.03 22:46:19.
