data_PCOD9314180
_publ_section_title
;
Structure prediction by ZEFSAII (Michael W. Deem and Ramdas Pophale) SiO2 
 PCOD9314180
Probable space group: P 21 21 21
;
_chemical_formula_sum "Si O2"
_cell_formula_units_Z 32
_cell_length_a 6.721642
_cell_length_b 22.997949
_cell_length_c 8.902351
_cell_angle_alpha 90.000000
_cell_angle_beta 90.000000
_cell_angle_gamma 90.000000
_cell_volume 1376.160848
_symmetry_space_group_name_H-M "P 21 21 21"
_symmetry_group_IT_number 19
_symmetry_cell_setting 'orthorhombic'
loop_
_space_group_symop_operation_xyz
x,y,z
1/2-x,-y,1/2+z
1/2+x,1/2-y,-z
-x,1/2+y,1/2-z
loop_
_atom_site_type_symbol
_atom_site_label
_atom_site_fract_x
_atom_site_fract_y
_atom_site_fract_z
Si Si1 0.129649 0.876369 0.147135
Si Si2 0.511881 0.799986 0.176948
Si Si3 0.670487 0.181765 0.423678
Si Si4 0.051968 0.547779 0.663161
Si Si5 0.754068 0.456128 0.618258
Si Si6 0.809423 0.850680 0.392138
Si Si7 0.465173 0.607038 0.327347
Si Si8 0.640434 0.984300 0.016953
O O1 0.340367 0.848869 0.196860
O O2 0.974205 0.879919 0.283054
O O3 0.013501 0.832697 0.034539
O O4 0.172202 0.932481 0.044230
O O5 0.393463 0.740042 0.161869
O O6 0.687842 0.801160 0.302388
O O7 0.631479 0.811620 0.021778
O O8 0.677015 0.129025 0.306043
O O9 0.125546 0.604782 0.578878
O O10 0.163473 0.495442 0.576517
O O11 0.833050 0.521116 0.657675
O O12 0.136297 0.553839 0.832474
O O13 0.830055 0.409997 0.742265
O O14 0.521134 0.461581 0.598790
O O15 0.932633 0.843865 0.545265
O O16 0.419004 0.546897 0.412568
#
# Coordination Sequence:
#
# PCOD9314180 Si02
#       8
#     4   4   4   4   4   4   4   4
#     4  10  21  38  65  98 122 164 219 270 311 394
#     4  11  21  40  69  88 120 163 217 267 327 385
#     4  10  21  42  65  90 122 163 217 271 323 385
#     4  10  21  38  59  86 130 164 208 262 308 376
#     4  10  21  38  63  90 123 171 221 253 310 383
#     4  10  22  39  59  90 130 162 201 260 327 374
#     4   9  22  41  57  90 134 157 205 270 316 380
#     4  10  21  36  59  88 121 170 206 253 314 375
#
# _framework density 23.253095999999999
#
# number of rings (size 3 to 8) (size 9 to 14) (size 15 to 20)
#    0.000    2.000    1.250    1.500    0.000   12.000 
#    2.250   10.000    0.000    0.000    0.000    0.000 
#    0.000    0.000    0.000    0.000    0.000    0.000 
#
# Total GULP energy -178450.408066 kJ/mol
# GULP energy per Si atom -5576.575252 kJ/mol
# Density = 2.320017 g / cm^3
# Si number density = 23.253096 Si / 1000 Ang^3
#
#
#
# Elastic Constant Matrix: (Units=GPa)
#
#
# Indices 1 2 3 4 5 6 
#
# 1 99.9336 21.4708 27.1830 0.0000 0.0000 0.0000
# 2 21.4708 64.8077 11.6692 0.0000 0.0000 0.0000
# 3 27.1830 11.6692 88.6825 0.0000 0.0000 0.0000
# 4 0.0000 0.0000 0.0000 23.5363 0.0000 0.0000
# 5 0.0000 0.0000 0.0000 0.0000 31.3833 0.0000
# 6 0.0000 0.0000 0.0000 0.0000 0.0000 31.8632
#
#
#
# Elastic Compliance Matrix: (Units=1/GPa)
#
#
# Indices 1 2 3 4 5 6 
#
# 1 0.011555 -0.003268 -0.003112 0.000000 0.000000 0.000000
# 2 -0.003268 0.016729 -0.001200 0.000000 0.000000 0.000000
# 3 -0.003112 -0.001200 0.012388 0.000000 0.000000 0.000000
# 4 0.000000 0.000000 0.000000 0.042488 0.000000 0.000000
# 5 0.000000 0.000000 0.000000 0.000000 0.031864 0.000000
# 6 0.000000 0.000000 0.000000 0.000000 0.000000 0.031384
#
#
# Mechanical properties :
#
#
# Convention : Reuss Voigt Hill
#
# Bulk Modulus (GPa) = 39.19534 41.56331 40.37932
# Shear Modulus (GPa) = 29.39946 30.22994 29.81470
#
# Velocity S-wave (km/s) = 3.55959 3.60952 3.58464
# Velocity P-wave (km/s) = 5.81264 5.94008 5.87671
#
# Compressibility (1/GPa) = 0.02551324
#
# Stress axis : x y z
#
# Youngs Moduli (GPa) = 86.54082 59.77667 80.72397
#
# Poissons Ratio (x) = 0.19535 0.25121
# Poissons Ratio (y) = 0.28281 0.09683
# Poissons Ratio (z) = 0.26931 0.07171
#
# Static dielectric constant tensor:
#      x y z
#    x 1.865910 0.000000 0.000000 
#    y 0.000000 1.946310 0.000000 
#    z 0.000000 0.000000 1.939670 
# 
# From -- ./inp_files/2509.got.cif
#   From: 2010.05.17/outbox.cif.g08.bks.cpg/sg19_2_cif.got.tgz:2509.got - 2010.06.03 22:46:19.
