data_PCOD9314651
_publ_section_title
;
Structure prediction by ZEFSAII (Michael W. Deem and Ramdas Pophale) SiO2 
 PCOD9314651
Probable space group: P 21 21 21
;
_chemical_formula_sum "Si O2"
_cell_formula_units_Z 20
_cell_length_a 17.254374
_cell_length_b 7.620360
_cell_length_c 7.152197
_cell_angle_alpha 90.000000
_cell_angle_beta 90.000000
_cell_angle_gamma 90.000000
_cell_volume 940.403343
_symmetry_space_group_name_H-M "P 21 21 21"
_symmetry_group_IT_number 19
_symmetry_cell_setting 'orthorhombic'
loop_
_space_group_symop_operation_xyz
x,y,z
1/2-x,-y,1/2+z
1/2+x,1/2-y,-z
-x,1/2+y,1/2-z
loop_
_atom_site_type_symbol
_atom_site_label
_atom_site_fract_x
_atom_site_fract_y
_atom_site_fract_z
Si Si1 0.436857 0.118568 0.941100
Si Si2 0.838740 0.453335 0.689429
Si Si3 0.220680 0.743260 0.304560
Si Si4 0.418921 0.838749 0.648186
Si Si5 0.764638 0.843995 0.274180
O O1 0.370234 0.215003 0.817222
O O2 0.514224 0.230580 0.953518
O O3 0.454617 0.947586 0.818733
O O4 0.399454 0.076324 0.142352
O O5 0.772982 0.592275 0.758989
O O6 0.879720 0.537356 0.509180
O O7 0.793692 0.270332 0.645586
O O8 0.241715 0.721759 0.522050
O O9 0.242185 0.552900 0.226069
O O10 0.353199 0.717000 0.743900
#
# Coordination Sequence:
#
# PCOD9314651 Si02
#       5
#     4   4   4   4   4
#     4  11  24  43  67 100 138 177 223 286 346 393
#     4  10  24  46  66  96 140 182 224 276 340 412
#     4  10  22  39  68  98 126 179 228 270 336 406
#     4  11  24  43  67 100 138 177 223 286 346 393
#     4  10  22  39  68  98 126 179 228 270 336 406
#
# _framework density 21.267471
#
# number of rings (size 3 to 8) (size 9 to 14) (size 15 to 20)
#    0.000    1.600    2.000    1.200    5.600    1.600 
#   14.400    0.000    0.000    0.000    0.000    0.000 
#    0.000    0.000    0.000    0.000    0.000    0.000 
#
# Total GULP energy -111673.734771 kJ/mol
# GULP energy per Si atom -5583.686739 kJ/mol
# Density = 2.121907 g / cm^3
# Si number density = 21.267471 Si / 1000 Ang^3
#
#
#
# Elastic Constant Matrix: (Units=GPa)
#
#
# Indices 1 2 3 4 5 6 
#
# 1 86.0988 27.2818 15.4299 0.0000 0.0000 0.0000
# 2 27.2818 112.7211 16.9881 0.0000 0.0000 0.0000
# 3 15.4299 16.9881 41.2071 0.0000 0.0000 0.0000
# 4 0.0000 0.0000 0.0000 37.4703 0.0000 0.0000
# 5 0.0000 0.0000 0.0000 0.0000 29.1641 0.0000
# 6 0.0000 0.0000 0.0000 0.0000 0.0000 40.7622
#
#
#
# Elastic Compliance Matrix: (Units=1/GPa)
#
#
# Indices 1 2 3 4 5 6 
#
# 1 0.013127 -0.002598 -0.003844 0.000000 0.000000 0.000000
# 2 -0.002598 0.009973 -0.003139 0.000000 0.000000 0.000000
# 3 -0.003844 -0.003139 0.027001 0.000000 0.000000 0.000000
# 4 0.000000 0.000000 0.000000 0.026688 0.000000 0.000000
# 5 0.000000 0.000000 0.000000 0.000000 0.034289 0.000000
# 6 0.000000 0.000000 0.000000 0.000000 0.000000 0.024533
#
#
# Mechanical properties :
#
#
# Convention : Reuss Voigt Hill
#
# Bulk Modulus (GPa) = 32.32135 39.93629 36.12882
# Shear Modulus (GPa) = 30.28746 33.50115 31.89430
#
# Velocity S-wave (km/s) = 3.77785 3.97322 3.87677
# Velocity P-wave (km/s) = 5.85321 6.31407 6.08800
#
# Compressibility (1/GPa) = 0.03093931
#
# Stress axis : x y z
#
# Youngs Moduli (GPa) = 76.18112 100.26856 37.03541
#
# Poissons Ratio (x) = 0.26046 0.14238
# Poissons Ratio (y) = 0.19789 0.11625
# Poissons Ratio (z) = 0.29286 0.31473
#
# Static dielectric constant tensor:
#      x y z
#    x 1.769830 0.000000 0.000000 
#    y 0.000000 1.833890 0.000000 
#    z 0.000000 0.000000 1.798650 
# 
# From -- ./inp_files/328.got.cif
#   From: 2010.05.17/outbox.cif.g08.bks.cpg/sg19_1_cif.got.tgz:328.got - 2010.06.03 22:46:19.
