data_PCOD9314755
_publ_section_title
;
Structure prediction by ZEFSAII (Michael W. Deem and Ramdas Pophale) SiO2 
 PCOD9314755
Probable space group: P 21 21 21
;
_chemical_formula_sum "Si O2"
_cell_formula_units_Z 32
_cell_length_a 9.004197
_cell_length_b 11.560247
_cell_length_c 15.245264
_cell_angle_alpha 90.000000
_cell_angle_beta 90.000000
_cell_angle_gamma 90.000000
_cell_volume 1586.890832
_symmetry_space_group_name_H-M "P 21 21 21"
_symmetry_group_IT_number 19
_symmetry_cell_setting 'orthorhombic'
loop_
_space_group_symop_operation_xyz
x,y,z
1/2-x,-y,1/2+z
1/2+x,1/2-y,-z
-x,1/2+y,1/2-z
loop_
_atom_site_type_symbol
_atom_site_label
_atom_site_fract_x
_atom_site_fract_y
_atom_site_fract_z
Si Si1 0.991084 0.509486 0.580474
Si Si2 0.221421 0.836704 0.369995
Si Si3 0.182097 0.350669 0.340829
Si Si4 0.743347 0.982781 0.809315
Si Si5 0.638009 0.738845 0.809945
Si Si6 0.738081 0.677604 0.006649
Si Si7 0.282300 0.422630 0.936774
Si Si8 0.004568 0.500494 0.033021
O O1 0.877699 0.602742 0.616076
O O2 0.893667 0.412115 0.531177
O O3 0.091727 0.456122 0.656552
O O4 0.113925 0.573930 0.522115
O O5 0.180717 0.849626 0.267376
O O6 0.223141 0.705415 0.401193
O O7 0.105802 0.901945 0.433074
O O8 0.249822 0.400538 0.249516
O O9 0.263575 0.278896 0.418996
O O10 0.141506 0.475109 0.381428
O O11 0.038190 0.274509 0.320221
O O12 0.686664 0.861858 0.770445
O O13 0.622976 0.989644 0.887831
O O14 0.709960 0.720058 0.906663
O O15 0.896932 0.610127 0.014033
O O16 0.112934 0.465167 0.953755
#
# Coordination Sequence:
#
# PCOD9314755 Si02
#       8
#     4   4   4   4   4   4   4   4
#     4  10  24  43  66 100 130 175 224 282 331 397
#     4  11  23  42  66  95 139 173 223 276 333 406
#     4  12  24  41  68  99 130 175 224 277 336 400
#     4  11  23  42  66  95 133 169 219 278 339 396
#     4  12  24  42  67  98 133 177 223 281 335 400
#     4  11  24  42  69  98 132 172 230 277 331 402
#     4  11  22  41  66  95 134 175 224 270 340 399
#     4  10  22  41  68  94 129 178 221 273 335 400
#
# _framework density 20.165216999999998
#
# number of rings (size 3 to 8) (size 9 to 14) (size 15 to 20)
#    0.000    1.000    5.000    2.250    0.000    2.000 
#    0.000    0.000    8.250    0.000    0.000    0.000 
#    0.000    0.000    0.000    0.000    0.000    0.000 
#
# Total GULP energy -178240.503912 kJ/mol
# GULP energy per Si atom -5570.015747 kJ/mol
# Density = 2.011932 g / cm^3
# Si number density = 20.165217 Si / 1000 Ang^3
#
#
#
# Elastic Constant Matrix: (Units=GPa)
#
#
# Indices 1 2 3 4 5 6 
#
# 1 77.6969 7.9708 5.9148 0.0000 0.0000 0.0000
# 2 7.9708 81.6904 18.9354 0.0000 0.0000 0.0000
# 3 5.9148 18.9354 59.1744 0.0000 0.0000 0.0000
# 4 0.0000 0.0000 0.0000 33.6594 0.0000 0.0000
# 5 0.0000 0.0000 0.0000 0.0000 2.1267 0.0000
# 6 0.0000 0.0000 0.0000 0.0000 0.0000 19.5144
#
#
#
# Elastic Compliance Matrix: (Units=1/GPa)
#
#
# Indices 1 2 3 4 5 6 
#
# 1 0.013052 -0.001049 -0.000969 0.000000 0.000000 0.000000
# 2 -0.001049 0.013306 -0.004153 0.000000 0.000000 0.000000
# 3 -0.000969 -0.004153 0.018325 0.000000 0.000000 0.000000
# 4 0.000000 0.000000 0.000000 0.029709 0.000000 0.000000
# 5 0.000000 0.000000 0.000000 0.000000 0.470203 0.000000
# 6 0.000000 0.000000 0.000000 0.000000 0.000000 0.051244
#
#
# Mechanical properties :
#
#
# Convention : Reuss Voigt Hill
#
# Bulk Modulus (GPa) = 30.92020 31.57819 31.24919
# Shear Modulus (GPa) = 8.07803 23.44281 15.76042
#
# Velocity S-wave (km/s) = 2.00365 3.41330 2.79868
# Velocity P-wave (km/s) = 4.55187 5.58819 5.09644
#
# Compressibility (1/GPa) = 0.03234132
#
# Stress axis : x y z
#
# Youngs Moduli (GPa) = 76.61721 75.15205 54.57018
#
# Poissons Ratio (x) = 0.07883 0.05288
# Poissons Ratio (y) = 0.08036 0.22664
# Poissons Ratio (z) = 0.07424 0.31211
#
# Static dielectric constant tensor:
#      x y z
#    x 1.700350 0.000000 0.000000 
#    y 0.000000 1.723740 0.000000 
#    z 0.000000 0.000000 1.846800 
# 
# From -- ./inp_files/5278.got.cif
#   From: 2010.05.17/outbox.cif.g08.bks.cpg/sg19_3_cif.got.tgz:5278.got - 2010.06.03 22:46:19.
