data_PCOD9314973
_publ_section_title
;
Structure prediction by ZEFSAII (Michael W. Deem and Ramdas Pophale) SiO2 
 PCOD9314973
Probable space group: P 21 21 21
;
_chemical_formula_sum "Si O2"
_cell_formula_units_Z 24
_cell_length_a 11.556692
_cell_length_b 10.294155
_cell_length_c 8.487988
_cell_angle_alpha 90.000000
_cell_angle_beta 90.000000
_cell_angle_gamma 90.000000
_cell_volume 1009.785195
_symmetry_space_group_name_H-M "P 21 21 21"
_symmetry_group_IT_number 19
_symmetry_cell_setting 'orthorhombic'
loop_
_space_group_symop_operation_xyz
x,y,z
1/2-x,-y,1/2+z
1/2+x,1/2-y,-z
-x,1/2+y,1/2-z
loop_
_atom_site_type_symbol
_atom_site_label
_atom_site_fract_x
_atom_site_fract_y
_atom_site_fract_z
Si Si1 0.401064 0.628396 0.151112
Si Si2 0.766223 0.894215 0.258103
Si Si3 0.734362 0.679383 0.005881
Si Si4 0.462785 0.689005 0.503868
Si Si5 0.472099 0.460623 0.923454
Si Si6 0.149129 0.963658 0.303401
O O1 0.314373 0.503894 0.162919
O O2 0.352726 0.751220 0.057085
O O3 0.428175 0.659456 0.327863
O O4 0.506297 0.570883 0.049822
O O5 0.846610 0.822911 0.388767
O O6 0.702408 0.792728 0.137239
O O7 0.860263 0.980323 0.161001
O O8 0.682494 0.642990 0.830998
O O9 0.757177 0.546276 0.101673
O O10 0.532852 0.822941 0.497915
O O11 0.558389 0.593574 0.573736
O O12 0.571476 0.437858 0.796509
#
# Coordination Sequence:
#
# PCOD9314973 Si02
#       6
#     4   4   4   4   4   4
#     4  11  25  41  72 100 138 179 232 282 351 417
#     4  10  22  47  69  99 134 185 227 282 343 416
#     4  11  25  45  68  98 142 178 235 277 353 414
#     4  11  23  42  70  99 138 173 234 284 346 410
#     4  10  23  43  64  99 132 176 229 276 341 399
#     4  11  26  42  69  99 136 183 219 293 340 410
#
# _framework density 23.767430999999998
#
# number of rings (size 3 to 8) (size 9 to 14) (size 15 to 20)
#    0.000    1.333    1.667    3.000    4.667    4.000 
#    0.000    0.000    0.000    0.000    0.000    0.000 
#    0.000    0.000    0.000    0.000    0.000    0.000 
#
# Total GULP energy -133783.090940 kJ/mol
# GULP energy per Si atom -5574.295456 kJ/mol
# Density = 2.371334 g / cm^3
# Si number density = 23.767431 Si / 1000 Ang^3
#
#
#
# Elastic Constant Matrix: (Units=GPa)
#
#
# Indices 1 2 3 4 5 6 
#
# 1 21.7361 -10.4529 -5.6064 0.0000 0.0000 0.0000
# 2 -10.4529 49.7440 4.2006 0.0000 0.0000 0.0000
# 3 -5.6064 4.2006 117.7462 0.0000 0.0000 0.0000
# 4 0.0000 0.0000 0.0000 52.3853 0.0000 0.0000
# 5 0.0000 0.0000 0.0000 0.0000 3.3620 0.0000
# 6 0.0000 0.0000 0.0000 0.0000 0.0000 113.7586
#
#
#
# Elastic Compliance Matrix: (Units=1/GPa)
#
#
# Indices 1 2 3 4 5 6 
#
# 1 0.051681 0.010684 0.002080 0.000000 0.000000 0.000000
# 2 0.010684 0.022372 -0.000289 0.000000 0.000000 0.000000
# 3 0.002080 -0.000289 0.008602 0.000000 0.000000 0.000000
# 4 0.000000 0.000000 0.000000 0.019089 0.000000 0.000000
# 5 0.000000 0.000000 0.000000 0.000000 0.297439 0.000000
# 6 0.000000 0.000000 0.000000 0.000000 0.000000 0.008791
#
#
# Mechanical properties :
#
#
# Convention : Reuss Voigt Hill
#
# Bulk Modulus (GPa) = 9.29329 18.38989 13.84159
# Shear Modulus (GPa) = 11.93621 47.30683 29.62152
#
# Velocity S-wave (km/s) = 2.24343 4.46624 3.53414
# Velocity P-wave (km/s) = 3.26025 5.86094 4.74235
#
# Compressibility (1/GPa) = 0.10760452
#
# Stress axis : x y z
#
# Youngs Moduli (GPa) = 19.34949 44.69775 116.24953
#
# Poissons Ratio (x) = -0.47756 -0.24175
# Poissons Ratio (y) = -0.20674 0.03365
# Poissons Ratio (z) = -0.04024 0.01294
#
# Static dielectric constant tensor:
#      x y z
#    x 1.847820 0.000000 0.000000 
#    y 0.000000 2.070960 0.000000 
#    z 0.000000 0.000000 1.686500 
# 
# From -- ./inp_files/3318.got.cif
#   From: 2010.05.17/outbox.cif.g08.bks.cpg/sg19_2_cif.got.tgz:3318.got - 2010.06.03 22:46:19.
