data_PCOD9314182
_publ_section_title
;
Structure prediction by ZEFSAII (Michael W. Deem and Ramdas Pophale) SiO2 
 PCOD9314182
Probable space group: P 21 21 21
;
_chemical_formula_sum "Si O2"
_cell_formula_units_Z 28
_cell_length_a 10.602414
_cell_length_b 4.974239
_cell_length_c 21.924616
_cell_angle_alpha 90.000000
_cell_angle_beta 90.000000
_cell_angle_gamma 90.000000
_cell_volume 1156.281034
_symmetry_space_group_name_H-M "P 21 21 21"
_symmetry_group_IT_number 19
_symmetry_cell_setting 'orthorhombic'
loop_
_space_group_symop_operation_xyz
x,y,z
1/2-x,-y,1/2+z
1/2+x,1/2-y,-z
-x,1/2+y,1/2-z
loop_
_atom_site_type_symbol
_atom_site_label
_atom_site_fract_x
_atom_site_fract_y
_atom_site_fract_z
Si Si1 0.105052 0.483316 0.068598
Si Si2 0.816506 0.074803 0.564313
Si Si3 0.114703 0.725098 0.192785
Si Si4 0.830202 0.726585 0.229753
Si Si5 0.050339 0.488749 0.451686
Si Si6 0.470981 0.915855 0.414743
Si Si7 0.958478 0.368719 0.711922
O O1 0.162770 0.615753 0.128373
O O2 0.988192 0.678174 0.051162
O O3 0.054470 0.182993 0.077373
O O4 0.184641 0.500323 0.007283
O O5 0.921668 0.886044 0.594107
O O6 0.679084 0.989732 0.585315
O O7 0.853834 0.384523 0.569384
O O8 0.151119 0.022447 0.213279
O O9 0.961219 0.690672 0.192504
O O10 0.166652 0.528591 0.245104
O O11 0.692788 0.667419 0.202069
O O12 0.051194 0.571415 0.523236
O O13 0.520289 0.030158 0.351166
O O14 0.016978 0.096394 0.737632
#
# Coordination Sequence:
#
# PCOD9314182 Si02
#       7
#     4   4   4   4   4   4   4
#     4  10  21  37  58  91 119 152 204 244 303 370
#     4  10  21  37  61  89 119 156 193 243 310 360
#     4  10  21  41  61  92 122 155 207 257 312 351
#     4  10  23  39  62  90 122 161 205 256 302 359
#     4  10  21  36  60  91 122 157 194 244 307 369
#     4  10  23  42  58  91 122 154 205 248 293 363
#     4  12  26  44  64  92 124 171 214 248 307 370
#
# _framework density 24.215567
#
# number of rings (size 3 to 8) (size 9 to 14) (size 15 to 20)
#    0.000    1.714    0.000    3.429    4.000    2.286 
#    0.000    0.000    0.000    0.000    0.000    0.000 
#    0.000    0.000    0.000    0.000    0.000    0.000 
#
# Total GULP energy -156537.550055 kJ/mol
# GULP energy per Si atom -5590.626788 kJ/mol
# Density = 2.416045 g / cm^3
# Si number density = 24.215567 Si / 1000 Ang^3
#
#
#
# Elastic Constant Matrix: (Units=GPa)
#
#
# Indices 1 2 3 4 5 6 
#
# 1 49.4359 -2.6688 -7.1351 0.0000 0.0000 0.0000
# 2 -2.6688 70.2747 -13.0931 0.0000 0.0000 0.0000
# 3 -7.1351 -13.0931 62.9871 0.0000 0.0000 0.0000
# 4 0.0000 0.0000 0.0000 28.9781 0.0000 0.0000
# 5 0.0000 0.0000 0.0000 0.0000 6.7647 0.0000
# 6 0.0000 0.0000 0.0000 0.0000 0.0000 -62.4708
#
#
#
# Elastic Compliance Matrix: (Units=1/GPa)
#
#
# Indices 1 2 3 4 5 6 
#
# 1 0.020673 0.001271 0.002606 0.000000 0.000000 0.000000
# 2 0.001271 0.014881 0.003237 0.000000 0.000000 0.000000
# 3 0.002606 0.003237 0.016844 0.000000 0.000000 0.000000
# 4 0.000000 0.000000 0.000000 0.034509 0.000000 0.000000
# 5 0.000000 0.000000 0.000000 0.000000 0.147826 0.000000
# 6 0.000000 0.000000 0.000000 0.000000 0.000000 -0.016007
#
#
# Mechanical properties :
#
#
# Convention : Reuss Voigt Hill
#
# Bulk Modulus (GPa) = 15.00910 15.21152 15.11031
# Shear Modulus (GPa) = 22.05489 8.36072 15.20780
#
# Velocity S-wave (km/s) = 3.02118 1.86014 2.50875
# Velocity P-wave (km/s) = 4.28737 3.30285 3.82691
#
# Compressibility (1/GPa) = 0.06662626
#
# Stress axis : x y z
#
# Youngs Moduli (GPa) = 48.37246 67.19854 59.36692
#
# Poissons Ratio (x) = -0.08538 -0.15471
# Poissons Ratio (y) = -0.06146 -0.19219
# Poissons Ratio (z) = -0.12605 -0.21754
#
# Static dielectric constant tensor:
#      x y z
#    x 1.955460 0.000000 0.000000 
#    y 0.000000 1.818500 0.000000 
#    z 0.000000 0.000000 1.973500 
# 
# From -- ./inp_files/7341.got.cif
#   From: 2010.05.17/outbox.cif.g08.bks.cpg/sg19_4_cif.got.tgz:7341.got - 2010.06.03 22:46:19.
