data_PCOD9314621
_publ_section_title
;
Structure prediction by ZEFSAII (Michael W. Deem and Ramdas Pophale) SiO2 
 PCOD9314621
Probable space group: P 21 21 21
;
_chemical_formula_sum "Si O2"
_cell_formula_units_Z 24
_cell_length_a 10.756914
_cell_length_b 11.666643
_cell_length_c 6.771074
_cell_angle_alpha 90.000000
_cell_angle_beta 90.000000
_cell_angle_gamma 90.000000
_cell_volume 849.749984
_symmetry_space_group_name_H-M "P 21 21 21"
_symmetry_group_IT_number 19
_symmetry_cell_setting 'orthorhombic'
loop_
_space_group_symop_operation_xyz
x,y,z
1/2-x,-y,1/2+z
1/2+x,1/2-y,-z
-x,1/2+y,1/2-z
loop_
_atom_site_type_symbol
_atom_site_label
_atom_site_fract_x
_atom_site_fract_y
_atom_site_fract_z
Si Si1 0.750602 0.259344 0.831788
Si Si2 0.487064 0.231160 0.834878
Si Si3 0.854735 0.031738 0.735530
Si Si4 0.924215 0.025406 0.288469
Si Si5 0.106845 0.968850 0.794223
Si Si6 0.746716 0.336516 0.396229
O O1 0.625108 0.234384 0.950154
O O2 0.843165 0.152391 0.847342
O O3 0.841180 0.369279 0.854084
O O4 0.712070 0.262419 0.593547
O O5 0.500667 0.368215 0.790491
O O6 0.340497 0.226407 0.752922
O O7 0.512371 0.098123 0.771488
O O8 0.907899 0.050582 0.519555
O O9 0.716903 0.985128 0.713792
O O10 0.960825 0.954423 0.831700
O O11 0.139379 0.094291 0.714643
O O12 0.181756 0.939686 0.989924
#
# Coordination Sequence:
#
# PCOD9314621 Si02
#       6
#     4   4   4   4   4   4
#     4   9  22  40  66  93 131 178 226 270 356 407
#     4  11  22  44  71  97 134 186 227 282 343 415
#     4  11  24  45  69  98 139 178 235 282 346 412
#     4  11  25  45  72  99 139 184 231 286 346 406
#     4  10  23  40  66  99 128 179 227 284 330 421
#     4  10  22  38  70  88 133 177 228 270 355 395
#
# _framework density 28.243604000000001
#
# number of rings (size 3 to 8) (size 9 to 14) (size 15 to 20)
#    1.000    0.667    1.667    2.000    7.000    1.333 
#    6.000    3.333    0.000    0.000    0.000    0.000 
#    0.000    0.000    0.000    0.000    0.000    0.000 
#
# Total GULP energy -133618.396109 kJ/mol
# GULP energy per Si atom -5567.433171 kJ/mol
# Density = 2.817932 g / cm^3
# Si number density = 28.243604 Si / 1000 Ang^3
#
#
#
# Elastic Constant Matrix: (Units=GPa)
#
#
# Indices 1 2 3 4 5 6 
#
# 1 116.1991 12.6051 -2.3766 0.0000 0.0000 0.0000
# 2 12.6051 155.6257 8.0036 0.0000 0.0000 0.0000
# 3 -2.3766 8.0036 83.6837 0.0000 0.0000 0.0000
# 4 0.0000 0.0000 0.0000 28.4435 0.0000 0.0000
# 5 0.0000 0.0000 0.0000 0.0000 29.9343 0.0000
# 6 0.0000 0.0000 0.0000 0.0000 0.0000 55.8711
#
#
#
# Elastic Compliance Matrix: (Units=1/GPa)
#
#
# Indices 1 2 3 4 5 6 
#
# 1 0.008690 -0.000720 0.000316 0.000000 0.000000 0.000000
# 2 -0.000720 0.006517 -0.000644 0.000000 0.000000 0.000000
# 3 0.000316 -0.000644 0.012020 0.000000 0.000000 0.000000
# 4 0.000000 0.000000 0.000000 0.035157 0.000000 0.000000
# 5 0.000000 0.000000 0.000000 0.000000 0.033406 0.000000
# 6 0.000000 0.000000 0.000000 0.000000 0.000000 0.017898
#
#
# Mechanical properties :
#
#
# Convention : Reuss Voigt Hill
#
# Bulk Modulus (GPa) = 39.79074 43.55254 41.67164
# Shear Modulus (GPa) = 40.26941 45.33487 42.80214
#
# Velocity S-wave (km/s) = 3.78006 4.01076 3.89712
# Velocity P-wave (km/s) = 5.75941 6.07471 5.91916
#
# Compressibility (1/GPa) = 0.02513147
#
# Stress axis : x y z
#
# Youngs Moduli (GPa) = 115.06824 153.44223 83.19268
#
# Poissons Ratio (x) = 0.11050 -0.02626
# Poissons Ratio (y) = 0.08286 0.05356
# Poissons Ratio (z) = -0.03632 0.09878
#
# Static dielectric constant tensor:
#      x y z
#    x 2.355070 0.000000 0.000000 
#    y 0.000000 2.204320 0.000000 
#    z 0.000000 0.000000 2.521780 
# 
# From -- ./inp_files/3394.got.cif
#   From: 2010.05.17/outbox.cif.g08.bks.cpg/sg19_2_cif.got.tgz:3394.got - 2010.06.03 22:46:19.
