data_PCOD9314982
_publ_section_title
;
Structure prediction by ZEFSAII (Michael W. Deem and Ramdas Pophale) SiO2 
 PCOD9314982
Probable space group: P 21 21 21
;
_chemical_formula_sum "Si O2"
_cell_formula_units_Z 32
_cell_length_a 9.220267
_cell_length_b 7.542330
_cell_length_c 19.197733
_cell_angle_alpha 90.000000
_cell_angle_beta 90.000000
_cell_angle_gamma 90.000000
_cell_volume 1335.054439
_symmetry_space_group_name_H-M "P 21 21 21"
_symmetry_group_IT_number 19
_symmetry_cell_setting 'orthorhombic'
loop_
_space_group_symop_operation_xyz
x,y,z
1/2-x,-y,1/2+z
1/2+x,1/2-y,-z
-x,1/2+y,1/2-z
loop_
_atom_site_type_symbol
_atom_site_label
_atom_site_fract_x
_atom_site_fract_y
_atom_site_fract_z
Si Si1 0.776828 0.727360 0.327572
Si Si2 0.406413 0.262846 0.049201
Si Si3 0.164951 0.310253 0.849406
Si Si4 0.777631 0.839358 0.936647
Si Si5 0.242841 0.927111 0.821688
Si Si6 0.052638 0.631602 0.400200
Si Si7 0.903750 0.906627 0.804435
Si Si8 0.045015 0.237579 0.435015
O O1 0.704917 0.662489 0.400151
O O2 0.767984 0.611055 0.259060
O O3 0.945130 0.731753 0.348230
O O4 0.685381 0.906339 0.307818
O O5 0.557574 0.222955 0.087050
O O6 0.354530 0.467847 0.055985
O O7 0.416954 0.243176 0.966896
O O8 0.293763 0.438720 0.869940
O O9 0.089914 0.356788 0.776748
O O10 0.255068 0.133307 0.836245
O O11 0.814026 0.782798 0.857368
O O12 0.606521 0.863549 0.945046
O O13 0.853504 0.726131 0.996672
O O14 0.357065 0.827984 0.870696
O O15 0.068854 0.897897 0.832506
O O16 0.990171 0.441423 0.424900
#
# Coordination Sequence:
#
# PCOD9314982 Si02
#       8
#     4   4   4   4   4   4   4   4
#     4  11  24  45  71 102 144 189 238 298 355 433
#     4  10  22  49  69 103 140 188 239 292 358 422
#     4  12  25  43  74 104 141 190 235 299 361 428
#     4  10  23  44  74 101 146 182 241 292 358 429
#     4  12  24  43  73 103 143 185 240 295 363 431
#     4  11  27  44  70 105 146 185 242 296 359 432
#     4  11  23  47  71 100 144 187 242 293 360 434
#     4  11  26  47  72 108 142 194 235 301 364 431
#
# _framework density 23.969062000000001
#
# number of rings (size 3 to 8) (size 9 to 14) (size 15 to 20)
#    0.000    1.000    3.750    2.250    8.750    0.000 
#    0.000    0.000    0.000    0.000    0.000    0.000 
#    0.000    0.000    0.000    0.000    0.000    0.000 
#
# Total GULP energy -178673.811045 kJ/mol
# GULP energy per Si atom -5583.556595 kJ/mol
# Density = 2.391451 g / cm^3
# Si number density = 23.969062 Si / 1000 Ang^3
#
#
#
# Elastic Constant Matrix: (Units=GPa)
#
#
# Indices 1 2 3 4 5 6 
#
# 1 173.6746 10.3505 33.4183 0.0000 0.0000 0.0000
# 2 10.3505 26.0638 -5.4748 0.0000 0.0000 0.0000
# 3 33.4183 -5.4748 88.5595 0.0000 0.0000 0.0000
# 4 0.0000 0.0000 0.0000 14.8397 0.0000 0.0000
# 5 0.0000 0.0000 0.0000 0.0000 41.3293 0.0000
# 6 0.0000 0.0000 0.0000 0.0000 0.0000 18.7238
#
#
#
# Elastic Compliance Matrix: (Units=1/GPa)
#
#
# Indices 1 2 3 4 5 6 
#
# 1 0.006449 -0.003112 -0.002626 0.000000 0.000000 0.000000
# 2 -0.003112 0.040374 0.003670 0.000000 0.000000 0.000000
# 3 -0.002626 0.003670 0.012510 0.000000 0.000000 0.000000
# 4 0.000000 0.000000 0.000000 0.067387 0.000000 0.000000
# 5 0.000000 0.000000 0.000000 0.000000 0.024196 0.000000
# 6 0.000000 0.000000 0.000000 0.000000 0.000000 0.053408
#
#
# Mechanical properties :
#
#
# Convention : Reuss Voigt Hill
#
# Bulk Modulus (GPa) = 18.11693 40.54288 29.32991
# Shear Modulus (GPa) = 22.04022 31.64548 26.84285
#
# Velocity S-wave (km/s) = 3.03566 3.63749 3.35011
# Velocity P-wave (km/s) = 4.45666 5.88159 5.21800
#
# Compressibility (1/GPa) = 0.05519698
#
# Stress axis : x y z
#
# Youngs Moduli (GPa) = 155.07116 24.76819 79.93841
#
# Poissons Ratio (x) = 0.07709 0.20991
# Poissons Ratio (y) = 0.48265 -0.29341
# Poissons Ratio (z) = 0.40719 -0.09091
#
# Static dielectric constant tensor:
#      x y z
#    x 2.003450 0.000000 0.000000 
#    y 0.000000 2.037600 0.000000 
#    z 0.000000 0.000000 1.972820 
# 
# From -- ./inp_files/7039.got.cif
#   From: 2010.05.17/outbox.cif.g08.bks.cpg/sg19_4_cif.got.tgz:7039.got - 2010.06.03 22:46:19.
