data_PCOD9314718
_publ_section_title
;
Structure prediction by ZEFSAII (Michael W. Deem and Ramdas Pophale) SiO2 
 PCOD9314718
Probable space group: P 21 21 21
;
_chemical_formula_sum "Si O2"
_cell_formula_units_Z 32
_cell_length_a 5.251592
_cell_length_b 8.650613
_cell_length_c 26.684618
_cell_angle_alpha 90.000000
_cell_angle_beta 90.000000
_cell_angle_gamma 90.000000
_cell_volume 1212.268587
_symmetry_space_group_name_H-M "P 21 21 21"
_symmetry_group_IT_number 19
_symmetry_cell_setting 'orthorhombic'
loop_
_space_group_symop_operation_xyz
x,y,z
1/2-x,-y,1/2+z
1/2+x,1/2-y,-z
-x,1/2+y,1/2-z
loop_
_atom_site_type_symbol
_atom_site_label
_atom_site_fract_x
_atom_site_fract_y
_atom_site_fract_z
Si Si1 0.273861 0.548612 0.784676
Si Si2 0.546154 0.166187 0.296065
Si Si3 0.303271 0.940423 0.032564
Si Si4 0.319511 0.760807 0.571896
Si Si5 0.847475 0.402653 0.208009
Si Si6 0.177566 0.333603 0.869163
Si Si7 0.808311 0.770583 0.066471
Si Si8 0.364220 0.460357 0.621495
O O1 0.517668 0.630030 0.760788
O O2 0.285077 0.483905 0.840510
O O3 0.225606 0.411447 0.745422
O O4 0.036222 0.662037 0.783806
O O5 0.293551 0.064624 0.289176
O O6 0.652283 0.144631 0.352156
O O7 0.053395 0.880475 0.061094
O O8 0.557412 0.877951 0.061140
O O9 0.258329 0.125796 0.025870
O O10 0.298704 0.846191 0.980925
O O11 0.283609 0.573468 0.575418
O O12 0.611318 0.786882 0.589521
O O13 0.107656 0.832598 0.609942
O O14 0.069413 0.420895 0.166039
O O15 0.667924 0.289932 0.176294
O O16 0.896596 0.649247 0.109187
#
# Coordination Sequence:
#
# PCOD9314718 Si02
#       8
#     4   4   4   4   4   4   4   4
#     4  11  25  38  64  91 130 178 231 274 344 396
#     4  11  23  42  63  93 133 178 231 285 337 404
#     4  10  23  45  69 104 138 180 224 284 344 423
#     4  11  24  44  69  99 140 173 226 282 344 406
#     4  10  22  41  61  89 134 171 230 281 337 393
#     4  11  24  42  64  96 132 177 221 284 334 402
#     4  10  23  44  73 101 141 178 228 280 348 419
#     4  10  24  42  67 101 134 181 227 292 342 413
#
# _framework density 26.396792000000001
#
# number of rings (size 3 to 8) (size 9 to 14) (size 15 to 20)
#    0.000    1.500    1.250    2.250    8.750    2.000 
#    0.000    6.250    0.000    0.000    0.000    0.000 
#    0.000    0.000    0.000    0.000    0.000    0.000 
#
# Total GULP energy -178738.206359 kJ/mol
# GULP energy per Si atom -5585.568949 kJ/mol
# Density = 2.633671 g / cm^3
# Si number density = 26.396792 Si / 1000 Ang^3
#
#
#
# Elastic Constant Matrix: (Units=GPa)
#
#
# Indices 1 2 3 4 5 6 
#
# 1 138.7878 20.3338 20.8648 0.0000 0.0000 0.0000
# 2 20.3338 92.6811 14.2089 0.0000 0.0000 0.0000
# 3 20.8648 14.2089 33.4825 0.0000 0.0000 0.0000
# 4 0.0000 0.0000 0.0000 35.5686 0.0000 0.0000
# 5 0.0000 0.0000 0.0000 0.0000 24.7463 0.0000
# 6 0.0000 0.0000 0.0000 0.0000 0.0000 46.8390
#
#
#
# Elastic Compliance Matrix: (Units=1/GPa)
#
#
# Indices 1 2 3 4 5 6 
#
# 1 0.008047 -0.001066 -0.004562 0.000000 0.000000 0.000000
# 2 -0.001066 0.011682 -0.004293 0.000000 0.000000 0.000000
# 3 -0.004562 -0.004293 0.034531 0.000000 0.000000 0.000000
# 4 0.000000 0.000000 0.000000 0.028115 0.000000 0.000000
# 5 0.000000 0.000000 0.000000 0.000000 0.040410 0.000000
# 6 0.000000 0.000000 0.000000 0.000000 0.000000 0.021350
#
#
# Mechanical properties :
#
#
# Convention : Reuss Voigt Hill
#
# Bulk Modulus (GPa) = 29.05504 41.75180 35.40342
# Shear Modulus (GPa) = 28.49814 35.40037 31.94925
#
# Velocity S-wave (km/s) = 3.28930 3.66606 3.48278
# Velocity P-wave (km/s) = 5.04549 5.81131 5.44189
#
# Compressibility (1/GPa) = 0.03441743
#
# Stress axis : x y z
#
# Youngs Moduli (GPa) = 124.26500 85.60366 28.95930
#
# Poissons Ratio (x) = 0.09126 0.13212
# Poissons Ratio (y) = 0.13248 0.12432
# Poissons Ratio (z) = 0.56694 0.36750
#
# Static dielectric constant tensor:
#      x y z
#    x 2.029370 0.000000 0.000000 
#    y 0.000000 2.170700 0.000000 
#    z 0.000000 0.000000 2.175440 
# 
# From -- ./inp_files/7554.got.cif
#   From: 2010.05.17/outbox.cif.g08.bks.cpg/sg19_4_cif.got.tgz:7554.got - 2010.06.03 22:46:19.
