data_PCOD9314628
_publ_section_title
;
Structure prediction by ZEFSAII (Michael W. Deem and Ramdas Pophale) SiO2 
 PCOD9314628
Probable space group: P 21 21 21
;
_chemical_formula_sum "Si O2"
_cell_formula_units_Z 20
_cell_length_a 7.549919
_cell_length_b 5.452684
_cell_length_c 17.299756
_cell_angle_alpha 90.000000
_cell_angle_beta 90.000000
_cell_angle_gamma 90.000000
_cell_volume 712.184635
_symmetry_space_group_name_H-M "P 21 21 21"
_symmetry_group_IT_number 19
_symmetry_cell_setting 'orthorhombic'
loop_
_space_group_symop_operation_xyz
x,y,z
1/2-x,-y,1/2+z
1/2+x,1/2-y,-z
-x,1/2+y,1/2-z
loop_
_atom_site_type_symbol
_atom_site_label
_atom_site_fract_x
_atom_site_fract_y
_atom_site_fract_z
Si Si1 0.111479 0.947670 0.163310
Si Si2 0.621840 0.374562 0.002472
Si Si3 0.742322 0.126051 0.464831
Si Si4 0.389330 0.010913 0.300838
Si Si5 0.718817 0.004328 0.195930
O O1 0.159662 0.700003 0.115435
O O2 0.266870 0.008323 0.222857
O O3 0.074223 0.462974 0.292128
O O4 0.087239 0.128643 0.091160
O O5 0.448707 0.494088 0.042131
O O6 0.660787 0.087510 0.013068
O O7 0.766078 0.600103 0.003497
O O8 0.588755 0.004983 0.270438
O O9 0.324166 0.765772 0.341565
O O10 0.348153 0.259425 0.344197
#
# Coordination Sequence:
#
# PCOD9314628 Si02
#       5
#     4   4   4   4   4
#     4  10  24  38  68  88 120 168 204 248 314 372
#     4  10  23  41  61  89 123 164 213 259 311 365
#     4  10  23  41  61  89 123 164 213 259 311 365
#     4  10  22  39  61  93 126 155 199 253 305 373
#     4  10  22  39  61  93 126 155 199 253 305 373
#
# _framework density 28.082605000000001
#
# number of rings (size 3 to 8) (size 9 to 14) (size 15 to 20)
#    1.200    0.800    0.000    2.400    5.600    1.600 
#    0.000    0.000    0.000    0.000    0.000    0.000 
#    0.000    0.000    0.000    0.000    0.000    0.000 
#
# Total GULP energy -111660.923744 kJ/mol
# GULP energy per Si atom -5583.046187 kJ/mol
# Density = 2.801869 g / cm^3
# Si number density = 28.082605 Si / 1000 Ang^3
#
#
#
# Elastic Constant Matrix: (Units=GPa)
#
#
# Indices 1 2 3 4 5 6 
#
# 1 124.2831 46.0128 4.9064 0.0000 0.0000 0.0000
# 2 46.0128 277.5366 8.2615 0.0000 0.0000 0.0000
# 3 4.9064 8.2615 59.2849 0.0000 0.0000 0.0000
# 4 0.0000 0.0000 0.0000 16.1353 0.0000 0.0000
# 5 0.0000 0.0000 0.0000 0.0000 16.9651 0.0000
# 6 0.0000 0.0000 0.0000 0.0000 0.0000 49.2675
#
#
#
# Elastic Compliance Matrix: (Units=1/GPa)
#
#
# Indices 1 2 3 4 5 6 
#
# 1 0.008588 -0.001408 -0.000514 0.000000 0.000000 0.000000
# 2 -0.001408 0.003849 -0.000420 0.000000 0.000000 0.000000
# 3 -0.000514 -0.000420 0.016969 0.000000 0.000000 0.000000
# 4 0.000000 0.000000 0.000000 0.061976 0.000000 0.000000
# 5 0.000000 0.000000 0.000000 0.000000 0.058945 0.000000
# 6 0.000000 0.000000 0.000000 0.000000 0.000000 0.020297
#
#
# Mechanical properties :
#
#
# Convention : Reuss Voigt Hill
#
# Bulk Modulus (GPa) = 40.45258 64.38511 52.41885
# Shear Modulus (GPa) = 27.24063 43.26851 35.25457
#
# Velocity S-wave (km/s) = 3.11789 3.92951 3.54699
# Velocity P-wave (km/s) = 5.23429 6.60037 5.95662
#
# Compressibility (1/GPa) = 0.02472030
#
# Stress axis : x y z
#
# Youngs Moduli (GPa) = 116.44278 259.79854 58.93178
#
# Poissons Ratio (x) = 0.36592 0.03032
# Poissons Ratio (y) = 0.16401 0.02474
# Poissons Ratio (z) = 0.05991 0.10907
#
# Static dielectric constant tensor:
#      x y z
#    x 2.146320 0.000000 0.000000 
#    y 0.000000 2.319690 0.000000 
#    z 0.000000 0.000000 2.219080 
# 
# From -- ./inp_files/400.got.cif
#   From: 2010.05.17/outbox.cif.g08.bks.cpg/sg19_1_cif.got.tgz:400.got - 2010.06.03 22:46:19.
