data_PCOD9314537
_publ_section_title
;
Structure prediction by ZEFSAII (Michael W. Deem and Ramdas Pophale) SiO2 
 PCOD9314537
Probable space group: P 21 21 21
;
_chemical_formula_sum "Si O2"
_cell_formula_units_Z 32
_cell_length_a 17.616570
_cell_length_b 5.338387
_cell_length_c 13.120814
_cell_angle_alpha 90.000000
_cell_angle_beta 90.000000
_cell_angle_gamma 90.000000
_cell_volume 1233.934728
_symmetry_space_group_name_H-M "P 21 21 21"
_symmetry_group_IT_number 19
_symmetry_cell_setting 'orthorhombic'
loop_
_space_group_symop_operation_xyz
x,y,z
1/2-x,-y,1/2+z
1/2+x,1/2-y,-z
-x,1/2+y,1/2-z
loop_
_atom_site_type_symbol
_atom_site_label
_atom_site_fract_x
_atom_site_fract_y
_atom_site_fract_z
Si Si1 0.041473 0.308144 0.896663
Si Si2 0.073395 0.209754 0.512052
Si Si3 0.208861 0.583409 0.370351
Si Si4 0.733541 0.421676 0.573220
Si Si5 0.269014 0.258450 0.091518
Si Si6 0.616954 0.996759 0.824221
Si Si7 0.098018 0.535284 0.702269
Si Si8 0.053054 0.020313 0.084540
O O1 0.094097 0.451200 0.817977
O O2 0.989898 0.500047 0.962326
O O3 0.982755 0.156052 0.826668
O O4 0.084328 0.128981 0.976312
O O5 0.141882 0.109472 0.442751
O O6 0.029784 0.431697 0.453291
O O7 0.103575 0.305142 0.621878
O O8 0.248348 0.848966 0.350580
O O9 0.192127 0.622093 0.490436
O O10 0.141660 0.549311 0.291614
O O11 0.258093 0.334306 0.377249
O O12 0.757335 0.495476 0.458077
O O13 0.195974 0.412160 0.124796
O O14 0.334639 0.275087 0.173781
O O15 0.562095 0.239224 0.840705
O O16 0.588227 0.734215 0.870009
#
# Coordination Sequence:
#
# PCOD9314537 Si02
#       8
#     4   4   4   4   4   4   4   4
#     4  11  21  39  69 108 143 178 227 298 359 427
#     4  11  20  42  70 100 136 177 223 294 356 408
#     4  10  23  44  70  98 132 181 232 288 344 408
#     4  10  21  43  72  98 131 174 232 287 347 403
#     4  10  25  42  72 101 137 189 237 283 345 427
#     4  12  26  48  69  97 146 188 236 289 347 425
#     4  11  21  38  69 107 140 182 227 289 355 421
#     4  11  27  44  67  99 145 183 226 292 357 405
#
# _framework density 25.933301
#
# number of rings (size 3 to 8) (size 9 to 14) (size 15 to 20)
#    0.750    0.500    5.000    0.750    3.500    1.000 
#    0.000    3.750    0.000    0.000    0.000    0.000 
#    0.000    0.000    0.000    0.000    0.000    0.000 
#
# Total GULP energy -178804.628126 kJ/mol
# GULP energy per Si atom -5587.644629 kJ/mol
# Density = 2.587428 g / cm^3
# Si number density = 25.933301 Si / 1000 Ang^3
#
#
#
# Elastic Constant Matrix: (Units=GPa)
#
#
# Indices 1 2 3 4 5 6 
#
# 1 92.4297 30.5330 47.8961 0.0000 0.0000 0.0000
# 2 30.5330 171.0634 29.6116 0.0000 0.0000 0.0000
# 3 47.8961 29.6116 107.6293 0.0000 0.0000 0.0000
# 4 0.0000 0.0000 0.0000 29.7931 0.0000 0.0000
# 5 0.0000 0.0000 0.0000 0.0000 31.7072 0.0000
# 6 0.0000 0.0000 0.0000 0.0000 0.0000 29.0111
#
#
#
# Elastic Compliance Matrix: (Units=1/GPa)
#
#
# Indices 1 2 3 4 5 6 
#
# 1 0.014437 -0.001538 -0.006001 0.000000 0.000000 0.000000
# 2 -0.001538 0.006302 -0.001049 0.000000 0.000000 0.000000
# 3 -0.006001 -0.001049 0.012251 0.000000 0.000000 0.000000
# 4 0.000000 0.000000 0.000000 0.033565 0.000000 0.000000
# 5 0.000000 0.000000 0.000000 0.000000 0.031539 0.000000
# 6 0.000000 0.000000 0.000000 0.000000 0.000000 0.034470
#
#
# Mechanical properties :
#
#
# Convention : Reuss Voigt Hill
#
# Bulk Modulus (GPa) = 63.24387 65.24487 64.24437
# Shear Modulus (GPa) = 32.25585 35.64108 33.94846
#
# Velocity S-wave (km/s) = 3.53058 3.71123 3.62203
# Velocity P-wave (km/s) = 6.40781 6.60133 6.50529
#
# Compressibility (1/GPa) = 0.01581181
#
# Stress axis : x y z
#
# Youngs Moduli (GPa) = 69.26665 158.68086 81.62883
#
# Poissons Ratio (x) = 0.24405 0.48989
# Poissons Ratio (y) = 0.10653 0.08566
# Poissons Ratio (z) = 0.41570 0.16652
#
# Static dielectric constant tensor:
#      x y z
#    x 2.032400 0.000000 0.000000 
#    y 0.000000 2.215060 0.000000 
#    z 0.000000 0.000000 2.013190 
# 
# From -- ./inp_files/6355.got.cif
#   From: 2010.05.17/outbox.cif.g08.bks.cpg/sg19_4_cif.got.tgz:6355.got - 2010.06.03 22:46:19.
