data_PCOD9314287
_publ_section_title
;
Structure prediction by ZEFSAII (Michael W. Deem and Ramdas Pophale) SiO2 
 PCOD9314287
Probable space group: P 21 21 21
;
_chemical_formula_sum "Si O2"
_cell_formula_units_Z 32
_cell_length_a 8.939106
_cell_length_b 5.076733
_cell_length_c 26.726257
_cell_angle_alpha 90.000000
_cell_angle_beta 90.000000
_cell_angle_gamma 90.000000
_cell_volume 1212.876414
_symmetry_space_group_name_H-M "P 21 21 21"
_symmetry_group_IT_number 19
_symmetry_cell_setting 'orthorhombic'
loop_
_space_group_symop_operation_xyz
x,y,z
1/2-x,-y,1/2+z
1/2+x,1/2-y,-z
-x,1/2+y,1/2-z
loop_
_atom_site_type_symbol
_atom_site_label
_atom_site_fract_x
_atom_site_fract_y
_atom_site_fract_z
Si Si1 0.699067 0.341652 0.935155
Si Si2 0.617378 0.254472 0.043850
Si Si3 0.419792 0.772583 0.028927
Si Si4 0.319707 0.470464 0.159190
Si Si5 0.436190 0.899118 0.273868
Si Si6 0.962262 0.286457 0.332268
Si Si7 0.403505 0.033155 0.919924
Si Si8 0.641777 0.359897 0.764230
O O1 0.760985 0.637317 0.946317
O O2 0.789771 0.204125 0.890002
O O3 0.527696 0.265405 0.922905
O O4 0.707890 0.217528 0.991208
O O5 0.499553 0.492563 0.035351
O O6 0.741411 0.337899 0.083176
O O7 0.532473 0.985327 0.053690
O O8 0.409212 0.860700 0.971048
O O9 0.493859 0.495636 0.173032
O O10 0.211489 0.722218 0.155797
O O11 0.252459 0.348212 0.210387
O O12 0.481110 0.596495 0.265410
O O13 0.262299 0.942754 0.261653
O O14 0.954658 0.585656 0.314983
O O15 0.057845 0.163808 0.375535
O O16 0.023964 0.182780 0.279400
#
# Coordination Sequence:
#
# PCOD9314287 Si02
#       8
#     4   4   4   4   4   4   4   4
#     4   9  21  40  66  94 126 175 219 272 327 410
#     4  10  22  43  65  97 133 172 213 279 333 398
#     4  10  22  43  66  94 135 171 220 273 334 399
#     4  10  21  40  60  90 122 169 219 264 326 391
#     4  10  21  39  61  85 121 165 207 266 316 376
#     4  11  21  40  60  92 125 171 218 276 326 400
#     4   9  22  40  65  94 130 174 224 271 342 403
#     4  11  22  37  61  86 128 163 218 267 330 375
#
# _framework density 26.383562999999999
#
# number of rings (size 3 to 8) (size 9 to 14) (size 15 to 20)
#    0.000    2.000    2.500    0.000    1.750    9.000 
#    4.500    6.250    0.000    0.000    0.000    0.000 
#    0.000    0.000    0.000    0.000    0.000    0.000 
#
# Total GULP energy -178626.289271 kJ/mol
# GULP energy per Si atom -5582.071540 kJ/mol
# Density = 2.632351 g / cm^3
# Si number density = 26.383563 Si / 1000 Ang^3
#
#
#
# Elastic Constant Matrix: (Units=GPa)
#
#
# Indices 1 2 3 4 5 6 
#
# 1 101.4563 22.6560 48.7915 0.0000 0.0000 0.0000
# 2 22.6560 57.7312 16.0465 0.0000 0.0000 0.0000
# 3 48.7915 16.0465 125.8331 0.0000 0.0000 0.0000
# 4 0.0000 0.0000 0.0000 34.2623 0.0000 0.0000
# 5 0.0000 0.0000 0.0000 0.0000 45.2109 0.0000
# 6 0.0000 0.0000 0.0000 0.0000 0.0000 34.8155
#
#
#
# Elastic Compliance Matrix: (Units=1/GPa)
#
#
# Indices 1 2 3 4 5 6 
#
# 1 0.012872 -0.003799 -0.004507 0.000000 0.000000 0.000000
# 2 -0.003799 0.019079 -0.000960 0.000000 0.000000 0.000000
# 3 -0.004507 -0.000960 0.009817 0.000000 0.000000 0.000000
# 4 0.000000 0.000000 0.000000 0.029187 0.000000 0.000000
# 5 0.000000 0.000000 0.000000 0.000000 0.022119 0.000000
# 6 0.000000 0.000000 0.000000 0.000000 0.000000 0.028723
#
#
# Mechanical properties :
#
#
# Convention : Reuss Voigt Hill
#
# Bulk Modulus (GPa) = 43.03452 51.11207 47.07329
# Shear Modulus (GPa) = 33.76706 36.02618 34.89662
#
# Velocity S-wave (km/s) = 3.58138 3.69925 3.64079
# Velocity P-wave (km/s) = 5.78345 6.13683 5.96276
#
# Compressibility (1/GPa) = 0.02323716
#
# Stress axis : x y z
#
# Youngs Moduli (GPa) = 77.68735 52.41270 101.86502
#
# Poissons Ratio (x) = 0.19911 0.45907
# Poissons Ratio (y) = 0.29513 0.09779
# Poissons Ratio (z) = 0.35011 0.05032
#
# Static dielectric constant tensor:
#      x y z
#    x 2.150540 0.000000 0.000000 
#    y 0.000000 2.212000 0.000000 
#    z 0.000000 0.000000 2.095810 
# 
# From -- ./inp_files/7579.got.cif
#   From: 2010.05.17/outbox.cif.g08.bks.cpg/sg19_4_cif.got.tgz:7579.got - 2010.06.03 22:46:19.
