data_PCOD9314042
_publ_section_title
;
Structure prediction by ZEFSAII (Michael W. Deem and Ramdas Pophale) SiO2 
 PCOD9314042
Probable space group: P 21 21 21
;
_chemical_formula_sum "Si O2"
_cell_formula_units_Z 28
_cell_length_a 11.978923
_cell_length_b 11.992484
_cell_length_c 9.454953
_cell_angle_alpha 90.000000
_cell_angle_beta 90.000000
_cell_angle_gamma 90.000000
_cell_volume 1358.270584
_symmetry_space_group_name_H-M "P 21 21 21"
_symmetry_group_IT_number 19
_symmetry_cell_setting 'orthorhombic'
loop_
_space_group_symop_operation_xyz
x,y,z
1/2-x,-y,1/2+z
1/2+x,1/2-y,-z
-x,1/2+y,1/2-z
loop_
_atom_site_type_symbol
_atom_site_label
_atom_site_fract_x
_atom_site_fract_y
_atom_site_fract_z
Si Si1 0.708394 0.408806 0.612146
Si Si2 0.839387 0.391675 0.313963
Si Si3 0.286549 0.315517 0.332996
Si Si4 0.098228 0.474034 0.752915
Si Si5 0.676236 0.862540 0.721624
Si Si6 0.572750 0.047156 0.556599
Si Si7 0.540179 0.906665 0.981406
O O1 0.770366 0.404511 0.460549
O O2 0.710390 0.524121 0.696778
O O3 0.754784 0.308019 0.708745
O O4 0.579250 0.380600 0.579606
O O5 0.841431 0.266596 0.252971
O O6 0.966730 0.424319 0.348662
O O7 0.331897 0.410257 0.228523
O O8 0.392848 0.308270 0.439148
O O9 0.179506 0.372999 0.410228
O O10 0.192501 0.384159 0.787175
O O11 0.039690 0.444343 0.607808
O O12 0.030613 0.500406 0.895591
O O13 0.614228 0.922017 0.592441
O O14 0.624980 0.932124 0.854609
#
# Coordination Sequence:
#
# PCOD9314042 Si02
#       7
#     4   4   4   4   4   4   4
#     4  12  25  43  58  92 132 169 203 251 325 380
#     4  12  27  39  61  89 134 170 199 256 324 377
#     4   9  21  39  71  86 116 159 212 255 305 368
#     4   9  19  38  70  95 111 156 218 269 286 366
#     4  11  19  43  62  96 118 163 211 254 307 371
#     4  11  21  38  70  92 118 153 217 265 303 359
#     4  10  20  40  66  90 117 162 212 254 302 369
#
# _framework density 20.614450999999999
#
# number of rings (size 3 to 8) (size 9 to 14) (size 15 to 20)
#    0.857    0.571    4.286    0.857    2.000    1.143 
#    0.000    1.429    0.000    0.000    0.000    0.000 
#    0.000    0.000    0.000    0.000    0.000    0.000 
#
# Total GULP energy -155989.128418 kJ/mol
# GULP energy per Si atom -5571.040301 kJ/mol
# Density = 2.056753 g / cm^3
# Si number density = 20.614451 Si / 1000 Ang^3
#
#
#
# Elastic Constant Matrix: (Units=GPa)
#
#
# Indices 1 2 3 4 5 6 
#
# 1 33.2488 19.4845 -4.0563 0.0000 0.0000 0.0000
# 2 19.4845 104.7968 12.8824 0.0000 0.0000 0.0000
# 3 -4.0563 12.8824 38.5684 0.0000 0.0000 0.0000
# 4 0.0000 0.0000 0.0000 16.9417 0.0000 0.0000
# 5 0.0000 0.0000 0.0000 0.0000 24.5951 0.0000
# 6 0.0000 0.0000 0.0000 0.0000 0.0000 18.3742
#
#
#
# Elastic Compliance Matrix: (Units=1/GPa)
#
#
# Indices 1 2 3 4 5 6 
#
# 1 0.035087 -0.007276 0.006120 0.000000 0.000000 0.000000
# 2 -0.007276 0.011460 -0.004593 0.000000 0.000000 0.000000
# 3 0.006120 -0.004593 0.028106 0.000000 0.000000 0.000000
# 4 0.000000 0.000000 0.000000 0.059026 0.000000 0.000000
# 5 0.000000 0.000000 0.000000 0.000000 0.040659 0.000000
# 6 0.000000 0.000000 0.000000 0.000000 0.000000 0.054424
#
#
# Mechanical properties :
#
#
# Convention : Reuss Voigt Hill
#
# Bulk Modulus (GPa) = 15.83398 25.91503 20.87450
# Shear Modulus (GPa) = 19.13438 21.86908 20.50173
#
# Velocity S-wave (km/s) = 3.04995 3.26062 3.15704
# Velocity P-wave (km/s) = 4.48337 5.17437 4.84121
#
# Compressibility (1/GPa) = 0.06315532
#
# Stress axis : x y z
#
# Youngs Moduli (GPa) = 28.50077 87.26265 35.57988
#
# Poissons Ratio (x) = 0.63492 -0.21776
# Poissons Ratio (y) = 0.20737 0.16342
# Poissons Ratio (z) = -0.17444 0.40079
#
# Static dielectric constant tensor:
#      x y z
#    x 1.729770 0.000000 0.000000 
#    y 0.000000 1.737730 0.000000 
#    z 0.000000 0.000000 1.757430 
# 
# From -- ./inp_files/3517.got.cif
#   From: 2010.05.17/outbox.cif.g08.bks.cpg/sg19_2_cif.got.tgz:3517.got - 2010.06.03 22:46:19.
