data_PCOD9314751
_publ_section_title
;
Structure prediction by ZEFSAII (Michael W. Deem and Ramdas Pophale) SiO2 
 PCOD9314751
Probable space group: P 21 21 21
;
_chemical_formula_sum "Si O2"
_cell_formula_units_Z 32
_cell_length_a 5.574334
_cell_length_b 13.375301
_cell_length_c 19.219880
_cell_angle_alpha 90.000000
_cell_angle_beta 90.000000
_cell_angle_gamma 90.000000
_cell_volume 1433.003407
_symmetry_space_group_name_H-M "P 21 21 21"
_symmetry_group_IT_number 19
_symmetry_cell_setting 'orthorhombic'
loop_
_space_group_symop_operation_xyz
x,y,z
1/2-x,-y,1/2+z
1/2+x,1/2-y,-z
-x,1/2+y,1/2-z
loop_
_atom_site_type_symbol
_atom_site_label
_atom_site_fract_x
_atom_site_fract_y
_atom_site_fract_z
Si Si1 0.517911 0.103640 0.061367
Si Si2 0.961182 0.546614 0.257877
Si Si3 0.515751 0.165085 0.917514
Si Si4 0.891177 0.809056 0.997049
Si Si5 0.646180 0.390319 0.184168
Si Si6 0.354422 0.214192 0.187027
Si Si7 0.231067 0.461599 0.625671
Si Si8 0.993608 0.498576 0.418783
O O1 0.519257 0.142842 0.140228
O O2 0.776770 0.054023 0.047980
O O3 0.272112 0.036795 0.057939
O O4 0.496030 0.183199 0.998925
O O5 0.835415 0.444444 0.232464
O O6 0.788116 0.642563 0.261853
O O7 0.156882 0.571247 0.199460
O O8 0.022238 0.522185 0.337323
O O9 0.265581 0.170836 0.878163
O O10 0.685397 0.236666 0.872744
O O11 0.598123 0.049139 0.906034
O O12 0.827919 0.875621 0.928880
O O13 0.636968 0.754706 0.014939
O O14 0.968542 0.884682 0.058663
O O15 0.480273 0.309214 0.221905
O O16 0.504141 0.478454 0.147278
#
# Coordination Sequence:
#
# PCOD9314751 Si02
#       8
#     4   4   4   4   4   4   4   4
#     4  11  24  41  75 100 148 178 226 307 368 426
#     4  10  25  46  71 102 147 196 234 314 366 430
#     4  10  22  41  68 102 135 182 231 293 359 436
#     4  12  27  49  76 109 144 198 255 305 364 447
#     4  10  23  44  71  98 142 189 242 289 370 436
#     4  10  25  40  68 108 138 184 243 291 364 447
#     4  10  23  47  71  96 146 191 235 300 374 428
#     4  11  25  48  72 105 146 188 244 299 375 428
#
# _framework density 22.330722000000002
#
# number of rings (size 3 to 8) (size 9 to 14) (size 15 to 20)
#    0.000    1.500    1.250    1.500   14.000    0.000 
#    9.000    0.000    0.000    0.000    0.000    0.000 
#    0.000    0.000    0.000    0.000    0.000    0.000 
#
# Total GULP energy -178611.373897 kJ/mol
# GULP energy per Si atom -5581.605434 kJ/mol
# Density = 2.227990 g / cm^3
# Si number density = 22.330722 Si / 1000 Ang^3
#
#
#
# Elastic Constant Matrix: (Units=GPa)
#
#
# Indices 1 2 3 4 5 6 
#
# 1 98.3286 29.8118 24.7953 0.0000 0.0000 0.0000
# 2 29.8118 66.4136 2.5869 0.0000 0.0000 0.0000
# 3 24.7953 2.5869 56.0117 0.0000 0.0000 0.0000
# 4 0.0000 0.0000 0.0000 14.9039 0.0000 0.0000
# 5 0.0000 0.0000 0.0000 0.0000 9.2635 0.0000
# 6 0.0000 0.0000 0.0000 0.0000 0.0000 34.4706
#
#
#
# Elastic Compliance Matrix: (Units=1/GPa)
#
#
# Indices 1 2 3 4 5 6 
#
# 1 0.013341 -0.005769 -0.005639 0.000000 0.000000 0.000000
# 2 -0.005769 0.017579 0.001742 0.000000 0.000000 0.000000
# 3 -0.005639 0.001742 0.020269 0.000000 0.000000 0.000000
# 4 0.000000 0.000000 0.000000 0.067097 0.000000 0.000000
# 5 0.000000 0.000000 0.000000 0.000000 0.107951 0.000000
# 6 0.000000 0.000000 0.000000 0.000000 0.000000 0.029010
#
#
# Mechanical properties :
#
#
# Convention : Reuss Voigt Hill
#
# Bulk Modulus (GPa) = 31.39069 37.23798 34.31433
# Shear Modulus (GPa) = 17.53164 22.63158 20.08161
#
# Velocity S-wave (km/s) = 2.80499 3.18696 3.00206
# Velocity P-wave (km/s) = 4.95765 5.50038 5.23605
#
# Compressibility (1/GPa) = 0.03185658
#
# Stress axis : x y z
#
# Youngs Moduli (GPa) = 74.95637 56.88652 49.33540
#
# Poissons Ratio (x) = 0.32817 0.27822
# Poissons Ratio (y) = 0.43242 -0.08594
# Poissons Ratio (z) = 0.42271 -0.09909
#
# Static dielectric constant tensor:
#      x y z
#    x 1.906400 0.000000 0.000000 
#    y 0.000000 1.879020 0.000000 
#    z 0.000000 0.000000 1.792760 
# 
# From -- ./inp_files/6938.got.cif
#   From: 2010.05.17/outbox.cif.g08.bks.cpg/sg19_4_cif.got.tgz:6938.got - 2010.06.03 22:46:19.
