data_PCOD9314873
_publ_section_title
;
Structure prediction by ZEFSAII (Michael W. Deem and Ramdas Pophale) SiO2 
 PCOD9314873
Probable space group: P 21 21 21
;
_chemical_formula_sum "Si O2"
_cell_formula_units_Z 24
_cell_length_a 18.422503
_cell_length_b 7.917216
_cell_length_c 5.716950
_cell_angle_alpha 90.000000
_cell_angle_beta 90.000000
_cell_angle_gamma 90.000000
_cell_volume 833.845374
_symmetry_space_group_name_H-M "P 21 21 21"
_symmetry_group_IT_number 19
_symmetry_cell_setting 'orthorhombic'
loop_
_space_group_symop_operation_xyz
x,y,z
1/2-x,-y,1/2+z
1/2+x,1/2-y,-z
-x,1/2+y,1/2-z
loop_
_atom_site_type_symbol
_atom_site_label
_atom_site_fract_x
_atom_site_fract_y
_atom_site_fract_z
Si Si1 0.278000 0.547231 0.062596
Si Si2 0.053333 0.136321 0.574388
Si Si3 0.436523 0.511222 0.934881
Si Si4 0.197008 0.860490 0.880006
Si Si5 0.831452 0.422535 0.129037
Si Si6 0.958466 0.809505 0.498162
O O1 0.248636 0.565874 0.333240
O O2 0.363495 0.509698 0.083764
O O3 0.256327 0.718808 0.931598
O O4 0.019213 0.315756 0.498770
O O5 0.113669 0.079651 0.393380
O O6 0.002556 0.974084 0.596031
O O7 0.086016 0.193280 0.822370
O O8 0.481270 0.337188 0.929446
O O9 0.411197 0.581545 0.681929
O O10 0.159695 0.840727 0.628545
O O11 0.246634 0.027693 0.862479
O O12 0.150278 0.849906 0.116296
#
# Coordination Sequence:
#
# PCOD9314873 Si02
#       6
#     4   4   4   4   4   4
#     4  12  29  49  76 114 165 212 265 346 411 487
#     4  12  26  48  76 114 155 209 263 345 407 482
#     4  12  28  52  78 119 162 209 280 338 416 495
#     4  10  22  43  67 106 140 199 259 303 398 471
#     4  10  23  41  73 100 147 196 255 318 386 481
#     4  12  28  49  80 115 159 215 276 342 416 484
#
# _framework density 28.782312000000001
#
# number of rings (size 3 to 8) (size 9 to 14) (size 15 to 20)
#    0.000    0.667    5.000    1.000    9.333    1.333 
#    0.000    0.000    0.000    0.000    0.000    0.000 
#    0.000    0.000    0.000    0.000    0.000    0.000 
#
# Total GULP energy -133669.491859 kJ/mol
# GULP energy per Si atom -5569.562161 kJ/mol
# Density = 2.871680 g / cm^3
# Si number density = 28.782312 Si / 1000 Ang^3
#
#
#
# Elastic Constant Matrix: (Units=GPa)
#
#
# Indices 1 2 3 4 5 6 
#
# 1 86.7420 21.2423 18.4294 0.0000 0.0000 0.0000
# 2 21.2423 176.6167 37.9353 0.0000 0.0000 0.0000
# 3 18.4294 37.9353 150.2851 0.0000 0.0000 0.0000
# 4 0.0000 0.0000 0.0000 65.1579 0.0000 0.0000
# 5 0.0000 0.0000 0.0000 0.0000 40.3137 0.0000
# 6 0.0000 0.0000 0.0000 0.0000 0.0000 31.5201
#
#
#
# Elastic Compliance Matrix: (Units=1/GPa)
#
#
# Indices 1 2 3 4 5 6 
#
# 1 0.012072 -0.001199 -0.001178 0.000000 0.000000 0.000000
# 2 -0.001199 0.006106 -0.001394 0.000000 0.000000 0.000000
# 3 -0.001178 -0.001394 0.007150 0.000000 0.000000 0.000000
# 4 0.000000 0.000000 0.000000 0.015347 0.000000 0.000000
# 5 0.000000 0.000000 0.000000 0.000000 0.024805 0.000000
# 6 0.000000 0.000000 0.000000 0.000000 0.000000 0.031726
#
#
# Mechanical properties :
#
#
# Convention : Reuss Voigt Hill
#
# Bulk Modulus (GPa) = 56.22264 63.20643 59.71453
# Shear Modulus (GPa) = 45.17625 49.80078 47.48851
#
# Velocity S-wave (km/s) = 3.96610 4.16415 4.06633
# Velocity P-wave (km/s) = 6.36784 6.71774 6.54513
#
# Compressibility (1/GPa) = 0.01778643
#
# Stress axis : x y z
#
# Youngs Moduli (GPa) = 82.83427 163.78302 139.85298
#
# Poissons Ratio (x) = 0.19638 0.16471
# Poissons Ratio (y) = 0.09932 0.19498
# Poissons Ratio (z) = 0.09756 0.22834
#
# Static dielectric constant tensor:
#      x y z
#    x 2.238220 0.000000 0.000000 
#    y 0.000000 2.357320 0.000000 
#    z 0.000000 0.000000 3.002360 
# 
# From -- ./inp_files/2103.got.cif
#   From: 2010.05.17/outbox.cif.g08.bks.cpg/sg19_2_cif.got.tgz:2103.got - 2010.06.03 22:46:19.
