data_PCOD9314202
_publ_section_title
;
Structure prediction by ZEFSAII (Michael W. Deem and Ramdas Pophale) SiO2 
 PCOD9314202
Probable space group: P 21 21 21
;
_chemical_formula_sum "Si O2"
_cell_formula_units_Z 32
_cell_length_a 9.200204
_cell_length_b 27.880320
_cell_length_c 5.568406
_cell_angle_alpha 90.000000
_cell_angle_beta 90.000000
_cell_angle_gamma 90.000000
_cell_volume 1428.321930
_symmetry_space_group_name_H-M "P 21 21 21"
_symmetry_group_IT_number 19
_symmetry_cell_setting 'orthorhombic'
loop_
_space_group_symop_operation_xyz
x,y,z
1/2-x,-y,1/2+z
1/2+x,1/2-y,-z
-x,1/2+y,1/2-z
loop_
_atom_site_type_symbol
_atom_site_label
_atom_site_fract_x
_atom_site_fract_y
_atom_site_fract_z
Si Si1 0.218298 0.931561 0.307441
Si Si2 0.021400 0.657134 0.379963
Si Si3 0.130082 0.225088 0.495845
Si Si4 0.784642 0.331605 0.137377
Si Si5 0.767849 0.537929 0.195794
Si Si6 0.935539 0.997974 0.747401
Si Si7 0.855419 0.053322 0.243392
Si Si8 0.860467 0.240867 0.822905
O O1 0.132931 0.882037 0.334348
O O2 0.303861 0.935687 0.558989
O O3 0.156069 0.985790 0.299122
O O4 0.291911 0.931442 0.043917
O O5 0.092528 0.607941 0.290764
O O6 0.129992 0.694098 0.510478
O O7 0.880516 0.653957 0.557167
O O8 0.959031 0.687203 0.158881
O O9 0.013990 0.244127 0.684994
O O10 0.261734 0.195708 0.615257
O O11 0.215225 0.263458 0.337017
O O12 0.842901 0.291213 0.961332
O O13 0.903449 0.475542 0.721263
O O14 0.817732 0.955366 0.742878
O O15 0.909038 0.029930 0.501761
O O16 0.902864 0.027072 0.993449
#
# Coordination Sequence:
#
# PCOD9314202 Si02
#       8
#     4   4   4   4   4   4   4   4
#     4  10  22  36  60  90 123 165 211 255 317 388
#     4  10  22  38  66  97 122 167 223 272 326 399
#     4  10  22  41  68  93 130 172 216 284 337 400
#     4  10  22  39  65  93 124 167 222 263 326 399
#     4  10  21  37  58  90 129 163 204 264 319 379
#     4  10  21  40  60  90 128 166 207 264 323 384
#     4  10  22  37  66  91 122 166 216 262 319 390
#     4  10  22  42  65  98 130 164 227 280 341 401
#
# _framework density 22.403915000000001
#
# number of rings (size 3 to 8) (size 9 to 14) (size 15 to 20)
#    0.000    2.000    0.000    2.250    8.750    1.000 
#    0.000    6.250    5.500    0.000    0.000    0.000 
#    0.000    0.000    0.000    0.000    0.000    0.000 
#
# Total GULP energy -178255.345989 kJ/mol
# GULP energy per Si atom -5570.479562 kJ/mol
# Density = 2.235292 g / cm^3
# Si number density = 22.403915 Si / 1000 Ang^3
#
#
#
# Elastic Constant Matrix: (Units=GPa)
#
#
# Indices 1 2 3 4 5 6 
#
# 1 84.5545 48.0135 20.8574 0.0000 0.0000 0.0000
# 2 48.0135 113.6878 48.9311 0.0000 0.0000 0.0000
# 3 20.8574 48.9311 159.8304 0.0000 0.0000 0.0000
# 4 0.0000 0.0000 0.0000 -26.9098 0.0000 0.0000
# 5 0.0000 0.0000 0.0000 0.0000 23.6316 0.0000
# 6 0.0000 0.0000 0.0000 0.0000 0.0000 23.0852
#
#
#
# Elastic Compliance Matrix: (Units=1/GPa)
#
#
# Indices 1 2 3 4 5 6 
#
# 1 0.015558 -0.006561 -0.000022 0.000000 0.000000 0.000000
# 2 -0.006561 0.012898 -0.003092 0.000000 0.000000 0.000000
# 3 -0.000022 -0.003092 0.007206 0.000000 0.000000 0.000000
# 4 0.000000 0.000000 0.000000 -0.037161 0.000000 0.000000
# 5 0.000000 0.000000 0.000000 0.000000 0.042316 0.000000
# 6 0.000000 0.000000 0.000000 0.000000 0.000000 0.043318
#
#
# Mechanical properties :
#
#
# Convention : Reuss Voigt Hill
#
# Bulk Modulus (GPa) = 61.30636 65.96408 63.63522
# Shear Modulus (GPa) = 45.90432 19.97944 32.94188
#
# Velocity S-wave (km/s) = 4.53143 2.98951 3.83869
# Velocity P-wave (km/s) = 7.40284 6.43609 6.93633
#
# Compressibility (1/GPa) = 0.01631152
#
# Stress axis : x y z
#
# Youngs Moduli (GPa) = 64.27683 77.53169 138.76994
#
# Poissons Ratio (x) = 0.50870 0.00299
# Poissons Ratio (y) = 0.42173 0.42913
# Poissons Ratio (z) = 0.00139 0.23976
#
# Static dielectric constant tensor:
#      x y z
#    x 1.954210 0.000000 0.000000 
#    y 0.000000 1.841190 0.000000 
#    z 0.000000 0.000000 1.940060 
# 
# From -- ./inp_files/1302.got.cif
#   From: 2010.05.17/outbox.cif.g08.bks.cpg/sg19_1_cif.got.tgz:1302.got - 2010.06.03 22:46:19.
