data_PCOD9314269
_publ_section_title
;
Structure prediction by ZEFSAII (Michael W. Deem and Ramdas Pophale) SiO2 
 PCOD9314269
Probable space group: P 21 21 21
;
_chemical_formula_sum "Si O2"
_cell_formula_units_Z 32
_cell_length_a 8.846810
_cell_length_b 21.085779
_cell_length_c 8.844005
_cell_angle_alpha 90.000000
_cell_angle_beta 90.000000
_cell_angle_gamma 90.000000
_cell_volume 1649.777324
_symmetry_space_group_name_H-M "P 21 21 21"
_symmetry_group_IT_number 19
_symmetry_cell_setting 'orthorhombic'
loop_
_space_group_symop_operation_xyz
x,y,z
1/2-x,-y,1/2+z
1/2+x,1/2-y,-z
-x,1/2+y,1/2-z
loop_
_atom_site_type_symbol
_atom_site_label
_atom_site_fract_x
_atom_site_fract_y
_atom_site_fract_z
Si Si1 0.963585 0.178569 0.300267
Si Si2 0.213885 0.380797 0.479421
Si Si3 0.413587 0.321260 0.032998
Si Si4 0.785700 0.622051 0.017848
Si Si5 0.949358 0.821165 0.534017
Si Si6 0.466050 0.428770 0.289801
Si Si7 0.471079 0.073124 0.289456
Si Si8 0.962728 0.323471 0.293383
O O1 0.834898 0.147076 0.402921
O O2 0.918772 0.250811 0.280745
O O3 0.120860 0.174352 0.389300
O O4 0.976384 0.153952 0.129025
O O5 0.302398 0.426795 0.367826
O O6 0.087133 0.414523 0.575371
O O7 0.124590 0.330525 0.375952
O O8 0.484237 0.250467 0.066065
O O9 0.456745 0.373168 0.161561
O O10 0.231206 0.316225 0.003533
O O11 0.696600 0.582864 0.144665
O O12 0.911399 0.588656 0.916837
O O13 0.661695 0.645530 0.899389
O O14 0.988245 0.872547 0.664398
O O15 0.023890 0.846660 0.378289
O O16 0.504679 0.500201 0.248798
#
# Coordination Sequence:
#
# PCOD9314269 Si02
#       8
#     4   4   4   4   4   4   4   4
#     4  10  21  38  65  95 132 170 217 272 339 394
#     4  10  21  40  62  94 131 172 226 270 332 394
#     4  11  25  43  68 102 133 178 223 280 339 394
#     4  10  25  42  60  98 129 178 218 272 336 402
#     4  11  25  43  68 102 133 178 223 280 339 394
#     4  11  26  44  68  95 136 179 227 277 334 404
#     4  11  26  44  68  95 136 179 227 277 334 404
#     4  10  21  38  65  95 132 170 217 272 339 394
#
# _framework density 19.396557000000001
#
# number of rings (size 3 to 8) (size 9 to 14) (size 15 to 20)
#    0.000    1.500    2.500    0.750    8.750    6.000 
#    0.000    5.000    0.000    0.000    0.000    0.000 
#    0.000    0.000    0.000    0.000    0.000    0.000 
#
# Total GULP energy -178313.530022 kJ/mol
# GULP energy per Si atom -5572.297813 kJ/mol
# Density = 1.935241 g / cm^3
# Si number density = 19.396557 Si / 1000 Ang^3
#
#
#
# Elastic Constant Matrix: (Units=GPa)
#
#
# Indices 1 2 3 4 5 6 
#
# 1 82.0004 22.7398 25.8656 0.0000 0.0000 0.0000
# 2 22.7398 84.6637 46.9253 0.0000 0.0000 0.0000
# 3 25.8656 46.9253 106.0327 0.0000 0.0000 0.0000
# 4 0.0000 0.0000 0.0000 22.6714 0.0000 0.0000
# 5 0.0000 0.0000 0.0000 0.0000 36.5953 0.0000
# 6 0.0000 0.0000 0.0000 0.0000 0.0000 11.0908
#
#
#
# Elastic Compliance Matrix: (Units=1/GPa)
#
#
# Indices 1 2 3 4 5 6 
#
# 1 0.013569 -0.002398 -0.002249 0.000000 0.000000 0.000000
# 2 -0.002398 0.016074 -0.006529 0.000000 0.000000 0.000000
# 3 -0.002249 -0.006529 0.012869 0.000000 0.000000 0.000000
# 4 0.000000 0.000000 0.000000 0.044108 0.000000 0.000000
# 5 0.000000 0.000000 0.000000 0.000000 0.027326 0.000000
# 6 0.000000 0.000000 0.000000 0.000000 0.000000 0.090165
#
#
# Mechanical properties :
#
#
# Convention : Reuss Voigt Hill
#
# Bulk Modulus (GPa) = 49.60031 51.52869 50.56450
# Shear Modulus (GPa) = 21.44235 25.88258 23.66246
#
# Velocity S-wave (km/s) = 3.32847 3.65689 3.49654
# Velocity P-wave (km/s) = 6.35601 6.66739 6.51356
#
# Compressibility (1/GPa) = 0.02016117
#
# Stress axis : x y z
#
# Youngs Moduli (GPa) = 73.69488 62.21186 77.70664
#
# Poissons Ratio (x) = 0.14920 0.17475
# Poissons Ratio (y) = 0.17674 0.50732
# Poissons Ratio (z) = 0.16572 0.40616
#
# Static dielectric constant tensor:
#      x y z
#    x 1.717300 0.000000 0.000000 
#    y 0.000000 1.685490 0.000000 
#    z 0.000000 0.000000 1.768950 
# 
# From -- ./inp_files/3160.got.cif
#   From: 2010.05.17/outbox.cif.g08.bks.cpg/sg19_2_cif.got.tgz:3160.got - 2010.06.03 22:46:19.
