data_PCOD9314161
_publ_section_title
;
Structure prediction by ZEFSAII (Michael W. Deem and Ramdas Pophale) SiO2 
 PCOD9314161
Probable space group: P 21 21 21
;
_chemical_formula_sum "Si O2"
_cell_formula_units_Z 32
_cell_length_a 8.323939
_cell_length_b 7.681819
_cell_length_c 18.550093
_cell_angle_alpha 90.000000
_cell_angle_beta 90.000000
_cell_angle_gamma 90.000000
_cell_volume 1186.148462
_symmetry_space_group_name_H-M "P 21 21 21"
_symmetry_group_IT_number 19
_symmetry_cell_setting 'orthorhombic'
loop_
_space_group_symop_operation_xyz
x,y,z
1/2-x,-y,1/2+z
1/2+x,1/2-y,-z
-x,1/2+y,1/2-z
loop_
_atom_site_type_symbol
_atom_site_label
_atom_site_fract_x
_atom_site_fract_y
_atom_site_fract_z
Si Si1 0.447770 0.667193 0.009260
Si Si2 0.724613 0.329708 0.291925
Si Si3 0.751604 0.151545 0.966158
Si Si4 0.538828 0.073943 0.650746
Si Si5 0.234041 0.134788 0.404173
Si Si6 0.406331 0.468407 0.240251
Si Si7 0.412000 0.144465 0.150690
Si Si8 0.592953 0.716745 0.606425
O O1 0.294145 0.551818 0.030964
O O2 0.584248 0.652621 0.068989
O O3 0.513052 0.582848 0.934180
O O4 0.376347 0.845007 0.977102
O O5 0.914450 0.348695 0.292835
O O6 0.191195 0.298642 0.354137
O O7 0.597833 0.418044 0.235636
O O8 0.667379 0.131400 0.302853
O O9 0.893568 0.244625 0.920593
O O10 0.582395 0.187968 0.929067
O O11 0.778108 0.223062 0.046091
O O12 0.575523 0.873092 0.662908
O O13 0.188552 0.032720 0.643377
O O14 0.163536 0.964555 0.367597
O O15 0.342317 0.284812 0.209888
O O16 0.422857 0.562921 0.318805
#
# Coordination Sequence:
#
# PCOD9314161 Si02
#       8
#     4   4   4   4   4   4   4   4
#     4   9  21  37  49  79 111 153 193 231 263 348
#     4   9  15  30  46  74 108 139 176 233 288 331
#     4  11  21  34  55  78 119 151 191 227 292 326
#     4   9  20  30  51  74 110 146 188 217 284 329
#     4  10  21  34  51  71 112 152 193 226 273 326
#     4   8  17  28  50  73 113 131 189 235 293 324
#     4   9  17  31  48  77 106 145 175 242 285 331
#     4  11  20  34  50  76 111 155 189 227 266 349
#
# _framework density 26.978072000000001
#
# number of rings (size 3 to 8) (size 9 to 14) (size 15 to 20)
#    1.500    1.000    1.250    2.250    1.750    0.000 
#    0.000    0.000    0.000    0.000    0.000    0.000 
#   60.000    0.000    0.000    0.000    0.000    0.000 
#
# Total GULP energy -178312.216989 kJ/mol
# GULP energy per Si atom -5572.256781 kJ/mol
# Density = 2.691667 g / cm^3
# Si number density = 26.978072 Si / 1000 Ang^3
#
#
#
# Elastic Constant Matrix: (Units=GPa)
#
#
# Indices 1 2 3 4 5 6 
#
# 1 142.5503 41.6896 29.5893 0.0000 0.0000 0.0000
# 2 41.6896 131.3829 -12.5285 0.0000 0.0000 0.0000
# 3 29.5893 -12.5285 59.5608 0.0000 0.0000 0.0000
# 4 0.0000 0.0000 0.0000 28.2210 0.0000 0.0000
# 5 0.0000 0.0000 0.0000 0.0000 46.2119 0.0000
# 6 0.0000 0.0000 0.0000 0.0000 0.0000 13.3925
#
#
#
# Elastic Compliance Matrix: (Units=1/GPa)
#
#
# Indices 1 2 3 4 5 6 
#
# 1 0.009089 -0.003383 -0.005227 0.000000 0.000000 0.000000
# 2 -0.003383 0.009026 0.003579 0.000000 0.000000 0.000000
# 3 -0.005227 0.003579 0.020139 0.000000 0.000000 0.000000
# 4 0.000000 0.000000 0.000000 0.035435 0.000000 0.000000
# 5 0.000000 0.000000 0.000000 0.000000 0.021639 0.000000
# 6 0.000000 0.000000 0.000000 0.000000 0.000000 0.074669
#
#
# Mechanical properties :
#
#
# Convention : Reuss Voigt Hill
#
# Bulk Modulus (GPa) = 35.46940 50.11052 42.78996
# Shear Modulus (GPa) = 26.39132 35.88132 31.13632
#
# Velocity S-wave (km/s) = 3.13109 3.65090 3.40094
# Velocity P-wave (km/s) = 5.12325 6.03216 5.59619
#
# Compressibility (1/GPa) = 0.02819331
#
# Stress axis : x y z
#
# Youngs Moduli (GPa) = 110.01934 110.79123 49.65449
#
# Poissons Ratio (x) = 0.37476 0.25955
# Poissons Ratio (y) = 0.37215 -0.17772
# Poissons Ratio (z) = 0.57507 -0.39653
#
# Static dielectric constant tensor:
#      x y z
#    x 2.186810 0.000000 0.000000 
#    y 0.000000 2.105410 0.000000 
#    z 0.000000 0.000000 2.172370 
# 
# From -- ./inp_files/7374.got.cif
#   From: 2010.05.17/outbox.cif.g08.bks.cpg/sg19_4_cif.got.tgz:7374.got - 2010.06.03 22:46:19.
