data_PCOD9314156
_publ_section_title
;
Structure prediction by ZEFSAII (Michael W. Deem and Ramdas Pophale) SiO2 
 PCOD9314156
Probable space group: P 21 21 21
;
_chemical_formula_sum "Si O2"
_cell_formula_units_Z 20
_cell_length_a 18.933487
_cell_length_b 6.807515
_cell_length_c 5.663573
_cell_angle_alpha 90.000000
_cell_angle_beta 90.000000
_cell_angle_gamma 90.000000
_cell_volume 729.977906
_symmetry_space_group_name_H-M "P 21 21 21"
_symmetry_group_IT_number 19
_symmetry_cell_setting 'orthorhombic'
loop_
_space_group_symop_operation_xyz
x,y,z
1/2-x,-y,1/2+z
1/2+x,1/2-y,-z
-x,1/2+y,1/2-z
loop_
_atom_site_type_symbol
_atom_site_label
_atom_site_fract_x
_atom_site_fract_y
_atom_site_fract_z
Si Si1 0.459210 0.872095 0.000000
Si Si2 0.248099 0.736230 0.249764
Si Si3 0.614552 0.771148 0.000000
Si Si4 0.565400 0.203651 1.000000
Si Si5 0.748099 0.763769 0.249764
O O1 0.531653 0.734609 1.000000
O O2 0.426188 0.817794 0.746312
O O3 0.426189 0.817795 0.253688
O O4 0.488494 0.094756 1.000000
O O5 0.164924 0.787592 0.217355
O O6 0.281938 0.796649 1.000000
O O7 0.250000 0.500000 0.250000
O O8 0.275195 0.809971 0.500000
O O9 0.664924 0.712407 0.217355
O O10 0.613666 0.010190 0.000001
#
# Coordination Sequence:
#
# PCOD9314156 Si02
#       5
#     4   4   4   4   4
#     4  10  21  33  49  69  99 133 167 198 236 284
#     4   8  14  24  40  64  92 118 144 192 251 287
#     4   8  20  26  50  62 104 122 154 196 250 270
#     4  10  21  33  49  69  99 133 167 198 236 284
#     4   8  14  24  40  64  92 118 144 192 251 287
#
# _framework density 27.398088999999999
#
# number of rings (size 3 to 8) (size 9 to 14) (size 15 to 20)
#    2.400    0.800    0.000    1.200    5.600    0.000 
#    0.000    0.000    0.000    0.000    0.000    0.000 
#    0.000   32.000    0.000    0.000    0.000    0.000 
#
# Total GULP energy -111417.752476 kJ/mol
# GULP energy per Si atom -5570.887624 kJ/mol
# Density = 2.733573 g / cm^3
# Si number density = 27.398089 Si / 1000 Ang^3
#
#
#
# Elastic Constant Matrix: (Units=GPa)
#
#
# Indices 1 2 3 4 5 6 
#
# 1 95.6360 -7.3003 69.0237 0.0000 0.0000 0.0000
# 2 -7.3003 137.8800 39.9237 0.0000 0.0000 0.0000
# 3 69.0237 39.9237 321.6748 0.0000 0.0000 0.0000
# 4 0.0000 0.0000 0.0000 2.9326 0.0000 0.0000
# 5 0.0000 0.0000 0.0000 0.0000 43.9984 0.0000
# 6 0.0000 0.0000 0.0000 0.0000 0.0000 30.6945
#
#
#
# Elastic Compliance Matrix: (Units=1/GPa)
#
#
# Indices 1 2 3 4 5 6 
#
# 1 0.012669 0.001512 -0.002906 0.000000 0.000000 0.000000
# 2 0.001512 0.007704 -0.001281 0.000000 0.000000 0.000000
# 3 -0.002906 -0.001281 0.003891 0.000000 0.000000 0.000000
# 4 0.000000 0.000000 0.000000 0.340990 0.000000 0.000000
# 5 0.000000 0.000000 0.000000 0.000000 0.022728 0.000000
# 6 0.000000 0.000000 0.000000 0.000000 0.000000 0.032579
#
#
# Mechanical properties :
#
#
# Convention : Reuss Voigt Hill
#
# Bulk Modulus (GPa) = 52.86791 84.27612 68.57202
# Shear Modulus (GPa) = 11.56832 45.76136 28.66484
#
# Velocity S-wave (km/s) = 2.05705 4.09129 3.23806
# Velocity P-wave (km/s) = 4.99801 7.29005 6.25000
#
# Compressibility (1/GPa) = 0.01891506
#
# Stress axis : x y z
#
# Youngs Moduli (GPa) = 78.93112 129.81013 256.98531
#
# Poissons Ratio (x) = -0.19631 0.74686
# Poissons Ratio (y) = -0.11937 0.32910
# Poissons Ratio (z) = 0.22939 0.16624
#
# Static dielectric constant tensor:
#      x y z
#    x 2.206820 0.000000 0.000000 
#    y 0.000000 2.092180 0.000000 
#    z 0.000000 0.000000 2.108530 
# 
# From -- ./inp_files/2225.got.cif
#   From: 2010.05.17/outbox.cif.g08.bks.cpg/sg19_2_cif.got.tgz:2225.got - 2010.06.03 22:46:19.
