data_PCOD9314111
_publ_section_title
;
Structure prediction by ZEFSAII (Michael W. Deem and Ramdas Pophale) SiO2 
 PCOD9314111
Probable space group: P 21 21 21
;
_chemical_formula_sum "Si O2"
_cell_formula_units_Z 32
_cell_length_a 12.329430
_cell_length_b 7.892517
_cell_length_c 14.107679
_cell_angle_alpha 90.000000
_cell_angle_beta 90.000000
_cell_angle_gamma 90.000000
_cell_volume 1372.821571
_symmetry_space_group_name_H-M "P 21 21 21"
_symmetry_group_IT_number 19
_symmetry_cell_setting 'orthorhombic'
loop_
_space_group_symop_operation_xyz
x,y,z
1/2-x,-y,1/2+z
1/2+x,1/2-y,-z
-x,1/2+y,1/2-z
loop_
_atom_site_type_symbol
_atom_site_label
_atom_site_fract_x
_atom_site_fract_y
_atom_site_fract_z
Si Si1 0.417410 0.804306 0.659402
Si Si2 0.882238 0.322702 0.051958
Si Si3 0.953538 0.670705 0.127580
Si Si4 0.814565 0.073115 0.347015
Si Si5 0.337840 0.973159 0.469889
Si Si6 0.858214 0.952775 0.703246
Si Si7 0.530117 0.823114 0.360197
Si Si8 0.237326 0.346513 0.456067
O O1 0.541850 0.779374 0.624741
O O2 0.414154 0.874189 0.765932
O O3 0.362771 0.616926 0.663971
O O4 0.361286 0.913643 0.577358
O O5 0.931777 0.512377 0.058977
O O6 0.754999 0.345424 0.069214
O O7 0.900997 0.252440 0.946884
O O8 0.881759 0.824336 0.088874
O O9 0.081749 0.692645 0.134873
O O10 0.738708 0.080888 0.438976
O O11 0.743522 0.127099 0.258339
O O12 0.446242 0.954238 0.408691
O O13 0.288858 0.159232 0.460983
O O14 0.813295 0.040227 0.609309
O O15 0.901174 0.094542 0.776779
O O16 0.954503 0.825188 0.681125
#
# Coordination Sequence:
#
# PCOD9314111 Si02
#       8
#     4   4   4   4   4   4   4   4
#     4  10  20  42  66  99 140 183 235 287 348 425
#     4   9  21  39  63  92 138 177 224 287 343 410
#     4  10  22  41  66 102 135 181 230 290 344 428
#     4  11  25  44  71 102 139 187 235 290 357 416
#     4  10  22  42  67 100 137 185 226 289 354 415
#     4  12  25  46  70 102 141 189 233 295 352 424
#     4  11  25  43  69 103 139 186 238 286 352 427
#     4  11  24  45  70 100 143 180 233 294 358 419
#
# _framework density 23.309657999999999
#
# number of rings (size 3 to 8) (size 9 to 14) (size 15 to 20)
#    0.000    1.500    1.250    3.750    1.750    6.000 
#    4.500    0.000    0.000    0.000    0.000    0.000 
#    0.000    0.000    0.000    0.000    0.000    0.000 
#
# Total GULP energy -179218.184403 kJ/mol
# GULP energy per Si atom -5600.568263 kJ/mol
# Density = 2.325660 g / cm^3
# Si number density = 23.309658 Si / 1000 Ang^3
#
#
#
# Elastic Constant Matrix: (Units=GPa)
#
#
# Indices 1 2 3 4 5 6 
#
# 1 76.1285 16.3505 -2.4413 0.0000 0.0000 0.0000
# 2 16.3505 74.7493 18.7869 0.0000 0.0000 0.0000
# 3 -2.4413 18.7869 89.8838 0.0000 0.0000 0.0000
# 4 0.0000 0.0000 0.0000 34.6939 0.0000 0.0000
# 5 0.0000 0.0000 0.0000 0.0000 12.1292 0.0000
# 6 0.0000 0.0000 0.0000 0.0000 0.0000 22.5784
#
#
#
# Elastic Compliance Matrix: (Units=1/GPa)
#
#
# Indices 1 2 3 4 5 6 
#
# 1 0.013880 -0.003304 0.001068 0.000000 0.000000 0.000000
# 2 -0.003304 0.014906 -0.003205 0.000000 0.000000 0.000000
# 3 0.001068 -0.003205 0.011824 0.000000 0.000000 0.000000
# 4 0.000000 0.000000 0.000000 0.028824 0.000000 0.000000
# 5 0.000000 0.000000 0.000000 0.000000 0.082446 0.000000
# 6 0.000000 0.000000 0.000000 0.000000 0.000000 0.044290
#
#
# Mechanical properties :
#
#
# Convention : Reuss Voigt Hill
#
# Bulk Modulus (GPa) = 33.64023 34.01709 33.82866
# Shear Modulus (GPa) = 23.04545 27.75135 25.39840
#
# Velocity S-wave (km/s) = 3.14772 3.45418 3.30450
# Velocity P-wave (km/s) = 5.26061 5.52573 5.39480
#
# Compressibility (1/GPa) = 0.02972631
#
# Stress axis : x y z
#
# Youngs Moduli (GPa) = 72.04817 67.08506 84.57064
#
# Poissons Ratio (x) = 0.22167 -0.09029
# Poissons Ratio (y) = 0.23807 0.27108
# Poissons Ratio (z) = -0.07692 0.21503
#
# Static dielectric constant tensor:
#      x y z
#    x 1.885400 0.000000 0.000000 
#    y 0.000000 1.868890 0.000000 
#    z 0.000000 0.000000 1.817210 
# 
# From -- ./inp_files/6125.got.cif
#   From: 2010.05.17/outbox.cif.g08.bks.cpg/sg19_4_cif.got.tgz:6125.got - 2010.06.03 22:46:19.
