data_PCOD9314874
_publ_section_title
;
Structure prediction by ZEFSAII (Michael W. Deem and Ramdas Pophale) SiO2 
 PCOD9314874
Probable space group: P 21 21 21
;
_chemical_formula_sum "Si O2"
_cell_formula_units_Z 24
_cell_length_a 7.342575
_cell_length_b 17.952866
_cell_length_c 9.411180
_cell_angle_alpha 90.000000
_cell_angle_beta 90.000000
_cell_angle_gamma 90.000000
_cell_volume 1240.584242
_symmetry_space_group_name_H-M "P 21 21 21"
_symmetry_group_IT_number 19
_symmetry_cell_setting 'orthorhombic'
loop_
_space_group_symop_operation_xyz
x,y,z
1/2-x,-y,1/2+z
1/2+x,1/2-y,-z
-x,1/2+y,1/2-z
loop_
_atom_site_type_symbol
_atom_site_label
_atom_site_fract_x
_atom_site_fract_y
_atom_site_fract_z
Si Si1 0.216822 0.675991 0.090703
Si Si2 0.067940 0.925835 0.896469
Si Si3 0.271037 0.686448 0.760773
Si Si4 0.363329 0.855000 0.721569
Si Si5 0.186502 0.845431 0.179069
Si Si6 0.522974 0.400544 0.092265
O O1 0.392837 0.626788 0.127892
O O2 0.247303 0.762505 0.131300
O O3 0.037287 0.649006 0.173226
O O4 0.196293 0.672589 0.920211
O O5 0.216689 0.914916 0.773799
O O6 0.006659 0.010557 0.910598
O O7 0.165382 0.896456 0.039976
O O8 0.267098 0.774347 0.730402
O O9 0.482420 0.663580 0.760859
O O10 0.157616 0.639254 0.649388
O O11 0.428738 0.871466 0.563620
O O12 0.319971 0.877797 0.296418
#
# Coordination Sequence:
#
# PCOD9314874 Si02
#       6
#     4   4   4   4   4   4
#     4  10  22  43  71  87 118 174 227 255 304 399
#     4  11  23  42  66  94 129 172 215 260 322 383
#     4  10  23  42  67  90 122 172 218 263 308 384
#     4  11  24  40  67  96 126 168 215 263 319 385
#     4  10  22  43  67  91 125 175 219 256 313 393
#     4  12  26  38  62 100 138 159 204 281 330 364
#
# _framework density 19.345724000000001
#
# number of rings (size 3 to 8) (size 9 to 14) (size 15 to 20)
#    0.000    1.333    1.667    3.000    7.000    5.333 
#    0.000    0.000    0.000    0.000    0.000    0.000 
#    0.000    0.000    0.000    0.000    0.000    0.000 
#
# Total GULP energy -134246.676759 kJ/mol
# GULP energy per Si atom -5593.611532 kJ/mol
# Density = 1.930169 g / cm^3
# Si number density = 19.345724 Si / 1000 Ang^3
#
#
#
# Elastic Constant Matrix: (Units=GPa)
#
#
# Indices 1 2 3 4 5 6 
#
# 1 61.2138 31.7997 41.6739 0.0000 0.0000 0.0000
# 2 31.7997 64.6857 43.5730 0.0000 0.0000 0.0000
# 3 41.6739 43.5730 77.9366 0.0000 0.0000 0.0000
# 4 0.0000 0.0000 0.0000 7.6955 0.0000 0.0000
# 5 0.0000 0.0000 0.0000 0.0000 32.4110 0.0000
# 6 0.0000 0.0000 0.0000 0.0000 0.0000 4.4951
#
#
#
# Elastic Compliance Matrix: (Units=1/GPa)
#
#
# Indices 1 2 3 4 5 6 
#
# 1 0.026926 -0.005676 -0.011225 0.000000 0.000000 0.000000
# 2 -0.005676 0.025995 -0.011498 0.000000 0.000000 0.000000
# 3 -0.011225 -0.011498 0.025261 0.000000 0.000000 0.000000
# 4 0.000000 0.000000 0.000000 0.129946 0.000000 0.000000
# 5 0.000000 0.000000 0.000000 0.000000 0.030854 0.000000
# 6 0.000000 0.000000 0.000000 0.000000 0.000000 0.222462
#
#
# Mechanical properties :
#
#
# Convention : Reuss Voigt Hill
#
# Bulk Modulus (GPa) = 46.76180 48.65880 47.71030
# Shear Modulus (GPa) = 9.51706 14.70628 12.11167
#
# Velocity S-wave (km/s) = 2.22039 2.76013 2.50484
# Velocity P-wave (km/s) = 5.54956 5.94681 5.75162
#
# Compressibility (1/GPa) = 0.02138498
#
# Stress axis : x y z
#
# Youngs Moduli (GPa) = 37.13817 38.46866 39.58599
#
# Poissons Ratio (x) = 0.21835 0.44434
# Poissons Ratio (y) = 0.21080 0.45517
# Poissons Ratio (z) = 0.41686 0.44233
#
# Static dielectric constant tensor:
#      x y z
#    x 1.670520 0.000000 0.000000 
#    y 0.000000 1.648240 0.000000 
#    z 0.000000 0.000000 1.648590 
# 
# From -- ./inp_files/2797.got.cif
#   From: 2010.05.17/outbox.cif.g08.bks.cpg/sg19_2_cif.got.tgz:2797.got - 2010.06.03 22:46:19.
