data_PCOD9314018
_publ_section_title
;
Structure prediction by ZEFSAII (Michael W. Deem and Ramdas Pophale) SiO2 
 PCOD9314018
Probable space group: P 21 21 21
;
_chemical_formula_sum "Si O2"
_cell_formula_units_Z 20
_cell_length_a 9.765555
_cell_length_b 7.168685
_cell_length_c 11.215109
_cell_angle_alpha 90.000000
_cell_angle_beta 90.000000
_cell_angle_gamma 90.000000
_cell_volume 785.127025
_symmetry_space_group_name_H-M "P 21 21 21"
_symmetry_group_IT_number 19
_symmetry_cell_setting 'orthorhombic'
loop_
_space_group_symop_operation_xyz
x,y,z
1/2-x,-y,1/2+z
1/2+x,1/2-y,-z
-x,1/2+y,1/2-z
loop_
_atom_site_type_symbol
_atom_site_label
_atom_site_fract_x
_atom_site_fract_y
_atom_site_fract_z
Si Si1 0.424438 0.049545 0.493727
Si Si2 0.206745 0.784493 0.398060
Si Si3 0.657023 0.878141 0.373409
Si Si4 0.782584 0.148458 0.622094
Si Si5 0.429256 0.750301 0.702788
O O1 0.331602 0.924350 0.403045
O O2 0.573634 0.045034 0.432507
O O3 0.424611 0.931680 0.616237
O O4 0.351922 0.247309 0.487285
O O5 0.137309 0.787081 0.530387
O O6 0.258530 0.571915 0.385916
O O7 0.085093 0.811878 0.305595
O O8 0.619048 0.828067 0.238748
O O9 0.821682 0.892662 0.359173
O O10 0.640739 0.250032 0.666892
#
# Coordination Sequence:
#
# PCOD9314018 Si02
#       5
#     4   4   4   4   4
#     4  10  20  40  61  83 123 154 190 252 289 342
#     4  10  20  40  61  83 123 154 190 252 289 342
#     4   8  20  39  57  87 118 146 201 239 284 355
#     4  10  22  36  60  88 116 154 202 226 296 360
#     4   8  20  39  57  87 118 146 201 239 284 355
#
# _framework density 25.473585
#
# number of rings (size 3 to 8) (size 9 to 14) (size 15 to 20)
#    1.200    1.600    0.000    0.000    5.600    0.000 
#    3.600   16.000    0.000    0.000    0.000    0.000 
#    0.000    0.000    0.000    0.000    0.000    0.000 
#
# Total GULP energy -111428.197514 kJ/mol
# GULP energy per Si atom -5571.409876 kJ/mol
# Density = 2.541561 g / cm^3
# Si number density = 25.473585 Si / 1000 Ang^3
#
#
#
# Elastic Constant Matrix: (Units=GPa)
#
#
# Indices 1 2 3 4 5 6 
#
# 1 84.1363 45.4804 6.8115 0.0000 0.0000 0.0000
# 2 45.4804 112.8223 27.3725 0.0000 0.0000 0.0000
# 3 6.8115 27.3725 80.0065 0.0000 0.0000 0.0000
# 4 0.0000 0.0000 0.0000 44.4896 0.0000 0.0000
# 5 0.0000 0.0000 0.0000 0.0000 21.8802 0.0000
# 6 0.0000 0.0000 0.0000 0.0000 0.0000 34.6335
#
#
#
# Elastic Compliance Matrix: (Units=1/GPa)
#
#
# Indices 1 2 3 4 5 6 
#
# 1 0.015253 -0.006362 0.000878 0.000000 0.000000 0.000000
# 2 -0.006362 0.012319 -0.003673 0.000000 0.000000 0.000000
# 3 0.000878 -0.003673 0.013681 0.000000 0.000000 0.000000
# 4 0.000000 0.000000 0.000000 0.022477 0.000000 0.000000
# 5 0.000000 0.000000 0.000000 0.000000 0.045703 0.000000
# 6 0.000000 0.000000 0.000000 0.000000 0.000000 0.028874
#
#
# Mechanical properties :
#
#
# Convention : Reuss Voigt Hill
#
# Bulk Modulus (GPa) = 43.59309 48.47710 46.03509
# Shear Modulus (GPa) = 30.43798 33.35404 31.89601
#
# Velocity S-wave (km/s) = 3.46046 3.62243 3.54237
# Velocity P-wave (km/s) = 5.75470 6.04712 5.90272
#
# Compressibility (1/GPa) = 0.02293942
#
# Stress axis : x y z
#
# Youngs Moduli (GPa) = 65.55937 81.17388 73.09444
#
# Poissons Ratio (x) = 0.51642 -0.06417
# Poissons Ratio (y) = 0.41708 0.26849
# Poissons Ratio (z) = -0.05756 0.29816
#
# Static dielectric constant tensor:
#      x y z
#    x 2.073140 0.000000 0.000000 
#    y 0.000000 1.984040 0.000000 
#    z 0.000000 0.000000 2.132370 
# 
# From -- ./inp_files/848.got.cif
#   From: 2010.05.17/outbox.cif.g08.bks.cpg/sg19_1_cif.got.tgz:848.got - 2010.06.03 22:46:19.
