data_PCOD9314167
_publ_section_title
;
Structure prediction by ZEFSAII (Michael W. Deem and Ramdas Pophale) SiO2 
 PCOD9314167
Probable space group: P 21 21 21
;
_chemical_formula_sum "Si O2"
_cell_formula_units_Z 24
_cell_length_a 17.396092
_cell_length_b 5.370083
_cell_length_c 12.176982
_cell_angle_alpha 90.000000
_cell_angle_beta 90.000000
_cell_angle_gamma 90.000000
_cell_volume 1137.554881
_symmetry_space_group_name_H-M "P 21 21 21"
_symmetry_group_IT_number 19
_symmetry_cell_setting 'orthorhombic'
loop_
_space_group_symop_operation_xyz
x,y,z
1/2-x,-y,1/2+z
1/2+x,1/2-y,-z
-x,1/2+y,1/2-z
loop_
_atom_site_type_symbol
_atom_site_label
_atom_site_fract_x
_atom_site_fract_y
_atom_site_fract_z
Si Si1 0.670167 0.925453 0.582808
Si Si2 0.994543 0.071123 0.182647
Si Si3 0.701456 0.800152 0.336020
Si Si4 0.361130 0.728918 0.550709
Si Si5 0.199732 0.773781 0.990253
Si Si6 0.228107 0.200162 0.735258
O O1 0.670896 0.808775 0.460587
O O2 0.709779 0.741401 0.670112
O O3 0.585044 0.982423 0.621063
O O4 0.726457 0.166327 0.574604
O O5 0.019457 0.806351 0.235232
O O6 0.060782 0.179588 0.104343
O O7 0.794855 0.799255 0.354690
O O8 0.682467 0.556129 0.268210
O O9 0.678521 0.049119 0.272978
O O10 0.359617 0.458131 0.494070
O O11 0.333564 0.952113 0.470663
O O12 0.230205 0.800676 0.115831
#
# Coordination Sequence:
#
# PCOD9314167 Si02
#       6
#     4   4   4   4   4   4
#     4  10  21  35  57  83 114 151 187 226 286 344
#     4  12  23  33  53  86 121 150 175 227 305 358
#     4   9  19  32  49  74 104 145 187 215 262 327
#     4   9  17  33  47  69 108 140 175 222 260 323
#     4   9  19  34  51  73 104 149 191 217 263 330
#     4   9  17  31  49  73 105 133 179 233 256 312
#
# _framework density 21.097882999999999
#
# number of rings (size 3 to 8) (size 9 to 14) (size 15 to 20)
#    0.000    2.667    0.000    5.000    0.000   10.667 
#    0.000    0.000    0.000    0.000    0.000   37.333 
#    0.000    0.000    0.000    0.000    0.000    0.000 
#
# Total GULP energy -133815.358962 kJ/mol
# GULP energy per Si atom -5575.639957 kJ/mol
# Density = 2.104986 g / cm^3
# Si number density = 21.097883 Si / 1000 Ang^3
#
#
#
# Elastic Constant Matrix: (Units=GPa)
#
#
# Indices 1 2 3 4 5 6 
#
# 1 69.2697 -6.4116 13.3720 0.0000 0.0000 0.0000
# 2 -6.4116 141.8314 -16.2888 0.0000 0.0000 0.0000
# 3 13.3720 -16.2888 49.1960 0.0000 0.0000 0.0000
# 4 0.0000 0.0000 0.0000 17.6613 0.0000 0.0000
# 5 0.0000 0.0000 0.0000 0.0000 24.7251 0.0000
# 6 0.0000 0.0000 0.0000 0.0000 0.0000 15.1997
#
#
#
# Elastic Compliance Matrix: (Units=1/GPa)
#
#
# Indices 1 2 3 4 5 6 
#
# 1 0.015242 0.000222 -0.004070 0.000000 0.000000 0.000000
# 2 0.000222 0.007333 0.002368 0.000000 0.000000 0.000000
# 3 -0.004070 0.002368 0.022217 0.000000 0.000000 0.000000
# 4 0.000000 0.000000 0.000000 0.056621 0.000000 0.000000
# 5 0.000000 0.000000 0.000000 0.000000 0.040445 0.000000
# 6 0.000000 0.000000 0.000000 0.000000 0.000000 0.065791
#
#
# Mechanical properties :
#
#
# Convention : Reuss Voigt Hill
#
# Bulk Modulus (GPa) = 23.90569 26.84892 25.37730
# Shear Modulus (GPa) = 22.26649 29.49228 25.87938
#
# Velocity S-wave (km/s) = 3.25220 3.74288 3.50613
# Velocity P-wave (km/s) = 5.04558 5.60646 5.33340
#
# Compressibility (1/GPa) = 0.04183105
#
# Stress axis : x y z
#
# Youngs Moduli (GPa) = 65.60620 136.37823 45.01073
#
# Poissons Ratio (x) = -0.03023 0.18318
# Poissons Ratio (y) = -0.01454 -0.10657
# Poissons Ratio (z) = 0.26700 -0.32288
#
# Static dielectric constant tensor:
#      x y z
#    x 1.719130 0.000000 0.000000 
#    y 0.000000 1.949690 0.000000 
#    z 0.000000 0.000000 1.864230 
# 
# From -- ./inp_files/5333.got.cif
#   From: 2010.05.17/outbox.cif.g08.bks.cpg/sg19_3_cif.got.tgz:5333.got - 2010.06.03 22:46:19.
