data_PCOD9314246
_publ_section_title
;
Structure prediction by ZEFSAII (Michael W. Deem and Ramdas Pophale) SiO2 
 PCOD9314246
Probable space group: P 21 21 21
;
_chemical_formula_sum "Si O2"
_cell_formula_units_Z 32
_cell_length_a 19.421955
_cell_length_b 12.244994
_cell_length_c 5.782071
_cell_angle_alpha 90.000000
_cell_angle_beta 90.000000
_cell_angle_gamma 90.000000
_cell_volume 1375.102085
_symmetry_space_group_name_H-M "P 21 21 21"
_symmetry_group_IT_number 19
_symmetry_cell_setting 'orthorhombic'
loop_
_space_group_symop_operation_xyz
x,y,z
1/2-x,-y,1/2+z
1/2+x,1/2-y,-z
-x,1/2+y,1/2-z
loop_
_atom_site_type_symbol
_atom_site_label
_atom_site_fract_x
_atom_site_fract_y
_atom_site_fract_z
Si Si1 0.837642 0.420895 0.776468
Si Si2 0.970468 0.426903 0.063089
Si Si3 0.146442 0.162590 0.862431
Si Si4 0.017877 0.171704 0.557014
Si Si5 0.886519 0.277216 0.413429
Si Si6 0.721421 0.757819 0.573556
Si Si7 0.734950 0.054990 0.766596
Si Si8 0.100100 0.315700 0.219597
O O1 0.825783 0.545698 0.715749
O O2 0.831186 0.346803 0.552728
O O3 0.918022 0.410281 0.851390
O O4 0.794371 0.363661 0.977263
O O5 0.978636 0.557305 0.082901
O O6 0.931269 0.367186 0.273191
O O7 0.044378 0.368982 0.044669
O O8 0.067345 0.158689 0.776221
O O9 0.205665 0.250592 0.789976
O O10 0.137300 0.206341 0.122801
O O11 0.056612 0.270720 0.430549
O O12 0.938267 0.205294 0.566606
O O13 0.842762 0.207989 0.230225
O O14 0.725358 0.837009 0.354294
O O15 0.739308 0.988436 0.015446
O O16 0.656609 0.093942 0.729052
#
# Coordination Sequence:
#
# PCOD9314246 Si02
#       8
#     4   4   4   4   4   4   4   4
#     4  10  21  38  61  90 132 171 225 292 353 425
#     4   9  20  39  58  97 125 172 231 278 359 421
#     4  10  22  39  60  94 129 181 224 284 357 425
#     4  10  21  38  65  91 132 173 221 288 352 425
#     4  10  21  38  64  91 129 168 221 288 347 419
#     4  10  25  40  62  96 131 175 235 292 350 429
#     4  11  28  48  70 101 139 188 242 294 359 429
#     4  10  22  40  66  92 135 176 231 290 353 431
#
# _framework density 23.271000000000001
#
# number of rings (size 3 to 8) (size 9 to 14) (size 15 to 20)
#    0.000    2.000    0.000    1.500    8.750    1.000 
#    2.250    2.500    0.000    0.000    0.000    0.000 
#    0.000    0.000    0.000    0.000    0.000    0.000 
#
# Total GULP energy -178207.722507 kJ/mol
# GULP energy per Si atom -5568.991328 kJ/mol
# Density = 2.321803 g / cm^3
# Si number density = 23.271000 Si / 1000 Ang^3
#
#
#
# Elastic Constant Matrix: (Units=GPa)
#
#
# Indices 1 2 3 4 5 6 
#
# 1 52.6646 9.9587 2.2980 0.0000 0.0000 0.0000
# 2 9.9587 69.2123 18.5156 0.0000 0.0000 0.0000
# 3 2.2980 18.5156 41.0975 0.0000 0.0000 0.0000
# 4 0.0000 0.0000 0.0000 33.1255 0.0000 0.0000
# 5 0.0000 0.0000 0.0000 0.0000 20.5409 0.0000
# 6 0.0000 0.0000 0.0000 0.0000 0.0000 33.8096
#
#
#
# Elastic Compliance Matrix: (Units=1/GPa)
#
#
# Indices 1 2 3 4 5 6 
#
# 1 0.019521 -0.002862 0.000198 0.000000 0.000000 0.000000
# 2 -0.002862 0.016848 -0.007430 0.000000 0.000000 0.000000
# 3 0.000198 -0.007430 0.027669 0.000000 0.000000 0.000000
# 4 0.000000 0.000000 0.000000 0.030188 0.000000 0.000000
# 5 0.000000 0.000000 0.000000 0.000000 0.048683 0.000000
# 6 0.000000 0.000000 0.000000 0.000000 0.000000 0.029577
#
#
# Mechanical properties :
#
#
# Convention : Reuss Voigt Hill
#
# Bulk Modulus (GPa) = 22.80568 24.94654 23.87611
# Shear Modulus (GPa) = 24.12068 26.30868 25.21468
#
# Velocity S-wave (km/s) = 3.22298 3.36599 3.29526
# Velocity P-wave (km/s) = 4.86533 5.08427 4.97601
#
# Compressibility (1/GPa) = 0.04384872
#
# Stress axis : x y z
#
# Youngs Moduli (GPa) = 51.22795 59.35489 36.14168
#
# Poissons Ratio (x) = 0.16985 -0.00715
# Poissons Ratio (y) = 0.14660 0.26855
# Poissons Ratio (z) = -0.01013 0.44103
#
# Static dielectric constant tensor:
#      x y z
#    x 1.924290 0.000000 0.000000 
#    y 0.000000 1.914940 0.000000 
#    z 0.000000 0.000000 1.934130 
# 
# From -- ./inp_files/1964.got.cif
#   From: 2010.05.17/outbox.cif.g08.bks.cpg/sg19_1_cif.got.tgz:1964.got - 2010.06.03 22:46:19.
