data_PCOD9314204
_publ_section_title
;
Structure prediction by ZEFSAII (Michael W. Deem and Ramdas Pophale) SiO2 
 PCOD9314204
Probable space group: P 21 21 21
;
_chemical_formula_sum "Si O2"
_cell_formula_units_Z 24
_cell_length_a 9.109809
_cell_length_b 5.343398
_cell_length_c 19.820658
_cell_angle_alpha 90.000000
_cell_angle_beta 90.000000
_cell_angle_gamma 90.000000
_cell_volume 964.816813
_symmetry_space_group_name_H-M "P 21 21 21"
_symmetry_group_IT_number 19
_symmetry_cell_setting 'orthorhombic'
loop_
_space_group_symop_operation_xyz
x,y,z
1/2-x,-y,1/2+z
1/2+x,1/2-y,-z
-x,1/2+y,1/2-z
loop_
_atom_site_type_symbol
_atom_site_label
_atom_site_fract_x
_atom_site_fract_y
_atom_site_fract_z
Si Si1 0.799165 0.026830 0.453280
Si Si2 0.106682 0.174215 0.625291
Si Si3 0.196461 0.796330 0.916013
Si Si4 0.307855 0.978760 0.729311
Si Si5 0.906794 0.347145 0.013234
Si Si6 0.635405 0.979868 0.686905
O O1 0.655591 0.909811 0.486470
O O2 0.931666 0.834585 0.455563
O O3 0.744209 0.137789 0.383978
O O4 0.849360 0.233571 0.506996
O O5 0.158457 0.005891 0.686906
O O6 0.951952 0.318084 0.627446
O O7 0.097716 0.010332 0.556464
O O8 0.285517 0.568052 0.881685
O O9 0.305412 0.025102 0.929747
O O10 0.458076 0.989770 0.685017
O O11 0.318517 0.213270 0.781426
O O12 0.317200 0.711050 0.765109
#
# Coordination Sequence:
#
# PCOD9314204 Si02
#       6
#     4   4   4   4   4   4
#     4  10  21  37  60  89 121 158 200 254 312 372
#     4  10  22  39  59  88 121 157 204 254 310 369
#     4  10  22  39  59  88 121 157 204 254 310 369
#     4  10  23  42  63  90 123 165 210 254 309 370
#     4  10  21  37  60  89 121 158 200 254 312 372
#     4  10  23  42  63  90 123 165 210 254 309 370
#
# _framework density 24.875187
#
# number of rings (size 3 to 8) (size 9 to 14) (size 15 to 20)
#    0.000    2.000    0.000    2.000    4.667    5.333 
#    0.000    0.000    0.000    0.000    0.000    0.000 
#    0.000    0.000    0.000    0.000    0.000    0.000 
#
# Total GULP energy -134064.655370 kJ/mol
# GULP energy per Si atom -5586.027307 kJ/mol
# Density = 2.481857 g / cm^3
# Si number density = 24.875187 Si / 1000 Ang^3
#
#
#
# Elastic Constant Matrix: (Units=GPa)
#
#
# Indices 1 2 3 4 5 6 
#
# 1 54.3006 -5.1607 8.9919 0.0000 0.0000 0.0000
# 2 -5.1607 67.9272 16.6495 0.0000 0.0000 0.0000
# 3 8.9919 16.6495 66.6660 0.0000 0.0000 0.0000
# 4 0.0000 0.0000 0.0000 44.4304 0.0000 0.0000
# 5 0.0000 0.0000 0.0000 0.0000 32.6869 0.0000
# 6 0.0000 0.0000 0.0000 0.0000 0.0000 20.2148
#
#
#
# Elastic Compliance Matrix: (Units=1/GPa)
#
#
# Indices 1 2 3 4 5 6 
#
# 1 0.019147 0.002224 -0.003138 0.000000 0.000000 0.000000
# 2 0.002224 0.015940 -0.004281 0.000000 0.000000 0.000000
# 3 -0.003138 -0.004281 0.016493 0.000000 0.000000 0.000000
# 4 0.000000 0.000000 0.000000 0.022507 0.000000 0.000000
# 5 0.000000 0.000000 0.000000 0.000000 0.030593 0.000000
# 6 0.000000 0.000000 0.000000 0.000000 0.000000 0.049469
#
#
# Mechanical properties :
#
#
# Convention : Reuss Voigt Hill
#
# Bulk Modulus (GPa) = 24.27807 25.53946 24.90877
# Shear Modulus (GPa) = 28.04764 30.69397 29.37080
#
# Velocity S-wave (km/s) = 3.36152 3.51653 3.43990
# Velocity P-wave (km/s) = 4.98473 5.17468 5.08059
#
# Compressibility (1/GPa) = 0.04118943
#
# Stress axis : x y z
#
# Youngs Moduli (GPa) = 52.22756 62.73579 60.63361
#
# Poissons Ratio (x) = -0.13951 0.19026
# Poissons Ratio (y) = -0.11614 0.25956
# Poissons Ratio (z) = 0.16389 0.26856
#
# Static dielectric constant tensor:
#      x y z
#    x 2.002080 0.000000 0.000000 
#    y 0.000000 1.975970 0.000000 
#    z 0.000000 0.000000 2.032650 
# 
# From -- ./inp_files/478.got.cif
#   From: 2010.05.17/outbox.cif.g08.bks.cpg/sg19_1_cif.got.tgz:478.got - 2010.06.03 22:46:19.
