data_PCOD9314242
_publ_section_title
;
Structure prediction by ZEFSAII (Michael W. Deem and Ramdas Pophale) SiO2 
 PCOD9314242
Probable space group: P 21 21 21
;
_chemical_formula_sum "Si O2"
_cell_formula_units_Z 28
_cell_length_a 11.310018
_cell_length_b 20.882937
_cell_length_c 4.971879
_cell_angle_alpha 90.000000
_cell_angle_beta 90.000000
_cell_angle_gamma 90.000000
_cell_volume 1174.290169
_symmetry_space_group_name_H-M "P 21 21 21"
_symmetry_group_IT_number 19
_symmetry_cell_setting 'orthorhombic'
loop_
_space_group_symop_operation_xyz
x,y,z
1/2-x,-y,1/2+z
1/2+x,1/2-y,-z
-x,1/2+y,1/2-z
loop_
_atom_site_type_symbol
_atom_site_label
_atom_site_fract_x
_atom_site_fract_y
_atom_site_fract_z
Si Si1 0.754961 0.914592 0.223889
Si Si2 0.540282 0.687688 0.406249
Si Si3 0.622253 0.957042 0.715664
Si Si4 0.543047 0.246330 0.584325
Si Si5 0.709940 0.769971 0.118150
Si Si6 0.395367 0.972229 0.411548
Si Si7 0.633998 0.556109 0.595155
O O1 0.723193 0.924280 0.535493
O O2 0.762512 0.839603 0.176353
O O3 0.858649 0.966289 0.175122
O O4 0.650851 0.938905 0.021192
O O5 0.459621 0.728713 0.604463
O O6 0.661109 0.727874 0.365555
O O7 0.563636 0.618966 0.523698
O O8 0.483522 0.686263 0.112419
O O9 0.503181 0.937790 0.561220
O O10 0.675211 0.268617 0.506661
O O11 0.416492 0.282248 0.534571
O O12 0.273890 0.933899 0.446456
O O13 0.405707 0.998523 0.107133
O O14 0.377691 0.034880 0.597952
#
# Coordination Sequence:
#
# PCOD9314242 Si02
#       7
#     4   4   4   4   4   4   4
#     4  10  23  39  61  87 124 159 210 257 314 375
#     4  10  24  40  64  96 127 169 221 262 323 394
#     4  10  22  40  58  93 118 165 209 256 314 374
#     4  10  25  43  65  97 127 171 219 263 328 382
#     4  10  26  44  68  96 130 173 219 268 330 384
#     4  10  21  38  62  89 127 164 206 261 320 369
#     4  10  21  38  60  94 123 163 210 259 315 380
#
# _framework density 23.844193000000001
#
# number of rings (size 3 to 8) (size 9 to 14) (size 15 to 20)
#    0.857    1.143    0.000    1.714    8.000    1.143 
#    2.571    0.000    0.000    0.000    0.000    0.000 
#    0.000    0.000    0.000    0.000    0.000    0.000 
#
# Total GULP energy -155944.894432 kJ/mol
# GULP energy per Si atom -5569.460515 kJ/mol
# Density = 2.378992 g / cm^3
# Si number density = 23.844193 Si / 1000 Ang^3
#
#
#
# Elastic Constant Matrix: (Units=GPa)
#
#
# Indices 1 2 3 4 5 6 
#
# 1 115.4911 4.4857 -7.7952 0.0000 0.0000 0.0000
# 2 4.4857 28.9697 3.0459 0.0000 0.0000 0.0000
# 3 -7.7952 3.0459 69.4347 0.0000 0.0000 0.0000
# 4 0.0000 0.0000 0.0000 18.8720 0.0000 0.0000
# 5 0.0000 0.0000 0.0000 0.0000 24.5623 0.0000
# 6 0.0000 0.0000 0.0000 0.0000 0.0000 12.9981
#
#
#
# Elastic Compliance Matrix: (Units=1/GPa)
#
#
# Indices 1 2 3 4 5 6 
#
# 1 0.008787 -0.001471 0.001051 0.000000 0.000000 0.000000
# 2 -0.001471 0.034925 -0.001697 0.000000 0.000000 0.000000
# 3 0.001051 -0.001697 0.014594 0.000000 0.000000 0.000000
# 4 0.000000 0.000000 0.000000 0.052989 0.000000 0.000000
# 5 0.000000 0.000000 0.000000 0.000000 0.040713 0.000000
# 6 0.000000 0.000000 0.000000 0.000000 0.000000 0.076934
#
#
# Mechanical properties :
#
#
# Convention : Reuss Voigt Hill
#
# Bulk Modulus (GPa) = 18.49397 23.70761 21.10079
# Shear Modulus (GPa) = 19.90444 25.56375 22.73409
#
# Velocity S-wave (km/s) = 2.89237 3.27787 3.09114
# Velocity P-wave (km/s) = 4.35057 4.92851 4.64853
#
# Compressibility (1/GPa) = 0.05407167
#
# Stress axis : x y z
#
# Youngs Moduli (GPa) = 113.80778 28.63276 68.51912
#
# Poissons Ratio (x) = 0.04212 -0.07201
# Poissons Ratio (y) = 0.16742 0.11629
# Poissons Ratio (z) = -0.11961 0.04860
#
# Static dielectric constant tensor:
#      x y z
#    x 2.047520 0.000000 0.000000 
#    y 0.000000 1.897480 0.000000 
#    z 0.000000 0.000000 1.862810 
# 
# From -- ./inp_files/1134.got.cif
#   From: 2010.05.17/outbox.cif.g08.bks.cpg/sg19_1_cif.got.tgz:1134.got - 2010.06.03 22:46:19.
