data_PCOD9314548
_publ_section_title
;
Structure prediction by ZEFSAII (Michael W. Deem and Ramdas Pophale) SiO2 
 PCOD9314548
Probable space group: P 21 21 21
;
_chemical_formula_sum "Si O2"
_cell_formula_units_Z 28
_cell_length_a 9.958800
_cell_length_b 11.420924
_cell_length_c 11.005049
_cell_angle_alpha 90.000000
_cell_angle_beta 90.000000
_cell_angle_gamma 90.000000
_cell_volume 1251.699944
_symmetry_space_group_name_H-M "P 21 21 21"
_symmetry_group_IT_number 19
_symmetry_cell_setting 'orthorhombic'
loop_
_space_group_symop_operation_xyz
x,y,z
1/2-x,-y,1/2+z
1/2+x,1/2-y,-z
-x,1/2+y,1/2-z
loop_
_atom_site_type_symbol
_atom_site_label
_atom_site_fract_x
_atom_site_fract_y
_atom_site_fract_z
Si Si1 0.672992 0.469205 0.728383
Si Si2 0.607689 0.715936 0.292889
Si Si3 0.061981 0.318458 0.565231
Si Si4 0.288783 0.437696 0.059595
Si Si5 0.417194 0.334350 0.820648
Si Si6 0.015629 0.899150 0.458345
Si Si7 0.693926 0.689115 0.893624
O O1 0.779153 0.365772 0.733151
O O2 0.532353 0.422712 0.780792
O O3 0.636470 0.524399 0.597882
O O4 0.722124 0.572249 0.817557
O O5 0.496138 0.733527 0.190431
O O6 0.669913 0.835665 0.345732
O O7 0.545983 0.644204 0.406340
O O8 0.123139 0.447476 0.582737
O O9 0.182627 0.233634 0.526065
O O10 0.941820 0.323934 0.469579
O O11 0.129131 0.458743 0.057131
O O12 0.327374 0.389376 0.926255
O O13 0.486632 0.218701 0.876989
O O14 0.332332 0.289476 0.707064
#
# Coordination Sequence:
#
# PCOD9314548 Si02
#       7
#     4   4   4   4   4   4   4
#     4  11  23  43  73 101 143 185 241 298 362 420
#     4  11  27  45  73 107 144 190 246 300 360 439
#     4  12  28  47  72 108 150 187 242 304 366 442
#     4  11  23  48  74 100 145 196 248 293 370 444
#     4  10  21  44  69 101 138 188 243 295 356 430
#     4  10  23  41  72 102 138 192 241 295 357 434
#     4  11  27  46  71 109 144 188 239 305 367 427
#
# _framework density 22.369578000000001
#
# number of rings (size 3 to 8) (size 9 to 14) (size 15 to 20)
#    0.000    1.143    2.857    1.714    6.000    1.143 
#    2.571    0.000    0.000    0.000    0.000    0.000 
#    0.000    0.000    0.000    0.000    0.000    0.000 
#
# Total GULP energy -156795.514604 kJ/mol
# GULP energy per Si atom -5599.839807 kJ/mol
# Density = 2.231866 g / cm^3
# Si number density = 22.369578 Si / 1000 Ang^3
#
#
#
# Elastic Constant Matrix: (Units=GPa)
#
#
# Indices 1 2 3 4 5 6 
#
# 1 106.2660 31.9485 16.9780 0.0000 0.0000 0.0000
# 2 31.9485 94.8030 17.5567 0.0000 0.0000 0.0000
# 3 16.9780 17.5567 71.1613 0.0000 0.0000 0.0000
# 4 0.0000 0.0000 0.0000 23.5201 0.0000 0.0000
# 5 0.0000 0.0000 0.0000 0.0000 26.9307 0.0000
# 6 0.0000 0.0000 0.0000 0.0000 0.0000 37.9592
#
#
#
# Elastic Compliance Matrix: (Units=1/GPa)
#
#
# Indices 1 2 3 4 5 6 
#
# 1 0.010673 -0.003275 -0.001738 0.000000 0.000000 0.000000
# 2 -0.003275 0.012058 -0.002194 0.000000 0.000000 0.000000
# 3 -0.001738 -0.002194 0.015009 0.000000 0.000000 0.000000
# 4 0.000000 0.000000 0.000000 0.042517 0.000000 0.000000
# 5 0.000000 0.000000 0.000000 0.000000 0.037132 0.000000
# 6 0.000000 0.000000 0.000000 0.000000 0.000000 0.026344
#
#
# Mechanical properties :
#
#
# Convention : Reuss Voigt Hill
#
# Bulk Modulus (GPa) = 42.87118 45.02186 43.94652
# Shear Modulus (GPa) = 30.13481 31.39848 30.76665
#
# Velocity S-wave (km/s) = 3.67431 3.75056 3.71263
# Velocity P-wave (km/s) = 6.09978 6.23905 6.16981
#
# Compressibility (1/GPa) = 0.02332570
#
# Stress axis : x y z
#
# Youngs Moduli (GPa) = 93.69770 82.93239 66.62876
#
# Poissons Ratio (x) = 0.27158 0.11583
# Poissons Ratio (y) = 0.30683 0.14616
# Poissons Ratio (z) = 0.16288 0.18192
#
# Static dielectric constant tensor:
#      x y z
#    x 1.814420 0.000000 0.000000 
#    y 0.000000 1.793340 0.000000 
#    z 0.000000 0.000000 1.808640 
# 
# From -- ./inp_files/4604.got.cif
#   From: 2010.05.17/outbox.cif.g08.bks.cpg/sg19_3_cif.got.tgz:4604.got - 2010.06.03 22:46:19.
