data_PCOD9314223
_publ_section_title
;
Structure prediction by ZEFSAII (Michael W. Deem and Ramdas Pophale) SiO2 
 PCOD9314223
Probable space group: P 21 21 21
;
_chemical_formula_sum "Si O2"
_cell_formula_units_Z 32
_cell_length_a 17.479898
_cell_length_b 5.487489
_cell_length_c 13.716424
_cell_angle_alpha 90.000000
_cell_angle_beta 90.000000
_cell_angle_gamma 90.000000
_cell_volume 1315.689650
_symmetry_space_group_name_H-M "P 21 21 21"
_symmetry_group_IT_number 19
_symmetry_cell_setting 'orthorhombic'
loop_
_space_group_symop_operation_xyz
x,y,z
1/2-x,-y,1/2+z
1/2+x,1/2-y,-z
-x,1/2+y,1/2-z
loop_
_atom_site_type_symbol
_atom_site_label
_atom_site_fract_x
_atom_site_fract_y
_atom_site_fract_z
Si Si1 0.457832 0.306807 0.145882
Si Si2 0.969957 0.305958 0.512926
Si Si3 0.257476 0.516502 0.468243
Si Si4 0.972169 0.930880 0.169754
Si Si5 0.871174 0.566374 0.231907
Si Si6 0.890450 0.291261 0.047144
Si Si7 0.687350 0.513443 0.934971
Si Si8 0.392899 0.521683 0.331787
O O1 0.475085 0.553689 0.086639
O O2 0.403128 0.351213 0.237592
O O3 0.542707 0.231039 0.184426
O O4 0.417182 0.140855 0.062137
O O5 0.899454 0.472921 0.475980
O O6 0.011948 0.228600 0.414220
O O7 0.929009 0.096006 0.571440
O O8 0.167947 0.563428 0.459130
O O9 0.274302 0.257140 0.520033
O O10 0.305534 0.549026 0.366856
O O11 0.281384 0.754037 0.530815
O O12 0.896761 0.849836 0.227541
O O13 0.047706 0.951029 0.233039
O O14 0.960651 0.168064 0.104238
O O15 0.850643 0.473345 0.124277
O O16 0.814122 0.492975 0.317469
#
# Coordination Sequence:
#
# PCOD9314223 Si02
#       8
#     4   4   4   4   4   4   4   4
#     4  11  21  39  64  99 128 178 241 288 341 411
#     4   9  19  37  60  93 125 170 216 293 334 405
#     4  11  26  47  67  99 143 188 227 292 356 420
#     4  10  21  37  64  99 131 166 231 281 357 411
#     4  11  22  40  69 101 133 180 227 294 351 428
#     4  11  26  42  65  98 145 178 233 293 359 420
#     4  10  24  43  70  94 134 184 233 272 352 427
#     4  11  21  39  69  93 135 176 240 283 354 404
#
# _framework density 24.321847000000002
#
# number of rings (size 3 to 8) (size 9 to 14) (size 15 to 20)
#    0.000    1.500    3.750    0.750    3.500    2.000 
#    0.000    1.250    0.000    0.000    0.000    0.000 
#    0.000    0.000    0.000    0.000    0.000    0.000 
#
# Total GULP energy -178466.457677 kJ/mol
# GULP energy per Si atom -5577.076802 kJ/mol
# Density = 2.426649 g / cm^3
# Si number density = 24.321847 Si / 1000 Ang^3
#
#
#
# Elastic Constant Matrix: (Units=GPa)
#
#
# Indices 1 2 3 4 5 6 
#
# 1 53.3887 -2.8901 20.0403 0.0000 0.0000 0.0000
# 2 -2.8901 71.7755 27.3234 0.0000 0.0000 0.0000
# 3 20.0403 27.3234 127.1555 0.0000 0.0000 0.0000
# 4 0.0000 0.0000 0.0000 34.8733 0.0000 0.0000
# 5 0.0000 0.0000 0.0000 0.0000 22.3563 0.0000
# 6 0.0000 0.0000 0.0000 0.0000 0.0000 33.4675
#
#
#
# Elastic Compliance Matrix: (Units=1/GPa)
#
#
# Indices 1 2 3 4 5 6 
#
# 1 0.020225 0.002208 -0.003662 0.000000 0.000000 0.000000
# 2 0.002208 0.015415 -0.003660 0.000000 0.000000 0.000000
# 3 -0.003662 -0.003660 0.009228 0.000000 0.000000 0.000000
# 4 0.000000 0.000000 0.000000 0.028675 0.000000 0.000000
# 5 0.000000 0.000000 0.000000 0.000000 0.044730 0.000000
# 6 0.000000 0.000000 0.000000 0.000000 0.000000 0.029880
#
#
# Mechanical properties :
#
#
# Convention : Reuss Voigt Hill
#
# Bulk Modulus (GPa) = 28.86882 37.91856 33.39369
# Shear Modulus (GPa) = 29.42436 31.99582 30.71009
#
# Velocity S-wave (km/s) = 3.48198 3.63094 3.55724
# Velocity P-wave (km/s) = 5.29725 5.76216 5.53459
#
# Compressibility (1/GPa) = 0.03463944
#
# Stress axis : x y z
#
# Youngs Moduli (GPa) = 49.44446 64.87317 108.36463
#
# Poissons Ratio (x) = -0.14327 0.39684
# Poissons Ratio (y) = -0.10919 0.39666
# Poissons Ratio (z) = 0.18107 0.23746
#
# Static dielectric constant tensor:
#      x y z
#    x 2.017080 0.000000 0.000000 
#    y 0.000000 2.102470 0.000000 
#    z 0.000000 0.000000 1.983440 
# 
# From -- ./inp_files/6313.got.cif
#   From: 2010.05.17/outbox.cif.g08.bks.cpg/sg19_4_cif.got.tgz:6313.got - 2010.06.03 22:46:19.
