data_PCOD9314892
_publ_section_title
;
Structure prediction by ZEFSAII (Michael W. Deem and Ramdas Pophale) SiO2 
 PCOD9314892
Probable space group: P 21 21 21
;
_chemical_formula_sum "Si O2"
_cell_formula_units_Z 28
_cell_length_a 7.270736
_cell_length_b 8.262235
_cell_length_c 17.422408
_cell_angle_alpha 90.000000
_cell_angle_beta 90.000000
_cell_angle_gamma 90.000000
_cell_volume 1046.608118
_symmetry_space_group_name_H-M "P 21 21 21"
_symmetry_group_IT_number 19
_symmetry_cell_setting 'orthorhombic'
loop_
_space_group_symop_operation_xyz
x,y,z
1/2-x,-y,1/2+z
1/2+x,1/2-y,-z
-x,1/2+y,1/2-z
loop_
_atom_site_type_symbol
_atom_site_label
_atom_site_fract_x
_atom_site_fract_y
_atom_site_fract_z
Si Si1 0.047320 0.416179 0.485685
Si Si2 0.220655 0.986233 0.132404
Si Si3 0.348409 0.328093 0.089255
Si Si4 0.475501 0.018015 0.863354
Si Si5 0.381928 0.347488 0.779564
Si Si6 0.055736 0.589410 0.761723
Si Si7 0.676533 0.719246 0.104834
O O1 0.869404 0.379798 0.434081
O O2 0.015001 0.316049 0.563571
O O3 0.053248 0.600595 0.514771
O O4 0.224278 0.366583 0.437847
O O5 0.325064 0.137220 0.093315
O O6 0.361421 0.921450 0.195700
O O7 0.036498 0.054939 0.172773
O O8 0.439008 0.382966 0.170770
O O9 0.147109 0.412285 0.090117
O O10 0.554233 0.877419 0.807587
O O11 0.308233 0.934497 0.906369
O O12 0.401641 0.168504 0.812981
O O13 0.183651 0.434455 0.782399
O O14 0.153632 0.739543 0.805667
#
# Coordination Sequence:
#
# PCOD9314892 Si02
#       7
#     4   4   4   4   4   4   4
#     4  12  27  45  71 106 153 192 243 308 371 446
#     4  11  25  45  74 105 147 195 238 303 377 437
#     4  10  26  46  72 113 145 194 249 305 364 441
#     4  10  22  43  73 103 146 193 244 297 372 419
#     4  10  22  43  71 109 144 185 243 309 351 438
#     4  11  25  46  77 109 146 193 252 305 361 437
#     4  12  25  46  70 107 147 198 243 303 370 442
#
# _framework density 26.753087000000001
#
# number of rings (size 3 to 8) (size 9 to 14) (size 15 to 20)
#    0.000    1.143    1.429    4.286    6.000    3.429 
#    0.000    0.000    0.000    0.000    0.000    0.000 
#    0.000    0.000    0.000    0.000    0.000    0.000 
#
# Total GULP energy -157011.004826 kJ/mol
# GULP energy per Si atom -5607.535887 kJ/mol
# Density = 2.669220 g / cm^3
# Si number density = 26.753087 Si / 1000 Ang^3
#
#
#
# Elastic Constant Matrix: (Units=GPa)
#
#
# Indices 1 2 3 4 5 6 
#
# 1 93.8764 -3.9156 21.3968 0.0000 0.0000 0.0000
# 2 -3.9156 43.7897 18.0840 0.0000 0.0000 0.0000
# 3 21.3968 18.0840 74.2763 0.0000 0.0000 0.0000
# 4 0.0000 0.0000 0.0000 45.4431 0.0000 0.0000
# 5 0.0000 0.0000 0.0000 0.0000 44.8199 0.0000
# 6 0.0000 0.0000 0.0000 0.0000 0.0000 41.8995
#
#
#
# Elastic Compliance Matrix: (Units=1/GPa)
#
#
# Indices 1 2 3 4 5 6 
#
# 1 0.011682 0.002707 -0.004024 0.000000 0.000000 0.000000
# 2 0.002707 0.026016 -0.007114 0.000000 0.000000 0.000000
# 3 -0.004024 -0.007114 0.016355 0.000000 0.000000 0.000000
# 4 0.000000 0.000000 0.000000 0.022006 0.000000 0.000000
# 5 0.000000 0.000000 0.000000 0.000000 0.022312 0.000000
# 6 0.000000 0.000000 0.000000 0.000000 0.000000 0.023867
#
#
# Mechanical properties :
#
#
# Convention : Reuss Voigt Hill
#
# Bulk Modulus (GPa) = 26.88892 31.45252 29.17072
# Shear Modulus (GPa) = 33.00401 38.19098 35.59750
#
# Velocity S-wave (km/s) = 3.51615 3.78237 3.65169
# Velocity P-wave (km/s) = 5.15335 5.55493 5.35790
#
# Compressibility (1/GPa) = 0.03719003
#
# Stress axis : x y z
#
# Youngs Moduli (GPa) = 85.59853 38.43752 61.14516
#
# Poissons Ratio (x) = -0.10403 0.24607
# Poissons Ratio (y) = -0.23168 0.43498
# Poissons Ratio (z) = 0.34448 0.27344
#
# Static dielectric constant tensor:
#      x y z
#    x 2.084740 0.000000 0.000000 
#    y 0.000000 2.082770 0.000000 
#    z 0.000000 0.000000 2.070730 
# 
# From -- ./inp_files/6588.got.cif
#   From: 2010.05.17/outbox.cif.g08.bks.cpg/sg19_4_cif.got.tgz:6588.got - 2010.06.03 22:46:19.
