data_PCOD9314060
_publ_section_title
;
Structure prediction by ZEFSAII (Michael W. Deem and Ramdas Pophale) SiO2 
 PCOD9314060
Probable space group: P 21 21 21
;
_chemical_formula_sum "Si O2"
_cell_formula_units_Z 32
_cell_length_a 7.476920
_cell_length_b 11.712040
_cell_length_c 15.437136
_cell_angle_alpha 90.000000
_cell_angle_beta 90.000000
_cell_angle_gamma 90.000000
_cell_volume 1351.829785
_symmetry_space_group_name_H-M "P 21 21 21"
_symmetry_group_IT_number 19
_symmetry_cell_setting 'orthorhombic'
loop_
_space_group_symop_operation_xyz
x,y,z
1/2-x,-y,1/2+z
1/2+x,1/2-y,-z
-x,1/2+y,1/2-z
loop_
_atom_site_type_symbol
_atom_site_label
_atom_site_fract_x
_atom_site_fract_y
_atom_site_fract_z
Si Si1 0.838740 0.839939 0.836417
Si Si2 0.585250 0.080081 0.167925
Si Si3 0.558758 0.331683 0.733560
Si Si4 0.310154 0.902782 0.170675
Si Si5 0.267956 0.047112 0.858745
Si Si6 0.893385 0.215167 0.088176
Si Si7 0.885548 0.899790 0.150470
Si Si8 0.438839 0.490332 0.030350
O O1 0.647582 0.817974 0.793680
O O2 0.876047 0.714453 0.874543
O O3 0.973834 0.864041 0.757957
O O4 0.825869 0.953112 0.893017
O O5 0.420453 0.008495 0.132246
O O6 0.742323 0.987864 0.189123
O O7 0.691815 0.171461 0.111650
O O8 0.625945 0.444786 0.686552
O O9 0.537810 0.324706 0.838127
O O10 0.654861 0.222884 0.690717
O O11 0.340951 0.899995 0.275608
O O12 0.097426 0.918037 0.165011
O O13 0.384085 0.148666 0.901754
O O14 0.138120 0.997511 0.932120
O O15 0.926893 0.140576 0.002018
O O16 0.879603 0.928745 0.048918
#
# Coordination Sequence:
#
# PCOD9314060 Si02
#       8
#     4   4   4   4   4   4   4   4
#     4  10  21  40  62  97 130 170 218 286 338 405
#     4  10  20  40  71  90 127 184 217 276 338 409
#     4  10  23  42  75  90 129 191 227 278 344 431
#     4  11  21  41  70  94 131 175 239 269 330 439
#     4  12  22  42  70 103 134 179 238 291 356 418
#     4  10  23  46  64  97 145 180 228 295 352 428
#     4  10  23  45  64  99 134 177 231 277 346 430
#     4  11  25  42  64  98 144 164 226 306 348 408
#
# _framework density 23.671620999999998
#
# number of rings (size 3 to 8) (size 9 to 14) (size 15 to 20)
#    0.000    1.500    5.000    2.250    1.750    3.000 
#   11.250    0.000    0.000    0.000    0.000    0.000 
#    0.000    0.000    0.000    0.000    0.000    0.000 
#
# Total GULP energy -178334.496997 kJ/mol
# GULP energy per Si atom -5572.953031 kJ/mol
# Density = 2.361774 g / cm^3
# Si number density = 23.671621 Si / 1000 Ang^3
#
#
#
# Elastic Constant Matrix: (Units=GPa)
#
#
# Indices 1 2 3 4 5 6 
#
# 1 56.6919 17.8360 -10.3537 0.0000 0.0000 0.0000
# 2 17.8360 96.1527 -18.9459 0.0000 0.0000 0.0000
# 3 -10.3537 -18.9459 33.2404 0.0000 0.0000 0.0000
# 4 0.0000 0.0000 0.0000 27.1968 0.0000 0.0000
# 5 0.0000 0.0000 0.0000 0.0000 27.1863 0.0000
# 6 0.0000 0.0000 0.0000 0.0000 0.0000 33.6905
#
#
#
# Elastic Compliance Matrix: (Units=1/GPa)
#
#
# Indices 1 2 3 4 5 6 
#
# 1 0.019306 -0.002699 0.004475 0.000000 0.000000 0.000000
# 2 -0.002699 0.012093 0.006052 0.000000 0.000000 0.000000
# 3 0.004475 0.006052 0.034927 0.000000 0.000000 0.000000
# 4 0.000000 0.000000 0.000000 0.036769 0.000000 0.000000
# 5 0.000000 0.000000 0.000000 0.000000 0.036783 0.000000
# 6 0.000000 0.000000 0.000000 0.000000 0.000000 0.029682
#
#
# Mechanical properties :
#
#
# Convention : Reuss Voigt Hill
#
# Bulk Modulus (GPa) = 12.19801 18.12865 15.16333
# Shear Modulus (GPa) = 27.58885 30.78463 29.18674
#
# Velocity S-wave (km/s) = 3.41762 3.61014 3.51520
# Velocity P-wave (km/s) = 4.55387 5.00525 4.78488
#
# Compressibility (1/GPa) = 0.08198058
#
# Stress axis : x y z
#
# Youngs Moduli (GPa) = 51.79818 82.69021 28.63111
#
# Poissons Ratio (x) = 0.22322 -0.12812
# Poissons Ratio (y) = 0.13983 -0.17327
# Poissons Ratio (z) = -0.23178 -0.50044
#
# Static dielectric constant tensor:
#      x y z
#    x 1.912860 0.000000 0.000000 
#    y 0.000000 2.008140 0.000000 
#    z 0.000000 0.000000 1.975770 
# 
# From -- ./inp_files/5897.got.cif
#   From: 2010.05.17/outbox.cif.g08.bks.cpg/sg19_3_cif.got.tgz:5897.got - 2010.06.03 22:46:19.
