data_PCOD9314818
_publ_section_title
;
Structure prediction by ZEFSAII (Michael W. Deem and Ramdas Pophale) SiO2 
 PCOD9314818
Probable space group: P 21 21 21
;
_chemical_formula_sum "Si O2"
_cell_formula_units_Z 28
_cell_length_a 8.221060
_cell_length_b 7.030993
_cell_length_c 22.542355
_cell_angle_alpha 90.000000
_cell_angle_beta 90.000000
_cell_angle_gamma 90.000000
_cell_volume 1302.998057
_symmetry_space_group_name_H-M "P 21 21 21"
_symmetry_group_IT_number 19
_symmetry_cell_setting 'orthorhombic'
loop_
_space_group_symop_operation_xyz
x,y,z
1/2-x,-y,1/2+z
1/2+x,1/2-y,-z
-x,1/2+y,1/2-z
loop_
_atom_site_type_symbol
_atom_site_label
_atom_site_fract_x
_atom_site_fract_y
_atom_site_fract_z
Si Si1 0.608908 0.116415 0.994925
Si Si2 0.762530 0.418327 0.069392
Si Si3 0.916113 0.142790 0.162237
Si Si4 0.749569 0.846598 0.369255
Si Si5 0.045067 0.966892 0.688504
Si Si6 0.213372 0.649483 0.897955
Si Si7 0.779550 0.823164 0.777939
O O1 0.429429 0.082903 0.969063
O O2 0.728313 0.120983 0.938628
O O3 0.627784 0.316893 0.028904
O O4 0.666742 0.958283 0.041461
O O5 0.796235 0.286543 0.126604
O O6 0.724249 0.628936 0.089993
O O7 0.863297 0.142001 0.230439
O O8 0.092390 0.227467 0.151603
O O9 0.877439 0.941795 0.130408
O O10 0.601464 0.713404 0.349632
O O11 0.745201 0.045454 0.334831
O O12 0.193381 0.102660 0.707297
O O13 0.925633 0.096517 0.649260
O O14 0.943442 0.893579 0.744609
#
# Coordination Sequence:
#
# PCOD9314818 Si02
#       7
#     4   4   4   4   4   4   4
#     4  10  23  42  63  99 128 171 216 269 326 384
#     4  10  22  42  67  90 137 167 215 273 321 383
#     4   9  24  42  62  96 128 169 215 270 327 379
#     4  11  24  42  63  94 132 163 216 275 317 393
#     4  11  24  41  66  95 126 174 221 261 329 395
#     4  10  23  42  69  94 130 176 215 265 330 392
#     4  11  24  41  64  92 129 170 214 267 328 390
#
# _framework density 21.488902
#
# number of rings (size 3 to 8) (size 9 to 14) (size 15 to 20)
#    0.000    1.714    1.429    0.857    4.000   10.286 
#    2.571    0.000    0.000    0.000    0.000    0.000 
#    0.000    0.000    0.000    0.000    0.000    0.000 
#
# Total GULP energy -156657.445618 kJ/mol
# GULP energy per Si atom -5594.908772 kJ/mol
# Density = 2.143999 g / cm^3
# Si number density = 21.488902 Si / 1000 Ang^3
#
#
#
# Elastic Constant Matrix: (Units=GPa)
#
#
# Indices 1 2 3 4 5 6 
#
# 1 36.3141 -24.1308 1.8960 0.0000 0.0000 0.0000
# 2 -24.1308 79.1821 36.4119 0.0000 0.0000 0.0000
# 3 1.8960 36.4119 70.1002 0.0000 0.0000 0.0000
# 4 0.0000 0.0000 0.0000 32.1504 0.0000 0.0000
# 5 0.0000 0.0000 0.0000 0.0000 22.3024 0.0000
# 6 0.0000 0.0000 0.0000 0.0000 0.0000 25.5145
#
#
#
# Elastic Compliance Matrix: (Units=1/GPa)
#
#
# Indices 1 2 3 4 5 6 
#
# 1 0.038765 0.016154 -0.009439 0.000000 0.000000 0.000000
# 2 0.016154 0.023324 -0.012552 0.000000 0.000000 0.000000
# 3 -0.009439 -0.012552 0.021041 0.000000 0.000000 0.000000
# 4 0.000000 0.000000 0.000000 0.031104 0.000000 0.000000
# 5 0.000000 0.000000 0.000000 0.000000 0.044838 0.000000
# 6 0.000000 0.000000 0.000000 0.000000 0.000000 0.039193
#
#
# Mechanical properties :
#
#
# Convention : Reuss Voigt Hill
#
# Bulk Modulus (GPa) = 13.99480 23.77230 18.88355
# Shear Modulus (GPa) = 21.38964 27.42143 24.40554
#
# Velocity S-wave (km/s) = 3.15839 3.57609 3.37371
# Velocity P-wave (km/s) = 4.45278 5.30451 4.89720
#
# Compressibility (1/GPa) = 0.07145512
#
# Stress axis : x y z
#
# Youngs Moduli (GPa) = 25.79653 42.87380 47.52729
#
# Poissons Ratio (x) = -0.69260 0.44863
# Poissons Ratio (y) = -0.41673 0.59657
# Poissons Ratio (z) = 0.24351 0.53816
#
# Static dielectric constant tensor:
#      x y z
#    x 1.820490 0.000000 0.000000 
#    y 0.000000 1.751080 0.000000 
#    z 0.000000 0.000000 1.745720 
# 
# From -- ./inp_files/521.got.cif
#   From: 2010.05.17/outbox.cif.g08.bks.cpg/sg19_1_cif.got.tgz:521.got - 2010.06.03 22:46:19.
