data_PCOD9314952
_publ_section_title
;
Structure prediction by ZEFSAII (Michael W. Deem and Ramdas Pophale) SiO2 
 PCOD9314952
Probable space group: P 21 21 21
;
_chemical_formula_sum "Si O2"
_cell_formula_units_Z 32
_cell_length_a 20.968946
_cell_length_b 5.105094
_cell_length_c 11.370226
_cell_angle_alpha 90.000000
_cell_angle_beta 90.000000
_cell_angle_gamma 90.000000
_cell_volume 1217.164960
_symmetry_space_group_name_H-M "P 21 21 21"
_symmetry_group_IT_number 19
_symmetry_cell_setting 'orthorhombic'
loop_
_space_group_symop_operation_xyz
x,y,z
1/2-x,-y,1/2+z
1/2+x,1/2-y,-z
-x,1/2+y,1/2-z
loop_
_atom_site_type_symbol
_atom_site_label
_atom_site_fract_x
_atom_site_fract_y
_atom_site_fract_z
Si Si1 0.716488 0.107589 0.498347
Si Si2 0.576961 0.390942 0.272827
Si Si3 0.652899 0.023491 0.965260
Si Si4 0.967588 0.615085 0.195869
Si Si5 0.791674 0.386741 0.839556
Si Si6 0.023642 0.357950 0.935611
Si Si7 0.576529 0.057492 0.495976
Si Si8 0.163049 0.971369 0.191535
O O1 0.713560 0.403023 0.448319
O O2 0.647108 0.040822 0.554168
O O3 0.786710 0.042140 0.550681
O O4 0.716398 0.902441 0.389183
O O5 0.638845 0.568132 0.289583
O O6 0.513637 0.508841 0.329052
O O7 0.566279 0.352373 0.136515
O O8 0.587508 0.143100 0.360874
O O9 0.656508 0.317633 0.914678
O O10 0.661910 0.818625 0.859111
O O11 0.581067 0.979864 0.008259
O O12 0.897671 0.516971 0.229098
O O13 0.014677 0.381651 0.233409
O O14 0.962119 0.712427 0.061837
O O15 0.732433 0.462165 0.756011
O O16 0.969161 0.192305 0.003390
#
# Coordination Sequence:
#
# PCOD9314952 Si02
#       8
#     4   4   4   4   4   4   4   4
#     4   9  19  41  66  98 128 183 228 273 349 405
#     4  11  24  42  66 105 135 183 229 283 350 416
#     4  10  23  41  71  99 138 178 229 289 337 414
#     4  12  28  44  68 104 137 181 235 290 349 411
#     4   9  19  40  69  93 135 177 227 288 335 414
#     4  12  24  41  70 103 141 183 232 282 352 417
#     4  11  25  44  68  95 142 184 228 290 345 414
#     4  10  22  45  68  97 134 185 232 281 355 403
#
# _framework density 26.290603999999998
#
# number of rings (size 3 to 8) (size 9 to 14) (size 15 to 20)
#    0.000    1.500    2.500    1.500    7.000    0.000 
#    0.000   15.000    0.000    0.000    0.000    0.000 
#    0.000    0.000    0.000    0.000    0.000    0.000 
#
# Total GULP energy -178973.043451 kJ/mol
# GULP energy per Si atom -5592.907608 kJ/mol
# Density = 2.623077 g / cm^3
# Si number density = 26.290604 Si / 1000 Ang^3
#
#
#
# Elastic Constant Matrix: (Units=GPa)
#
#
# Indices 1 2 3 4 5 6 
#
# 1 208.8746 15.8625 15.3058 0.0000 0.0000 0.0000
# 2 15.8625 117.5005 7.6271 0.0000 0.0000 0.0000
# 3 15.3058 7.6271 34.0662 0.0000 0.0000 0.0000
# 4 0.0000 0.0000 0.0000 18.8957 0.0000 0.0000
# 5 0.0000 0.0000 0.0000 0.0000 23.0843 0.0000
# 6 0.0000 0.0000 0.0000 0.0000 0.0000 51.2337
#
#
#
# Elastic Compliance Matrix: (Units=1/GPa)
#
#
# Indices 1 2 3 4 5 6 
#
# 1 0.004984 -0.000535 -0.002119 0.000000 0.000000 0.000000
# 2 -0.000535 0.008694 -0.001706 0.000000 0.000000 0.000000
# 3 -0.002119 -0.001706 0.030689 0.000000 0.000000 0.000000
# 4 0.000000 0.000000 0.000000 0.052922 0.000000 0.000000
# 5 0.000000 0.000000 0.000000 0.000000 0.043320 0.000000
# 6 0.000000 0.000000 0.000000 0.000000 0.000000 0.019518
#
#
# Mechanical properties :
#
#
# Convention : Reuss Voigt Hill
#
# Bulk Modulus (GPa) = 28.05439 48.67023 38.36231
# Shear Modulus (GPa) = 27.66585 40.08580 33.87582
#
# Velocity S-wave (km/s) = 3.24745 3.90900 3.59348
# Velocity P-wave (km/s) = 4.97547 6.23910 5.64277
#
# Compressibility (1/GPa) = 0.03564505
#
# Stress axis : x y z
#
# Youngs Moduli (GPa) = 200.66216 115.02729 32.58525
#
# Poissons Ratio (x) = 0.06156 0.06906
# Poissons Ratio (y) = 0.10740 0.05559
# Poissons Ratio (z) = 0.42525 0.19623
#
# Static dielectric constant tensor:
#      x y z
#    x 2.159090 0.000000 0.000000 
#    y 0.000000 2.093040 0.000000 
#    z 0.000000 0.000000 2.125220 
# 
# From -- ./inp_files/5485.got.cif
#   From: 2010.05.17/outbox.cif.g08.bks.cpg/sg19_3_cif.got.tgz:5485.got - 2010.06.03 22:46:19.
