data_PCOD9314796
_publ_section_title
;
Structure prediction by ZEFSAII (Michael W. Deem and Ramdas Pophale) SiO2 
 PCOD9314796
Probable space group: P 21 21 21
;
_chemical_formula_sum "Si O2"
_cell_formula_units_Z 20
_cell_length_a 11.679675
_cell_length_b 7.576712
_cell_length_c 9.496600
_cell_angle_alpha 90.000000
_cell_angle_beta 90.000000
_cell_angle_gamma 90.000000
_cell_volume 840.387692
_symmetry_space_group_name_H-M "P 21 21 21"
_symmetry_group_IT_number 19
_symmetry_cell_setting 'orthorhombic'
loop_
_space_group_symop_operation_xyz
x,y,z
1/2-x,-y,1/2+z
1/2+x,1/2-y,-z
-x,1/2+y,1/2-z
loop_
_atom_site_type_symbol
_atom_site_label
_atom_site_fract_x
_atom_site_fract_y
_atom_site_fract_z
Si Si1 0.896506 0.432908 0.386174
Si Si2 0.462399 0.415083 0.136341
Si Si3 0.381668 0.768622 0.819888
Si Si4 0.506754 0.518160 0.449697
Si Si5 0.765183 0.096999 0.466370
O O1 0.854368 0.608810 0.311145
O O2 0.805375 0.277390 0.392473
O O3 0.945049 0.480958 0.540076
O O4 0.006400 0.353885 0.302375
O O5 0.498423 0.422639 0.298365
O O6 0.454825 0.216825 0.078101
O O7 0.341105 0.508755 0.110442
O O8 0.280496 0.649635 0.878783
O O9 0.415129 0.903902 0.946283
O O10 0.379058 0.517161 0.515486
#
# Coordination Sequence:
#
# PCOD9314796 Si02
#       5
#     4   4   4   4   4
#     4  10  22  42  64  92 126 162 204 254 306 366
#     4  11  24  43  64  91 126 164 206 255 306 365
#     4  10  22  42  64  92 126 162 204 254 306 366
#     4  11  24  43  64  91 126 164 206 255 306 365
#     4  10  24  40  64  94 124 162 208 252 308 366
#
# _framework density 23.798539000000002
#
# number of rings (size 3 to 8) (size 9 to 14) (size 15 to 20)
#    0.000    1.600    0.000    4.800    0.000   16.000 
#    0.000    0.000    0.000    0.000    0.000    0.000 
#    0.000    0.000    0.000    0.000    0.000    0.000 
#
# Total GULP energy -112128.900345 kJ/mol
# GULP energy per Si atom -5606.445017 kJ/mol
# Density = 2.374437 g / cm^3
# Si number density = 23.798539 Si / 1000 Ang^3
#
#
#
# Elastic Constant Matrix: (Units=GPa)
#
#
# Indices 1 2 3 4 5 6 
#
# 1 78.6214 17.3277 15.2677 0.0000 0.0000 0.0000
# 2 17.3277 88.0177 14.1867 0.0000 0.0000 0.0000
# 3 15.2677 14.1867 96.3722 0.0000 0.0000 0.0000
# 4 0.0000 0.0000 0.0000 36.4739 0.0000 0.0000
# 5 0.0000 0.0000 0.0000 0.0000 15.1633 0.0000
# 6 0.0000 0.0000 0.0000 0.0000 0.0000 32.4621
#
#
#
# Elastic Compliance Matrix: (Units=1/GPa)
#
#
# Indices 1 2 3 4 5 6 
#
# 1 0.013595 -0.002386 -0.001803 0.000000 0.000000 0.000000
# 2 -0.002386 0.012056 -0.001397 0.000000 0.000000 0.000000
# 3 -0.001803 -0.001397 0.010868 0.000000 0.000000 0.000000
# 4 0.000000 0.000000 0.000000 0.027417 0.000000 0.000000
# 5 0.000000 0.000000 0.000000 0.000000 0.065949 0.000000
# 6 0.000000 0.000000 0.000000 0.000000 0.000000 0.030805
#
#
# Mechanical properties :
#
#
# Convention : Reuss Voigt Hill
#
# Bulk Modulus (GPa) = 39.45017 39.61949 39.53483
# Shear Modulus (GPa) = 27.73011 31.23514 29.48262
#
# Velocity S-wave (km/s) = 3.41721 3.62675 3.52354
# Velocity P-wave (km/s) = 5.67296 5.84994 5.76213
#
# Compressibility (1/GPa) = 0.02534844
#
# Stress axis : x y z
#
# Youngs Moduli (GPa) = 73.55611 82.94498 92.01642
#
# Poissons Ratio (x) = 0.19790 0.16587
# Poissons Ratio (y) = 0.17550 0.12853
# Poissons Ratio (z) = 0.13259 0.11586
#
# Static dielectric constant tensor:
#      x y z
#    x 1.879870 0.000000 0.000000 
#    y 0.000000 1.873090 0.000000 
#    z 0.000000 0.000000 1.923200 
# 
# From -- ./inp_files/2607.got.cif
#   From: 2010.05.17/outbox.cif.g08.bks.cpg/sg19_2_cif.got.tgz:2607.got - 2010.06.03 22:46:19.
