data_PCOD9314901
_publ_section_title
;
Structure prediction by ZEFSAII (Michael W. Deem and Ramdas Pophale) SiO2 
 PCOD9314901
Probable space group: P 21 21 21
;
_chemical_formula_sum "Si O2"
_cell_formula_units_Z 20
_cell_length_a 11.466435
_cell_length_b 11.146494
_cell_length_c 6.418677
_cell_angle_alpha 90.000000
_cell_angle_beta 90.000000
_cell_angle_gamma 90.000000
_cell_volume 820.374631
_symmetry_space_group_name_H-M "P 21 21 21"
_symmetry_group_IT_number 19
_symmetry_cell_setting 'orthorhombic'
loop_
_space_group_symop_operation_xyz
x,y,z
1/2-x,-y,1/2+z
1/2+x,1/2-y,-z
-x,1/2+y,1/2-z
loop_
_atom_site_type_symbol
_atom_site_label
_atom_site_fract_x
_atom_site_fract_y
_atom_site_fract_z
Si Si1 0.083200 0.019856 0.543939
Si Si2 0.735710 0.843122 0.468963
Si Si3 0.800348 0.366525 0.646449
Si Si4 0.354328 0.725784 0.127389
Si Si5 0.604205 0.019438 0.694805
O O1 0.207338 0.030813 0.420387
O O2 0.063584 0.157333 0.615059
O O3 0.093763 0.939106 0.750170
O O4 0.994725 0.981100 0.367112
O O5 0.728976 0.722863 0.336587
O O6 0.776991 0.951424 0.320716
O O7 0.619836 0.893120 0.578865
O O8 0.832609 0.821060 0.644122
O O9 0.773840 0.276290 0.453169
O O10 0.401957 0.629004 0.965696
#
# Coordination Sequence:
#
# PCOD9314901 Si02
#       5
#     4   4   4   4   4
#     4  10  22  44  64  94 127 167 213 267 317 380
#     4  11  21  43  64  92 131 167 211 265 323 380
#     4   9  22  40  65  90 126 163 210 268 316 377
#     4   9  22  42  61  94 126 164 216 261 321 386
#     4  11  23  41  66  94 130 169 212 267 323 389
#
# _framework density 24.379104999999999
#
# number of rings (size 3 to 8) (size 9 to 14) (size 15 to 20)
#    1.200    0.800    2.000    1.200    2.800    0.000 
#   10.800    0.000    0.000    0.000    0.000    0.000 
#    0.000    0.000    0.000    0.000    0.000    0.000 
#
# Total GULP energy -111495.181001 kJ/mol
# GULP energy per Si atom -5574.759050 kJ/mol
# Density = 2.432362 g / cm^3
# Si number density = 24.379105 Si / 1000 Ang^3
#
#
#
# Elastic Constant Matrix: (Units=GPa)
#
#
# Indices 1 2 3 4 5 6 
#
# 1 33.3765 8.6286 16.2543 0.0000 0.0000 0.0000
# 2 8.6286 79.6193 53.2845 0.0000 0.0000 0.0000
# 3 16.2543 53.2845 79.9737 0.0000 0.0000 0.0000
# 4 0.0000 0.0000 0.0000 38.8288 0.0000 0.0000
# 5 0.0000 0.0000 0.0000 0.0000 42.4792 0.0000
# 6 0.0000 0.0000 0.0000 0.0000 0.0000 5.1763
#
#
#
# Elastic Compliance Matrix: (Units=1/GPa)
#
#
# Indices 1 2 3 4 5 6 
#
# 1 0.033374 0.001665 -0.007893 0.000000 0.000000 0.000000
# 2 0.001665 0.022750 -0.015496 0.000000 0.000000 0.000000
# 3 -0.007893 -0.015496 0.024433 0.000000 0.000000 0.000000
# 4 0.000000 0.000000 0.000000 0.025754 0.000000 0.000000
# 5 0.000000 0.000000 0.000000 0.000000 0.023541 0.000000
# 6 0.000000 0.000000 0.000000 0.000000 0.000000 0.193188
#
#
# Mechanical properties :
#
#
# Convention : Reuss Voigt Hill
#
# Bulk Modulus (GPa) = 26.94689 38.81161 32.87925
# Shear Modulus (GPa) = 13.19757 24.95032 19.07395
#
# Velocity S-wave (km/s) = 2.32921 3.20258 2.80016
# Velocity P-wave (km/s) = 4.27912 5.44334 4.89596
#
# Compressibility (1/GPa) = 0.03711004
#
# Stress axis : x y z
#
# Youngs Moduli (GPa) = 29.96309 43.95597 40.92821
#
# Poissons Ratio (x) = -0.07320 0.32303
# Poissons Ratio (y) = -0.04990 0.63423
# Poissons Ratio (z) = 0.23649 0.68115
#
# Static dielectric constant tensor:
#      x y z
#    x 2.062150 0.000000 0.000000 
#    y 0.000000 1.937510 0.000000 
#    z 0.000000 0.000000 1.880950 
# 
# From -- ./inp_files/839.got.cif
#   From: 2010.05.17/outbox.cif.g08.bks.cpg/sg19_1_cif.got.tgz:839.got - 2010.06.03 22:46:19.
