data_PCOD9314036
_publ_section_title
;
Structure prediction by ZEFSAII (Michael W. Deem and Ramdas Pophale) SiO2 
 PCOD9314036
Probable space group: P 21 21 21
;
_chemical_formula_sum "Si O2"
_cell_formula_units_Z 20
_cell_length_a 7.349452
_cell_length_b 15.305195
_cell_length_c 6.789651
_cell_angle_alpha 90.000000
_cell_angle_beta 90.000000
_cell_angle_gamma 90.000000
_cell_volume 763.732508
_symmetry_space_group_name_H-M "P 21 21 21"
_symmetry_group_IT_number 19
_symmetry_cell_setting 'orthorhombic'
loop_
_space_group_symop_operation_xyz
x,y,z
1/2-x,-y,1/2+z
1/2+x,1/2-y,-z
-x,1/2+y,1/2-z
loop_
_atom_site_type_symbol
_atom_site_label
_atom_site_fract_x
_atom_site_fract_y
_atom_site_fract_z
Si Si1 0.606405 0.426292 0.251345
Si Si2 0.328728 0.299317 0.110356
Si Si3 0.879742 0.386138 0.737970
Si Si4 0.522606 0.110948 0.678773
Si Si5 0.487719 0.421855 0.812449
O O1 0.458850 0.350483 0.266970
O O2 0.565501 0.521953 0.336906
O O3 0.809312 0.394312 0.277832
O O4 0.588316 0.446671 0.017456
O O5 0.373180 0.198301 0.126050
O O6 0.132020 0.318691 0.198182
O O7 0.361691 0.344079 0.896443
O O8 0.016239 0.370922 0.555483
O O9 0.661935 0.397697 0.677493
O O10 0.603871 0.014539 0.735826
#
# Coordination Sequence:
#
# PCOD9314036 Si02
#       5
#     4   4   4   4   4
#     4   8  20  43  62  88 130 163 199 263 319 359
#     4  10  22  39  62  98 121 162 215 253 309 380
#     4  10  20  40  65  90 125 168 206 258 309 370
#     4  10  20  41  63  87 124 167 206 258 310 367
#     4   8  20  43  56  89 124 160 202 258 307 362
#
# _framework density 26.187176000000001
#
# number of rings (size 3 to 8) (size 9 to 14) (size 15 to 20)
#    1.200    1.600    0.000    0.000    2.800    1.600 
#   18.000    2.000    0.000    0.000    0.000    0.000 
#    0.000    0.000    0.000    0.000    0.000    0.000 
#
# Total GULP energy -111584.882468 kJ/mol
# GULP energy per Si atom -5579.244123 kJ/mol
# Density = 2.612757 g / cm^3
# Si number density = 26.187176 Si / 1000 Ang^3
#
#
#
# Elastic Constant Matrix: (Units=GPa)
#
#
# Indices 1 2 3 4 5 6 
#
# 1 86.6016 50.7605 35.9485 0.0000 0.0000 0.0000
# 2 50.7605 170.2659 37.6386 0.0000 0.0000 0.0000
# 3 35.9485 37.6386 61.5835 0.0000 0.0000 0.0000
# 4 0.0000 0.0000 0.0000 15.8902 0.0000 0.0000
# 5 0.0000 0.0000 0.0000 0.0000 47.6158 0.0000
# 6 0.0000 0.0000 0.0000 0.0000 0.0000 38.4786
#
#
#
# Elastic Compliance Matrix: (Units=1/GPa)
#
#
# Indices 1 2 3 4 5 6 
#
# 1 0.016670 -0.003259 -0.007739 0.000000 0.000000 0.000000
# 2 -0.003259 0.007428 -0.002637 0.000000 0.000000 0.000000
# 3 -0.007739 -0.002637 0.022367 0.000000 0.000000 0.000000
# 4 0.000000 0.000000 0.000000 0.062932 0.000000 0.000000
# 5 0.000000 0.000000 0.000000 0.000000 0.021001 0.000000
# 6 0.000000 0.000000 0.000000 0.000000 0.000000 0.025988
#
#
# Mechanical properties :
#
#
# Convention : Reuss Voigt Hill
#
# Bulk Modulus (GPa) = 52.09801 63.01624 57.55713
# Shear Modulus (GPa) = 26.30812 33.33713 29.82262
#
# Velocity S-wave (km/s) = 3.17301 3.57183 3.37831
# Velocity P-wave (km/s) = 5.77595 6.41301 6.10280
#
# Compressibility (1/GPa) = 0.01919459
#
# Stress axis : x y z
#
# Youngs Moduli (GPa) = 59.98889 134.63048 44.70777
#
# Poissons Ratio (x) = 0.43875 0.34599
# Poissons Ratio (y) = 0.19550 0.11791
# Poissons Ratio (z) = 0.46425 0.35507
#
# Static dielectric constant tensor:
#      x y z
#    x 2.072060 0.000000 0.000000 
#    y 0.000000 2.080410 0.000000 
#    z 0.000000 0.000000 2.077890 
# 
# From -- ./inp_files/2703.got.cif
#   From: 2010.05.17/outbox.cif.g08.bks.cpg/sg19_2_cif.got.tgz:2703.got - 2010.06.03 22:46:19.
