data_PCOD9314811
_publ_section_title
;
Structure prediction by ZEFSAII (Michael W. Deem and Ramdas Pophale) SiO2 
 PCOD9314811
Probable space group: P 21 21 21
;
_chemical_formula_sum "Si O2"
_cell_formula_units_Z 28
_cell_length_a 17.092789
_cell_length_b 5.104944
_cell_length_c 11.398466
_cell_angle_alpha 90.000000
_cell_angle_beta 90.000000
_cell_angle_gamma 90.000000
_cell_volume 994.604276
_symmetry_space_group_name_H-M "P 21 21 21"
_symmetry_group_IT_number 19
_symmetry_cell_setting 'orthorhombic'
loop_
_space_group_symop_operation_xyz
x,y,z
1/2-x,-y,1/2+z
1/2+x,1/2-y,-z
-x,1/2+y,1/2-z
loop_
_atom_site_type_symbol
_atom_site_label
_atom_site_fract_x
_atom_site_fract_y
_atom_site_fract_z
Si Si1 0.729232 0.138524 0.080198
Si Si2 0.009421 0.837832 0.901726
Si Si3 0.621031 0.890140 0.256587
Si Si4 0.382322 0.669062 0.941104
Si Si5 0.719586 0.494168 0.399489
Si Si6 0.588413 0.010785 0.924122
Si Si7 0.118114 0.978497 0.219789
O O1 0.676735 0.094104 0.192284
O O2 0.814341 0.018689 0.105670
O O3 0.676365 0.991365 0.980131
O O4 0.740723 0.420362 0.022913
O O5 0.092662 0.837706 0.835122
O O6 0.956073 0.958528 0.798390
O O7 0.961398 0.961977 0.011691
O O8 0.027934 0.558529 0.970866
O O9 0.669686 0.740258 0.354519
O O10 0.395479 0.900609 0.847625
O O11 0.344030 0.785508 0.060181
O O12 0.789053 0.453098 0.307493
O O13 0.581477 0.795256 0.821275
O O14 0.587849 0.294754 0.867790
#
# Coordination Sequence:
#
# PCOD9314811 Si02
#       7
#     4   4   4   4   4   4   4
#     4  10  22  42  66 105 141 185 241 299 356 435
#     4  11  26  44  70 104 146 188 241 300 370 446
#     4  11  23  45  68 103 146 187 239 304 376 435
#     4  12  24  40  68 105 138 189 244 295 358 437
#     4  11  23  39  70 102 142 186 243 302 363 435
#     4  10  25  48  69 101 144 192 239 296 364 437
#     4  11  25  44  73 100 141 193 243 300 361 427
#
# _framework density 28.151902
#
# number of rings (size 3 to 8) (size 9 to 14) (size 15 to 20)
#    0.000    1.143    4.286    0.857    2.000    6.857 
#    0.000    0.000    0.000    0.000    0.000    0.000 
#    0.000    0.000    0.000    0.000    0.000    0.000 
#
# Total GULP energy -156478.409690 kJ/mol
# GULP energy per Si atom -5588.514632 kJ/mol
# Density = 2.808783 g / cm^3
# Si number density = 28.151902 Si / 1000 Ang^3
#
#
#
# Elastic Constant Matrix: (Units=GPa)
#
#
# Indices 1 2 3 4 5 6 
#
# 1 130.6244 49.6204 56.4628 0.0000 0.0000 0.0000
# 2 49.6204 97.5449 20.2424 0.0000 0.0000 0.0000
# 3 56.4628 20.2424 121.7908 0.0000 0.0000 0.0000
# 4 0.0000 0.0000 0.0000 31.4464 0.0000 0.0000
# 5 0.0000 0.0000 0.0000 0.0000 60.1125 0.0000
# 6 0.0000 0.0000 0.0000 0.0000 0.0000 57.2818
#
#
#
# Elastic Compliance Matrix: (Units=1/GPa)
#
#
# Indices 1 2 3 4 5 6 
#
# 1 0.011460 -0.004896 -0.004499 0.000000 0.000000 0.000000
# 2 -0.004896 0.012710 0.000157 0.000000 0.000000 0.000000
# 3 -0.004499 0.000157 0.010271 0.000000 0.000000 0.000000
# 4 0.000000 0.000000 0.000000 0.031800 0.000000 0.000000
# 5 0.000000 0.000000 0.000000 0.000000 0.016635 0.000000
# 6 0.000000 0.000000 0.000000 0.000000 0.000000 0.017458
#
#
# Mechanical properties :
#
#
# Convention : Reuss Voigt Hill
#
# Bulk Modulus (GPa) = 62.63875 66.95681 64.79778
# Shear Modulus (GPa) = 40.28008 44.67711 42.47860
#
# Velocity S-wave (km/s) = 3.78671 3.98804 3.88868
# Velocity P-wave (km/s) = 6.43564 6.71131 6.57492
#
# Compressibility (1/GPa) = 0.01596456
#
# Stress axis : x y z
#
# Youngs Moduli (GPa) = 87.25834 78.68058 97.36606
#
# Poissons Ratio (x) = 0.38522 0.43808
# Poissons Ratio (y) = 0.42722 -0.01533
# Poissons Ratio (z) = 0.39260 -0.01239
#
# Static dielectric constant tensor:
#      x y z
#    x 2.186920 0.000000 0.000000 
#    y 0.000000 2.150600 0.000000 
#    z 0.000000 0.000000 2.286010 
# 
# From -- ./inp_files/1742.got.cif
#   From: 2010.05.17/outbox.cif.g08.bks.cpg/sg19_1_cif.got.tgz:1742.got - 2010.06.03 22:46:19.
