data_PCOD9314671
_publ_section_title
;
Structure prediction by ZEFSAII (Michael W. Deem and Ramdas Pophale) SiO2 
 PCOD9314671
Probable space group: P 21 21 21
;
_chemical_formula_sum "Si O2"
_cell_formula_units_Z 28
_cell_length_a 12.969424
_cell_length_b 7.682670
_cell_length_c 12.333123
_cell_angle_alpha 90.000000
_cell_angle_beta 90.000000
_cell_angle_gamma 90.000000
_cell_volume 1228.869967
_symmetry_space_group_name_H-M "P 21 21 21"
_symmetry_group_IT_number 19
_symmetry_cell_setting 'orthorhombic'
loop_
_space_group_symop_operation_xyz
x,y,z
1/2-x,-y,1/2+z
1/2+x,1/2-y,-z
-x,1/2+y,1/2-z
loop_
_atom_site_type_symbol
_atom_site_label
_atom_site_fract_x
_atom_site_fract_y
_atom_site_fract_z
Si Si1 0.134981 0.529316 0.719629
Si Si2 0.942934 0.514654 0.586342
Si Si3 0.104719 0.067758 0.306607
Si Si4 0.259327 0.368483 0.027293
Si Si5 0.257603 0.790411 0.300931
Si Si6 0.211840 0.722551 0.924182
Si Si7 0.530628 0.231212 0.898319
O O1 0.171891 0.668746 0.631353
O O2 0.219064 0.377615 0.731302
O O3 0.141179 0.620835 0.835472
O O4 0.030396 0.452562 0.670348
O O5 0.866276 0.627907 0.662063
O O6 0.866671 0.370547 0.535139
O O7 0.996280 0.625540 0.490330
O O8 0.187474 0.187112 0.370470
O O9 0.040163 0.176092 0.219027
O O10 0.180972 0.928080 0.248947
O O11 0.032058 0.948275 0.382443
O O12 0.288752 0.271845 0.916585
O O13 0.255573 0.573198 0.000758
O O14 0.144931 0.317318 0.062152
#
# Coordination Sequence:
#
# PCOD9314671 Si02
#       7
#     4   4   4   4   4   4   4
#     4  11  20  38  66  91 126 173 210 272 326 383
#     4  10  22  41  62  96 127 170 215 272 312 398
#     4  11  24  43  64  94 128 178 211 273 323 391
#     4  10  22  40  63  96 129 171 214 272 313 394
#     4   9  22  40  61  91 131 166 218 263 321 382
#     4  10  23  42  66  93 133 167 222 265 335 380
#     4  11  25  40  66  93 134 169 224 263 328 378
#
# _framework density 22.785162
#
# number of rings (size 3 to 8) (size 9 to 14) (size 15 to 20)
#    0.000    1.714    1.429    1.714    4.000    2.286 
#    0.000    1.429    0.000    0.000    0.000    0.000 
#    0.000    0.000    0.000    0.000    0.000    0.000 
#
# Total GULP energy -156254.809892 kJ/mol
# GULP energy per Si atom -5580.528925 kJ/mol
# Density = 2.273330 g / cm^3
# Si number density = 22.785162 Si / 1000 Ang^3
#
#
#
# Elastic Constant Matrix: (Units=GPa)
#
#
# Indices 1 2 3 4 5 6 
#
# 1 20.0108 -16.8471 -6.7415 0.0000 0.0000 0.0000
# 2 -16.8471 53.9885 -0.8746 0.0000 0.0000 0.0000
# 3 -6.7415 -0.8746 56.5819 0.0000 0.0000 0.0000
# 4 0.0000 0.0000 0.0000 15.7844 0.0000 0.0000
# 5 0.0000 0.0000 0.0000 0.0000 19.3710 0.0000
# 6 0.0000 0.0000 0.0000 0.0000 0.0000 23.2963
#
#
#
# Elastic Compliance Matrix: (Units=1/GPa)
#
#
# Indices 1 2 3 4 5 6 
#
# 1 0.072026 0.022620 0.008931 0.000000 0.000000 0.000000
# 2 0.022620 0.025631 0.003091 0.000000 0.000000 0.000000
# 3 0.008931 0.003091 0.018785 0.000000 0.000000 0.000000
# 4 0.000000 0.000000 0.000000 0.063354 0.000000 0.000000
# 5 0.000000 0.000000 0.000000 0.000000 0.051624 0.000000
# 6 0.000000 0.000000 0.000000 0.000000 0.000000 0.042925
#
#
# Mechanical properties :
#
#
# Convention : Reuss Voigt Hill
#
# Bulk Modulus (GPa) = 5.38420 9.07276 7.22848
# Shear Modulus (GPa) = 18.72879 22.02663 20.37771
#
# Velocity S-wave (km/s) = 2.87012 3.11257 2.99380
# Velocity P-wave (km/s) = 3.65398 4.11193 3.88970
#
# Compressibility (1/GPa) = 0.18572850
#
# Stress axis : x y z
#
# Youngs Moduli (GPa) = 13.88387 39.01497 53.23283
#
# Poissons Ratio (x) = -0.88253 -0.47544
# Poissons Ratio (y) = -0.31406 -0.16456
# Poissons Ratio (z) = -0.12400 -0.12061
#
# Static dielectric constant tensor:
#      x y z
#    x 1.886800 0.000000 0.000000 
#    y 0.000000 1.849150 0.000000 
#    z 0.000000 0.000000 1.843510 
# 
# From -- ./inp_files/5208.got.cif
#   From: 2010.05.17/outbox.cif.g08.bks.cpg/sg19_3_cif.got.tgz:5208.got - 2010.06.03 22:46:19.
