data_PCOD9314489
_publ_section_title
;
Structure prediction by ZEFSAII (Michael W. Deem and Ramdas Pophale) SiO2 
 PCOD9314489
Probable space group: P 21 21 21
;
_chemical_formula_sum "Si O2"
_cell_formula_units_Z 32
_cell_length_a 5.855213
_cell_length_b 26.848928
_cell_length_c 8.240427
_cell_angle_alpha 90.000000
_cell_angle_beta 90.000000
_cell_angle_gamma 90.000000
_cell_volume 1295.446151
_symmetry_space_group_name_H-M "P 21 21 21"
_symmetry_group_IT_number 19
_symmetry_cell_setting 'orthorhombic'
loop_
_space_group_symop_operation_xyz
x,y,z
1/2-x,-y,1/2+z
1/2+x,1/2-y,-z
-x,1/2+y,1/2-z
loop_
_atom_site_type_symbol
_atom_site_label
_atom_site_fract_x
_atom_site_fract_y
_atom_site_fract_z
Si Si1 0.413054 0.767492 0.560392
Si Si2 0.437187 0.221362 0.608023
Si Si3 0.156643 0.673965 0.967749
Si Si4 0.749839 0.028535 0.183673
Si Si5 0.630521 0.399462 0.669698
Si Si6 0.888280 0.652631 0.683442
Si Si7 0.377106 0.076385 0.010730
Si Si8 0.578964 0.523130 0.020590
O O1 0.644066 0.741460 0.484240
O O2 0.432704 0.748564 0.743231
O O3 0.456786 0.822487 0.487738
O O4 0.381216 0.266426 0.488579
O O5 0.233271 0.194041 0.702678
O O6 0.570293 0.177052 0.516300
O O7 0.105717 0.645263 0.799093
O O8 0.004340 0.647622 0.102896
O O9 0.547571 0.016859 0.306894
O O10 0.934160 0.062061 0.275197
O O11 0.639554 0.060941 0.036952
O O12 0.882439 0.981307 0.113285
O O13 0.774615 0.427097 0.530095
O O14 0.798064 0.395259 0.823921
O O15 0.713566 0.609235 0.637679
O O16 0.242327 0.024152 0.002685
#
# Coordination Sequence:
#
# PCOD9314489 Si02
#       8
#     4   4   4   4   4   4   4   4
#     4  10  21  42  68  94 130 179 230 289 354 420
#     4  11  24  43  65  93 133 176 229 291 352 421
#     4  12  24  44  65  95 132 176 229 288 356 414
#     4  10  22  43  68 101 137 182 223 281 351 405
#     4  10  24  43  69  98 138 180 229 285 344 422
#     4  11  24  42  65  97 130 178 233 286 346 425
#     4  10  23  44  66  99 139 181 235 279 338 416
#     4  10  22  43  70 101 139 180 222 285 343 419
#
# _framework density 24.701917999999999
#
# number of rings (size 3 to 8) (size 9 to 14) (size 15 to 20)
#    0.000    1.500    2.500    1.500    0.000    9.000 
#   11.250    1.250    0.000    0.000    0.000    0.000 
#    0.000    0.000    0.000    0.000    0.000    0.000 
#
# Total GULP energy -178497.239642 kJ/mol
# GULP energy per Si atom -5578.038739 kJ/mol
# Density = 2.464570 g / cm^3
# Si number density = 24.701918 Si / 1000 Ang^3
#
#
#
# Elastic Constant Matrix: (Units=GPa)
#
#
# Indices 1 2 3 4 5 6 
#
# 1 44.5220 4.1192 23.9053 0.0000 0.0000 0.0000
# 2 4.1192 40.7145 13.0058 0.0000 0.0000 0.0000
# 3 23.9053 13.0058 52.9901 0.0000 0.0000 0.0000
# 4 0.0000 0.0000 0.0000 37.6230 0.0000 0.0000
# 5 0.0000 0.0000 0.0000 0.0000 38.3815 0.0000
# 6 0.0000 0.0000 0.0000 0.0000 0.0000 21.2794
#
#
#
# Elastic Compliance Matrix: (Units=1/GPa)
#
#
# Indices 1 2 3 4 5 6 
#
# 1 0.029712 0.001384 -0.013744 0.000000 0.000000 0.000000
# 2 0.001384 0.026715 -0.007181 0.000000 0.000000 0.000000
# 3 -0.013744 -0.007181 0.026834 0.000000 0.000000 0.000000
# 4 0.000000 0.000000 0.000000 0.026579 0.000000 0.000000
# 5 0.000000 0.000000 0.000000 0.000000 0.026054 0.000000
# 6 0.000000 0.000000 0.000000 0.000000 0.000000 0.046994
#
#
# Mechanical properties :
#
#
# Convention : Reuss Voigt Hill
#
# Bulk Modulus (GPa) = 22.63476 24.47635 23.55556
# Shear Modulus (GPa) = 21.12401 25.93654 23.53028
#
# Velocity S-wave (km/s) = 2.92748 3.24386 3.08972
# Velocity P-wave (km/s) = 4.53981 4.89493 4.72071
#
# Compressibility (1/GPa) = 0.04417983
#
# Stress axis : x y z
#
# Youngs Moduli (GPa) = 33.65628 37.43174 37.26590
#
# Poissons Ratio (x) = -0.05181 0.51217
# Poissons Ratio (y) = -0.04659 0.26762
# Poissons Ratio (z) = 0.46256 0.26881
#
# Static dielectric constant tensor:
#      x y z
#    x 2.096550 0.000000 0.000000 
#    y 0.000000 1.955020 0.000000 
#    z 0.000000 0.000000 2.002370 
# 
# From -- ./inp_files/2519.got.cif
#   From: 2010.05.17/outbox.cif.g08.bks.cpg/sg19_2_cif.got.tgz:2519.got - 2010.06.03 22:46:19.
