data_PCOD9314558
_publ_section_title
;
Structure prediction by ZEFSAII (Michael W. Deem and Ramdas Pophale) SiO2 
 PCOD9314558
Probable space group: P 21 21 21
;
_chemical_formula_sum "Si O2"
_cell_formula_units_Z 32
_cell_length_a 12.234186
_cell_length_b 5.299130
_cell_length_c 18.892121
_cell_angle_alpha 90.000000
_cell_angle_beta 90.000000
_cell_angle_gamma 90.000000
_cell_volume 1224.786445
_symmetry_space_group_name_H-M "P 21 21 21"
_symmetry_group_IT_number 19
_symmetry_cell_setting 'orthorhombic'
loop_
_space_group_symop_operation_xyz
x,y,z
1/2-x,-y,1/2+z
1/2+x,1/2-y,-z
-x,1/2+y,1/2-z
loop_
_atom_site_type_symbol
_atom_site_label
_atom_site_fract_x
_atom_site_fract_y
_atom_site_fract_z
Si Si1 0.564294 0.502493 0.097014
Si Si2 0.572499 0.128884 0.751925
Si Si3 0.981209 0.266058 0.455761
Si Si4 0.224760 0.440097 0.016556
Si Si5 0.701087 0.231451 0.609026
Si Si6 0.327136 0.909607 0.624681
Si Si7 0.945828 0.831204 0.723034
Si Si8 0.842848 0.796729 0.849260
O O1 0.686181 0.612458 0.107965
O O2 0.560376 0.238892 0.140390
O O3 0.470377 0.679935 0.130733
O O4 0.522522 0.518543 0.016398
O O5 0.482193 0.354322 0.749835
O O6 0.654645 0.174216 0.686364
O O7 0.631565 0.181806 0.827200
O O8 0.896232 0.058698 0.482850
O O9 0.927142 0.401018 0.387929
O O10 0.097749 0.154406 0.434426
O O11 0.215233 0.161487 0.046380
O O12 0.288083 0.575722 0.081582
O O13 0.275274 0.486583 0.940307
O O14 0.223794 0.041123 0.659017
O O15 0.841231 0.914850 0.769962
O O16 0.970968 0.551634 0.755611
#
# Coordination Sequence:
#
# PCOD9314558 Si02
#       8
#     4   4   4   4   4   4   4   4
#     4  10  22  44  68 104 146 192 246 313 372 453
#     4  12  27  51  80 113 154 201 253 320 384 461
#     4  10  21  45  67 101 142 188 247 305 380 441
#     4  10  23  44  72 102 144 192 247 309 379 452
#     4  11  22  47  71 109 146 197 253 315 375 461
#     4  11  24  44  73 106 144 199 248 309 383 452
#     4  10  23  43  67 102 142 188 235 298 365 437
#     4  10  22  42  70 101 142 193 239 303 372 451
#
# _framework density 26.127006000000002
#
# number of rings (size 3 to 8) (size 9 to 14) (size 15 to 20)
#    0.000    1.500    2.500    1.500    5.250    0.000 
#   20.250    0.000    0.000    0.000    0.000    0.000 
#    0.000    0.000    0.000    0.000    0.000    0.000 
#
# Total GULP energy -178678.153977 kJ/mol
# GULP energy per Si atom -5583.692312 kJ/mol
# Density = 2.606754 g / cm^3
# Si number density = 26.127006 Si / 1000 Ang^3
#
#
#
# Elastic Constant Matrix: (Units=GPa)
#
#
# Indices 1 2 3 4 5 6 
#
# 1 140.9815 30.7436 32.3173 0.0000 0.0000 0.0000
# 2 30.7436 53.5912 22.7963 0.0000 0.0000 0.0000
# 3 32.3173 22.7963 117.4339 0.0000 0.0000 0.0000
# 4 0.0000 0.0000 0.0000 44.7583 0.0000 0.0000
# 5 0.0000 0.0000 0.0000 0.0000 46.5112 0.0000
# 6 0.0000 0.0000 0.0000 0.0000 0.0000 25.6673
#
#
#
# Elastic Compliance Matrix: (Units=1/GPa)
#
#
# Indices 1 2 3 4 5 6 
#
# 1 0.008340 -0.004151 -0.001489 0.000000 0.000000 0.000000
# 2 -0.004151 0.022405 -0.003207 0.000000 0.000000 0.000000
# 3 -0.001489 -0.003207 0.009548 0.000000 0.000000 0.000000
# 4 0.000000 0.000000 0.000000 0.022342 0.000000 0.000000
# 5 0.000000 0.000000 0.000000 0.000000 0.021500 0.000000
# 6 0.000000 0.000000 0.000000 0.000000 0.000000 0.038960
#
#
# Mechanical properties :
#
#
# Convention : Reuss Voigt Hill
#
# Bulk Modulus (GPa) = 44.25071 53.74682 48.99876
# Shear Modulus (GPa) = 33.71045 38.46399 36.08722
#
# Velocity S-wave (km/s) = 3.59591 3.84108 3.72051
# Velocity P-wave (km/s) = 5.84930 6.34727 6.10337
#
# Compressibility (1/GPa) = 0.02259851
#
# Stress axis : x y z
#
# Youngs Moduli (GPa) = 119.90899 44.63274 104.73588
#
# Poissons Ratio (x) = 0.18526 0.15598
# Poissons Ratio (y) = 0.49771 0.33589
# Poissons Ratio (z) = 0.17858 0.14314
#
# Static dielectric constant tensor:
#      x y z
#    x 2.080790 0.000000 0.000000 
#    y 0.000000 2.092460 0.000000 
#    z 0.000000 0.000000 2.182760 
# 
# From -- ./inp_files/7178.got.cif
#   From: 2010.05.17/outbox.cif.g08.bks.cpg/sg19_4_cif.got.tgz:7178.got - 2010.06.03 22:46:19.
