data_PCOD9314421
_publ_section_title
;
Structure prediction by ZEFSAII (Michael W. Deem and Ramdas Pophale) SiO2 
 PCOD9314421
Probable space group: P 21 21 21
;
_chemical_formula_sum "Si O2"
_cell_formula_units_Z 32
_cell_length_a 9.244910
_cell_length_b 12.553243
_cell_length_c 14.317418
_cell_angle_alpha 90.000000
_cell_angle_beta 90.000000
_cell_angle_gamma 90.000000
_cell_volume 1661.587927
_symmetry_space_group_name_H-M "P 21 21 21"
_symmetry_group_IT_number 19
_symmetry_cell_setting 'orthorhombic'
loop_
_space_group_symop_operation_xyz
x,y,z
1/2-x,-y,1/2+z
1/2+x,1/2-y,-z
-x,1/2+y,1/2-z
loop_
_atom_site_type_symbol
_atom_site_label
_atom_site_fract_x
_atom_site_fract_y
_atom_site_fract_z
Si Si1 0.134386 0.286688 0.220512
Si Si2 0.135497 0.843469 0.403695
Si Si3 0.389732 0.390050 0.319504
Si Si4 0.080661 0.488342 0.007147
Si Si5 0.065606 0.055873 0.860863
Si Si6 0.814343 0.178138 0.948373
Si Si7 0.576416 0.310235 0.585240
Si Si8 0.410084 0.177943 0.439688
O O1 0.233729 0.375916 0.270781
O O2 0.237820 0.252544 0.133780
O O3 0.100452 0.206603 0.304701
O O4 0.984376 0.323287 0.175236
O O5 0.267253 0.912911 0.367057
O O6 0.190264 0.736217 0.452722
O O7 0.050309 0.904966 0.485955
O O8 0.386023 0.471132 0.404475
O O9 0.502532 0.428189 0.242343
O O10 0.429388 0.274546 0.364667
O O11 0.218359 0.428665 0.048611
O O12 0.025817 0.589587 0.065446
O O13 0.974333 0.140670 0.922158
O O14 0.045527 0.936075 0.898511
O O15 0.500212 0.211828 0.531353
O O16 0.736930 0.325307 0.542146
#
# Coordination Sequence:
#
# PCOD9314421 Si02
#       8
#     4   4   4   4   4   4   4   4
#     4   9  21  41  62  89 125 160 215 264 305 391
#     4  11  22  43  61  93 126 166 216 264 316 389
#     4   9  22  41  61  91 128 168 208 268 322 383
#     4  10  21  42  63  90 128 171 209 264 330 375
#     4  11  22  39  62  96 123 168 216 256 324 377
#     4  10  23  41  63  87 132 169 211 260 325 391
#     4  10  21  41  64  93 128 164 212 270 321 377
#     4  10  22  38  64  91 130 162 213 270 319 381
#
# _framework density 19.258686999999998
#
# number of rings (size 3 to 8) (size 9 to 14) (size 15 to 20)
#    0.000    2.000    1.250    1.500    5.250    6.000 
#    6.750    1.250    0.000    0.000    0.000    0.000 
#    0.000    0.000    0.000    0.000    0.000    0.000 
#
# Total GULP energy -178474.353344 kJ/mol
# GULP energy per Si atom -5577.323542 kJ/mol
# Density = 1.921485 g / cm^3
# Si number density = 19.258687 Si / 1000 Ang^3
#
#
#
# Elastic Constant Matrix: (Units=GPa)
#
#
# Indices 1 2 3 4 5 6 
#
# 1 90.2033 12.7647 30.4813 0.0000 0.0000 0.0000
# 2 12.7647 44.0324 19.2921 0.0000 0.0000 0.0000
# 3 30.4813 19.2921 81.4758 0.0000 0.0000 0.0000
# 4 0.0000 0.0000 0.0000 16.3012 0.0000 0.0000
# 5 0.0000 0.0000 0.0000 0.0000 23.7900 0.0000
# 6 0.0000 0.0000 0.0000 0.0000 0.0000 23.4573
#
#
#
# Elastic Compliance Matrix: (Units=1/GPa)
#
#
# Indices 1 2 3 4 5 6 
#
# 1 0.012817 -0.001802 -0.004369 0.000000 0.000000 0.000000
# 2 -0.001802 0.025593 -0.005386 0.000000 0.000000 0.000000
# 3 -0.004369 -0.005386 0.015183 0.000000 0.000000 0.000000
# 4 0.000000 0.000000 0.000000 0.061345 0.000000 0.000000
# 5 0.000000 0.000000 0.000000 0.000000 0.042035 0.000000
# 6 0.000000 0.000000 0.000000 0.000000 0.000000 0.042631
#
#
# Mechanical properties :
#
#
# Convention : Reuss Voigt Hill
#
# Bulk Modulus (GPa) = 32.80737 37.86528 35.33632
# Shear Modulus (GPa) = 21.47068 22.92125 22.19596
#
# Velocity S-wave (km/s) = 3.34257 3.45364 3.39856
# Velocity P-wave (km/s) = 5.65412 5.96721 5.81277
#
# Compressibility (1/GPa) = 0.03048096
#
# Stress axis : x y z
#
# Youngs Moduli (GPa) = 78.02004 39.07384 65.86239
#
# Poissons Ratio (x) = 0.07040 0.28772
# Poissons Ratio (y) = 0.14056 0.35473
# Poissons Ratio (z) = 0.34083 0.21045
#
# Static dielectric constant tensor:
#      x y z
#    x 1.667320 0.000000 0.000000 
#    y 0.000000 1.686510 0.000000 
#    z 0.000000 0.000000 1.668090 
# 
# From -- ./inp_files/5946.got.cif
#   From: 2010.05.17/outbox.cif.g08.bks.cpg/sg19_3_cif.got.tgz:5946.got - 2010.06.03 22:46:19.
