data_PCOD9314016
_publ_section_title
;
Structure prediction by ZEFSAII (Michael W. Deem and Ramdas Pophale) SiO2 
 PCOD9314016
Probable space group: P 21 21 21
;
_chemical_formula_sum "Si O2"
_cell_formula_units_Z 32
_cell_length_a 14.456821
_cell_length_b 6.754768
_cell_length_c 12.414968
_cell_angle_alpha 90.000000
_cell_angle_beta 90.000000
_cell_angle_gamma 90.000000
_cell_volume 1212.352313
_symmetry_space_group_name_H-M "P 21 21 21"
_symmetry_group_IT_number 19
_symmetry_cell_setting 'orthorhombic'
loop_
_space_group_symop_operation_xyz
x,y,z
1/2-x,-y,1/2+z
1/2+x,1/2-y,-z
-x,1/2+y,1/2-z
loop_
_atom_site_type_symbol
_atom_site_label
_atom_site_fract_x
_atom_site_fract_y
_atom_site_fract_z
Si Si1 0.008968 0.092009 0.750937
Si Si2 0.531693 0.334952 0.016494
Si Si3 0.612496 0.821289 0.836787
Si Si4 0.877050 0.400165 0.916302
Si Si5 0.200831 0.163302 0.407343
Si Si6 0.213079 0.091889 0.747058
Si Si7 0.930380 0.730568 0.288820
Si Si8 0.134400 0.569628 0.929337
O O1 0.012522 0.035159 0.876930
O O2 0.111437 0.191194 0.733991
O O3 0.917692 0.129655 0.680354
O O4 0.041559 0.897538 0.675900
O O5 0.426241 0.246540 0.001077
O O6 0.604564 0.156045 0.044160
O O7 0.563159 0.398288 0.897848
O O8 0.708518 0.734507 0.794933
O O9 0.531466 0.741463 0.761494
O O10 0.609306 0.056427 0.818903
O O11 0.600302 0.806595 0.966076
O O12 0.790218 0.401722 0.836048
O O13 0.853434 0.592101 0.987569
O O14 0.130085 0.157225 0.309675
O O15 0.258392 0.365579 0.419972
O O16 0.272368 0.992634 0.366860
#
# Coordination Sequence:
#
# PCOD9314016 Si02
#       8
#     4   4   4   4   4   4   4   4
#     4   9  20  38  61  90 122 165 206 260 315 371
#     4  10  20  40  60  89 131 160 210 267 310 367
#     4  11  22  45  63  95 125 171 208 268 321 381
#     4   9  20  39  62  91 127 164 209 266 308 391
#     4  12  22  41  65  97 124 173 216 258 325 383
#     4  10  22  38  65  91 126 163 213 263 317 383
#     4  11  25  39  67  90 132 164 214 264 318 383
#     4  10  21  38  69  87 127 172 208 260 326 375
#
# _framework density 26.394966
#
# number of rings (size 3 to 8) (size 9 to 14) (size 15 to 20)
#    0.750    1.000    1.250    4.500    1.750    1.000 
#    2.250    3.750    0.000    0.000    0.000    0.000 
#    0.000    0.000    0.000    0.000    0.000    0.000 
#
# Total GULP energy -178222.256079 kJ/mol
# GULP energy per Si atom -5569.445502 kJ/mol
# Density = 2.633489 g / cm^3
# Si number density = 26.394966 Si / 1000 Ang^3
#
#
#
# Elastic Constant Matrix: (Units=GPa)
#
#
# Indices 1 2 3 4 5 6 
#
# 1 92.7639 -7.0579 26.4098 0.0000 0.0000 0.0000
# 2 -7.0579 33.4916 9.0635 0.0000 0.0000 0.0000
# 3 26.4098 9.0635 192.6095 0.0000 0.0000 0.0000
# 4 0.0000 0.0000 0.0000 -364.9764 0.0000 0.0000
# 5 0.0000 0.0000 0.0000 0.0000 36.1644 0.0000
# 6 0.0000 0.0000 0.0000 0.0000 0.0000 48.0718
#
#
#
# Elastic Compliance Matrix: (Units=1/GPa)
#
#
# Indices 1 2 3 4 5 6 
#
# 1 0.011486 0.002884 -0.001711 0.000000 0.000000 0.000000
# 2 0.002884 0.030967 -0.001853 0.000000 0.000000 0.000000
# 3 -0.001711 -0.001853 0.005514 0.000000 0.000000 0.000000
# 4 0.000000 0.000000 0.000000 -0.002740 0.000000 0.000000
# 5 0.000000 0.000000 0.000000 0.000000 0.027651 0.000000
# 6 0.000000 0.000000 0.000000 0.000000 0.000000 0.020802
#
#
# Mechanical properties :
#
#
# Convention : Reuss Voigt Hill
#
# Bulk Modulus (GPa) = 21.45558 41.74397 31.59978
# Shear Modulus (GPa) = 45.21758 -36.78473 4.21642
#
# Velocity S-wave (km/s) = 4.14347 -3.73718 1.26527
# Velocity P-wave (km/s) = 5.57112 1.66510 3.75931
#
# Compressibility (1/GPa) = 0.04660792
#
# Stress axis : x y z
#
# Youngs Moduli (GPa) = 87.05890 32.29218 181.37016
#
# Poissons Ratio (x) = -0.09312 0.31026
# Poissons Ratio (y) = -0.25104 0.33600
# Poissons Ratio (z) = 0.14893 0.05982
#
# Static dielectric constant tensor:
#      x y z
#    x 9.775280 0.000000 0.000000 
#    y 0.000000 2.617330 0.000000 
#    z 0.000000 0.000000 2.026520 
# 
# From -- ./inp_files/5287.got.cif
#   From: 2010.05.17/outbox.cif.g08.bks.cpg/sg19_3_cif.got.tgz:5287.got - 2010.06.03 22:46:19.
