data_PCOD9314157
_publ_section_title
;
Structure prediction by ZEFSAII (Michael W. Deem and Ramdas Pophale) SiO2 
 PCOD9314157
Probable space group: P 21 21 21
;
_chemical_formula_sum "Si O2"
_cell_formula_units_Z 20
_cell_length_a 22.719276
_cell_length_b 6.640769
_cell_length_c 5.288926
_cell_angle_alpha 90.000000
_cell_angle_beta 90.000000
_cell_angle_gamma 90.000000
_cell_volume 797.958585
_symmetry_space_group_name_H-M "P 21 21 21"
_symmetry_group_IT_number 19
_symmetry_cell_setting 'orthorhombic'
loop_
_space_group_symop_operation_xyz
x,y,z
1/2-x,-y,1/2+z
1/2+x,1/2-y,-z
-x,1/2+y,1/2-z
loop_
_atom_site_type_symbol
_atom_site_label
_atom_site_fract_x
_atom_site_fract_y
_atom_site_fract_z
Si Si1 0.105083 0.135931 0.618296
Si Si2 0.698748 0.789413 0.545354
Si Si3 0.733165 0.262928 0.542467
Si Si4 0.055506 0.179999 0.114439
Si Si5 0.925363 0.051404 0.052220
O O1 0.171018 0.128962 0.511102
O O2 0.062544 0.075107 0.389418
O O3 0.087292 0.374448 0.649789
O O4 0.095203 0.068112 0.904028
O O5 0.723446 0.707395 0.807788
O O6 0.628321 0.794364 0.532364
O O7 0.715019 0.027462 0.546285
O O8 0.733768 0.704072 0.305459
O O9 0.074298 0.408395 0.194906
O O10 0.988823 0.150115 0.026026
#
# Coordination Sequence:
#
# PCOD9314157 Si02
#       5
#     4   4   4   4   4
#     4   9  20  31  52  74 109 130 176 209 265 303
#     4   9  17  25  48  68 105 121 162 209 267 291
#     4   9  16  28  44  73 100 124 156 220 265 289
#     4  10  21  33  52  73 113 137 173 210 253 313
#     4   9  22  33  52  78 109 136 175 208 258 314
#
# _framework density 25.063962
#
# number of rings (size 3 to 8) (size 9 to 14) (size 15 to 20)
#    1.200    1.600    0.000    1.200   11.200    0.000 
#    0.000    0.000    0.000    0.000    0.000    5.600 
#    0.000    0.000    0.000    0.000    0.000    0.000 
#
# Total GULP energy -111641.324773 kJ/mol
# GULP energy per Si atom -5582.066239 kJ/mol
# Density = 2.500692 g / cm^3
# Si number density = 25.063962 Si / 1000 Ang^3
#
#
#
# Elastic Constant Matrix: (Units=GPa)
#
#
# Indices 1 2 3 4 5 6 
#
# 1 121.8652 18.3962 15.6502 0.0000 0.0000 0.0000
# 2 18.3962 66.3090 0.1797 0.0000 0.0000 0.0000
# 3 15.6502 0.1797 86.8581 0.0000 0.0000 0.0000
# 4 0.0000 0.0000 0.0000 -11.7916 0.0000 0.0000
# 5 0.0000 0.0000 0.0000 0.0000 25.5334 0.0000
# 6 0.0000 0.0000 0.0000 0.0000 0.0000 45.4717
#
#
#
# Elastic Compliance Matrix: (Units=1/GPa)
#
#
# Indices 1 2 3 4 5 6 
#
# 1 0.008775 -0.002430 -0.001576 0.000000 0.000000 0.000000
# 2 -0.002430 0.015754 0.000405 0.000000 0.000000 0.000000
# 3 -0.001576 0.000405 0.011796 0.000000 0.000000 0.000000
# 4 0.000000 0.000000 0.000000 -0.084806 0.000000 0.000000
# 5 0.000000 0.000000 0.000000 0.000000 0.039164 0.000000
# 6 0.000000 0.000000 0.000000 0.000000 0.000000 0.021992
#
#
# Mechanical properties :
#
#
# Convention : Reuss Voigt Hill
#
# Bulk Modulus (GPa) = 34.33683 38.16495 36.25089
# Shear Modulus (GPa) = 169.00376 27.89645 98.45011
#
# Velocity S-wave (km/s) = 8.22042 3.33980 6.27414
# Velocity P-wave (km/s) = 10.18970 5.48930 8.18420
#
# Compressibility (1/GPa) = 0.02912325
#
# Stress axis : x y z
#
# Youngs Moduli (GPa) = 113.95961 63.47588 84.77332
#
# Poissons Ratio (x) = 0.15426 0.13361
# Poissons Ratio (y) = 0.27694 -0.03436
# Poissons Ratio (z) = 0.17961 -0.02573
#
# Static dielectric constant tensor:
#      x y z
#    x 1.935660 0.000000 0.000000 
#    y 0.000000 2.127400 0.000000 
#    z 0.000000 0.000000 1.961720 
# 
# From -- ./inp_files/1389.got.cif
#   From: 2010.05.17/outbox.cif.g08.bks.cpg/sg19_1_cif.got.tgz:1389.got - 2010.06.03 22:46:19.
