data_PCOD9314072
_publ_section_title
;
Structure prediction by ZEFSAII (Michael W. Deem and Ramdas Pophale) SiO2 
 PCOD9314072
Probable space group: P 21 21 21
;
_chemical_formula_sum "Si O2"
_cell_formula_units_Z 32
_cell_length_a 18.996706
_cell_length_b 5.546552
_cell_length_c 11.799830
_cell_angle_alpha 90.000000
_cell_angle_beta 90.000000
_cell_angle_gamma 90.000000
_cell_volume 1243.303456
_symmetry_space_group_name_H-M "P 21 21 21"
_symmetry_group_IT_number 19
_symmetry_cell_setting 'orthorhombic'
loop_
_space_group_symop_operation_xyz
x,y,z
1/2-x,-y,1/2+z
1/2+x,1/2-y,-z
-x,1/2+y,1/2-z
loop_
_atom_site_type_symbol
_atom_site_label
_atom_site_fract_x
_atom_site_fract_y
_atom_site_fract_z
Si Si1 0.314778 0.048639 0.981168
Si Si2 0.024029 0.591837 0.806559
Si Si3 0.171892 0.051538 0.010598
Si Si4 0.572439 0.188394 0.485195
Si Si5 0.587344 0.723329 0.702294
Si Si6 0.039741 0.093611 0.109921
Si Si7 0.193679 0.549805 0.145461
Si Si8 0.656826 0.867702 0.310017
O O1 0.362885 0.216064 0.905305
O O2 0.237523 0.050917 0.925612
O O3 0.322032 0.134084 0.113272
O O4 0.355146 0.799378 0.971929
O O5 0.108771 0.644754 0.803304
O O6 0.005932 0.319434 0.767071
O O7 0.979905 0.625071 0.922162
O O8 0.185141 0.309241 0.071817
O O9 0.088041 0.075502 0.997917
O O10 0.191330 0.798654 0.073660
O O11 0.524911 0.085184 0.584414
O O12 0.599876 0.000361 0.391443
O O13 0.589480 0.500366 0.790343
O O14 0.624647 0.929473 0.776703
O O15 0.507942 0.693742 0.655731
O O16 0.270560 0.515437 0.202794
#
# Coordination Sequence:
#
# PCOD9314072 Si02
#       8
#     4   4   4   4   4   4   4   4
#     4  11  21  41  67  97 131 181 228 274 343 407
#     4  10  21  37  62  96 129 167 223 279 341 397
#     4  10  23  43  65  93 129 177 224 281 332 391
#     4  11  21  39  66  96 133 176 226 276 343 406
#     4  11  23  41  65 103 135 187 224 283 338 417
#     4  11  23  42  65 101 141 179 229 284 341 411
#     4  10  22  42  66  91 129 176 226 276 336 395
#     4  10  20  41  64  93 133 171 226 279 336 402
#
# _framework density 25.737883
#
# number of rings (size 3 to 8) (size 9 to 14) (size 15 to 20)
#    0.000    1.500    3.750    1.500    0.000    2.000 
#    0.000   17.500    0.000    0.000    0.000    0.000 
#    0.000    0.000    0.000    0.000    0.000    0.000 
#
# Total GULP energy -178142.112433 kJ/mol
# GULP energy per Si atom -5566.941014 kJ/mol
# Density = 2.567930 g / cm^3
# Si number density = 25.737883 Si / 1000 Ang^3
#
#
#
# Elastic Constant Matrix: (Units=GPa)
#
#
# Indices 1 2 3 4 5 6 
#
# 1 138.1603 13.5222 0.5838 0.0000 0.0000 0.0000
# 2 13.5222 84.6194 1.3166 0.0000 0.0000 0.0000
# 3 0.5838 1.3166 28.6200 0.0000 0.0000 0.0000
# 4 0.0000 0.0000 0.0000 16.9403 0.0000 0.0000
# 5 0.0000 0.0000 0.0000 0.0000 13.9852 0.0000
# 6 0.0000 0.0000 0.0000 0.0000 0.0000 44.9948
#
#
#
# Elastic Compliance Matrix: (Units=1/GPa)
#
#
# Indices 1 2 3 4 5 6 
#
# 1 0.007353 -0.001174 -0.000096 0.000000 0.000000 0.000000
# 2 -0.001174 0.012013 -0.000529 0.000000 0.000000 0.000000
# 3 -0.000096 -0.000529 0.034967 0.000000 0.000000 0.000000
# 4 0.000000 0.000000 0.000000 0.059031 0.000000 0.000000
# 5 0.000000 0.000000 0.000000 0.000000 0.071504 0.000000
# 6 0.000000 0.000000 0.000000 0.000000 0.000000 0.022225
#
#
# Mechanical properties :
#
#
# Convention : Reuss Voigt Hill
#
# Bulk Modulus (GPa) = 19.70950 31.36055 25.53503
# Shear Modulus (GPa) = 21.96818 30.91587 26.44202
#
# Velocity S-wave (km/s) = 2.92470 3.46957 3.20872
# Velocity P-wave (km/s) = 4.36802 5.31616 4.86524
#
# Compressibility (1/GPa) = 0.05073694
#
# Stress axis : x y z
#
# Youngs Moduli (GPa) = 135.99460 83.24049 28.59850
#
# Poissons Ratio (x) = 0.09769 0.00275
# Poissons Ratio (y) = 0.15960 0.01512
# Poissons Ratio (z) = 0.01306 0.04401
#
# Static dielectric constant tensor:
#      x y z
#    x 2.272840 0.000000 0.000000 
#    y 0.000000 2.289500 0.000000 
#    z 0.000000 0.000000 2.343670 
# 
# From -- ./inp_files/6298.got.cif
#   From: 2010.05.17/outbox.cif.g08.bks.cpg/sg19_4_cif.got.tgz:6298.got - 2010.06.03 22:46:19.
