data_PCOD9314244
_publ_section_title
;
Structure prediction by ZEFSAII (Michael W. Deem and Ramdas Pophale) SiO2 
 PCOD9314244
Probable space group: P 21 21 21
;
_chemical_formula_sum "Si O2"
_cell_formula_units_Z 32
_cell_length_a 9.060171
_cell_length_b 19.249696
_cell_length_c 8.126625
_cell_angle_alpha 90.000000
_cell_angle_beta 90.000000
_cell_angle_gamma 90.000000
_cell_volume 1417.328401
_symmetry_space_group_name_H-M "P 21 21 21"
_symmetry_group_IT_number 19
_symmetry_cell_setting 'orthorhombic'
loop_
_space_group_symop_operation_xyz
x,y,z
1/2-x,-y,1/2+z
1/2+x,1/2-y,-z
-x,1/2+y,1/2-z
loop_
_atom_site_type_symbol
_atom_site_label
_atom_site_fract_x
_atom_site_fract_y
_atom_site_fract_z
Si Si1 0.326994 0.474622 0.258288
Si Si2 0.173006 0.025378 0.741712
Si Si3 0.169812 0.774519 0.741272
Si Si4 0.830188 0.774519 0.741272
Si Si5 0.326723 0.398998 0.908815
Si Si6 0.330763 0.149194 0.595275
Si Si7 0.326723 0.898998 0.591185
Si Si8 0.330763 0.649194 0.904725
O O1 0.500000 0.489532 0.279009
O O2 0.237264 0.545173 0.280267
O O3 0.267954 0.418994 0.389934
O O4 0.305671 0.436103 0.084463
O O5 0.232046 0.081006 0.610066
O O6 0.262736 0.954827 0.719733
O O7 0.194329 0.063897 0.915537
O O8 0.241255 0.826732 0.611117
O O9 0.264699 0.706597 0.781173
O O10 0.500000 0.743488 0.297788
O O11 0.170926 0.817014 0.914427
O O12 0.758745 0.826732 0.611117
O O13 0.735301 0.706597 0.781173
O O14 0.829074 0.817014 0.914427
O O15 0.500000 0.387228 0.882095
O O16 0.500000 0.131702 0.636411
#
# Coordination Sequence:
#
# PCOD9314244 Si02
#       8
#     4   4   4   4   4   4   4   4
#     4  11  24  40  59  85 116 151 192 237 286 340
#     4  11  24  40  59  85 116 151 192 237 286 340
#     4  10  21  38  61  88 117 151 191 234 283 339
#     4  10  21  38  61  88 117 151 191 234 283 339
#     4  11  24  40  59  85 116 151 192 237 286 340
#     4  10  21  38  61  88 117 151 191 234 283 339
#     4  11  24  40  59  85 116 151 192 237 286 340
#     4  10  21  38  61  88 117 151 191 234 283 339
#
# _framework density 22.577687999999998
#
# number of rings (size 3 to 8) (size 9 to 14) (size 15 to 20)
#    0.000    1.500    0.000    4.500    0.000   14.000 
#    0.000    0.000    0.000    0.000    0.000    0.000 
#    0.000    0.000    0.000    0.000    0.000    0.000 
#
# Total GULP energy -179228.910526 kJ/mol
# GULP energy per Si atom -5600.903454 kJ/mol
# Density = 2.252630 g / cm^3
# Si number density = 22.577688 Si / 1000 Ang^3
#
#
#
# Elastic Constant Matrix: (Units=GPa)
#
#
# Indices 1 2 3 4 5 6 
#
# 1 65.1769 -16.1246 47.2944 0.0000 0.0000 0.0000
# 2 -16.1246 53.2375 7.0095 0.0000 0.0000 0.0000
# 3 47.2944 7.0095 57.6103 0.0000 0.0000 0.0000
# 4 0.0000 0.0000 0.0000 33.0321 0.0000 0.0000
# 5 0.0000 0.0000 0.0000 0.0000 24.6953 0.0000
# 6 0.0000 0.0000 0.0000 0.0000 0.0000 23.1716
#
#
#
# Elastic Compliance Matrix: (Units=1/GPa)
#
#
# Indices 1 2 3 4 5 6 
#
# 1 0.058095 0.024264 -0.050644 0.000000 0.000000 0.000000
# 2 0.024264 0.029224 -0.023475 0.000000 0.000000 0.000000
# 3 -0.050644 -0.023475 0.061790 0.000000 0.000000 0.000000
# 4 0.000000 0.000000 0.000000 0.030274 0.000000 0.000000
# 5 0.000000 0.000000 0.000000 0.000000 0.040494 0.000000
# 6 0.000000 0.000000 0.000000 0.000000 0.000000 0.043156
#
#
# Mechanical properties :
#
#
# Convention : Reuss Voigt Hill
#
# Bulk Modulus (GPa) = 20.24377 28.04258 24.14317
# Shear Modulus (GPa) = 13.18537 25.36949 19.27743
#
# Velocity S-wave (km/s) = 2.41923 3.35573 2.92520
# Velocity P-wave (km/s) = 4.09748 5.24042 4.70379
#
# Compressibility (1/GPa) = 0.04939792
#
# Stress axis : x y z
#
# Youngs Moduli (GPa) = 17.21327 34.21888 16.18386
#
# Poissons Ratio (x) = -0.83028 0.81962
# Poissons Ratio (y) = -0.41766 0.37991
# Poissons Ratio (z) = 0.87175 0.80328
#
# Static dielectric constant tensor:
#      x y z
#    x 1.761070 0.000000 0.000000 
#    y 0.000000 1.824080 0.000000 
#    z 0.000000 0.000000 1.888360 
# 
# From -- ./inp_files/3105.got.cif
#   From: 2010.05.17/outbox.cif.g08.bks.cpg/sg19_2_cif.got.tgz:3105.got - 2010.06.03 22:46:19.
