data_PCOD9314138
_publ_section_title
;
Structure prediction by ZEFSAII (Michael W. Deem and Ramdas Pophale) SiO2 
 PCOD9314138
Probable space group: P 21 21 21
;
_chemical_formula_sum "Si O2"
_cell_formula_units_Z 32
_cell_length_a 12.092326
_cell_length_b 14.824171
_cell_length_c 7.759939
_cell_angle_alpha 90.000000
_cell_angle_beta 90.000000
_cell_angle_gamma 90.000000
_cell_volume 1391.036642
_symmetry_space_group_name_H-M "P 21 21 21"
_symmetry_group_IT_number 19
_symmetry_cell_setting 'orthorhombic'
loop_
_space_group_symop_operation_xyz
x,y,z
1/2-x,-y,1/2+z
1/2+x,1/2-y,-z
-x,1/2+y,1/2-z
loop_
_atom_site_type_symbol
_atom_site_label
_atom_site_fract_x
_atom_site_fract_y
_atom_site_fract_z
Si Si1 0.563923 0.420161 0.219442
Si Si2 0.385501 0.131229 0.240141
Si Si3 0.363892 0.605615 0.831315
Si Si4 0.343333 0.826336 0.612977
Si Si5 0.929007 0.759693 0.911675
Si Si6 0.746306 0.797087 0.651362
Si Si7 0.042791 0.803640 0.359663
Si Si8 0.670478 0.944505 0.430715
O O1 0.582850 0.525502 0.254549
O O2 0.575798 0.347425 0.374606
O O3 0.437628 0.407345 0.161154
O O4 0.638305 0.390938 0.054270
O O5 0.250823 0.134834 0.238786
O O6 0.451020 0.192344 0.382504
O O7 0.428015 0.170698 0.055872
O O8 0.479449 0.613090 0.728092
O O9 0.271091 0.570331 0.700680
O O10 0.365513 0.705397 0.918404
O O11 0.356848 0.543263 0.999390
O O12 0.282325 0.738825 0.535266
O O13 0.464756 0.785694 0.650345
O O14 0.855811 0.800086 0.758318
O O15 0.657424 0.727324 0.725557
O O16 0.693135 0.891463 0.608139
#
# Coordination Sequence:
#
# PCOD9314138 Si02
#       8
#     4   4   4   4   4   4   4   4
#     4  11  23  44  69 100 143 187 236 293 362 430
#     4  11  22  45  74 100 142 187 238 300 355 435
#     4  12  27  41  67 106 142 177 239 297 362 429
#     4  10  20  43  70  97 133 191 229 277 367 432
#     4  11  23  46  68 102 140 185 236 293 363 422
#     4  10  20  43  71  94 137 179 226 288 352 429
#     4  11  22  44  69 100 135 187 235 287 365 424
#     4  12  23  42  70 103 140 185 233 299 360 423
#
# _framework density 23.004425999999999
#
# number of rings (size 3 to 8) (size 9 to 14) (size 15 to 20)
#    0.000    1.000    6.250    1.500    1.750    1.000 
#   11.250    0.000    0.000    0.000    0.000    0.000 
#    0.000    0.000    0.000    0.000    0.000    0.000 
#
# Total GULP energy -178343.133095 kJ/mol
# GULP energy per Si atom -5573.222909 kJ/mol
# Density = 2.295207 g / cm^3
# Si number density = 23.004426 Si / 1000 Ang^3
#
#
#
# Elastic Constant Matrix: (Units=GPa)
#
#
# Indices 1 2 3 4 5 6 
#
# 1 109.3654 11.9327 13.3095 0.0000 0.0000 0.0000
# 2 11.9327 64.4731 9.0674 0.0000 0.0000 0.0000
# 3 13.3095 9.0674 52.0896 0.0000 0.0000 0.0000
# 4 0.0000 0.0000 0.0000 36.5332 0.0000 0.0000
# 5 0.0000 0.0000 0.0000 0.0000 20.6007 0.0000
# 6 0.0000 0.0000 0.0000 0.0000 0.0000 26.6567
#
#
#
# Elastic Compliance Matrix: (Units=1/GPa)
#
#
# Indices 1 2 3 4 5 6 
#
# 1 0.009570 -0.001463 -0.002191 0.000000 0.000000 0.000000
# 2 -0.001463 0.016123 -0.002433 0.000000 0.000000 0.000000
# 3 -0.002191 -0.002433 0.020181 0.000000 0.000000 0.000000
# 4 0.000000 0.000000 0.000000 0.027372 0.000000 0.000000
# 5 0.000000 0.000000 0.000000 0.000000 0.048542 0.000000
# 6 0.000000 0.000000 0.000000 0.000000 0.000000 0.037514
#
#
# Mechanical properties :
#
#
# Convention : Reuss Voigt Hill
#
# Bulk Modulus (GPa) = 29.67254 32.72746 31.20000
# Shear Modulus (GPa) = 27.36592 29.53269 28.44930
#
# Velocity S-wave (km/s) = 3.45279 3.58688 3.52047
# Velocity P-wave (km/s) = 5.36864 5.60462 5.48790
#
# Compressibility (1/GPa) = 0.03370119
#
# Stress axis : x y z
#
# Youngs Moduli (GPa) = 104.49457 62.02215 49.55182
#
# Poissons Ratio (x) = 0.09075 0.10854
# Poissons Ratio (y) = 0.15289 0.12055
# Poissons Ratio (z) = 0.22890 0.15089
#
# Static dielectric constant tensor:
#      x y z
#    x 1.898260 0.000000 0.000000 
#    y 0.000000 1.908470 0.000000 
#    z 0.000000 0.000000 1.941290 
# 
# From -- ./inp_files/3629.got.cif
#   From: 2010.05.17/outbox.cif.g08.bks.cpg/sg19_2_cif.got.tgz:3629.got - 2010.06.03 22:46:19.
