data_PCOD9314535
_publ_section_title
;
Structure prediction by ZEFSAII (Michael W. Deem and Ramdas Pophale) SiO2 
 PCOD9314535
Probable space group: P 21 21 21
;
_chemical_formula_sum "Si O2"
_cell_formula_units_Z 32
_cell_length_a 9.602616
_cell_length_b 6.557943
_cell_length_c 19.429104
_cell_angle_alpha 90.000000
_cell_angle_beta 90.000000
_cell_angle_gamma 90.000000
_cell_volume 1223.516901
_symmetry_space_group_name_H-M "P 21 21 21"
_symmetry_group_IT_number 19
_symmetry_cell_setting 'orthorhombic'
loop_
_space_group_symop_operation_xyz
x,y,z
1/2-x,-y,1/2+z
1/2+x,1/2-y,-z
-x,1/2+y,1/2-z
loop_
_atom_site_type_symbol
_atom_site_label
_atom_site_fract_x
_atom_site_fract_y
_atom_site_fract_z
Si Si1 0.957727 0.033973 0.600505
Si Si2 0.229947 0.696299 0.065891
Si Si3 0.416943 0.706899 0.518804
Si Si4 0.218732 0.928230 0.934173
Si Si5 0.721158 0.773600 0.670591
Si Si6 0.107926 0.392427 0.699888
Si Si7 0.444990 0.972836 0.648781
Si Si8 0.840878 0.367642 0.781676
O O1 0.894447 0.255322 0.585188
O O2 0.943647 0.386616 0.715930
O O3 0.015533 0.910730 0.534263
O O4 0.817578 0.911738 0.622039
O O5 0.183648 0.473326 0.042889
O O6 0.343006 0.668769 0.124617
O O7 0.290844 0.802034 0.997057
O O8 0.105640 0.825556 0.105338
O O9 0.353021 0.891127 0.476298
O O10 0.468701 0.808082 0.588165
O O11 0.290613 0.051639 0.869536
O O12 0.810262 0.761916 0.741605
O O13 0.589081 0.921163 0.687676
O O14 0.155522 0.624728 0.707572
O O15 0.063682 0.978495 0.661030
O O16 0.318492 0.925501 0.700859
#
# Coordination Sequence:
#
# PCOD9314535 Si02
#       8
#     4   4   4   4   4   4   4   4
#     4   9  21  44  70 106 147 200 263 329 400 481
#     4  10  21  43  72 108 154 204 267 331 410 483
#     4   9  19  41  69 105 148 197 258 327 400 484
#     4   9  20  45  77 111 151 209 262 336 406 482
#     4  10  24  45  72 111 158 206 264 329 408 498
#     4  11  24  49  75 107 151 210 275 339 407 481
#     4  11  23  42  69 108 153 202 255 328 406 482
#     4  11  24  47  74 108 154 206 272 339 403 481
#
# _framework density 26.154115999999998
#
# number of rings (size 3 to 8) (size 9 to 14) (size 15 to 20)
#    0.000    2.000    1.250    0.750    0.000    5.000 
#   24.750   11.250    0.000    0.000    0.000    1.750 
#    0.000    0.000    0.000    0.000    0.000    0.000 
#
# Total GULP energy -178515.198222 kJ/mol
# GULP energy per Si atom -5578.599944 kJ/mol
# Density = 2.609459 g / cm^3
# Si number density = 26.154116 Si / 1000 Ang^3
#
#
#
# Elastic Constant Matrix: (Units=GPa)
#
#
# Indices 1 2 3 4 5 6 
#
# 1 98.7911 6.3360 7.6727 0.0000 0.0000 0.0000
# 2 6.3360 103.9959 21.2320 0.0000 0.0000 0.0000
# 3 7.6727 21.2320 118.8772 0.0000 0.0000 0.0000
# 4 0.0000 0.0000 0.0000 35.0868 0.0000 0.0000
# 5 0.0000 0.0000 0.0000 0.0000 15.7522 0.0000
# 6 0.0000 0.0000 0.0000 0.0000 0.0000 29.9403
#
#
#
# Elastic Compliance Matrix: (Units=1/GPa)
#
#
# Indices 1 2 3 4 5 6 
#
# 1 0.010199 -0.000505 -0.000568 0.000000 0.000000 0.000000
# 2 -0.000505 0.010005 -0.001754 0.000000 0.000000 0.000000
# 3 -0.000568 -0.001754 0.008762 0.000000 0.000000 0.000000
# 4 0.000000 0.000000 0.000000 0.028501 0.000000 0.000000
# 5 0.000000 0.000000 0.000000 0.000000 0.063483 0.000000
# 6 0.000000 0.000000 0.000000 0.000000 0.000000 0.033400
#
#
# Mechanical properties :
#
#
# Convention : Reuss Voigt Hill
#
# Bulk Modulus (GPa) = 42.89950 43.57171 43.23560
# Shear Modulus (GPa) = 29.80184 35.25075 32.52629
#
# Velocity S-wave (km/s) = 3.37927 3.67523 3.53035
# Velocity P-wave (km/s) = 5.62709 5.89114 5.76063
#
# Compressibility (1/GPa) = 0.02331029
#
# Stress axis : x y z
#
# Youngs Moduli (GPa) = 98.04980 99.95289 114.12889
#
# Poissons Ratio (x) = 0.05052 0.06483
# Poissons Ratio (y) = 0.04956 0.20021
# Poissons Ratio (z) = 0.05569 0.17534
#
# Static dielectric constant tensor:
#      x y z
#    x 2.118790 0.000000 0.000000 
#    y 0.000000 2.174330 0.000000 
#    z 0.000000 0.000000 -1.946530 
# 
# From -- ./inp_files/7218.got.cif
#   From: 2010.05.17/outbox.cif.g08.bks.cpg/sg19_4_cif.got.tgz:7218.got - 2010.06.03 22:46:19.
