data_PCOD9314905
_publ_section_title
;
Structure prediction by ZEFSAII (Michael W. Deem and Ramdas Pophale) SiO2 
 PCOD9314905
Probable space group: P 21 21 21
;
_chemical_formula_sum "Si O2"
_cell_formula_units_Z 32
_cell_length_a 9.025001
_cell_length_b 18.683155
_cell_length_c 8.693842
_cell_angle_alpha 90.000000
_cell_angle_beta 90.000000
_cell_angle_gamma 90.000000
_cell_volume 1465.916451
_symmetry_space_group_name_H-M "P 21 21 21"
_symmetry_group_IT_number 19
_symmetry_cell_setting 'orthorhombic'
loop_
_space_group_symop_operation_xyz
x,y,z
1/2-x,-y,1/2+z
1/2+x,1/2-y,-z
-x,1/2+y,1/2-z
loop_
_atom_site_type_symbol
_atom_site_label
_atom_site_fract_x
_atom_site_fract_y
_atom_site_fract_z
Si Si1 0.188102 0.953601 0.776100
Si Si2 0.445636 0.729678 0.053535
Si Si3 0.755980 0.706417 0.180366
Si Si4 0.182608 0.215045 0.859148
Si Si5 0.357937 0.307596 0.055874
Si Si6 0.299585 0.558558 0.701725
Si Si7 0.123648 0.923990 0.421039
Si Si8 0.378699 0.566526 0.061293
O O1 0.267839 0.878174 0.809489
O O2 0.143208 0.948127 0.597752
O O3 0.042507 0.958929 0.884509
O O4 0.295886 0.018326 0.813031
O O5 0.621576 0.724182 0.064329
O O6 0.381594 0.781126 0.186142
O O7 0.382161 0.651241 0.089323
O O8 0.398699 0.755862 0.886793
O O9 0.698393 0.742941 0.334772
O O10 0.297965 0.151303 0.885404
O O11 0.034158 0.200520 0.960224
O O12 0.262970 0.289463 0.904684
O O13 0.316153 0.381039 0.142424
O O14 0.451133 0.577637 0.615752
O O15 0.236747 0.481346 0.655111
O O16 0.337308 0.558829 0.882072
#
# Coordination Sequence:
#
# PCOD9314905 Si02
#       8
#     4   4   4   4   4   4   4   4
#     4  11  25  46  68  95 139 173 230 277 335 405
#     4  10  24  40  69  96 134 171 219 272 334 396
#     4  10  22  44  65  96 132 170 215 276 328 397
#     4  11  25  42  69 100 135 176 225 274 335 400
#     4  11  23  44  67  99 134 175 221 275 332 401
#     4  12  26  43  72  96 136 179 225 279 345 399
#     4  12  26  45  69 100 133 183 223 283 340 401
#     4  11  25  46  67 100 133 179 226 280 335 409
#
# _framework density 21.829350000000002
#
# number of rings (size 3 to 8) (size 9 to 14) (size 15 to 20)
#    0.000    1.000    2.500    3.000   10.500    2.000 
#    0.000    0.000    0.000    0.000    0.000    0.000 
#    0.000    0.000    0.000    0.000    0.000    0.000 
#
# Total GULP energy -178987.672370 kJ/mol
# GULP energy per Si atom -5593.364762 kJ/mol
# Density = 2.177967 g / cm^3
# Si number density = 21.829350 Si / 1000 Ang^3
#
#
#
# Elastic Constant Matrix: (Units=GPa)
#
#
# Indices 1 2 3 4 5 6 
#
# 1 56.7939 5.7662 28.5529 0.0000 0.0000 0.0000
# 2 5.7662 28.4538 35.6648 0.0000 0.0000 0.0000
# 3 28.5529 35.6648 -90.9491 0.0000 0.0000 0.0000
# 4 0.0000 0.0000 0.0000 32.2426 0.0000 0.0000
# 5 0.0000 0.0000 0.0000 0.0000 28.5159 0.0000
# 6 0.0000 0.0000 0.0000 0.0000 0.0000 21.2804
#
#
#
# Elastic Compliance Matrix: (Units=1/GPa)
#
#
# Indices 1 2 3 4 5 6 
#
# 1 0.016956 -0.006777 0.002666 0.000000 0.000000 0.000000
# 2 -0.006777 0.026272 0.008175 0.000000 0.000000 0.000000
# 3 0.002666 0.008175 -0.006953 0.000000 0.000000 0.000000
# 4 0.000000 0.000000 0.000000 0.031015 0.000000 0.000000
# 5 0.000000 0.000000 0.000000 0.000000 0.035068 0.000000
# 6 0.000000 0.000000 0.000000 0.000000 0.000000 0.046992
#
#
# Mechanical properties :
#
#
# Convention : Reuss Voigt Hill
#
# Bulk Modulus (GPa) = 22.52218 14.91848 18.72033
# Shear Modulus (GPa) = 32.04647 11.36208 21.70428
#
# Velocity S-wave (km/s) = 3.83566 2.28391 3.15663
# Velocity P-wave (km/s) = 5.47323 3.71537 4.67762
#
# Compressibility (1/GPa) = 0.04440067
#
# Stress axis : x y z
#
# Youngs Moduli (GPa) = 58.97790 38.06358 -143.82811
#
# Poissons Ratio (x) = 0.25796 0.38338
# Poissons Ratio (y) = 0.39970 1.17574
# Poissons Ratio (z) = -0.15721 -0.31115
#
# Static dielectric constant tensor:
#      x y z
#    x 1.788920 0.000000 0.000000 
#    y 0.000000 1.749830 0.000000 
#    z 0.000000 0.000000 1.819230 
# 
# From -- ./inp_files/3179.got.cif
#   From: 2010.05.17/outbox.cif.g08.bks.cpg/sg19_2_cif.got.tgz:3179.got - 2010.06.03 22:46:19.
