data_PCOD9314830
_publ_section_title
;
Structure prediction by ZEFSAII (Michael W. Deem and Ramdas Pophale) SiO2 
 PCOD9314830
Probable space group: P 21 21 21
;
_chemical_formula_sum "Si O2"
_cell_formula_units_Z 28
_cell_length_a 18.375845
_cell_length_b 8.108615
_cell_length_c 7.893439
_cell_angle_alpha 90.000000
_cell_angle_beta 90.000000
_cell_angle_gamma 90.000000
_cell_volume 1176.143348
_symmetry_space_group_name_H-M "P 21 21 21"
_symmetry_group_IT_number 19
_symmetry_cell_setting 'orthorhombic'
loop_
_space_group_symop_operation_xyz
x,y,z
1/2-x,-y,1/2+z
1/2+x,1/2-y,-z
-x,1/2+y,1/2-z
loop_
_atom_site_type_symbol
_atom_site_label
_atom_site_fract_x
_atom_site_fract_y
_atom_site_fract_z
Si Si1 0.264501 0.487333 0.763947
Si Si2 0.765386 0.647235 0.566928
Si Si3 0.609797 0.178088 0.545819
Si Si4 0.407911 0.767753 0.584837
Si Si5 0.461686 0.097641 0.401961
Si Si6 0.853057 0.492270 0.854968
Si Si7 0.868425 0.070804 0.558585
O O1 0.239306 0.309822 0.824833
O O2 0.324472 0.564040 0.891231
O O3 0.309766 0.450813 0.594008
O O4 0.186880 0.583796 0.779650
O O5 0.821992 0.683149 0.415940
O O6 0.801530 0.510865 0.688481
O O7 0.687115 0.614211 0.493421
O O8 0.570605 0.230291 0.722996
O O9 0.547482 0.109420 0.424590
O O10 0.640087 0.333305 0.446095
O O11 0.412308 0.602164 0.469558
O O12 0.442840 0.930964 0.506368
O O13 0.419680 0.267713 0.456250
O O14 0.430127 0.066000 0.214849
#
# Coordination Sequence:
#
# PCOD9314830 Si02
#       7
#     4   4   4   4   4   4   4
#     4  10  23  40  69 102 130 174 235 292 343 397
#     4  10  22  42  68 102 131 178 229 301 346 398
#     4  11  25  45  67 102 139 182 235 287 350 430
#     4   9  23  44  69  99 131 176 241 282 349 413
#     4  11  27  46  68  97 148 190 222 285 363 422
#     4  11  25  43  68 102 137 181 234 289 348 421
#     4  10  23  44  69 104 134 177 232 296 339 415
#
# _framework density 23.806622999999998
#
# number of rings (size 3 to 8) (size 9 to 14) (size 15 to 20)
#    0.000    1.714    0.000    1.714   20.000    1.143 
#   10.286    0.000    0.000    0.000    0.000    0.000 
#    0.000    0.000    0.000    0.000    0.000    0.000 
#
# Total GULP energy -156385.771579 kJ/mol
# GULP energy per Si atom -5585.206128 kJ/mol
# Density = 2.375244 g / cm^3
# Si number density = 23.806623 Si / 1000 Ang^3
#
#
#
# Elastic Constant Matrix: (Units=GPa)
#
#
# Indices 1 2 3 4 5 6 
#
# 1 56.8049 21.3274 10.0009 0.0000 0.0000 0.0000
# 2 21.3274 104.5788 10.8629 0.0000 0.0000 0.0000
# 3 10.0009 10.8629 66.0488 0.0000 0.0000 0.0000
# 4 0.0000 0.0000 0.0000 24.5011 0.0000 0.0000
# 5 0.0000 0.0000 0.0000 0.0000 25.2647 0.0000
# 6 0.0000 0.0000 0.0000 0.0000 0.0000 5.0206
#
#
#
# Elastic Compliance Matrix: (Units=1/GPa)
#
#
# Indices 1 2 3 4 5 6 
#
# 1 0.019409 -0.003716 -0.002328 0.000000 0.000000 0.000000
# 2 -0.003716 0.010440 -0.001154 0.000000 0.000000 0.000000
# 3 -0.002328 -0.001154 0.015683 0.000000 0.000000 0.000000
# 4 0.000000 0.000000 0.000000 0.040814 0.000000 0.000000
# 5 0.000000 0.000000 0.000000 0.000000 0.039581 0.000000
# 6 0.000000 0.000000 0.000000 0.000000 0.000000 0.199180
#
#
# Mechanical properties :
#
#
# Convention : Reuss Voigt Hill
#
# Bulk Modulus (GPa) = 32.11819 34.64610 33.38214
# Shear Modulus (GPa) = 14.29053 23.30671 18.79862
#
# Velocity S-wave (km/s) = 2.45271 3.13229 2.81310
# Velocity P-wave (km/s) = 4.64129 5.25989 4.96024
#
# Compressibility (1/GPa) = 0.03113501
#
# Stress axis : x y z
#
# Youngs Moduli (GPa) = 51.52181 95.78555 63.76490
#
# Poissons Ratio (x) = 0.35598 0.14842
# Poissons Ratio (y) = 0.19148 0.07360
# Poissons Ratio (z) = 0.11993 0.11056
#
# Static dielectric constant tensor:
#      x y z
#    x 1.894800 0.000000 0.000000 
#    y 0.000000 1.956320 0.000000 
#    z 0.000000 0.000000 1.976080 
# 
# From -- ./inp_files/4152.got.cif
#   From: 2010.05.17/outbox.cif.g08.bks.cpg/sg19_3_cif.got.tgz:4152.got - 2010.06.03 22:46:19.
