data_PCOD9314995
_publ_section_title
;
Structure prediction by ZEFSAII (Michael W. Deem and Ramdas Pophale) SiO2 
 PCOD9314995
Probable space group: P 21 21 21
;
_chemical_formula_sum "Si O2"
_cell_formula_units_Z 32
_cell_length_a 29.944765
_cell_length_b 7.826472
_cell_length_c 6.087326
_cell_angle_alpha 90.000000
_cell_angle_beta 90.000000
_cell_angle_gamma 90.000000
_cell_volume 1426.637073
_symmetry_space_group_name_H-M "P 21 21 21"
_symmetry_group_IT_number 19
_symmetry_cell_setting 'orthorhombic'
loop_
_space_group_symop_operation_xyz
x,y,z
1/2-x,-y,1/2+z
1/2+x,1/2-y,-z
-x,1/2+y,1/2-z
loop_
_atom_site_type_symbol
_atom_site_label
_atom_site_fract_x
_atom_site_fract_y
_atom_site_fract_z
Si Si1 0.572160 0.452729 0.958717
Si Si2 0.750712 0.589245 0.607634
Si Si3 0.616794 0.961401 0.222023
Si Si4 0.516209 0.021466 0.328889
Si Si5 0.489156 0.875902 0.909348
Si Si6 0.343957 0.175216 0.025557
Si Si7 0.914686 0.183919 0.316550
Si Si8 0.652260 0.318787 0.231617
O O1 0.556513 0.413951 0.713236
O O2 0.580204 0.654618 0.981306
O O3 0.526651 0.414920 0.087843
O O4 0.614981 0.360063 0.048954
O O5 0.753102 0.501784 0.356223
O O6 0.704434 0.690657 0.584595
O O7 0.798066 0.682670 0.633051
O O8 0.566457 0.949320 0.319403
O O9 0.638511 0.133169 0.316893
O O10 0.649466 0.803708 0.271691
O O11 0.608144 0.963842 0.959749
O O12 0.515805 0.196559 0.464739
O O13 0.501997 0.028928 0.072834
O O14 0.534222 0.862068 0.762099
O O15 0.349875 0.978557 0.099852
O O16 0.382358 0.242957 0.865763
#
# Coordination Sequence:
#
# PCOD9314995 Si02
#       8
#     4   4   4   4   4   4   4   4
#     4  11  22  39  67  96 137 193 242 290 369 432
#     4  10  24  50  81 111 147 191 247 310 380 447
#     4  11  24  45  66 105 146 182 242 300 366 442
#     4  10  23  40  60  98 138 186 237 297 349 444
#     4  10  23  39  64  94 140 187 239 294 360 433
#     4  11  24  47  75  97 145 188 234 307 371 443
#     4  10  23  41  66  97 140 187 241 298 362 436
#     4  11  25  47  73 110 139 192 242 306 369 451
#
# _framework density 22.430372999999999
#
# number of rings (size 3 to 8) (size 9 to 14) (size 15 to 20)
#    0.000    1.500    1.250    2.250    5.250    7.000 
#    6.750    0.000    0.000    0.000    0.000    0.000 
#    0.000    0.000    0.000    0.000    0.000    0.000 
#
# Total GULP energy -178358.622192 kJ/mol
# GULP energy per Si atom -5573.706944 kJ/mol
# Density = 2.237932 g / cm^3
# Si number density = 22.430373 Si / 1000 Ang^3
#
#
#
# Elastic Constant Matrix: (Units=GPa)
#
#
# Indices 1 2 3 4 5 6 
#
# 1 148.3243 13.2125 55.7839 0.0000 0.0000 0.0000
# 2 13.2125 50.9449 7.5965 0.0000 0.0000 0.0000
# 3 55.7839 7.5965 64.4264 0.0000 0.0000 0.0000
# 4 0.0000 0.0000 0.0000 23.4565 0.0000 0.0000
# 5 0.0000 0.0000 0.0000 0.0000 41.1311 0.0000
# 6 0.0000 0.0000 0.0000 0.0000 0.0000 21.2423
#
#
#
# Elastic Compliance Matrix: (Units=1/GPa)
#
#
# Indices 1 2 3 4 5 6 
#
# 1 0.010086 -0.001337 -0.008576 0.000000 0.000000 0.000000
# 2 -0.001337 0.020158 -0.001219 0.000000 0.000000 0.000000
# 3 -0.008576 -0.001219 0.023091 0.000000 0.000000 0.000000
# 4 0.000000 0.000000 0.000000 0.042632 0.000000 0.000000
# 5 0.000000 0.000000 0.000000 0.000000 0.024313 0.000000
# 6 0.000000 0.000000 0.000000 0.000000 0.000000 0.047076
#
#
# Mechanical properties :
#
#
# Convention : Reuss Voigt Hill
#
# Bulk Modulus (GPa) = 32.18442 46.32016 39.25229
# Shear Modulus (GPa) = 25.00304 29.63949 27.32126
#
# Velocity S-wave (km/s) = 3.34233 3.63905 3.49384
# Velocity P-wave (km/s) = 5.41060 6.19293 5.81494
#
# Compressibility (1/GPa) = 0.03107093
#
# Stress axis : x y z
#
# Youngs Moduli (GPa) = 99.14387 49.60911 43.30767
#
# Poissons Ratio (x) = 0.06633 0.37139
# Poissons Ratio (y) = 0.13257 0.05279
# Poissons Ratio (z) = 0.85022 0.06047
#
# Static dielectric constant tensor:
#      x y z
#    x 1.772880 0.000000 0.000000 
#    y 0.000000 1.869460 0.000000 
#    z 0.000000 0.000000 2.030660 
# 
# From -- ./inp_files/2340.got.cif
#   From: 2010.05.17/outbox.cif.g08.bks.cpg/sg19_2_cif.got.tgz:2340.got - 2010.06.03 22:46:19.
