data_PCOD9314875
_publ_section_title
;
Structure prediction by ZEFSAII (Michael W. Deem and Ramdas Pophale) SiO2 
 PCOD9314875
Probable space group: P 21 21 21
;
_chemical_formula_sum "Si O2"
_cell_formula_units_Z 32
_cell_length_a 13.616981
_cell_length_b 7.486927
_cell_length_c 13.587244
_cell_angle_alpha 90.000000
_cell_angle_beta 90.000000
_cell_angle_gamma 90.000000
_cell_volume 1385.210595
_symmetry_space_group_name_H-M "P 21 21 21"
_symmetry_group_IT_number 19
_symmetry_cell_setting 'orthorhombic'
loop_
_space_group_symop_operation_xyz
x,y,z
1/2-x,-y,1/2+z
1/2+x,1/2-y,-z
-x,1/2+y,1/2-z
loop_
_atom_site_type_symbol
_atom_site_label
_atom_site_fract_x
_atom_site_fract_y
_atom_site_fract_z
Si Si1 0.274621 0.002172 0.279693
Si Si2 0.427898 0.051332 0.877783
Si Si3 0.087001 0.528334 0.386290
Si Si4 0.075730 0.954285 0.609616
Si Si5 0.754297 0.871412 0.745657
Si Si6 0.582144 0.761632 0.882058
Si Si7 0.418823 0.248854 0.386443
Si Si8 0.914046 0.039720 0.884335
O O1 0.160206 0.015625 0.308794
O O2 0.299109 0.796873 0.315169
O O3 0.675081 0.670983 0.167742
O O4 0.327140 0.004739 0.172864
O O5 0.441955 0.263873 0.869650
O O6 0.525598 0.943463 0.855611
O O7 0.405130 0.012748 0.993425
O O8 0.185133 0.508527 0.322533
O O9 0.996470 0.396930 0.364036
O O10 0.114254 0.508954 0.501338
O O11 0.056321 0.745338 0.625029
O O12 0.981177 0.073374 0.639597
O O13 0.681061 0.768360 0.820699
O O14 0.829117 0.983168 0.810042
O O15 0.603511 0.760867 0.997882
O O16 0.496034 0.090879 0.367138
#
# Coordination Sequence:
#
# PCOD9314875 Si02
#       8
#     4   4   4   4   4   4   4   4
#     4  11  24  40  68  98 134 175 227 284 335 408
#     4   9  22  45  63  98 137 176 228 285 338 410
#     4   9  22  43  67  97 142 175 224 283 334 400
#     4  10  22  43  67  93 135 177 223 284 342 409
#     4  11  24  43  70 106 134 180 235 277 341 415
#     4  10  23  43  71  96 138 180 226 279 345 414
#     4  10  23  44  65  95 134 182 224 283 343 405
#     4  10  22  45  65  95 140 177 225 281 336 407
#
# _framework density 23.101178999999998
#
# number of rings (size 3 to 8) (size 9 to 14) (size 15 to 20)
#    0.000    2.000    1.250    0.000    8.750    0.000 
#    2.250    8.750    0.000    0.000    0.000    0.000 
#    0.000    0.000    0.000    0.000    0.000    0.000 
#
# Total GULP energy -178871.173502 kJ/mol
# GULP energy per Si atom -5589.724172 kJ/mol
# Density = 2.304860 g / cm^3
# Si number density = 23.101179 Si / 1000 Ang^3
#
#
#
# Elastic Constant Matrix: (Units=GPa)
#
#
# Indices 1 2 3 4 5 6 
#
# 1 64.5505 48.2904 27.3981 0.0000 0.0000 0.0000
# 2 48.2904 114.1687 27.4832 0.0000 0.0000 0.0000
# 3 27.3981 27.4832 60.1790 0.0000 0.0000 0.0000
# 4 0.0000 0.0000 0.0000 35.0932 0.0000 0.0000
# 5 0.0000 0.0000 0.0000 0.0000 31.9900 0.0000
# 6 0.0000 0.0000 0.0000 0.0000 0.0000 37.9204
#
#
#
# Elastic Compliance Matrix: (Units=1/GPa)
#
#
# Indices 1 2 3 4 5 6 
#
# 1 0.025329 -0.008918 -0.007459 0.000000 0.000000 0.000000
# 2 -0.008918 0.012981 -0.001868 0.000000 0.000000 0.000000
# 3 -0.007459 -0.001868 0.020866 0.000000 0.000000 0.000000
# 4 0.000000 0.000000 0.000000 0.028496 0.000000 0.000000
# 5 0.000000 0.000000 0.000000 0.000000 0.031260 0.000000
# 6 0.000000 0.000000 0.000000 0.000000 0.000000 0.026371
#
#
# Mechanical properties :
#
#
# Convention : Reuss Voigt Hill
#
# Bulk Modulus (GPa) = 44.08011 49.47128 46.77570
# Shear Modulus (GPa) = 26.40545 30.04914 28.22730
#
# Velocity S-wave (km/s) = 3.38455 3.61052 3.49936
# Velocity P-wave (km/s) = 5.86484 6.23239 6.05140
#
# Compressibility (1/GPa) = 0.02268597
#
# Stress axis : x y z
#
# Youngs Moduli (GPa) = 39.47992 77.03707 47.92456
#
# Poissons Ratio (x) = 0.68702 0.35747
# Poissons Ratio (y) = 0.35209 0.08952
# Poissons Ratio (z) = 0.29448 0.14391
#
# Static dielectric constant tensor:
#      x y z
#    x 1.851100 0.000000 0.000000 
#    y 0.000000 1.879590 0.000000 
#    z 0.000000 0.000000 1.927550 
# 
# From -- ./inp_files/6823.got.cif
#   From: 2010.05.17/outbox.cif.g08.bks.cpg/sg19_4_cif.got.tgz:6823.got - 2010.06.03 22:46:19.
