data_PCOD9314281
_publ_section_title
;
Structure prediction by ZEFSAII (Michael W. Deem and Ramdas Pophale) SiO2 
 PCOD9314281
Probable space group: P 21 21 21
;
_chemical_formula_sum "Si O2"
_cell_formula_units_Z 32
_cell_length_a 14.147818
_cell_length_b 11.978983
_cell_length_c 7.484493
_cell_angle_alpha 90.000000
_cell_angle_beta 90.000000
_cell_angle_gamma 90.000000
_cell_volume 1268.445463
_symmetry_space_group_name_H-M "P 21 21 21"
_symmetry_group_IT_number 19
_symmetry_cell_setting 'orthorhombic'
loop_
_space_group_symop_operation_xyz
x,y,z
1/2-x,-y,1/2+z
1/2+x,1/2-y,-z
-x,1/2+y,1/2-z
loop_
_atom_site_type_symbol
_atom_site_label
_atom_site_fract_x
_atom_site_fract_y
_atom_site_fract_z
Si Si1 0.937342 0.140551 0.537550
Si Si2 0.544165 0.608983 0.047418
Si Si3 0.108301 0.548281 0.574828
Si Si4 0.741734 0.391184 0.417812
Si Si5 0.507384 0.103606 0.033824
Si Si6 0.718309 0.150757 0.502115
Si Si7 0.189360 0.871474 0.475075
Si Si8 0.289815 0.670177 0.592458
O O1 0.978912 0.262429 0.494643
O O2 0.829643 0.141370 0.467951
O O3 0.925975 0.120159 0.754162
O O4 0.983420 0.025675 0.474246
O O5 0.524262 0.605451 0.259341
O O6 0.481909 0.504893 0.973713
O O7 0.654116 0.594720 0.003437
O O8 0.160178 0.430953 0.623734
O O9 0.199256 0.612489 0.494724
O O10 0.692791 0.279639 0.485400
O O11 0.686472 0.503355 0.453962
O O12 0.756013 0.371594 0.209399
O O13 0.418928 0.163897 0.940373
O O14 0.608829 0.158945 0.998086
O O15 0.702248 0.119251 0.709418
O O16 0.249653 0.795249 0.607787
#
# Coordination Sequence:
#
# PCOD9314281 Si02
#       8
#     4   4   4   4   4   4   4   4
#     4   9  20  40  63  99 134 179 232 283 344 419
#     4  10  23  43  68 100 142 189 232 291 345 432
#     4  10  21  38  72 100 135 182 229 287 359 408
#     4  11  26  47  68 101 137 185 241 286 361 435
#     4  11  23  42  67  99 139 178 235 290 357 418
#     4  10  21  41  68  94 140 174 230 289 349 419
#     4  12  27  45  70  98 139 190 232 298 362 424
#     4  11  25  44  68 105 140 181 239 298 355 431
#
# _framework density 25.227730999999999
#
# number of rings (size 3 to 8) (size 9 to 14) (size 15 to 20)
#    0.000    1.500    1.250    3.750    7.000    3.000 
#    0.000    0.000    0.000    0.000    0.000    0.000 
#    0.000    0.000    0.000    0.000    0.000    0.000 
#
# Total GULP energy -178870.762020 kJ/mol
# GULP energy per Si atom -5589.711313 kJ/mol
# Density = 2.517031 g / cm^3
# Si number density = 25.227731 Si / 1000 Ang^3
#
#
#
# Elastic Constant Matrix: (Units=GPa)
#
#
# Indices 1 2 3 4 5 6 
#
# 1 125.2312 22.4562 -2.7050 0.0000 0.0000 0.0000
# 2 22.4562 94.7466 -8.2118 0.0000 0.0000 0.0000
# 3 -2.7050 -8.2118 58.0488 0.0000 0.0000 0.0000
# 4 0.0000 0.0000 0.0000 21.2392 0.0000 0.0000
# 5 0.0000 0.0000 0.0000 0.0000 27.8234 0.0000
# 6 0.0000 0.0000 0.0000 0.0000 0.0000 33.8435
#
#
#
# Elastic Compliance Matrix: (Units=1/GPa)
#
#
# Indices 1 2 3 4 5 6 
#
# 1 0.008340 -0.001967 0.000110 0.000000 0.000000 0.000000
# 2 -0.001967 0.011149 0.001486 0.000000 0.000000 0.000000
# 3 0.000110 0.001486 0.017442 0.000000 0.000000 0.000000
# 4 0.000000 0.000000 0.000000 0.047083 0.000000 0.000000
# 5 0.000000 0.000000 0.000000 0.000000 0.035941 0.000000
# 6 0.000000 0.000000 0.000000 0.000000 0.000000 0.029548
#
#
# Mechanical properties :
#
#
# Convention : Reuss Voigt Hill
#
# Bulk Modulus (GPa) = 27.63233 33.45616 30.54424
# Shear Modulus (GPa) = 30.80539 34.34703 32.57621
#
# Velocity S-wave (km/s) = 3.49820 3.69383 3.59734
# Velocity P-wave (km/s) = 5.22432 5.61096 5.42109
#
# Compressibility (1/GPa) = 0.03618949
#
# Stress axis : x y z
#
# Youngs Moduli (GPa) = 119.89876 89.69030 57.33223
#
# Poissons Ratio (x) = 0.17644 -0.00633
# Poissons Ratio (y) = 0.23587 -0.08517
# Poissons Ratio (z) = -0.01323 -0.13324
#
# Static dielectric constant tensor:
#      x y z
#    x 2.113380 0.000000 0.000000 
#    y 0.000000 2.129560 0.000000 
#    z 0.000000 0.000000 1.985450 
# 
# From -- ./inp_files/3988.got.cif
#   From: 2010.05.17/outbox.cif.g08.bks.cpg/sg19_2_cif.got.tgz:3988.got - 2010.06.03 22:46:19.
