data_PCOD9314623
_publ_section_title
;
Structure prediction by ZEFSAII (Michael W. Deem and Ramdas Pophale) SiO2 
 PCOD9314623
Probable space group: P 21 21 21
;
_chemical_formula_sum "Si O2"
_cell_formula_units_Z 24
_cell_length_a 10.059459
_cell_length_b 8.095263
_cell_length_c 10.658346
_cell_angle_alpha 90.000000
_cell_angle_beta 90.000000
_cell_angle_gamma 90.000000
_cell_volume 867.951388
_symmetry_space_group_name_H-M "P 21 21 21"
_symmetry_group_IT_number 19
_symmetry_cell_setting 'orthorhombic'
loop_
_space_group_symop_operation_xyz
x,y,z
1/2-x,-y,1/2+z
1/2+x,1/2-y,-z
-x,1/2+y,1/2-z
loop_
_atom_site_type_symbol
_atom_site_label
_atom_site_fract_x
_atom_site_fract_y
_atom_site_fract_z
Si Si1 0.332319 0.309429 0.695260
Si Si2 0.268171 0.275038 0.369866
Si Si3 0.577966 0.307218 0.390583
Si Si4 0.718483 0.088562 0.010710
Si Si5 0.902794 0.526930 0.257661
Si Si6 0.559786 0.659692 0.491754
O O1 0.177873 0.257783 0.716751
O O2 0.324861 0.448753 0.588060
O O3 0.458922 0.378693 0.771492
O O4 0.382386 0.125392 0.648802
O O5 0.426766 0.241759 0.382170
O O6 0.159586 0.237662 0.481281
O O7 0.261400 0.475304 0.365090
O O8 0.207386 0.168459 0.257279
O O9 0.569401 0.505692 0.396436
O O10 0.593886 0.209812 0.011493
O O11 0.847285 0.185614 0.970765
O O12 0.899348 0.422602 0.125824
#
# Coordination Sequence:
#
# PCOD9314623 Si02
#       6
#     4   4   4   4   4   4
#     4  10  22  39  59  87 122 164 206 253 313 370
#     4   9  18  36  61  88 120 155 200 252 301 356
#     4   9  18  36  61  89 118 155 202 250 301 359
#     4   9  19  35  59  89 118 155 201 250 302 362
#     4  10  22  39  58  86 123 162 204 254 312 371
#     4   9  19  35  58  87 117 153 201 251 301 358
#
# _framework density 27.651320999999999
#
# number of rings (size 3 to 8) (size 9 to 14) (size 15 to 20)
#    0.000    2.667    0.000    3.000    0.000   10.667 
#    0.000    5.000    0.000    0.000    0.000    0.000 
#    0.000    0.000    0.000    0.000    0.000    0.000 
#
# Total GULP energy -133997.863584 kJ/mol
# GULP energy per Si atom -5583.244316 kJ/mol
# Density = 2.758839 g / cm^3
# Si number density = 27.651321 Si / 1000 Ang^3
#
#
#
# Elastic Constant Matrix: (Units=GPa)
#
#
# Indices 1 2 3 4 5 6 
#
# 1 295.4879 103.3302 38.8682 0.0000 0.0000 0.0000
# 2 103.3302 158.0346 34.0882 0.0000 0.0000 0.0000
# 3 38.8682 34.0882 69.3791 0.0000 0.0000 0.0000
# 4 0.0000 0.0000 0.0000 47.9347 0.0000 0.0000
# 5 0.0000 0.0000 0.0000 0.0000 39.4272 0.0000
# 6 0.0000 0.0000 0.0000 0.0000 0.0000 68.2670
#
#
#
# Elastic Compliance Matrix: (Units=1/GPa)
#
#
# Indices 1 2 3 4 5 6 
#
# 1 0.004474 -0.002668 -0.001196 0.000000 0.000000 0.000000
# 2 -0.002668 0.008668 -0.002765 0.000000 0.000000 0.000000
# 3 -0.001196 -0.002765 0.016442 0.000000 0.000000 0.000000
# 4 0.000000 0.000000 0.000000 0.020862 0.000000 0.000000
# 5 0.000000 0.000000 0.000000 0.000000 0.025363 0.000000
# 6 0.000000 0.000000 0.000000 0.000000 0.000000 0.014648
#
#
# Mechanical properties :
#
#
# Convention : Reuss Voigt Hill
#
# Bulk Modulus (GPa) = 61.24343 97.27498 79.25921
# Shear Modulus (GPa) = 45.80567 54.23344 50.01955
#
# Velocity S-wave (km/s) = 4.07448 4.43350 4.25778
# Velocity P-wave (km/s) = 6.65821 7.83986 7.27307
#
# Compressibility (1/GPa) = 0.01632828
#
# Stress axis : x y z
#
# Youngs Moduli (GPa) = 223.49408 115.36387 60.82018
#
# Poissons Ratio (x) = 0.30774 0.07274
# Poissons Ratio (y) = 0.59619 0.16814
# Poissons Ratio (z) = 0.26730 0.31893
#
# Static dielectric constant tensor:
#      x y z
#    x 2.132790 0.000000 0.000000 
#    y 0.000000 2.172970 0.000000 
#    z 0.000000 0.000000 2.459410 
# 
# From -- ./inp_files/6550.got.cif
#   From: 2010.05.17/outbox.cif.g08.bks.cpg/sg19_4_cif.got.tgz:6550.got - 2010.06.03 22:46:19.
