data_PCOD9314878
_publ_section_title
;
Structure prediction by ZEFSAII (Michael W. Deem and Ramdas Pophale) SiO2 
 PCOD9314878
Probable space group: P 21 21 21
;
_chemical_formula_sum "Si O2"
_cell_formula_units_Z 28
_cell_length_a 18.180889
_cell_length_b 7.104765
_cell_length_c 9.092278
_cell_angle_alpha 90.000000
_cell_angle_beta 90.000000
_cell_angle_gamma 90.000000
_cell_volume 1174.458131
_symmetry_space_group_name_H-M "P 21 21 21"
_symmetry_group_IT_number 19
_symmetry_cell_setting 'orthorhombic'
loop_
_space_group_symop_operation_xyz
x,y,z
1/2-x,-y,1/2+z
1/2+x,1/2-y,-z
-x,1/2+y,1/2-z
loop_
_atom_site_type_symbol
_atom_site_label
_atom_site_fract_x
_atom_site_fract_y
_atom_site_fract_z
Si Si1 0.713754 0.340990 0.349539
Si Si2 0.146258 0.702813 0.001555
Si Si3 0.878386 0.780127 0.591811
Si Si4 0.686737 0.347528 0.806531
Si Si5 0.553865 0.551977 0.768116
Si Si6 0.468333 0.327205 0.988014
Si Si7 0.661083 0.732519 0.324366
O O1 0.766914 0.234080 0.461178
O O2 0.772696 0.462251 0.252578
O O3 0.661858 0.219051 0.247363
O O4 0.668134 0.525492 0.400097
O O5 0.127042 0.483945 0.983322
O O6 0.099007 0.798964 0.130524
O O7 0.130044 0.787991 0.840177
O O8 0.832636 0.646986 0.480323
O O9 0.961460 0.704777 0.593715
O O10 0.605581 0.366292 0.742366
O O11 0.753999 0.200894 0.800480
O O12 0.487285 0.488793 0.871553
O O13 0.535318 0.643395 0.614741
O O14 0.606468 0.851516 0.423152
#
# Coordination Sequence:
#
# PCOD9314878 Si02
#       7
#     4   4   4   4   4   4   4
#     4   9  21  39  69  92 131 180 228 286 339 405
#     4  11  24  40  67 100 136 175 238 286 347 413
#     4  11  23  42  64 104 137 175 231 288 348 428
#     4   8  21  38  68  92 132 171 237 272 348 395
#     4  10  22  43  67  98 138 186 227 289 349 426
#     4  11  24  43  69  98 140 184 232 283 362 424
#     4  10  23  41  70  98 134 185 231 286 349 415
#
# _framework density 23.840782000000001
#
# number of rings (size 3 to 8) (size 9 to 14) (size 15 to 20)
#    0.857    1.143    0.000    3.429    8.000    2.286 
#    0.000    1.429    0.000    0.000    0.000    0.000 
#    0.000    0.000    0.000    0.000    0.000    0.000 
#
# Total GULP energy -155952.733733 kJ/mol
# GULP energy per Si atom -5569.740490 kJ/mol
# Density = 2.378652 g / cm^3
# Si number density = 23.840782 Si / 1000 Ang^3
#
#
#
# Elastic Constant Matrix: (Units=GPa)
#
#
# Indices 1 2 3 4 5 6 
#
# 1 76.8174 23.6251 49.4773 0.0000 0.0000 0.0000
# 2 23.6251 61.5416 11.1325 0.0000 0.0000 0.0000
# 3 49.4773 11.1325 75.7971 0.0000 0.0000 0.0000
# 4 0.0000 0.0000 0.0000 32.9982 0.0000 0.0000
# 5 0.0000 0.0000 0.0000 0.0000 42.5878 0.0000
# 6 0.0000 0.0000 0.0000 0.0000 0.0000 30.8508
#
#
#
# Elastic Compliance Matrix: (Units=1/GPa)
#
#
# Indices 1 2 3 4 5 6 
#
# 1 0.024966 -0.006817 -0.015296 0.000000 0.000000 0.000000
# 2 -0.006817 0.018554 0.001725 0.000000 0.000000 0.000000
# 3 -0.015296 0.001725 0.022924 0.000000 0.000000 0.000000
# 4 0.000000 0.000000 0.000000 0.030305 0.000000 0.000000
# 5 0.000000 0.000000 0.000000 0.000000 0.023481 0.000000
# 6 0.000000 0.000000 0.000000 0.000000 0.000000 0.032414
#
#
# Mechanical properties :
#
#
# Convention : Reuss Voigt Hill
#
# Bulk Modulus (GPa) = 38.95818 42.51399 40.73609
# Shear Modulus (GPa) = 24.75529 29.94878 27.35204
#
# Velocity S-wave (km/s) = 3.22585 3.54814 3.39083
# Velocity P-wave (km/s) = 5.50012 5.88701 5.69685
#
# Compressibility (1/GPa) = 0.02566855
#
# Stress axis : x y z
#
# Youngs Moduli (GPa) = 40.05378 53.89603 43.62199
#
# Poissons Ratio (x) = 0.36743 0.66723
# Poissons Ratio (y) = 0.27306 -0.07525
# Poissons Ratio (z) = 0.61265 -0.09297
#
# Static dielectric constant tensor:
#      x y z
#    x 1.985750 0.000000 0.000000 
#    y 0.000000 2.012840 0.000000 
#    z 0.000000 0.000000 1.870650 
# 
# From -- ./inp_files/5544.got.cif
#   From: 2010.05.17/outbox.cif.g08.bks.cpg/sg19_3_cif.got.tgz:5544.got - 2010.06.03 22:46:19.
