data_PCOD9314067
_publ_section_title
;
Structure prediction by ZEFSAII (Michael W. Deem and Ramdas Pophale) SiO2 
 PCOD9314067
Probable space group: P 21 21 21
;
_chemical_formula_sum "Si O2"
_cell_formula_units_Z 32
_cell_length_a 7.743311
_cell_length_b 12.375625
_cell_length_c 14.174278
_cell_angle_alpha 90.000000
_cell_angle_beta 90.000000
_cell_angle_gamma 90.000000
_cell_volume 1358.297151
_symmetry_space_group_name_H-M "P 21 21 21"
_symmetry_group_IT_number 19
_symmetry_cell_setting 'orthorhombic'
loop_
_space_group_symop_operation_xyz
x,y,z
1/2-x,-y,1/2+z
1/2+x,1/2-y,-z
-x,1/2+y,1/2-z
loop_
_atom_site_type_symbol
_atom_site_label
_atom_site_fract_x
_atom_site_fract_y
_atom_site_fract_z
Si Si1 0.626463 0.726540 0.523773
Si Si2 0.283204 0.701850 0.649143
Si Si3 0.425979 0.473583 0.669485
Si Si4 0.316897 0.389558 0.469581
Si Si5 0.324418 0.415976 0.860313
Si Si6 0.209958 0.016949 0.063609
Si Si7 0.791482 0.420326 0.742472
Si Si8 0.447557 0.156021 0.438843
O O1 0.448717 0.716694 0.580124
O O2 0.623327 0.788219 0.422954
O O3 0.734776 0.806710 0.590268
O O4 0.710510 0.611505 0.500671
O O5 0.322904 0.584455 0.688097
O O6 0.265150 0.799034 0.723189
O O7 0.409266 0.435741 0.562784
O O8 0.345157 0.396711 0.749488
O O9 0.627262 0.478619 0.695266
O O10 0.291277 0.484901 0.394713
O O11 0.401589 0.281389 0.430250
O O12 0.129707 0.357294 0.510738
O O13 0.516632 0.447604 0.901240
O O14 0.321915 0.016820 0.159687
O O15 0.187030 0.906268 0.007729
O O16 0.934056 0.403267 0.662396
#
# Coordination Sequence:
#
# PCOD9314067 Si02
#       8
#     4   4   4   4   4   4   4   4
#     4  11  18  39  61  92 121 159 211 253 316 365
#     4  11  22  37  65  92 127 169 208 270 313 381
#     4  11  21  38  64  93 119 166 216 251 330 379
#     4  11  24  41  65  88 125 169 205 260 321 376
#     4  10  20  41  62  88 126 159 205 262 312 382
#     4   9  21  39  64  88 121 166 205 261 315 366
#     4  10  21  41  59  91 125 165 212 254 318 373
#     4  11  23  44  62  90 130 165 210 261 313 380
#
# _framework density 23.558909
#
# number of rings (size 3 to 8) (size 9 to 14) (size 15 to 20)
#    0.000    1.500    5.000    2.250    0.000    2.000 
#    6.750    1.250    0.000    0.000    0.000    0.000 
#    0.000    0.000    0.000    0.000    0.000    0.000 
#
# Total GULP energy -178826.721875 kJ/mol
# GULP energy per Si atom -5588.335059 kJ/mol
# Density = 2.350529 g / cm^3
# Si number density = 23.558909 Si / 1000 Ang^3
#
#
#
# Elastic Constant Matrix: (Units=GPa)
#
#
# Indices 1 2 3 4 5 6 
#
# 1 74.3494 4.7248 10.8432 0.0000 0.0000 0.0000
# 2 4.7248 25.6099 16.2593 0.0000 0.0000 0.0000
# 3 10.8432 16.2593 27.5235 0.0000 0.0000 0.0000
# 4 0.0000 0.0000 0.0000 39.5087 0.0000 0.0000
# 5 0.0000 0.0000 0.0000 0.0000 39.2628 0.0000
# 6 0.0000 0.0000 0.0000 0.0000 0.0000 19.9379
#
#
#
# Elastic Compliance Matrix: (Units=1/GPa)
#
#
# Indices 1 2 3 4 5 6 
#
# 1 0.014306 0.001502 -0.006523 0.000000 0.000000 0.000000
# 2 0.001502 0.062639 -0.037595 0.000000 0.000000 0.000000
# 3 -0.006523 -0.037595 0.061112 0.000000 0.000000 0.000000
# 4 0.000000 0.000000 0.000000 0.025311 0.000000 0.000000
# 5 0.000000 0.000000 0.000000 0.000000 0.025469 0.000000
# 6 0.000000 0.000000 0.000000 0.000000 0.000000 0.050156
#
#
# Mechanical properties :
#
#
# Convention : Reuss Voigt Hill
#
# Bulk Modulus (GPa) = 18.93093 21.23750 20.08421
# Shear Modulus (GPa) = 14.62703 26.11893 20.37298
#
# Velocity S-wave (km/s) = 2.49443 3.33327 2.94388
# Velocity P-wave (km/s) = 4.04342 4.88349 4.48318
#
# Compressibility (1/GPa) = 0.05282360
#
# Stress axis : x y z
#
# Youngs Moduli (GPa) = 69.90116 15.96457 16.36349
#
# Poissons Ratio (x) = -0.02398 0.10675
# Poissons Ratio (y) = -0.10501 0.61519
# Poissons Ratio (z) = 0.45600 0.60019
#
# Static dielectric constant tensor:
#      x y z
#    x 1.979440 0.000000 0.000000 
#    y 0.000000 1.892770 0.000000 
#    z 0.000000 0.000000 1.893570 
# 
# From -- ./inp_files/5929.got.cif
#   From: 2010.05.17/outbox.cif.g08.bks.cpg/sg19_3_cif.got.tgz:5929.got - 2010.06.03 22:46:19.
