data_PCOD9314746
_publ_section_title
;
Structure prediction by ZEFSAII (Michael W. Deem and Ramdas Pophale) SiO2 
 PCOD9314746
Probable space group: P 21 21 21
;
_chemical_formula_sum "Si O2"
_cell_formula_units_Z 28
_cell_length_a 4.971706
_cell_length_b 27.747482
_cell_length_c 7.770523
_cell_angle_alpha 90.000000
_cell_angle_beta 90.000000
_cell_angle_gamma 90.000000
_cell_volume 1071.961697
_symmetry_space_group_name_H-M "P 21 21 21"
_symmetry_group_IT_number 19
_symmetry_cell_setting 'orthorhombic'
loop_
_space_group_symop_operation_xyz
x,y,z
1/2-x,-y,1/2+z
1/2+x,1/2-y,-z
-x,1/2+y,1/2-z
loop_
_atom_site_type_symbol
_atom_site_label
_atom_site_fract_x
_atom_site_fract_y
_atom_site_fract_z
Si Si1 0.911588 0.264360 0.724701
Si Si2 0.048796 0.400508 0.770491
Si Si3 0.612492 0.383991 0.217886
Si Si4 0.012610 0.963743 0.401023
Si Si5 0.422679 0.203908 0.666785
Si Si6 0.037901 0.155158 0.140406
Si Si7 0.301182 0.444516 0.447087
O O1 0.211793 0.243303 0.748020
O O2 0.888942 0.289720 0.537825
O O3 0.731940 0.298292 0.847927
O O4 0.724540 0.217391 0.709993
O O5 0.249003 0.353759 0.771210
O O6 0.106283 0.431661 0.603273
O O7 0.739921 0.385028 0.783115
O O8 0.107489 0.430868 0.944325
O O9 0.716368 0.435785 0.149560
O O10 0.853421 0.349431 0.274284
O O11 0.436652 0.395538 0.382098
O O12 0.486393 0.356679 0.057718
O O13 0.847271 0.964111 0.223186
O O14 0.012813 0.016702 0.480482
#
# Coordination Sequence:
#
# PCOD9314746 Si02
#       7
#     4   4   4   4   4   4   4
#     4  10  22  41  67 101 146 187 242 289 357 435
#     4  11  25  44  71 102 148 190 245 300 364 436
#     4  11  27  43  73 103 146 189 249 305 365 439
#     4  11  26  46  68 108 143 190 252 305 371 444
#     4  10  23  41  67 104 140 191 239 292 357 435
#     4  11  24  45  69 108 146 190 243 299 362 433
#     4  12  25  46  73 100 147 195 244 308 374 436
#
# _framework density 26.120334
#
# number of rings (size 3 to 8) (size 9 to 14) (size 15 to 20)
#    0.000    1.143    2.857    1.714    6.000    5.714 
#    0.000    0.000    0.000    0.000    0.000    0.000 
#    0.000    0.000    0.000    0.000    0.000    0.000 
#
# Total GULP energy -156767.955515 kJ/mol
# GULP energy per Si atom -5598.855554 kJ/mol
# Density = 2.606088 g / cm^3
# Si number density = 26.120334 Si / 1000 Ang^3
#
#
#
# Elastic Constant Matrix: (Units=GPa)
#
#
# Indices 1 2 3 4 5 6 
#
# 1 81.9646 5.8678 31.5382 0.0000 0.0000 0.0000
# 2 5.8678 42.4572 34.8622 0.0000 0.0000 0.0000
# 3 31.5382 34.8622 141.3765 0.0000 0.0000 0.0000
# 4 0.0000 0.0000 0.0000 47.7329 0.0000 0.0000
# 5 0.0000 0.0000 0.0000 0.0000 27.3483 0.0000
# 6 0.0000 0.0000 0.0000 0.0000 0.0000 38.2944
#
#
#
# Elastic Compliance Matrix: (Units=1/GPa)
#
#
# Indices 1 2 3 4 5 6 
#
# 1 0.013365 0.000754 -0.003167 0.000000 0.000000 0.000000
# 2 0.000754 0.029575 -0.007461 0.000000 0.000000 0.000000
# 3 -0.003167 -0.007461 0.009620 0.000000 0.000000 0.000000
# 4 0.000000 0.000000 0.000000 0.020950 0.000000 0.000000
# 5 0.000000 0.000000 0.000000 0.000000 0.036565 0.000000
# 6 0.000000 0.000000 0.000000 0.000000 0.000000 0.026113
#
#
# Mechanical properties :
#
#
# Convention : Reuss Voigt Hill
#
# Bulk Modulus (GPa) = 30.47798 45.59275 38.03536
# Shear Modulus (GPa) = 29.96240 35.57711 32.76975
#
# Velocity S-wave (km/s) = 3.39055 3.69460 3.54583
# Velocity P-wave (km/s) = 5.19821 5.97435 5.59974
#
# Compressibility (1/GPa) = 0.03281058
#
# Stress axis : x y z
#
# Youngs Moduli (GPa) = 74.82148 33.81179 103.95297
#
# Poissons Ratio (x) = -0.02548 0.32925
# Poissons Ratio (y) = -0.05639 0.77561
# Poissons Ratio (z) = 0.23698 0.25228
#
# Static dielectric constant tensor:
#      x y z
#    x 2.030830 0.000000 0.000000 
#    y 0.000000 2.100080 0.000000 
#    z 0.000000 0.000000 1.991620 
# 
# From -- ./inp_files/2468.got.cif
#   From: 2010.05.17/outbox.cif.g08.bks.cpg/sg19_2_cif.got.tgz:2468.got - 2010.06.03 22:46:19.
