data_PCOD9314714
_publ_section_title
;
Structure prediction by ZEFSAII (Michael W. Deem and Ramdas Pophale) SiO2 
 PCOD9314714
Probable space group: P 21 21 21
;
_chemical_formula_sum "Si O2"
_cell_formula_units_Z 32
_cell_length_a 9.422288
_cell_length_b 27.452533
_cell_length_c 6.320820
_cell_angle_alpha 90.000000
_cell_angle_beta 90.000000
_cell_angle_gamma 90.000000
_cell_volume 1634.979155
_symmetry_space_group_name_H-M "P 21 21 21"
_symmetry_group_IT_number 19
_symmetry_cell_setting 'orthorhombic'
loop_
_space_group_symop_operation_xyz
x,y,z
1/2-x,-y,1/2+z
1/2+x,1/2-y,-z
-x,1/2+y,1/2-z
loop_
_atom_site_type_symbol
_atom_site_label
_atom_site_fract_x
_atom_site_fract_y
_atom_site_fract_z
Si Si1 0.393846 0.227777 0.500582
Si Si2 0.751388 0.668922 0.376174
Si Si3 0.873409 0.565382 0.284838
Si Si4 0.902317 0.011141 0.952104
Si Si5 0.963370 0.832141 0.377824
Si Si6 0.379617 0.561703 0.710232
Si Si7 0.393925 0.004834 0.058691
Si Si8 0.854708 0.751064 0.696122
O O1 0.297975 0.195967 0.338763
O O2 0.486637 0.195685 0.665230
O O3 0.506943 0.254588 0.347107
O O4 0.283078 0.256367 0.651746
O O5 0.842016 0.621489 0.322756
O O6 0.606915 0.653700 0.496462
O O7 0.828646 0.705648 0.538597
O O8 0.867434 0.547933 0.043247
O O9 0.750512 0.532347 0.389565
O O10 0.020359 0.546923 0.382677
O O11 0.754862 0.035437 0.892618
O O12 0.006811 0.003704 0.757863
O O13 0.879790 0.957886 0.051487
O O14 0.880096 0.880805 0.318580
O O15 0.880816 0.796503 0.538743
O O16 0.519516 0.538789 0.603383
#
# Coordination Sequence:
#
# PCOD9314714 Si02
#       8
#     4   4   4   4   4   4   4   4
#     4  10  22  42  68  95 128 175 215 270 340 389
#     4  10  22  41  68  96 131 167 223 273 323 395
#     4  11  23  39  65  96 126 168 213 265 323 377
#     4  11  24  41  62  93 132 169 211 266 319 379
#     4  10  22  40  71  95 124 178 222 271 329 395
#     4  11  23  42  66  89 129 170 214 262 321 387
#     4  11  22  39  65  91 129 166 211 263 314 382
#     4  10  22  44  67  97 131 165 223 278 331 396
#
# _framework density 19.572113999999999
#
# number of rings (size 3 to 8) (size 9 to 14) (size 15 to 20)
#    0.000    1.500    3.750    0.750    1.750    2.000 
#   11.250    0.000    0.000    0.000    0.000    0.000 
#    0.000    0.000    0.000    0.000    0.000    0.000 
#
# Total GULP energy -178646.744138 kJ/mol
# GULP energy per Si atom -5582.710754 kJ/mol
# Density = 1.952757 g / cm^3
# Si number density = 19.572114 Si / 1000 Ang^3
#
#
#
# Elastic Constant Matrix: (Units=GPa)
#
#
# Indices 1 2 3 4 5 6 
#
# 1 62.2848 39.6404 38.4096 0.0000 0.0000 0.0000
# 2 39.6404 113.3926 55.4819 0.0000 0.0000 0.0000
# 3 38.4096 55.4819 116.0625 0.0000 0.0000 0.0000
# 4 0.0000 0.0000 0.0000 17.6396 0.0000 0.0000
# 5 0.0000 0.0000 0.0000 0.0000 50.3705 0.0000
# 6 0.0000 0.0000 0.0000 0.0000 0.0000 28.5434
#
#
#
# Elastic Compliance Matrix: (Units=1/GPa)
#
#
# Indices 1 2 3 4 5 6 
#
# 1 0.022542 -0.005522 -0.004820 0.000000 0.000000 0.000000
# 2 -0.005522 0.012864 -0.004322 0.000000 0.000000 0.000000
# 3 -0.004820 -0.004322 0.012277 0.000000 0.000000 0.000000
# 4 0.000000 0.000000 0.000000 0.056691 0.000000 0.000000
# 5 0.000000 0.000000 0.000000 0.000000 0.019853 0.000000
# 6 0.000000 0.000000 0.000000 0.000000 0.000000 0.035034
#
#
# Mechanical properties :
#
#
# Convention : Reuss Voigt Hill
#
# Bulk Modulus (GPa) = 54.48120 62.08932 58.28526
# Shear Modulus (GPa) = 25.67937 29.85789 27.76863
#
# Velocity S-wave (km/s) = 3.62614 3.91004 3.77076
# Velocity P-wave (km/s) = 6.74006 7.22335 6.98589
#
# Compressibility (1/GPa) = 0.01835496
#
# Stress axis : x y z
#
# Youngs Moduli (GPa) = 44.36107 77.73628 81.45027
#
# Poissons Ratio (x) = 0.42925 0.39263
# Poissons Ratio (y) = 0.24495 0.35203
# Poissons Ratio (z) = 0.21384 0.33598
#
# Static dielectric constant tensor:
#      x y z
#    x 1.678220 0.000000 0.000000 
#    y 0.000000 1.649240 0.000000 
#    z 0.000000 0.000000 1.724650 
# 
# From -- ./inp_files/736.got.cif
#   From: 2010.05.17/outbox.cif.g08.bks.cpg/sg19_1_cif.got.tgz:736.got - 2010.06.03 22:46:19.
