data_PCOD9314003
_publ_section_title
;
Structure prediction by ZEFSAII (Michael W. Deem and Ramdas Pophale) SiO2 
 PCOD9314003
Probable space group: P 21 21 21
;
_chemical_formula_sum "Si O2"
_cell_formula_units_Z 32
_cell_length_a 8.633871
_cell_length_b 5.958513
_cell_length_c 28.849441
_cell_angle_alpha 90.000000
_cell_angle_beta 90.000000
_cell_angle_gamma 90.000000
_cell_volume 1484.160433
_symmetry_space_group_name_H-M "P 21 21 21"
_symmetry_group_IT_number 19
_symmetry_cell_setting 'orthorhombic'
loop_
_space_group_symop_operation_xyz
x,y,z
1/2-x,-y,1/2+z
1/2+x,1/2-y,-z
-x,1/2+y,1/2-z
loop_
_atom_site_type_symbol
_atom_site_label
_atom_site_fract_x
_atom_site_fract_y
_atom_site_fract_z
Si Si1 0.693419 0.910766 0.600143
Si Si2 0.414409 0.172252 0.742367
Si Si3 0.737980 0.905425 0.929375
Si Si4 0.893297 0.216780 0.998923
Si Si5 0.687405 0.576317 0.010329
Si Si6 0.555888 0.736917 0.107669
Si Si7 0.753832 0.526099 0.671176
Si Si8 0.529043 0.743536 0.855956
O O1 0.688543 0.876158 0.545289
O O2 0.695881 0.692488 0.631319
O O3 0.854239 0.031473 0.614193
O O4 0.536606 0.044347 0.612626
O O5 0.486851 0.428811 0.753178
O O6 0.368544 0.179177 0.688285
O O7 0.275000 0.137521 0.779110
O O8 0.611080 0.921978 0.889404
O O9 0.878232 0.762551 0.906702
O O10 0.817976 0.122950 0.951660
O O11 0.670632 0.771372 0.973157
O O12 0.859758 0.479236 0.003372
O O13 0.065563 0.121710 0.000563
O O14 0.650045 0.642745 0.062722
O O15 0.587304 0.578705 0.152133
O O16 0.629020 0.326903 0.667804
#
# Coordination Sequence:
#
# PCOD9314003 Si02
#       8
#     4   4   4   4   4   4   4   4
#     4  11  19  37  59  82 115 157 200 248 307 368
#     4  10  20  39  68 102 126 157 212 280 325 376
#     4  11  24  39  55  84 127 158 202 253 308 376
#     4  11  24  34  57  81 116 159 207 246 307 364
#     4  11  23  36  53  83 116 158 204 255 299 368
#     4  10  23  36  56  82 119 163 199 246 307 380
#     4  10  21  37  63  88 116 150 206 254 314 369
#     4  10  22  38  63  90 117 156 206 260 315 373
#
# _framework density 21.561011000000001
#
# number of rings (size 3 to 8) (size 9 to 14) (size 15 to 20)
#    0.000    1.500    5.000    0.000    3.500    0.000 
#    0.000    0.000    2.750    0.000    0.000    0.000 
#    0.000    0.000    0.000    0.000    0.000    0.000 
#
# Total GULP energy -178238.850637 kJ/mol
# GULP energy per Si atom -5569.964082 kJ/mol
# Density = 2.151194 g / cm^3
# Si number density = 21.561011 Si / 1000 Ang^3
#
#
#
# Elastic Constant Matrix: (Units=GPa)
#
#
# Indices 1 2 3 4 5 6 
#
# 1 39.9126 9.4335 -8.2223 0.0000 0.0000 0.0000
# 2 9.4335 39.2482 4.8507 0.0000 0.0000 0.0000
# 3 -8.2223 4.8507 70.5864 0.0000 0.0000 0.0000
# 4 0.0000 0.0000 0.0000 24.4907 0.0000 0.0000
# 5 0.0000 0.0000 0.0000 0.0000 15.3258 0.0000
# 6 0.0000 0.0000 0.0000 0.0000 0.0000 21.7194
#
#
#
# Elastic Compliance Matrix: (Units=1/GPa)
#
#
# Indices 1 2 3 4 5 6 
#
# 1 0.027483 -0.007061 0.003687 0.000000 0.000000 0.000000
# 2 -0.007061 0.027511 -0.002713 0.000000 0.000000 0.000000
# 3 0.003687 -0.002713 0.014783 0.000000 0.000000 0.000000
# 4 0.000000 0.000000 0.000000 0.040832 0.000000 0.000000
# 5 0.000000 0.000000 0.000000 0.000000 0.065249 0.000000
# 6 0.000000 0.000000 0.000000 0.000000 0.000000 0.046042
#
#
# Mechanical properties :
#
#
# Convention : Reuss Voigt Hill
#
# Bulk Modulus (GPa) = 17.36054 17.98567 17.67311
# Shear Modulus (GPa) = 19.74124 21.88620 20.81372
#
# Velocity S-wave (km/s) = 3.02917 3.18949 3.11036
# Velocity P-wave (km/s) = 4.50597 4.68227 4.59497
#
# Compressibility (1/GPa) = 0.05760188
#
# Stress axis : x y z
#
# Youngs Moduli (GPa) = 36.38588 36.34858 67.64563
#
# Poissons Ratio (x) = 0.25667 -0.24939
# Poissons Ratio (y) = 0.25693 0.18353
# Poissons Ratio (z) = -0.13414 0.09862
#
# Static dielectric constant tensor:
#      x y z
#    x 1.814910 0.000000 0.000000 
#    y 0.000000 1.881180 0.000000 
#    z 0.000000 0.000000 1.789930 
# 
# From -- ./inp_files/669.got.cif
#   From: 2010.05.17/outbox.cif.g08.bks.cpg/sg19_1_cif.got.tgz:669.got - 2010.06.03 22:46:19.
