data_PCOD9314653
_publ_section_title
;
Structure prediction by ZEFSAII (Michael W. Deem and Ramdas Pophale) SiO2 
 PCOD9314653
Probable space group: P 21 21 21
;
_chemical_formula_sum "Si O2"
_cell_formula_units_Z 24
_cell_length_a 13.763653
_cell_length_b 5.037867
_cell_length_c 13.923887
_cell_angle_alpha 90.000000
_cell_angle_beta 90.000000
_cell_angle_gamma 90.000000
_cell_volume 965.474712
_symmetry_space_group_name_H-M "P 21 21 21"
_symmetry_group_IT_number 19
_symmetry_cell_setting 'orthorhombic'
loop_
_space_group_symop_operation_xyz
x,y,z
1/2-x,-y,1/2+z
1/2+x,1/2-y,-z
-x,1/2+y,1/2-z
loop_
_atom_site_type_symbol
_atom_site_label
_atom_site_fract_x
_atom_site_fract_y
_atom_site_fract_z
Si Si1 0.188815 0.843152 0.391981
Si Si2 0.215636 0.974607 0.170140
Si Si3 0.407913 0.308431 0.158295
Si Si4 0.488448 0.762517 0.684818
Si Si5 0.476395 0.311444 0.379744
Si Si6 0.719648 0.837162 0.012553
O O1 0.219068 0.875173 0.280185
O O2 0.251666 0.623922 0.447152
O O3 0.076086 0.760190 0.390018
O O4 0.207026 0.127774 0.438472
O O5 0.302575 0.179009 0.150674
O O6 0.114360 0.125833 0.151668
O O7 0.222519 0.726193 0.099386
O O8 0.432381 0.304195 0.271942
O O9 0.479961 0.101289 0.107889
O O10 0.437709 0.595156 0.118832
O O11 0.477929 0.476117 0.734555
O O12 0.388345 0.264526 0.451306
#
# Coordination Sequence:
#
# PCOD9314653 Si02
#       6
#     4   4   4   4   4   4
#     4  11  25  47  70 101 144 178 232 289 346 409
#     4  11  26  45  73 104 138 185 237 279 351 412
#     4  10  22  39  69  93 134 181 218 279 339 406
#     4  10  23  43  70  99 133 186 228 287 344 405
#     4  10  22  41  63  99 133 178 224 274 343 399
#     4  12  26  43  73 104 140 186 227 290 339 417
#
# _framework density 24.858236999999999
#
# number of rings (size 3 to 8) (size 9 to 14) (size 15 to 20)
#    0.000    1.333    1.667    3.000    4.667    9.333 
#    0.000    0.000    0.000    0.000    0.000    0.000 
#    0.000    0.000    0.000    0.000    0.000    0.000 
#
# Total GULP energy -134644.440525 kJ/mol
# GULP energy per Si atom -5610.185022 kJ/mol
# Density = 2.480166 g / cm^3
# Si number density = 24.858237 Si / 1000 Ang^3
#
#
#
# Elastic Constant Matrix: (Units=GPa)
#
#
# Indices 1 2 3 4 5 6 
#
# 1 135.0286 3.2058 16.5709 0.0000 0.0000 0.0000
# 2 3.2058 93.8738 29.7776 0.0000 0.0000 0.0000
# 3 16.5709 29.7776 122.5719 0.0000 0.0000 0.0000
# 4 0.0000 0.0000 0.0000 20.4782 0.0000 0.0000
# 5 0.0000 0.0000 0.0000 0.0000 6.9690 0.0000
# 6 0.0000 0.0000 0.0000 0.0000 0.0000 33.3858
#
#
#
# Elastic Compliance Matrix: (Units=1/GPa)
#
#
# Indices 1 2 3 4 5 6 
#
# 1 0.007531 0.000071 -0.001035 0.000000 0.000000 0.000000
# 2 0.000071 0.011543 -0.002814 0.000000 0.000000 0.000000
# 3 -0.001035 -0.002814 0.008982 0.000000 0.000000 0.000000
# 4 0.000000 0.000000 0.000000 0.048832 0.000000 0.000000
# 5 0.000000 0.000000 0.000000 0.000000 0.143492 0.000000
# 6 0.000000 0.000000 0.000000 0.000000 0.000000 0.029953
#
#
# Mechanical properties :
#
#
# Convention : Reuss Voigt Hill
#
# Bulk Modulus (GPa) = 48.78064 50.06477 49.42270
# Shear Modulus (GPa) = 18.88771 32.29462 25.59117
#
# Velocity S-wave (km/s) = 2.75947 3.60828 3.21204
# Velocity P-wave (km/s) = 5.46068 6.12727 5.80355
#
# Compressibility (1/GPa) = 0.02049994
#
# Stress axis : x y z
#
# Youngs Moduli (GPa) = 132.78061 86.63459 111.33309
#
# Poissons Ratio (x) = -0.00617 0.11528
# Poissons Ratio (y) = -0.00946 0.31327
# Poissons Ratio (z) = 0.13749 0.24377
#
# Static dielectric constant tensor:
#      x y z
#    x 1.948280 0.000000 0.000000 
#    y 0.000000 1.888050 0.000000 
#    z 0.000000 0.000000 1.979840 
# 
# From -- ./inp_files/6044.got.cif
#   From: 2010.05.17/outbox.cif.g08.bks.cpg/sg19_4_cif.got.tgz:6044.got - 2010.06.03 22:46:19.
