data_PCOD9314619
_publ_section_title
;
Structure prediction by ZEFSAII (Michael W. Deem and Ramdas Pophale) SiO2 
 PCOD9314619
Probable space group: P 21 21 21
;
_chemical_formula_sum "Si O2"
_cell_formula_units_Z 16
_cell_length_a 21.915605
_cell_length_b 5.470142
_cell_length_c 4.901018
_cell_angle_alpha 90.000000
_cell_angle_beta 90.000000
_cell_angle_gamma 90.000000
_cell_volume 587.541249
_symmetry_space_group_name_H-M "P 21 21 21"
_symmetry_group_IT_number 19
_symmetry_cell_setting 'orthorhombic'
loop_
_space_group_symop_operation_xyz
x,y,z
1/2-x,-y,1/2+z
1/2+x,1/2-y,-z
-x,1/2+y,1/2-z
loop_
_atom_site_type_symbol
_atom_site_label
_atom_site_fract_x
_atom_site_fract_y
_atom_site_fract_z
Si Si1 0.846487 0.056929 0.614301
Si Si2 0.073605 0.862834 0.561430
Si Si3 0.756573 0.324971 0.294290
Si Si4 0.544246 0.128974 0.433592
O O1 0.863311 0.297114 0.794217
O O2 0.819601 0.174470 0.340427
O O3 0.908289 0.906307 0.678201
O O4 0.793405 0.877100 0.715389
O O5 0.054207 0.619981 0.397717
O O6 0.022598 0.868532 0.804509
O O7 0.066738 0.123910 0.425909
O O8 0.759542 0.543234 0.078236
#
# Coordination Sequence:
#
# PCOD9314619 Si02
#       4
#     4   4   4   4
#     4  10  22  38  68 108 146 194 248 306 378 446
#     4   8  15  30  57  97 138 180 238 297 360 434
#     4  12  26  46  72 112 154 198 252 310 378 452
#     4   8  15  30  57  97 138 180 238 297 360 434
#
# _framework density 27.232129
#
# number of rings (size 3 to 8) (size 9 to 14) (size 15 to 20)
#    1.500    1.000    0.000    3.000    0.000    0.000 
#    0.000    0.000    0.000    0.000   19.500    0.000 
#    0.000    0.000    0.000    0.000    0.000    0.000 
#
# Total GULP energy -89349.026279 kJ/mol
# GULP energy per Si atom -5584.314142 kJ/mol
# Density = 2.717015 g / cm^3
# Si number density = 27.232129 Si / 1000 Ang^3
#
#
#
# Elastic Constant Matrix: (Units=GPa)
#
#
# Indices 1 2 3 4 5 6 
#
# 1 116.7875 18.8161 27.5959 0.0000 0.0000 0.0000
# 2 18.8161 204.9302 23.1541 0.0000 0.0000 0.0000
# 3 27.5959 23.1541 83.8685 0.0000 0.0000 0.0000
# 4 0.0000 0.0000 0.0000 24.0140 0.0000 0.0000
# 5 0.0000 0.0000 0.0000 0.0000 30.4547 0.0000
# 6 0.0000 0.0000 0.0000 0.0000 0.0000 47.6622
#
#
#
# Elastic Compliance Matrix: (Units=1/GPa)
#
#
# Indices 1 2 3 4 5 6 
#
# 1 0.009339 -0.000527 -0.002928 0.000000 0.000000 0.000000
# 2 -0.000527 0.005067 -0.001225 0.000000 0.000000 0.000000
# 3 -0.002928 -0.001225 0.013225 0.000000 0.000000 0.000000
# 4 0.000000 0.000000 0.000000 0.041642 0.000000 0.000000
# 5 0.000000 0.000000 0.000000 0.000000 0.032836 0.000000
# 6 0.000000 0.000000 0.000000 0.000000 0.000000 0.020981
#
#
# Mechanical properties :
#
#
# Convention : Reuss Voigt Hill
#
# Bulk Modulus (GPa) = 54.73055 60.52428 57.62741
# Shear Modulus (GPa) = 36.09080 42.82753 39.45916
#
# Velocity S-wave (km/s) = 3.64442 3.97001 3.81069
# Velocity P-wave (km/s) = 6.15227 6.57938 6.36941
#
# Compressibility (1/GPa) = 0.01827133
#
# Stress axis : x y z
#
# Youngs Moduli (GPa) = 107.07586 197.37374 75.61432
#
# Poissons Ratio (x) = 0.10396 0.22136
# Poissons Ratio (y) = 0.05640 0.09266
# Poissons Ratio (z) = 0.31347 0.24187
#
# Static dielectric constant tensor:
#      x y z
#    x 2.118150 0.000000 0.000000 
#    y 0.000000 2.219120 0.000000 
#    z 0.000000 0.000000 2.033560 
# 
# From -- ./inp_files/121.got.cif
#   From: 2010.05.17/outbox.cif.g08.bks.cpg/sg19_1_cif.got.tgz:121.got - 2010.06.03 22:46:19.
