data_PCOD9314666
_publ_section_title
;
Structure prediction by ZEFSAII (Michael W. Deem and Ramdas Pophale) SiO2 
 PCOD9314666
Probable space group: P 21 21 21
;
_chemical_formula_sum "Si O2"
_cell_formula_units_Z 32
_cell_length_a 19.709964
_cell_length_b 11.373662
_cell_length_c 6.465488
_cell_angle_alpha 90.000000
_cell_angle_beta 90.000000
_cell_angle_gamma 90.000000
_cell_volume 1449.397336
_symmetry_space_group_name_H-M "P 21 21 21"
_symmetry_group_IT_number 19
_symmetry_cell_setting 'orthorhombic'
loop_
_space_group_symop_operation_xyz
x,y,z
1/2-x,-y,1/2+z
1/2+x,1/2-y,-z
-x,1/2+y,1/2-z
loop_
_atom_site_type_symbol
_atom_site_label
_atom_site_fract_x
_atom_site_fract_y
_atom_site_fract_z
Si Si1 0.192808 0.377286 0.595402
Si Si2 0.423920 0.638598 0.765234
Si Si3 0.969146 0.061161 0.549546
Si Si4 0.593735 0.389609 0.743402
Si Si5 0.326522 0.382954 0.343991
Si Si6 0.534330 0.562864 0.073315
Si Si7 0.172794 0.868355 0.785175
Si Si8 0.789014 0.614966 0.925849
O O1 0.144393 0.384969 0.393884
O O2 0.269911 0.391422 0.520394
O O3 0.174046 0.489692 0.734039
O O4 0.187756 0.240586 0.674380
O O5 0.443480 0.543608 0.597420
O O6 0.416225 0.762982 0.655893
O O7 0.483264 0.639876 0.938000
O O8 0.901853 0.139269 0.567581
O O9 0.037637 0.103672 0.439001
O O10 0.989539 0.017955 0.776941
O O11 0.666535 0.393426 0.636112
O O12 0.576848 0.487126 0.909129
O O13 0.309452 0.264856 0.209348
O O14 0.591637 0.622598 0.211876
O O15 0.197471 0.990444 0.682442
O O16 0.210895 0.871521 0.007216
#
# Coordination Sequence:
#
# PCOD9314666 Si02
#       8
#     4   4   4   4   4   4   4   4
#     4  10  22  41  62  91 130 168 212 264 321 385
#     4  10  22  40  62  90 126 168 215 261 320 386
#     4  11  22  40  62  93 128 169 211 272 320 380
#     4  10  22  40  62  90 126 168 215 261 320 386
#     4  11  23  40  64  94 129 168 218 268 321 385
#     4  11  22  40  62  93 128 169 211 272 320 380
#     4  11  23  40  64  94 129 168 218 268 321 385
#     4  10  22  41  62  91 130 168 212 264 321 385
#
# _framework density 22.078144000000002
#
# number of rings (size 3 to 8) (size 9 to 14) (size 15 to 20)
#    0.000    1.500    2.500    2.250    0.000    4.000 
#    0.000    1.250    0.000    0.000    0.000    0.000 
#    0.000    0.000    0.000    0.000    0.000    0.000 
#
# Total GULP energy -178431.936158 kJ/mol
# GULP energy per Si atom -5575.998005 kJ/mol
# Density = 2.202789 g / cm^3
# Si number density = 22.078144 Si / 1000 Ang^3
#
#
#
# Elastic Constant Matrix: (Units=GPa)
#
#
# Indices 1 2 3 4 5 6 
#
# 1 110.4993 -2.2948 -1.9876 0.0000 0.0000 0.0000
# 2 -2.2948 109.2451 8.1118 0.0000 0.0000 0.0000
# 3 -1.9876 8.1118 18.7397 0.0000 0.0000 0.0000
# 4 0.0000 0.0000 0.0000 7.5125 0.0000 0.0000
# 5 0.0000 0.0000 0.0000 0.0000 27.5168 0.0000
# 6 0.0000 0.0000 0.0000 0.0000 0.0000 21.2510
#
#
#
# Elastic Compliance Matrix: (Units=1/GPa)
#
#
# Indices 1 2 3 4 5 6 
#
# 1 0.009069 0.000123 0.000909 0.000000 0.000000 0.000000
# 2 0.000123 0.009459 -0.004082 0.000000 0.000000 0.000000
# 3 0.000909 -0.004082 0.055226 0.000000 0.000000 0.000000
# 4 0.000000 0.000000 0.000000 0.133112 0.000000 0.000000
# 5 0.000000 0.000000 0.000000 0.000000 0.036341 0.000000
# 6 0.000000 0.000000 0.000000 0.000000 0.000000 0.047057
#
#
# Mechanical properties :
#
#
# Convention : Reuss Voigt Hill
#
# Bulk Modulus (GPa) = 14.78107 27.34922 21.06515
# Shear Modulus (GPa) = 15.67815 26.89971 21.28893
#
# Velocity S-wave (km/s) = 2.66770 3.49433 3.10861
# Velocity P-wave (km/s) = 4.02471 5.35675 4.73778
#
# Compressibility (1/GPa) = 0.06765408
#
# Stress axis : x y z
#
# Youngs Moduli (GPa) = 110.26902 105.71515 18.10744
#
# Poissons Ratio (x) = -0.01301 -0.01645
# Poissons Ratio (y) = -0.01357 0.07391
# Poissons Ratio (z) = -0.10019 0.43149
#
# Static dielectric constant tensor:
#      x y z
#    x 1.797120 0.000000 0.000000 
#    y 0.000000 1.889510 0.000000 
#    z 0.000000 0.000000 1.779550 
# 
# From -- ./inp_files/1960.got.cif
#   From: 2010.05.17/outbox.cif.g08.bks.cpg/sg19_1_cif.got.tgz:1960.got - 2010.06.03 22:46:19.
