data_PCOD9314551
_publ_section_title
;
Structure prediction by ZEFSAII (Michael W. Deem and Ramdas Pophale) SiO2 
 PCOD9314551
Probable space group: P 21 21 21
;
_chemical_formula_sum "Si O2"
_cell_formula_units_Z 32
_cell_length_a 13.921239
_cell_length_b 11.182847
_cell_length_c 9.258132
_cell_angle_alpha 90.000000
_cell_angle_beta 90.000000
_cell_angle_gamma 90.000000
_cell_volume 1441.297526
_symmetry_space_group_name_H-M "P 21 21 21"
_symmetry_group_IT_number 19
_symmetry_cell_setting 'orthorhombic'
loop_
_space_group_symop_operation_xyz
x,y,z
1/2-x,-y,1/2+z
1/2+x,1/2-y,-z
-x,1/2+y,1/2-z
loop_
_atom_site_type_symbol
_atom_site_label
_atom_site_fract_x
_atom_site_fract_y
_atom_site_fract_z
Si Si1 0.844426 0.186217 0.053289
Si Si2 0.728791 0.266790 0.660341
Si Si3 0.040069 0.572997 0.698134
Si Si4 0.793517 0.031981 0.584330
Si Si5 0.903110 0.603644 0.943976
Si Si6 0.926204 0.160616 0.364251
Si Si7 0.405900 0.107548 0.459267
Si Si8 0.753966 0.590623 0.438309
O O1 0.907903 0.165113 0.195189
O O2 0.762001 0.086525 0.048364
O O3 0.910431 0.163021 0.913682
O O4 0.789300 0.312716 0.049452
O O5 0.723799 0.125236 0.666283
O O6 0.671403 0.306661 0.518400
O O7 0.839869 0.307114 0.640706
O O8 0.701018 0.336981 0.804203
O O9 0.117753 0.517995 0.807593
O O10 0.992235 0.462577 0.614039
O O11 0.961606 0.637553 0.800768
O O12 0.834483 0.100015 0.443076
O O13 0.982652 0.589237 0.070886
O O14 0.839329 0.489556 0.901296
O O15 0.937475 0.298170 0.418502
O O16 0.333167 0.002279 0.507026
#
# Coordination Sequence:
#
# PCOD9314551 Si02
#       8
#     4   4   4   4   4   4   4   4
#     4  12  26  44  70 106 145 188 240 297 362 439
#     4  10  21  44  71  98 142 184 229 290 363 423
#     4  11  23  46  71 105 140 180 249 286 351 437
#     4  10  23  48  68  99 143 185 237 291 363 426
#     4  10  24  44  70 101 139 188 228 302 355 421
#     4  10  25  44  68 105 144 183 236 300 361 427
#     4  10  24  43  71 102 138 185 237 293 361 425
#     4  11  24  45  71 104 145 183 244 293 362 436
#
# _framework density 22.202216
#
# number of rings (size 3 to 8) (size 9 to 14) (size 15 to 20)
#    0.000    1.500    2.500    0.750    7.000    1.000 
#   13.500    0.000    0.000    0.000    0.000    0.000 
#    0.000    0.000    0.000    0.000    0.000    0.000 
#
# Total GULP energy -178768.437420 kJ/mol
# GULP energy per Si atom -5586.513669 kJ/mol
# Density = 2.215168 g / cm^3
# Si number density = 22.202216 Si / 1000 Ang^3
#
#
#
# Elastic Constant Matrix: (Units=GPa)
#
#
# Indices 1 2 3 4 5 6 
#
# 1 69.9160 30.0550 41.4652 0.0000 0.0000 0.0000
# 2 30.0550 58.7198 17.7175 0.0000 0.0000 0.0000
# 3 41.4652 17.7175 112.3706 0.0000 0.0000 0.0000
# 4 0.0000 0.0000 0.0000 20.1231 0.0000 0.0000
# 5 0.0000 0.0000 0.0000 0.0000 33.1282 0.0000
# 6 0.0000 0.0000 0.0000 0.0000 0.0000 20.6058
#
#
#
# Elastic Compliance Matrix: (Units=1/GPa)
#
#
# Indices 1 2 3 4 5 6 
#
# 1 0.022358 -0.009402 -0.006768 0.000000 0.000000 0.000000
# 2 -0.009402 0.021834 0.000027 0.000000 0.000000 0.000000
# 3 -0.006768 0.000027 0.011392 0.000000 0.000000 0.000000
# 4 0.000000 0.000000 0.000000 0.049694 0.000000 0.000000
# 5 0.000000 0.000000 0.000000 0.000000 0.030186 0.000000
# 6 0.000000 0.000000 0.000000 0.000000 0.000000 0.048530
#
#
# Mechanical properties :
#
#
# Convention : Reuss Voigt Hill
#
# Bulk Modulus (GPa) = 42.92067 46.60908 44.76487
# Shear Modulus (GPa) = 22.31676 24.88934 23.60305
#
# Velocity S-wave (km/s) = 3.17386 3.35181 3.26405
# Velocity P-wave (km/s) = 5.72756 6.00151 5.86613
#
# Compressibility (1/GPa) = 0.02329880
#
# Stress axis : x y z
#
# Youngs Moduli (GPa) = 44.72607 45.79986 87.77841
#
# Poissons Ratio (x) = 0.43060 0.59408
# Poissons Ratio (y) = 0.42050 -0.00234
# Poissons Ratio (z) = 0.30270 -0.00122
#
# Static dielectric constant tensor:
#      x y z
#    x 1.847010 0.000000 0.000000 
#    y 0.000000 1.790530 0.000000 
#    z 0.000000 0.000000 1.845080 
# 
# From -- ./inp_files/3960.got.cif
#   From: 2010.05.17/outbox.cif.g08.bks.cpg/sg19_2_cif.got.tgz:3960.got - 2010.06.03 22:46:19.
