data_PCOD9314236
_publ_section_title
;
Structure prediction by ZEFSAII (Michael W. Deem and Ramdas Pophale) SiO2 
 PCOD9314236
Probable space group: P 21 21 21
;
_chemical_formula_sum "Si O2"
_cell_formula_units_Z 32
_cell_length_a 9.176894
_cell_length_b 22.426642
_cell_length_c 7.570478
_cell_angle_alpha 90.000000
_cell_angle_beta 90.000000
_cell_angle_gamma 90.000000
_cell_volume 1558.056733
_symmetry_space_group_name_H-M "P 21 21 21"
_symmetry_group_IT_number 19
_symmetry_cell_setting 'orthorhombic'
loop_
_space_group_symop_operation_xyz
x,y,z
1/2-x,-y,1/2+z
1/2+x,1/2-y,-z
-x,1/2+y,1/2-z
loop_
_atom_site_type_symbol
_atom_site_label
_atom_site_fract_x
_atom_site_fract_y
_atom_site_fract_z
Si Si1 0.457155 0.750453 0.177902
Si Si2 0.719452 0.990371 0.738504
Si Si3 0.581543 0.933488 0.057807
Si Si4 0.064609 0.036999 0.046797
Si Si5 0.264832 0.805542 0.868506
Si Si6 0.466167 0.828380 0.531729
Si Si7 0.736321 0.857394 0.780057
Si Si8 0.278153 0.938132 0.919677
O O1 0.376291 0.785436 0.020690
O O2 0.457769 0.786134 0.362664
O O3 0.624171 0.736003 0.134034
O O4 0.364453 0.689309 0.196742
O O5 0.632053 0.986189 0.922486
O O6 0.591624 0.991531 0.592390
O O7 0.789246 0.923973 0.725289
O O8 0.827516 0.045770 0.725521
O O9 0.644181 0.874912 0.958586
O O10 0.408799 0.935215 0.063036
O O11 0.058917 0.103448 0.969463
O O12 0.138609 0.049936 0.237030
O O13 0.163276 0.989458 0.949959
O O14 0.348536 0.808724 0.680466
O O15 0.211865 0.872542 0.910232
O O16 0.619911 0.832490 0.637750
#
# Coordination Sequence:
#
# PCOD9314236 Si02
#       8
#     4   4   4   4   4   4   4   4
#     4  12  25  41  70  90 132 177 217 278 324 392
#     4   8  18  34  57  84 117 157 194 249 317 373
#     4   9  18  37  57  83 124 154 197 256 312 371
#     4   9  20  36  60  88 123 155 204 260 318 390
#     4  11  25  42  64 101 125 172 227 265 330 390
#     4  10  21  47  65  90 132 170 219 269 329 385
#     4   9  20  41  60  87 129 164 211 270 314 385
#     4  10  21  38  59  87 126 159 201 267 314 380
#
# _framework density 20.538404
#
# number of rings (size 3 to 8) (size 9 to 14) (size 15 to 20)
#    0.750    1.500    2.500    1.500    3.500    3.000 
#    2.250    1.250    0.000    0.000    0.000    0.000 
#    0.000    0.000    0.000    0.000    0.000    0.000 
#
# Total GULP energy -178475.172410 kJ/mol
# GULP energy per Si atom -5577.349138 kJ/mol
# Density = 2.049166 g / cm^3
# Si number density = 20.538404 Si / 1000 Ang^3
#
#
#
# Elastic Constant Matrix: (Units=GPa)
#
#
# Indices 1 2 3 4 5 6 
#
# 1 64.7027 43.0119 29.9060 0.0000 0.0000 0.0000
# 2 43.0119 92.1663 32.8721 0.0000 0.0000 0.0000
# 3 29.9060 32.8721 75.4863 0.0000 0.0000 0.0000
# 4 0.0000 0.0000 0.0000 31.8014 0.0000 0.0000
# 5 0.0000 0.0000 0.0000 0.0000 29.5137 0.0000
# 6 0.0000 0.0000 0.0000 0.0000 0.0000 33.3566
#
#
#
# Elastic Compliance Matrix: (Units=1/GPa)
#
#
# Indices 1 2 3 4 5 6 
#
# 1 0.024211 -0.009326 -0.005531 0.000000 0.000000 0.000000
# 2 -0.009326 0.016438 -0.003463 0.000000 0.000000 0.000000
# 3 -0.005531 -0.003463 0.016947 0.000000 0.000000 0.000000
# 4 0.000000 0.000000 0.000000 0.031445 0.000000 0.000000
# 5 0.000000 0.000000 0.000000 0.000000 0.033883 0.000000
# 6 0.000000 0.000000 0.000000 0.000000 0.000000 0.029979
#
#
# Mechanical properties :
#
#
# Convention : Reuss Voigt Hill
#
# Bulk Modulus (GPa) = 47.72076 49.32614 48.52345
# Shear Modulus (GPa) = 25.44169 27.37204 26.40687
#
# Velocity S-wave (km/s) = 3.52339 3.65461 3.58960
# Velocity P-wave (km/s) = 6.31171 6.47124 6.39197
#
# Compressibility (1/GPa) = 0.02095524
#
# Stress axis : x y z
#
# Youngs Moduli (GPa) = 41.30287 60.83639 59.00862
#
# Poissons Ratio (x) = 0.56738 0.32636
# Poissons Ratio (y) = 0.38520 0.20436
# Poissons Ratio (z) = 0.22843 0.21069
#
# Static dielectric constant tensor:
#      x y z
#    x 1.757350 0.000000 0.000000 
#    y 0.000000 1.723640 0.000000 
#    z 0.000000 0.000000 1.829040 
# 
# From -- ./inp_files/4859.got.cif
#   From: 2010.05.17/outbox.cif.g08.bks.cpg/sg19_3_cif.got.tgz:4859.got - 2010.06.03 22:46:19.
