data_PCOD9314511
_publ_section_title
;
Structure prediction by ZEFSAII (Michael W. Deem and Ramdas Pophale) SiO2 
 PCOD9314511
Probable space group: P 21 21 21
;
_chemical_formula_sum "Si O2"
_cell_formula_units_Z 28
_cell_length_a 5.454898
_cell_length_b 11.314114
_cell_length_c 17.591784
_cell_angle_alpha 90.000000
_cell_angle_beta 90.000000
_cell_angle_gamma 90.000000
_cell_volume 1085.718076
_symmetry_space_group_name_H-M "P 21 21 21"
_symmetry_group_IT_number 19
_symmetry_cell_setting 'orthorhombic'
loop_
_space_group_symop_operation_xyz
x,y,z
1/2-x,-y,1/2+z
1/2+x,1/2-y,-z
-x,1/2+y,1/2-z
loop_
_atom_site_type_symbol
_atom_site_label
_atom_site_fract_x
_atom_site_fract_y
_atom_site_fract_z
Si Si1 0.949218 0.063867 0.449767
Si Si2 0.882739 0.098178 0.284359
Si Si3 0.903790 0.515842 0.370329
Si Si4 0.766020 0.856681 0.523166
Si Si5 0.591166 0.742182 0.370375
Si Si6 0.351501 0.688985 0.932005
Si Si7 0.115433 0.748156 0.790698
O O1 0.905120 0.026878 0.363169
O O2 0.719063 0.130190 0.488507
O O3 0.136961 0.171469 0.447186
O O4 0.979810 0.951603 0.503681
O O5 0.929342 0.028836 0.206121
O O6 0.622835 0.166473 0.289312
O O7 0.117388 0.187526 0.288082
O O8 0.040087 0.572317 0.443107
O O9 0.915427 0.377761 0.393905
O O10 0.683593 0.607612 0.353956
O O11 0.728566 0.794682 0.443044
O O12 0.825195 0.770074 0.592430
O O13 0.596189 0.812865 0.292041
O O14 0.138639 0.673620 0.867998
#
# Coordination Sequence:
#
# PCOD9314511 Si02
#       7
#     4   4   4   4   4   4   4
#     4  10  23  39  67  97 139 170 237 272 358 403
#     4  10  21  43  63  97 131 177 223 275 333 416
#     4  10  22  40  64  94 132 174 228 280 348 406
#     4  11  22  40  64  96 130 178 228 292 336 419
#     4  11  22  40  66  92 134 178 232 285 347 407
#     4  10  22  41  65 100 133 179 221 290 341 422
#     4  10  22  41  69  90 137 174 225 276 339 405
#
# _framework density 25.789386
#
# number of rings (size 3 to 8) (size 9 to 14) (size 15 to 20)
#    0.000    1.714    2.857    0.857    4.000    0.000 
#    5.143    0.000    3.143    0.000    0.000    0.000 
#    0.000    0.000    0.000    0.000    0.000    0.000 
#
# Total GULP energy -156037.439635 kJ/mol
# GULP energy per Si atom -5572.765701 kJ/mol
# Density = 2.573069 g / cm^3
# Si number density = 25.789386 Si / 1000 Ang^3
#
#
#
# Elastic Constant Matrix: (Units=GPa)
#
#
# Indices 1 2 3 4 5 6 
#
# 1 81.8852 11.8088 6.7671 0.0000 0.0000 0.0000
# 2 11.8088 32.6859 20.2931 0.0000 0.0000 0.0000
# 3 6.7671 20.2931 115.7997 0.0000 0.0000 0.0000
# 4 0.0000 0.0000 0.0000 29.5863 0.0000 0.0000
# 5 0.0000 0.0000 0.0000 0.0000 38.3315 0.0000
# 6 0.0000 0.0000 0.0000 0.0000 0.0000 18.4897
#
#
#
# Elastic Compliance Matrix: (Units=1/GPa)
#
#
# Indices 1 2 3 4 5 6 
#
# 1 0.012884 -0.004698 0.000070 0.000000 0.000000 0.000000
# 2 -0.004698 0.036043 -0.006042 0.000000 0.000000 0.000000
# 3 0.000070 -0.006042 0.009690 0.000000 0.000000 0.000000
# 4 0.000000 0.000000 0.000000 0.033799 0.000000 0.000000
# 5 0.000000 0.000000 0.000000 0.000000 0.026088 0.000000
# 6 0.000000 0.000000 0.000000 0.000000 0.000000 0.054084
#
#
# Mechanical properties :
#
#
# Convention : Reuss Voigt Hill
#
# Bulk Modulus (GPa) = 26.82581 34.23430 30.53006
# Shear Modulus (GPa) = 24.23021 30.04827 27.13924
#
# Velocity S-wave (km/s) = 3.06852 3.41712 3.24750
# Velocity P-wave (km/s) = 4.79363 5.37330 5.09172
#
# Compressibility (1/GPa) = 0.03727753
#
# Stress axis : x y z
#
# Youngs Moduli (GPa) = 77.61579 27.74489 103.19660
#
# Poissons Ratio (x) = 0.13036 -0.00727
# Poissons Ratio (y) = 0.36468 0.62348
# Poissons Ratio (z) = -0.00547 0.16762
#
# Static dielectric constant tensor:
#      x y z
#    x 2.128110 0.000000 0.000000 
#    y 0.000000 2.130070 0.000000 
#    z 0.000000 0.000000 2.068670 
# 
# From -- ./inp_files/1059.got.cif
#   From: 2010.05.17/outbox.cif.g08.bks.cpg/sg19_1_cif.got.tgz:1059.got - 2010.06.03 22:46:19.
