data_PCOD9314017
_publ_section_title
;
Structure prediction by ZEFSAII (Michael W. Deem and Ramdas Pophale) SiO2 
 PCOD9314017
Probable space group: P 21 21 21
;
_chemical_formula_sum "Si O2"
_cell_formula_units_Z 24
_cell_length_a 13.272043
_cell_length_b 4.952963
_cell_length_c 14.831028
_cell_angle_alpha 90.000000
_cell_angle_beta 90.000000
_cell_angle_gamma 90.000000
_cell_volume 974.931536
_symmetry_space_group_name_H-M "P 21 21 21"
_symmetry_group_IT_number 19
_symmetry_cell_setting 'orthorhombic'
loop_
_space_group_symop_operation_xyz
x,y,z
1/2-x,-y,1/2+z
1/2+x,1/2-y,-z
-x,1/2+y,1/2-z
loop_
_atom_site_type_symbol
_atom_site_label
_atom_site_fract_x
_atom_site_fract_y
_atom_site_fract_z
Si Si1 0.068580 0.997808 0.730427
Si Si2 0.248555 0.676089 0.509145
Si Si3 0.933366 0.817763 0.947160
Si Si4 0.167787 0.843464 0.902445
Si Si5 0.600808 0.228913 0.829604
Si Si6 0.466616 0.735370 0.857555
O O1 0.099393 0.125910 0.635056
O O2 0.154992 0.877026 0.794641
O O3 0.012518 0.254876 0.777975
O O4 0.140716 0.570078 0.542136
O O5 0.262948 0.926150 0.443463
O O6 0.310681 0.749394 0.599291
O O7 0.297502 0.432230 0.449899
O O8 0.930334 0.683259 0.044772
O O9 0.050674 0.884993 0.932015
O O10 0.510548 0.432010 0.858405
O O11 0.613001 0.275658 0.722653
O O12 0.560866 0.924329 0.835355
#
# Coordination Sequence:
#
# PCOD9314017 Si02
#       6
#     4   4   4   4   4   4
#     4  10  23  42  69  96 133 183 226 284 343 401
#     4  12  24  40  70  98 137 179 225 280 337 405
#     4  11  24  43  70 100 131 185 230 273 345 409
#     4  11  24  45  64  99 139 175 224 289 333 405
#     4  10  20  40  60  94 126 170 213 274 329 391
#     4  10  21  38  67  87 128 170 214 270 335 389
#
# _framework density 24.617113
#
# number of rings (size 3 to 8) (size 9 to 14) (size 15 to 20)
#    0.000    1.333    3.333    2.000    0.000    6.667 
#    0.000    5.000    0.000    0.000    0.000    0.000 
#    0.000    0.000    0.000    0.000    0.000    0.000 
#
# Total GULP energy -134260.260775 kJ/mol
# GULP energy per Si atom -5594.177532 kJ/mol
# Density = 2.456108 g / cm^3
# Si number density = 24.617113 Si / 1000 Ang^3
#
#
#
# Elastic Constant Matrix: (Units=GPa)
#
#
# Indices 1 2 3 4 5 6 
#
# 1 93.5629 21.2808 18.8825 0.0000 0.0000 0.0000
# 2 21.2808 104.2405 28.4405 0.0000 0.0000 0.0000
# 3 18.8825 28.4405 188.1124 0.0000 0.0000 0.0000
# 4 0.0000 0.0000 0.0000 8.9337 0.0000 0.0000
# 5 0.0000 0.0000 0.0000 0.0000 2.9466 0.0000
# 6 0.0000 0.0000 0.0000 0.0000 0.0000 30.1528
#
#
#
# Elastic Compliance Matrix: (Units=1/GPa)
#
#
# Indices 1 2 3 4 5 6 
#
# 1 0.011329 -0.002089 -0.000821 0.000000 0.000000 0.000000
# 2 -0.002089 0.010391 -0.001361 0.000000 0.000000 0.000000
# 3 -0.000821 -0.001361 0.005604 0.000000 0.000000 0.000000
# 4 0.000000 0.000000 0.000000 0.111936 0.000000 0.000000
# 5 0.000000 0.000000 0.000000 0.000000 0.339377 0.000000
# 6 0.000000 0.000000 0.000000 0.000000 0.000000 0.033164
#
#
# Mechanical properties :
#
#
# Convention : Reuss Voigt Hill
#
# Bulk Modulus (GPa) = 53.24457 58.12481 55.68469
# Shear Modulus (GPa) = 9.49478 29.56075 19.52776
#
# Velocity S-wave (km/s) = 1.96605 3.46905 2.81954
# Velocity P-wave (km/s) = 5.17975 6.30147 5.76794
#
# Compressibility (1/GPa) = 0.01878126
#
# Stress axis : x y z
#
# Youngs Moduli (GPa) = 88.27034 96.23685 178.43628
#
# Poissons Ratio (x) = 0.20101 0.14657
# Poissons Ratio (y) = 0.18437 0.24291
# Poissons Ratio (z) = 0.07250 0.13101
#
# Static dielectric constant tensor:
#      x y z
#    x 1.985360 0.000000 0.000000 
#    y 0.000000 1.899770 0.000000 
#    z 0.000000 0.000000 2.023830 
# 
# From -- ./inp_files/6205.got.cif
#   From: 2010.05.17/outbox.cif.g08.bks.cpg/sg19_4_cif.got.tgz:6205.got - 2010.06.03 22:46:19.
