data_PCOD9314203
_publ_section_title
;
Structure prediction by ZEFSAII (Michael W. Deem and Ramdas Pophale) SiO2 
 PCOD9314203
Probable space group: P 21 21 21
;
_chemical_formula_sum "Si O2"
_cell_formula_units_Z 32
_cell_length_a 10.754127
_cell_length_b 25.065944
_cell_length_c 5.449232
_cell_angle_alpha 90.000000
_cell_angle_beta 90.000000
_cell_angle_gamma 90.000000
_cell_volume 1468.907757
_symmetry_space_group_name_H-M "P 21 21 21"
_symmetry_group_IT_number 19
_symmetry_cell_setting 'orthorhombic'
loop_
_space_group_symop_operation_xyz
x,y,z
1/2-x,-y,1/2+z
1/2+x,1/2-y,-z
-x,1/2+y,1/2-z
loop_
_atom_site_type_symbol
_atom_site_label
_atom_site_fract_x
_atom_site_fract_y
_atom_site_fract_z
Si Si1 0.672539 0.784062 0.571698
Si Si2 0.098244 0.509074 0.674720
Si Si3 0.491887 0.875989 0.439136
Si Si4 0.629265 0.679679 0.317674
Si Si5 0.647028 0.353158 0.546752
Si Si6 0.032058 0.258126 0.442967
Si Si7 0.605764 0.153259 0.931620
Si Si8 0.880229 0.966963 0.320701
O O1 0.583326 0.824463 0.415089
O O2 0.706614 0.726064 0.457168
O O3 0.584103 0.767459 0.794858
O O4 0.794537 0.819659 0.616495
O O5 0.247803 0.502562 0.697321
O O6 0.054987 0.474683 0.441597
O O7 0.065930 0.569467 0.603950
O O8 0.050641 0.490672 0.941068
O O9 0.433420 0.872504 0.714612
O O10 0.392168 0.876159 0.216233
O O11 0.711970 0.644262 0.139650
O O12 0.538086 0.646670 0.490263
O O13 0.529492 0.714873 0.173642
O O14 0.623539 0.290113 0.508510
O O15 0.098825 0.303596 0.284918
O O16 0.648962 0.094898 0.860275
#
# Coordination Sequence:
#
# PCOD9314203 Si02
#       8
#     4   4   4   4   4   4   4   4
#     4  10  21  37  58  91 132 166 213 248 320 383
#     4  10  21  41  64  95 127 155 208 274 332 375
#     4  11  22  42  65  93 122 171 207 265 316 379
#     4  11  24  38  57  92 130 177 210 262 304 391
#     4  11  24  39  63  92 129 166 221 245 312 383
#     4  10  23  35  58  89 128 176 201 261 301 383
#     4  11  23  39  61  91 132 175 204 265 329 386
#     4  10  22  39  64  97 128 158 204 270 330 390
#
# _framework density 21.784893
#
# number of rings (size 3 to 8) (size 9 to 14) (size 15 to 20)
#    0.000    1.500    3.750    0.750    7.000    0.000 
#    0.000    0.000    0.000    3.000    0.000    0.000 
#    0.000    0.000    0.000    0.000    0.000    0.000 
#
# Total GULP energy -178469.673232 kJ/mol
# GULP energy per Si atom -5577.177289 kJ/mol
# Density = 2.173531 g / cm^3
# Si number density = 21.784893 Si / 1000 Ang^3
#
#
#
# Elastic Constant Matrix: (Units=GPa)
#
#
# Indices 1 2 3 4 5 6 
#
# 1 40.9221 6.6152 7.3121 0.0000 0.0000 0.0000
# 2 6.6152 35.1150 -4.3169 0.0000 0.0000 0.0000
# 3 7.3121 -4.3169 65.1477 0.0000 0.0000 0.0000
# 4 0.0000 0.0000 0.0000 10.6654 0.0000 0.0000
# 5 0.0000 0.0000 0.0000 0.0000 13.5898 0.0000
# 6 0.0000 0.0000 0.0000 0.0000 0.0000 13.0783
#
#
#
# Elastic Compliance Matrix: (Units=1/GPa)
#
#
# Indices 1 2 3 4 5 6 
#
# 1 0.025870 -0.005274 -0.003253 0.000000 0.000000 0.000000
# 2 -0.005274 0.029787 0.002566 0.000000 0.000000 0.000000
# 3 -0.003253 0.002566 0.015885 0.000000 0.000000 0.000000
# 4 0.000000 0.000000 0.000000 0.093761 0.000000 0.000000
# 5 0.000000 0.000000 0.000000 0.000000 0.073585 0.000000
# 6 0.000000 0.000000 0.000000 0.000000 0.000000 0.076463
#
#
# Mechanical properties :
#
#
# Convention : Reuss Voigt Hill
#
# Bulk Modulus (GPa) = 16.77289 17.82284 17.29787
# Shear Modulus (GPa) = 14.40317 16.23832 15.32075
#
# Velocity S-wave (km/s) = 2.57408 2.73315 2.65481
# Velocity P-wave (km/s) = 4.06824 4.26136 4.16592
#
# Compressibility (1/GPa) = 0.05962002
#
# Stress axis : x y z
#
# Youngs Moduli (GPa) = 38.65415 33.57199 62.95295
#
# Poissons Ratio (x) = 0.17704 0.20479
# Poissons Ratio (y) = 0.20385 -0.16152
# Poissons Ratio (z) = 0.12575 -0.08613
#
# Static dielectric constant tensor:
#      x y z
#    x 1.874940 0.000000 0.000000 
#    y 0.000000 1.785670 0.000000 
#    z 0.000000 0.000000 1.896880 
# 
# From -- ./inp_files/1315.got.cif
#   From: 2010.05.17/outbox.cif.g08.bks.cpg/sg19_1_cif.got.tgz:1315.got - 2010.06.03 22:46:19.
