data_PCOD9314447
_publ_section_title
;
Structure prediction by ZEFSAII (Michael W. Deem and Ramdas Pophale) SiO2 
 PCOD9314447
Probable space group: P 21 21 21
;
_chemical_formula_sum "Si O2"
_cell_formula_units_Z 20
_cell_length_a 9.090926
_cell_length_b 7.034810
_cell_length_c 11.779657
_cell_angle_alpha 90.000000
_cell_angle_beta 90.000000
_cell_angle_gamma 90.000000
_cell_volume 753.343664
_symmetry_space_group_name_H-M "P 21 21 21"
_symmetry_group_IT_number 19
_symmetry_cell_setting 'orthorhombic'
loop_
_space_group_symop_operation_xyz
x,y,z
1/2-x,-y,1/2+z
1/2+x,1/2-y,-z
-x,1/2+y,1/2-z
loop_
_atom_site_type_symbol
_atom_site_label
_atom_site_fract_x
_atom_site_fract_y
_atom_site_fract_z
Si Si1 0.952731 0.029834 0.489927
Si Si2 0.320877 0.947994 0.819252
Si Si3 0.346717 0.432201 0.097953
Si Si4 0.523462 0.096345 0.622075
Si Si5 0.448586 0.813411 0.225708
O O1 0.820343 0.903550 0.442632
O O2 0.109697 0.973351 0.436418
O O3 0.923102 0.236709 0.430958
O O4 0.974783 0.081123 0.619882
O O5 0.334664 0.719937 0.836790
O O6 0.441360 0.994636 0.723057
O O7 0.174602 0.057570 0.787135
O O8 0.372672 0.627673 0.170511
O O9 0.428068 0.282336 0.177505
O O10 0.432335 0.463099 0.980436
#
# Coordination Sequence:
#
# PCOD9314447 Si02
#       5
#     4   4   4   4   4
#     4   9  23  40  64  92 139 164 222 270 339 384
#     4  10  21  41  67  96 129 177 228 274 340 395
#     4  11  24  44  67 100 135 176 221 279 343 401
#     4   9  22  39  70  88 136 172 220 283 332 395
#     4  11  24  42  70 100 133 183 225 274 342 401
#
# _framework density 26.548309
#
# number of rings (size 3 to 8) (size 9 to 14) (size 15 to 20)
#    1.200    0.800    2.000    0.000   11.200    0.000 
#    3.600    0.000    0.000    0.000    0.000    0.000 
#    0.000    0.000    0.000    0.000    0.000    0.000 
#
# Total GULP energy -111918.261890 kJ/mol
# GULP energy per Si atom -5595.913095 kJ/mol
# Density = 2.648788 g / cm^3
# Si number density = 26.548309 Si / 1000 Ang^3
#
#
#
# Elastic Constant Matrix: (Units=GPa)
#
#
# Indices 1 2 3 4 5 6 
#
# 1 109.1893 13.9984 2.4995 0.0000 0.0000 0.0000
# 2 13.9984 93.1441 18.9742 0.0000 0.0000 0.0000
# 3 2.4995 18.9742 72.7503 0.0000 0.0000 0.0000
# 4 0.0000 0.0000 0.0000 34.9005 0.0000 0.0000
# 5 0.0000 0.0000 0.0000 0.0000 35.3068 0.0000
# 6 0.0000 0.0000 0.0000 0.0000 0.0000 30.4753
#
#
#
# Elastic Compliance Matrix: (Units=1/GPa)
#
#
# Indices 1 2 3 4 5 6 
#
# 1 0.009338 -0.001413 0.000048 0.000000 0.000000 0.000000
# 2 -0.001413 0.011552 -0.002964 0.000000 0.000000 0.000000
# 3 0.000048 -0.002964 0.014517 0.000000 0.000000 0.000000
# 4 0.000000 0.000000 0.000000 0.028653 0.000000 0.000000
# 5 0.000000 0.000000 0.000000 0.000000 0.028323 0.000000
# 6 0.000000 0.000000 0.000000 0.000000 0.000000 0.032813
#
#
# Mechanical properties :
#
#
# Convention : Reuss Voigt Hill
#
# Bulk Modulus (GPa) = 37.38570 38.44755 37.91662
# Shear Modulus (GPa) = 35.02055 36.11062 35.56558
#
# Velocity S-wave (km/s) = 3.63592 3.69207 3.66410
# Velocity P-wave (km/s) = 5.63376 5.71741 5.67574
#
# Compressibility (1/GPa) = 0.02674820
#
# Stress axis : x y z
#
# Youngs Moduli (GPa) = 107.08374 86.56267 68.88390
#
# Poissons Ratio (x) = 0.12233 -0.00329
# Poissons Ratio (y) = 0.15133 0.20420
# Poissons Ratio (z) = -0.00511 0.25661
#
# Static dielectric constant tensor:
#      x y z
#    x 2.098190 0.000000 0.000000 
#    y 0.000000 2.126610 0.000000 
#    z 0.000000 0.000000 2.033500 
# 
# From -- ./inp_files/4538.got.cif
#   From: 2010.05.17/outbox.cif.g08.bks.cpg/sg19_3_cif.got.tgz:4538.got - 2010.06.03 22:46:19.
