data_PCOD9314985
_publ_section_title
;
Structure prediction by ZEFSAII (Michael W. Deem and Ramdas Pophale) SiO2 
 PCOD9314985
Probable space group: P 21 21 21
;
_chemical_formula_sum "Si O2"
_cell_formula_units_Z 20
_cell_length_a 10.558268
_cell_length_b 13.916882
_cell_length_c 5.269085
_cell_angle_alpha 90.000000
_cell_angle_beta 90.000000
_cell_angle_gamma 90.000000
_cell_volume 774.229707
_symmetry_space_group_name_H-M "P 21 21 21"
_symmetry_group_IT_number 19
_symmetry_cell_setting 'orthorhombic'
loop_
_space_group_symop_operation_xyz
x,y,z
1/2-x,-y,1/2+z
1/2+x,1/2-y,-z
-x,1/2+y,1/2-z
loop_
_atom_site_type_symbol
_atom_site_label
_atom_site_fract_x
_atom_site_fract_y
_atom_site_fract_z
Si Si1 0.925709 0.773903 0.488912
Si Si2 0.573415 0.554847 0.571261
Si Si3 0.716497 0.217049 0.477007
Si Si4 0.654451 0.410223 0.223929
Si Si5 0.823481 0.035349 0.290968
O O1 0.886469 0.814621 0.765094
O O2 0.917222 0.660415 0.528968
O O3 0.053682 0.830683 0.436592
O O4 0.827833 0.797606 0.263596
O O5 0.559675 0.490345 0.321099
O O6 0.719434 0.539338 0.628269
O O7 0.461366 0.512054 0.738573
O O8 0.710933 0.331510 0.426821
O O9 0.830128 0.147240 0.388777
O O10 0.751045 0.983973 0.528667
#
# Coordination Sequence:
#
# PCOD9314985 Si02
#       5
#     4   4   4   4   4
#     4  10  24  50  76 106 158 210 259 325 384 482
#     4  12  26  50  79 119 161 208 264 342 396 492
#     4  10  22  50  69 110 149 199 265 315 392 468
#     4  10  29  47  73 121 156 207 260 325 413 464
#     4  12  23  47  79 114 150 208 272 323 395 476
#
# _framework density 25.832128999999998
#
# number of rings (size 3 to 8) (size 9 to 14) (size 15 to 20)
#    1.200    0.000    4.000    0.000    2.800    6.400 
#    0.000    0.000    0.000    0.000    0.000    0.000 
#    0.000    0.000    0.000    0.000    0.000    0.000 
#
# Total GULP energy -111524.731586 kJ/mol
# GULP energy per Si atom -5576.236579 kJ/mol
# Density = 2.577333 g / cm^3
# Si number density = 25.832129 Si / 1000 Ang^3
#
#
#
# Elastic Constant Matrix: (Units=GPa)
#
#
# Indices 1 2 3 4 5 6 
#
# 1 32.8959 39.0112 15.2486 0.0000 0.0000 0.0000
# 2 39.0112 147.1943 59.5518 0.0000 0.0000 0.0000
# 3 15.2486 59.5518 123.6991 0.0000 0.0000 0.0000
# 4 0.0000 0.0000 0.0000 45.2841 0.0000 0.0000
# 5 0.0000 0.0000 0.0000 0.0000 22.2614 0.0000
# 6 0.0000 0.0000 0.0000 0.0000 0.0000 26.4736
#
#
#
# Elastic Compliance Matrix: (Units=1/GPa)
#
#
# Indices 1 2 3 4 5 6 
#
# 1 0.044338 -0.011847 0.000238 0.000000 0.000000 0.000000
# 2 -0.011847 0.011603 -0.004125 0.000000 0.000000 0.000000
# 3 0.000238 -0.004125 0.010041 0.000000 0.000000 0.000000
# 4 0.000000 0.000000 0.000000 0.022083 0.000000 0.000000
# 5 0.000000 0.000000 0.000000 0.000000 0.044921 0.000000
# 6 0.000000 0.000000 0.000000 0.000000 0.000000 0.037773
#
#
# Mechanical properties :
#
#
# Convention : Reuss Voigt Hill
#
# Bulk Modulus (GPa) = 28.97512 59.04582 44.01047
# Shear Modulus (GPa) = 23.39371 31.46901 27.43136
#
# Velocity S-wave (km/s) = 3.01259 3.49408 3.26223
# Velocity P-wave (km/s) = 4.83136 6.25981 5.59139
#
# Compressibility (1/GPa) = 0.03451236
#
# Stress axis : x y z
#
# Youngs Moduli (GPa) = 22.55381 86.18680 99.59307
#
# Poissons Ratio (x) = 1.02108 -0.02369
# Poissons Ratio (y) = 0.26720 0.41086
# Poissons Ratio (z) = -0.00537 0.35555
#
# Static dielectric constant tensor:
#      x y z
#    x 1.953890 0.000000 0.000000 
#    y 0.000000 2.107870 0.000000 
#    z 0.000000 0.000000 2.194890 
# 
# From -- ./inp_files/854.got.cif
#   From: 2010.05.17/outbox.cif.g08.bks.cpg/sg19_1_cif.got.tgz:854.got - 2010.06.03 22:46:19.
