data_PCOD9314643
_publ_section_title
;
Structure prediction by ZEFSAII (Michael W. Deem and Ramdas Pophale) SiO2 
 PCOD9314643
Probable space group: P 21 21 21
;
_chemical_formula_sum "Si O2"
_cell_formula_units_Z 28
_cell_length_a 15.462413
_cell_length_b 16.329361
_cell_length_c 5.068837
_cell_angle_alpha 90.000000
_cell_angle_beta 90.000000
_cell_angle_gamma 90.000000
_cell_volume 1279.837364
_symmetry_space_group_name_H-M "P 21 21 21"
_symmetry_group_IT_number 19
_symmetry_cell_setting 'orthorhombic'
loop_
_space_group_symop_operation_xyz
x,y,z
1/2-x,-y,1/2+z
1/2+x,1/2-y,-z
-x,1/2+y,1/2-z
loop_
_atom_site_type_symbol
_atom_site_label
_atom_site_fract_x
_atom_site_fract_y
_atom_site_fract_z
Si Si1 0.475346 0.438894 0.988346
Si Si2 0.599617 0.727919 0.154565
Si Si3 0.209375 0.113024 0.769636
Si Si4 0.039618 0.152773 0.503432
Si Si5 0.277387 0.454202 0.830968
Si Si6 0.210623 0.728079 0.364069
Si Si7 0.122797 0.948772 0.994134
O O1 0.512587 0.370333 0.790411
O O2 0.375944 0.452414 0.929304
O O3 0.495456 0.411102 0.287887
O O4 0.530111 0.519777 0.912949
O O5 0.504571 0.761468 0.083457
O O6 0.637340 0.770480 0.412815
O O7 0.606207 0.630067 0.188454
O O8 0.662874 0.754324 0.913907
O O9 0.225159 0.196713 0.928926
O O10 0.305271 0.083714 0.694685
O O11 0.142210 0.141600 0.542795
O O12 0.165634 0.031976 0.885255
O O13 0.272368 0.487913 0.535346
O O14 0.245972 0.360416 0.848079
#
# Coordination Sequence:
#
# PCOD9314643 Si02
#       7
#     4   4   4   4   4   4   4
#     4  11  23  42  64  92 130 176 220 270 342 389
#     4  11  21  40  66  89 128 177 219 259 334 408
#     4  10  22  39  66 100 136 172 219 280 335 398
#     4  11  21  40  66  89 128 177 219 259 334 408
#     4  12  24  42  68  96 130 176 230 282 330 394
#     4  11  23  42  64  92 130 176 220 270 342 389
#     4  10  22  39  66 100 136 172 219 280 335 398
#
# _framework density 21.877779
#
# number of rings (size 3 to 8) (size 9 to 14) (size 15 to 20)
#    0.000    1.143    2.857    3.429    0.000    8.000 
#    0.000    5.714    0.000    0.000    0.000    0.000 
#    0.000    0.000    0.000    0.000    0.000    0.000 
#
# Total GULP energy -156320.045400 kJ/mol
# GULP energy per Si atom -5582.858764 kJ/mol
# Density = 2.182798 g / cm^3
# Si number density = 21.877779 Si / 1000 Ang^3
#
#
#
# Elastic Constant Matrix: (Units=GPa)
#
#
# Indices 1 2 3 4 5 6 
#
# 1 35.9912 10.8167 -8.8300 0.0000 0.0000 0.0000
# 2 10.8167 150.8584 12.9402 0.0000 0.0000 0.0000
# 3 -8.8300 12.9402 72.7193 0.0000 0.0000 0.0000
# 4 0.0000 0.0000 0.0000 27.8913 0.0000 0.0000
# 5 0.0000 0.0000 0.0000 0.0000 24.1172 0.0000
# 6 0.0000 0.0000 0.0000 0.0000 0.0000 43.6500
#
#
#
# Elastic Compliance Matrix: (Units=1/GPa)
#
#
# Indices 1 2 3 4 5 6 
#
# 1 0.029511 -0.002461 0.004021 0.000000 0.000000 0.000000
# 2 -0.002461 0.006937 -0.001533 0.000000 0.000000 0.000000
# 3 0.004021 -0.001533 0.014513 0.000000 0.000000 0.000000
# 4 0.000000 0.000000 0.000000 0.035853 0.000000 0.000000
# 5 0.000000 0.000000 0.000000 0.000000 0.041464 0.000000
# 6 0.000000 0.000000 0.000000 0.000000 0.000000 0.022910
#
#
# Mechanical properties :
#
#
# Convention : Reuss Voigt Hill
#
# Bulk Modulus (GPa) = 19.60228 32.15807 25.88018
# Shear Modulus (GPa) = 29.73756 35.44118 32.58937
#
# Velocity S-wave (km/s) = 3.69081 4.02924 3.86373
# Velocity P-wave (km/s) = 5.20981 6.03136 5.63558
#
# Compressibility (1/GPa) = 0.05101448
#
# Stress axis : x y z
#
# Youngs Moduli (GPa) = 33.88596 144.16098 68.90559
#
# Poissons Ratio (x) = 0.35476 -0.27709
# Poissons Ratio (y) = 0.08339 0.10564
# Poissons Ratio (z) = -0.13626 0.22102
#
# Static dielectric constant tensor:
#      x y z
#    x 1.834000 0.000000 0.000000 
#    y 0.000000 1.846230 0.000000 
#    z 0.000000 0.000000 1.804000 
# 
# From -- ./inp_files/1506.got.cif
#   From: 2010.05.17/outbox.cif.g08.bks.cpg/sg19_1_cif.got.tgz:1506.got - 2010.06.03 22:46:19.
