data_PCOD9314993
_publ_section_title
;
Structure prediction by ZEFSAII (Michael W. Deem and Ramdas Pophale) SiO2 
 PCOD9314993
Probable space group: P 21 21 21
;
_chemical_formula_sum "Si O2"
_cell_formula_units_Z 32
_cell_length_a 5.715328
_cell_length_b 11.636143
_cell_length_c 18.919393
_cell_angle_alpha 90.000000
_cell_angle_beta 90.000000
_cell_angle_gamma 90.000000
_cell_volume 1258.222386
_symmetry_space_group_name_H-M "P 21 21 21"
_symmetry_group_IT_number 19
_symmetry_cell_setting 'orthorhombic'
loop_
_space_group_symop_operation_xyz
x,y,z
1/2-x,-y,1/2+z
1/2+x,1/2-y,-z
-x,1/2+y,1/2-z
loop_
_atom_site_type_symbol
_atom_site_label
_atom_site_fract_x
_atom_site_fract_y
_atom_site_fract_z
Si Si1 0.830635 0.506640 0.556415
Si Si2 0.830924 0.383706 0.366859
Si Si3 0.660813 0.221092 0.240726
Si Si4 0.122239 0.886204 0.564874
Si Si5 0.653909 0.229731 0.830455
Si Si6 0.937250 0.161629 0.450997
Si Si7 0.714469 0.018844 0.567403
Si Si8 0.180514 0.491067 0.664579
O O1 0.650242 0.592538 0.518832
O O2 0.697318 0.385233 0.565061
O O3 0.021790 0.504494 0.493532
O O4 0.943802 0.541625 0.629926
O O5 0.715453 0.314987 0.303075
O O6 0.698641 0.499569 0.389724
O O7 0.875042 0.290811 0.430164
O O8 0.096923 0.431921 0.361904
O O9 0.398571 0.243427 0.211493
O O10 0.642100 0.092141 0.270996
O O11 0.906655 0.224328 0.197579
O O12 0.271954 0.782070 0.593774
O O13 0.847306 0.898904 0.577877
O O14 0.639480 0.092908 0.826643
O O15 0.870923 0.118081 0.529233
O O16 0.777692 0.090678 0.396916
#
# Coordination Sequence:
#
# PCOD9314993 Si02
#       8
#     4   4   4   4   4   4   4   4
#     4   9  20  43  69 102 142 185 236 300 360 435
#     4  10  23  38  69 100 140 183 231 297 357 429
#     4  11  30  47  75 104 142 192 250 300 361 430
#     4  10  24  44  69 106 146 185 242 306 367 439
#     4  12  30  49  76 104 143 199 243 303 364 435
#     4   9  20  38  67 105 141 182 230 290 370 434
#     4   9  20  35  66 101 141 178 227 292 365 423
#     4  10  25  48  73 102 143 188 245 302 362 443
#
# _framework density 25.432704999999999
#
# number of rings (size 3 to 8) (size 9 to 14) (size 15 to 20)
#    0.000    2.000    0.000    0.000   19.250    1.000 
#    6.750    0.000    0.000    0.000    0.000    0.000 
#    0.000    0.000    0.000    0.000    0.000    0.000 
#
# Total GULP energy -178542.180627 kJ/mol
# GULP energy per Si atom -5579.443145 kJ/mol
# Density = 2.537482 g / cm^3
# Si number density = 25.432705 Si / 1000 Ang^3
#
#
#
# Elastic Constant Matrix: (Units=GPa)
#
#
# Indices 1 2 3 4 5 6 
#
# 1 107.7216 -1.0844 24.7248 0.0000 0.0000 0.0000
# 2 -1.0844 72.2293 7.5012 0.0000 0.0000 0.0000
# 3 24.7248 7.5012 33.6978 0.0000 0.0000 0.0000
# 4 0.0000 0.0000 0.0000 23.2772 0.0000 0.0000
# 5 0.0000 0.0000 0.0000 0.0000 36.3045 0.0000
# 6 0.0000 0.0000 0.0000 0.0000 0.0000 38.1059
#
#
#
# Elastic Compliance Matrix: (Units=1/GPa)
#
#
# Indices 1 2 3 4 5 6 
#
# 1 0.011240 0.001050 -0.008481 0.000000 0.000000 0.000000
# 2 0.001050 0.014270 -0.003947 0.000000 0.000000 0.000000
# 3 -0.008481 -0.003947 0.036777 0.000000 0.000000 0.000000
# 4 0.000000 0.000000 0.000000 0.042960 0.000000 0.000000
# 5 0.000000 0.000000 0.000000 0.000000 0.027545 0.000000
# 6 0.000000 0.000000 0.000000 0.000000 0.000000 0.026243
#
#
# Mechanical properties :
#
#
# Convention : Reuss Voigt Hill
#
# Bulk Modulus (GPa) = 25.29637 30.65908 27.97772
# Shear Modulus (GPa) = 25.64516 31.70467 28.67491
#
# Velocity S-wave (km/s) = 3.17890 3.53457 3.36144
# Velocity P-wave (km/s) = 4.84168 5.36085 5.10787
#
# Compressibility (1/GPa) = 0.03953136
#
# Stress axis : x y z
#
# Youngs Moduli (GPa) = 88.96542 70.07495 27.19112
#
# Poissons Ratio (x) = -0.07355 0.23060
# Poissons Ratio (y) = -0.09337 0.10731
# Poissons Ratio (z) = 0.75451 0.27656
#
# Static dielectric constant tensor:
#      x y z
#    x 2.255010 0.000000 0.000000 
#    y 0.000000 2.029370 0.000000 
#    z 0.000000 0.000000 2.026190 
# 
# From -- ./inp_files/6935.got.cif
#   From: 2010.05.17/outbox.cif.g08.bks.cpg/sg19_4_cif.got.tgz:6935.got - 2010.06.03 22:46:19.
