data_PCOD9314061
_publ_section_title
;
Structure prediction by ZEFSAII (Michael W. Deem and Ramdas Pophale) SiO2 
 PCOD9314061
Probable space group: P 21 21 21
;
_chemical_formula_sum "Si O2"
_cell_formula_units_Z 28
_cell_length_a 8.358812
_cell_length_b 14.414239
_cell_length_c 9.150324
_cell_angle_alpha 90.000000
_cell_angle_beta 90.000000
_cell_angle_gamma 90.000000
_cell_volume 1102.485150
_symmetry_space_group_name_H-M "P 21 21 21"
_symmetry_group_IT_number 19
_symmetry_cell_setting 'orthorhombic'
loop_
_space_group_symop_operation_xyz
x,y,z
1/2-x,-y,1/2+z
1/2+x,1/2-y,-z
-x,1/2+y,1/2-z
loop_
_atom_site_type_symbol
_atom_site_label
_atom_site_fract_x
_atom_site_fract_y
_atom_site_fract_z
Si Si1 0.834051 0.097536 0.742548
Si Si2 0.636759 0.568602 0.959892
Si Si3 0.240702 0.865681 0.552709
Si Si4 0.632975 0.192169 0.505120
Si Si5 0.405869 0.541099 0.505874
Si Si6 0.077836 0.138095 0.351383
Si Si7 0.812759 0.681885 0.738202
O O1 0.759891 0.172514 0.631093
O O2 0.839433 0.004614 0.643196
O O3 0.014579 0.132179 0.767402
O O4 0.724614 0.086636 0.886272
O O5 0.461392 0.595968 0.006124
O O6 0.686034 0.604338 0.798354
O O7 0.678366 0.463768 0.988195
O O8 0.760472 0.625229 0.056350
O O9 0.350730 0.844571 0.692117
O O10 0.263665 0.792197 0.424493
O O11 0.052599 0.893348 0.549963
O O12 0.512271 0.267140 0.579638
O O13 0.675742 0.231983 0.347684
O O14 0.475570 0.452614 0.603564
#
# Coordination Sequence:
#
# PCOD9314061 Si02
#       7
#     4   4   4   4   4   4   4
#     4  12  25  44  66 106 139 176 232 291 342 404
#     4  10  20  40  71  93 128 187 229 267 338 422
#     4  11  22  43  69 102 133 184 232 284 339 414
#     4  11  23  43  70  97 137 184 230 281 350 414
#     4  11  26  42  70 104 139 180 233 285 347 401
#     4  10  22  40  69 100 134 174 239 275 335 414
#     4  11  22  40  69  98 138 179 231 275 343 421
#
# _framework density 25.397167
#
# number of rings (size 3 to 8) (size 9 to 14) (size 15 to 20)
#    0.000    1.143    4.286    5.143    4.000    0.000 
#    0.000    7.143    0.000    0.000    0.000    0.000 
#    0.000    0.000    0.000    0.000    0.000    0.000 
#
# Total GULP energy -156485.378322 kJ/mol
# GULP energy per Si atom -5588.763511 kJ/mol
# Density = 2.533936 g / cm^3
# Si number density = 25.397167 Si / 1000 Ang^3
#
#
#
# Elastic Constant Matrix: (Units=GPa)
#
#
# Indices 1 2 3 4 5 6 
#
# 1 42.0958 16.0642 -4.3767 0.0000 0.0000 0.0000
# 2 16.0642 37.0254 -10.9116 0.0000 0.0000 0.0000
# 3 -4.3767 -10.9116 57.1496 0.0000 0.0000 0.0000
# 4 0.0000 0.0000 0.0000 16.9324 0.0000 0.0000
# 5 0.0000 0.0000 0.0000 0.0000 44.4048 0.0000
# 6 0.0000 0.0000 0.0000 0.0000 0.0000 28.4345
#
#
#
# Elastic Compliance Matrix: (Units=1/GPa)
#
#
# Indices 1 2 3 4 5 6 
#
# 1 0.028471 -0.012408 -0.000189 0.000000 0.000000 0.000000
# 2 -0.012408 0.034027 0.005546 0.000000 0.000000 0.000000
# 3 -0.000189 0.005546 0.018542 0.000000 0.000000 0.000000
# 4 0.000000 0.000000 0.000000 0.059058 0.000000 0.000000
# 5 0.000000 0.000000 0.000000 0.000000 0.022520 0.000000
# 6 0.000000 0.000000 0.000000 0.000000 0.000000 0.035168
#
#
# Mechanical properties :
#
#
# Convention : Reuss Voigt Hill
#
# Bulk Modulus (GPa) = 14.93900 15.31361 15.12631
# Shear Modulus (GPa) = 21.34919 26.98734 24.16826
#
# Velocity S-wave (km/s) = 2.90248 3.26331 3.08817
# Velocity P-wave (km/s) = 4.13853 4.49907 4.32256
#
# Compressibility (1/GPa) = 0.06693890
#
# Stress axis : x y z
#
# Youngs Moduli (GPa) = 35.12363 29.38873 53.93028
#
# Poissons Ratio (x) = 0.36466 0.01018
# Poissons Ratio (y) = 0.43582 -0.29912
# Poissons Ratio (z) = 0.00663 -0.16300
#
# Static dielectric constant tensor:
#      x y z
#    x 2.065870 0.000000 0.000000 
#    y 0.000000 2.211440 0.000000 
#    z 0.000000 0.000000 2.166170 
# 
# From -- ./inp_files/2970.got.cif
#   From: 2010.05.17/outbox.cif.g08.bks.cpg/sg19_2_cif.got.tgz:2970.got - 2010.06.03 22:46:19.
