data_PCOD9314476
_publ_section_title
;
Structure prediction by ZEFSAII (Michael W. Deem and Ramdas Pophale) SiO2 
 PCOD9314476
Probable space group: P 21 21 21
;
_chemical_formula_sum "Si O2"
_cell_formula_units_Z 32
_cell_length_a 11.142160
_cell_length_b 10.944149
_cell_length_c 10.596375
_cell_angle_alpha 90.000000
_cell_angle_beta 90.000000
_cell_angle_gamma 90.000000
_cell_volume 1292.137430
_symmetry_space_group_name_H-M "P 21 21 21"
_symmetry_group_IT_number 19
_symmetry_cell_setting 'orthorhombic'
loop_
_space_group_symop_operation_xyz
x,y,z
1/2-x,-y,1/2+z
1/2+x,1/2-y,-z
-x,1/2+y,1/2-z
loop_
_atom_site_type_symbol
_atom_site_label
_atom_site_fract_x
_atom_site_fract_y
_atom_site_fract_z
Si Si1 0.620136 0.665459 0.021943
Si Si2 0.164662 0.048007 0.593823
Si Si3 0.724624 0.041856 0.157375
Si Si4 0.006088 0.560221 0.393268
Si Si5 0.913823 0.746464 0.558338
Si Si6 0.934790 0.173939 0.722372
Si Si7 0.104011 0.670987 0.187833
Si Si8 0.812471 0.403667 0.164022
O O1 0.757293 0.650860 0.980627
O O2 0.554520 0.546914 0.969708
O O3 0.577175 0.787213 0.950756
O O4 0.588741 0.692905 0.163783
O O5 0.254468 0.018227 0.716270
O O6 0.047461 0.103046 0.659621
O O7 0.144855 0.957385 0.472868
O O8 0.850425 0.050813 0.082470
O O9 0.622903 0.114805 0.081456
O O10 0.764725 0.113658 0.285360
O O11 0.679968 0.909667 0.196356
O O12 0.938416 0.685365 0.425787
O O13 0.013164 0.568486 0.240867
O O14 0.030022 0.702110 0.635228
O O15 0.802083 0.674247 0.617133
O O16 0.106443 0.799370 0.267146
#
# Coordination Sequence:
#
# PCOD9314476 Si02
#       8
#     4   4   4   4   4   4   4   4
#     4  11  23  42  67  96 133 177 224 279 348 402
#     4  10  22  38  64  94 133 177 224 283 334 417
#     4   9  23  43  65 100 128 177 222 279 346 396
#     4  10  22  42  70  92 136 173 222 282 341 400
#     4  10  21  42  65  95 129 175 223 281 342 403
#     4  11  26  38  69  97 130 181 221 278 341 412
#     4   8  21  41  62  92 133 167 213 285 328 402
#     4   9  18  40  62  92 130 171 223 277 342 400
#
# _framework density 24.765166000000001
#
# number of rings (size 3 to 8) (size 9 to 14) (size 15 to 20)
#    0.750    1.500    1.250    0.750    5.250    3.000 
#    0.000    0.000    0.000    0.000    0.000    0.000 
#    0.000    0.000    0.000    0.000    0.000    0.000 
#
# Total GULP energy -178136.779551 kJ/mol
# GULP energy per Si atom -5566.774361 kJ/mol
# Density = 2.470880 g / cm^3
# Si number density = 24.765166 Si / 1000 Ang^3
#
#
#
# Elastic Constant Matrix: (Units=GPa)
#
#
# Indices 1 2 3 4 5 6 
#
# 1 19.9189 2.3033 2.5963 0.0000 0.0000 0.0000
# 2 2.3033 57.9827 -2.9940 0.0000 0.0000 0.0000
# 3 2.5963 -2.9940 37.1323 0.0000 0.0000 0.0000
# 4 0.0000 0.0000 0.0000 19.6562 0.0000 0.0000
# 5 0.0000 0.0000 0.0000 0.0000 26.2841 0.0000
# 6 0.0000 0.0000 0.0000 0.0000 0.0000 25.4136
#
#
#
# Elastic Compliance Matrix: (Units=1/GPa)
#
#
# Indices 1 2 3 4 5 6 
#
# 1 0.050947 -0.002217 -0.003741 0.000000 0.000000 0.000000
# 2 -0.002217 0.017415 0.001559 0.000000 0.000000 0.000000
# 3 -0.003741 0.001559 0.027318 0.000000 0.000000 0.000000
# 4 0.000000 0.000000 0.000000 0.050875 0.000000 0.000000
# 5 0.000000 0.000000 0.000000 0.000000 0.038046 0.000000
# 6 0.000000 0.000000 0.000000 0.000000 0.000000 0.039349
#
#
# Mechanical properties :
#
#
# Convention : Reuss Voigt Hill
#
# Bulk Modulus (GPa) = 11.50975 13.20503 12.35739
# Shear Modulus (GPa) = 19.10522 21.81268 20.45895
#
# Velocity S-wave (km/s) = 2.78052 2.97101 2.87734
# Velocity P-wave (km/s) = 3.86860 4.13678 4.00493
#
# Compressibility (1/GPa) = 0.08688287
#
# Stress axis : x y z
#
# Youngs Moduli (GPa) = 19.62806 57.42144 36.60591
#
# Poissons Ratio (x) = 0.12731 0.13694
# Poissons Ratio (y) = 0.04352 -0.05708
# Poissons Ratio (z) = 0.07343 -0.08953
#
# Static dielectric constant tensor:
#      x y z
#    x 2.002210 0.000000 0.000000 
#    y 0.000000 2.048550 0.000000 
#    z 0.000000 0.000000 2.044280 
# 
# From -- ./inp_files/5018.got.cif
#   From: 2010.05.17/outbox.cif.g08.bks.cpg/sg19_3_cif.got.tgz:5018.got - 2010.06.03 22:46:19.
