data_PCOD9314271
_publ_section_title
;
Structure prediction by ZEFSAII (Michael W. Deem and Ramdas Pophale) SiO2 
 PCOD9314271
Probable space group: P 21 21 21
;
_chemical_formula_sum "Si O2"
_cell_formula_units_Z 28
_cell_length_a 7.863811
_cell_length_b 9.399568
_cell_length_c 15.573046
_cell_angle_alpha 90.000000
_cell_angle_beta 90.000000
_cell_angle_gamma 90.000000
_cell_volume 1151.103906
_symmetry_space_group_name_H-M "P 21 21 21"
_symmetry_group_IT_number 19
_symmetry_cell_setting 'orthorhombic'
loop_
_space_group_symop_operation_xyz
x,y,z
1/2-x,-y,1/2+z
1/2+x,1/2-y,-z
-x,1/2+y,1/2-z
loop_
_atom_site_type_symbol
_atom_site_label
_atom_site_fract_x
_atom_site_fract_y
_atom_site_fract_z
Si Si1 0.166533 0.914574 0.429739
Si Si2 0.425401 0.877283 0.792443
Si Si3 0.861923 0.101806 0.447168
Si Si4 0.462337 0.716035 0.247513
Si Si5 0.329062 0.333809 0.378569
Si Si6 0.962774 0.053606 0.874005
Si Si7 0.648845 0.867462 0.639851
O O1 0.131431 0.747434 0.435206
O O2 0.118786 0.969068 0.332617
O O3 0.367964 0.942703 0.433284
O O4 0.024953 0.006859 0.479456
O O5 0.575569 0.831445 0.858241
O O6 0.278862 0.767928 0.816704
O O7 0.478666 0.885881 0.694797
O O8 0.828511 0.212977 0.522731
O O9 0.701650 0.004394 0.423339
O O10 0.488162 0.821038 0.166005
O O11 0.493582 0.561738 0.203288
O O12 0.282134 0.700575 0.293112
O O13 0.562478 0.795227 0.326092
O O14 0.236765 0.484489 0.382133
#
# Coordination Sequence:
#
# PCOD9314271 Si02
#       7
#     4   4   4   4   4   4   4
#     4   9  22  40  64  86 127 167 204 260 319 370
#     4  10  21  38  66  89 126 166 216 263 315 371
#     4  10  24  43  63  93 135 164 203 269 323 378
#     4  11  20  39  63  88 122 165 214 258 307 369
#     4  12  24  39  67  95 128 169 215 263 327 388
#     4  11  21  40  66  93 127 164 214 263 310 374
#     4  11  22  41  63  94 125 167 222 264 307 384
#
# _framework density 24.324477999999999
#
# number of rings (size 3 to 8) (size 9 to 14) (size 15 to 20)
#    0.857    0.571    4.286    0.857    4.000    0.000 
#    7.714    0.000    0.000    0.000    0.000    0.000 
#    0.000    0.000    0.000    0.000    0.000    0.000 
#
# Total GULP energy -155984.161665 kJ/mol
# GULP energy per Si atom -5570.862917 kJ/mol
# Density = 2.426911 g / cm^3
# Si number density = 24.324478 Si / 1000 Ang^3
#
#
#
# Elastic Constant Matrix: (Units=GPa)
#
#
# Indices 1 2 3 4 5 6 
#
# 1 83.4952 -0.5176 13.2174 0.0000 0.0000 0.0000
# 2 -0.5176 80.8778 -3.2068 0.0000 0.0000 0.0000
# 3 13.2174 -3.2068 48.6521 0.0000 0.0000 0.0000
# 4 0.0000 0.0000 0.0000 18.3208 0.0000 0.0000
# 5 0.0000 0.0000 0.0000 0.0000 14.5028 0.0000
# 6 0.0000 0.0000 0.0000 0.0000 0.0000 27.1607
#
#
#
# Elastic Compliance Matrix: (Units=1/GPa)
#
#
# Indices 1 2 3 4 5 6 
#
# 1 0.012515 -0.000055 -0.003404 0.000000 0.000000 0.000000
# 2 -0.000055 0.012397 0.000832 0.000000 0.000000 0.000000
# 3 -0.003404 0.000832 0.021534 0.000000 0.000000 0.000000
# 4 0.000000 0.000000 0.000000 0.054583 0.000000 0.000000
# 5 0.000000 0.000000 0.000000 0.000000 0.068952 0.000000
# 6 0.000000 0.000000 0.000000 0.000000 0.000000 0.036818
#
#
# Mechanical properties :
#
#
# Convention : Reuss Voigt Hill
#
# Bulk Modulus (GPa) = 24.27607 25.77900 25.02753
# Shear Modulus (GPa) = 22.14521 25.56567 23.85544
#
# Velocity S-wave (km/s) = 3.02057 3.24547 3.13504
# Velocity P-wave (km/s) = 4.70817 4.96640 4.83901
#
# Compressibility (1/GPa) = 0.04119284
#
# Stress axis : x y z
#
# Youngs Moduli (GPa) = 79.90288 80.66485 46.43904
#
# Poissons Ratio (x) = 0.00442 0.15806
# Poissons Ratio (y) = 0.00438 -0.03864
# Poissons Ratio (z) = 0.27196 -0.06711
#
# Static dielectric constant tensor:
#      x y z
#    x 2.076910 0.000000 0.000000 
#    y 0.000000 1.945650 0.000000 
#    z 0.000000 0.000000 1.970260 
# 
# From -- ./inp_files/6606.got.cif
#   From: 2010.05.17/outbox.cif.g08.bks.cpg/sg19_4_cif.got.tgz:6606.got - 2010.06.03 22:46:19.
