data_PCOD9314584
_publ_section_title
;
Structure prediction by ZEFSAII (Michael W. Deem and Ramdas Pophale) SiO2 
 PCOD9314584
Probable space group: P 21 21 21
;
_chemical_formula_sum "Si O2"
_cell_formula_units_Z 24
_cell_length_a 7.106571
_cell_length_b 11.999229
_cell_length_c 12.260169
_cell_angle_alpha 90.000000
_cell_angle_beta 90.000000
_cell_angle_gamma 90.000000
_cell_volume 1045.465962
_symmetry_space_group_name_H-M "P 21 21 21"
_symmetry_group_IT_number 19
_symmetry_cell_setting 'orthorhombic'
loop_
_space_group_symop_operation_xyz
x,y,z
1/2-x,-y,1/2+z
1/2+x,1/2-y,-z
-x,1/2+y,1/2-z
loop_
_atom_site_type_symbol
_atom_site_label
_atom_site_fract_x
_atom_site_fract_y
_atom_site_fract_z
Si Si1 0.108395 0.395376 0.966644
Si Si2 0.007414 0.128155 0.586766
Si Si3 0.569243 0.193463 0.597973
Si Si4 0.884520 0.743060 0.337740
Si Si5 0.466334 0.962462 0.518296
Si Si6 0.560442 0.305644 0.175845
O O1 0.973912 0.496918 0.935923
O O2 0.308739 0.446773 0.997570
O O3 0.147770 0.308620 0.869292
O O4 0.033993 0.322138 0.066980
O O5 0.783986 0.150361 0.603365
O O6 0.100625 0.164566 0.699964
O O7 0.061727 0.204294 0.485196
O O8 0.526325 0.232886 0.720611
O O9 0.444860 0.091566 0.549990
O O10 0.663215 0.775245 0.332379
O O11 0.907530 0.618377 0.382586
O O12 0.391305 0.907571 0.406054
#
# Coordination Sequence:
#
# PCOD9314584 Si02
#       6
#     4   4   4   4   4   4
#     4   9  19  36  58  79 105 143 179 215 266 320
#     4  10  22  36  55  82 110 141 179 221 265 317
#     4  10  22  36  55  82 110 141 179 221 265 317
#     4   9  19  36  55  80 109 138 178 222 263 314
#     4   9  19  36  58  79 105 143 179 215 266 320
#     4   9  19  36  55  80 109 138 178 222 263 314
#
# _framework density 22.956271000000001
#
# number of rings (size 3 to 8) (size 9 to 14) (size 15 to 20)
#    0.000    2.667    0.000    0.000    4.667    2.667 
#    0.000    0.000    0.000    0.000    0.000    0.000 
#    0.000    0.000    0.000    0.000    0.000    0.000 
#
# Total GULP energy -134147.132243 kJ/mol
# GULP energy per Si atom -5589.463843 kJ/mol
# Density = 2.290402 g / cm^3
# Si number density = 22.956271 Si / 1000 Ang^3
#
#
#
# Elastic Constant Matrix: (Units=GPa)
#
#
# Indices 1 2 3 4 5 6 
#
# 1 54.5319 3.7776 -4.2714 0.0000 0.0000 0.0000
# 2 3.7776 156.7081 91.5857 0.0000 0.0000 0.0000
# 3 -4.2714 91.5857 157.4758 0.0000 0.0000 0.0000
# 4 0.0000 0.0000 0.0000 13.7329 0.0000 0.0000
# 5 0.0000 0.0000 0.0000 0.0000 24.0124 0.0000
# 6 0.0000 0.0000 0.0000 0.0000 0.0000 30.3486
#
#
#
# Elastic Compliance Matrix: (Units=1/GPa)
#
#
# Indices 1 2 3 4 5 6 
#
# 1 0.018506 -0.001120 0.001153 0.000000 0.000000 0.000000
# 2 -0.001120 0.009735 -0.005692 0.000000 0.000000 0.000000
# 3 0.001153 -0.005692 0.009692 0.000000 0.000000 0.000000
# 4 0.000000 0.000000 0.000000 0.072818 0.000000 0.000000
# 5 0.000000 0.000000 0.000000 0.000000 0.041645 0.000000
# 6 0.000000 0.000000 0.000000 0.000000 0.000000 0.032950
#
#
# Mechanical properties :
#
#
# Convention : Reuss Voigt Hill
#
# Bulk Modulus (GPa) = 37.57279 61.21106 49.39193
# Shear Modulus (GPa) = 24.32672 32.12705 28.22688
#
# Velocity S-wave (km/s) = 3.25883 3.74503 3.51036
# Velocity P-wave (km/s) = 5.52835 6.73962 6.16381
#
# Compressibility (1/GPa) = 0.02661500
#
# Stress axis : x y z
#
# Youngs Moduli (GPa) = 54.03695 102.72260 103.17879
#
# Poissons Ratio (x) = 0.11507 -0.11901
# Poissons Ratio (y) = 0.06053 0.58730
# Poissons Ratio (z) = -0.06233 0.58471
#
# Static dielectric constant tensor:
#      x y z
#    x 1.966660 0.000000 0.000000 
#    y 0.000000 1.830550 0.000000 
#    z 0.000000 0.000000 1.802240 
# 
# From -- ./inp_files/3350.got.cif
#   From: 2010.05.17/outbox.cif.g08.bks.cpg/sg19_2_cif.got.tgz:3350.got - 2010.06.03 22:46:19.
