data_PCOD9314107
_publ_section_title
;
Structure prediction by ZEFSAII (Michael W. Deem and Ramdas Pophale) SiO2 
 PCOD9314107
Probable space group: P 21 21 21
;
_chemical_formula_sum "Si O2"
_cell_formula_units_Z 28
_cell_length_a 7.966003
_cell_length_b 10.968779
_cell_length_c 13.031984
_cell_angle_alpha 90.000000
_cell_angle_beta 90.000000
_cell_angle_gamma 90.000000
_cell_volume 1138.699920
_symmetry_space_group_name_H-M "P 21 21 21"
_symmetry_group_IT_number 19
_symmetry_cell_setting 'orthorhombic'
loop_
_space_group_symop_operation_xyz
x,y,z
1/2-x,-y,1/2+z
1/2+x,1/2-y,-z
-x,1/2+y,1/2-z
loop_
_atom_site_type_symbol
_atom_site_label
_atom_site_fract_x
_atom_site_fract_y
_atom_site_fract_z
Si Si1 0.669783 0.357723 0.234393
Si Si2 0.679645 0.036133 0.913455
Si Si3 0.967261 0.824293 0.599984
Si Si4 0.958288 0.958687 0.044887
Si Si5 0.687400 0.386851 0.801043
Si Si6 0.322839 0.438169 0.300535
Si Si7 0.552193 0.775985 0.866973
O O1 0.633519 0.298681 0.124325
O O2 0.737965 0.494999 0.240917
O O3 0.487490 0.357779 0.288133
O O4 0.798668 0.273539 0.295168
O O5 0.589972 0.905860 0.916027
O O6 0.698022 0.068307 0.795164
O O7 0.875172 0.020615 0.947056
O O8 0.578108 0.127134 0.986932
O O9 0.162918 0.824812 0.632478
O O10 0.889300 0.924913 0.678151
O O11 0.789966 0.915120 0.102415
O O12 0.049510 0.828895 0.044744
O O13 0.056305 0.054192 0.117075
O O14 0.597923 0.304559 0.714766
#
# Coordination Sequence:
#
# PCOD9314107 Si02
#       7
#     4   4   4   4   4   4   4
#     4  10  21  40  67  90 125 178 211 264 335 388
#     4  11  22  41  63  95 132 167 220 275 321 393
#     4  10  21  41  64  91 132 169 217 269 323 389
#     4  10  22  38  65  92 128 171 217 270 331 386
#     4  10  21  41  65  93 129 176 220 270 328 389
#     4  10  20  42  64  92 128 171 216 269 324 387
#     4  11  21  41  66  93 132 172 219 271 328 386
#
# _framework density 24.589448000000001
#
# number of rings (size 3 to 8) (size 9 to 14) (size 15 to 20)
#    0.000    1.714    2.857    1.714    0.000    4.571 
#   12.857    1.429    0.000    0.000    0.000    0.000 
#    0.000    0.000    0.000    0.000    0.000    0.000 
#
# Total GULP energy -156456.632826 kJ/mol
# GULP energy per Si atom -5587.736887 kJ/mol
# Density = 2.453348 g / cm^3
# Si number density = 24.589448 Si / 1000 Ang^3
#
#
#
# Elastic Constant Matrix: (Units=GPa)
#
#
# Indices 1 2 3 4 5 6 
#
# 1 64.7468 0.5432 11.7493 0.0000 0.0000 0.0000
# 2 0.5432 27.3122 13.7039 0.0000 0.0000 0.0000
# 3 11.7493 13.7039 74.0853 0.0000 0.0000 0.0000
# 4 0.0000 0.0000 0.0000 23.0160 0.0000 0.0000
# 5 0.0000 0.0000 0.0000 0.0000 22.3656 0.0000
# 6 0.0000 0.0000 0.0000 0.0000 0.0000 39.8081
#
#
#
# Elastic Compliance Matrix: (Units=1/GPa)
#
#
# Indices 1 2 3 4 5 6 
#
# 1 0.015930 0.001048 -0.002720 0.000000 0.000000 0.000000
# 2 0.001048 0.040428 -0.007644 0.000000 0.000000 0.000000
# 3 -0.002720 -0.007644 0.015343 0.000000 0.000000 0.000000
# 4 0.000000 0.000000 0.000000 0.043448 0.000000 0.000000
# 5 0.000000 0.000000 0.000000 0.000000 0.044712 0.000000
# 6 0.000000 0.000000 0.000000 0.000000 0.000000 0.025121
#
#
# Mechanical properties :
#
#
# Convention : Reuss Voigt Hill
#
# Bulk Modulus (GPa) = 18.84366 24.23746 21.54056
# Shear Modulus (GPa) = 22.59333 26.38111 24.48722
#
# Velocity S-wave (km/s) = 3.03450 3.27901 3.15912
# Velocity P-wave (km/s) = 4.46738 4.92079 4.69956
#
# Compressibility (1/GPa) = 0.05306825
#
# Stress axis : x y z
#
# Youngs Moduli (GPa) = 62.77618 24.73505 65.17462
#
# Poissons Ratio (x) = -0.02592 0.17729
# Poissons Ratio (y) = -0.06579 0.49823
# Poissons Ratio (z) = 0.17076 0.18909
#
# Static dielectric constant tensor:
#      x y z
#    x 2.030570 0.000000 0.000000 
#    y 0.000000 2.105240 0.000000 
#    z 0.000000 0.000000 2.081440 
# 
# From -- ./inp_files/3439.got.cif
#   From: 2010.05.17/outbox.cif.g08.bks.cpg/sg19_2_cif.got.tgz:3439.got - 2010.06.03 22:46:19.
