data_PCOD9314245
_publ_section_title
;
Structure prediction by ZEFSAII (Michael W. Deem and Ramdas Pophale) SiO2 
 PCOD9314245
Probable space group: P 21 21 21
;
_chemical_formula_sum "Si O2"
_cell_formula_units_Z 28
_cell_length_a 8.606241
_cell_length_b 9.266371
_cell_length_c 16.950008
_cell_angle_alpha 90.000000
_cell_angle_beta 90.000000
_cell_angle_gamma 90.000000
_cell_volume 1351.739781
_symmetry_space_group_name_H-M "P 21 21 21"
_symmetry_group_IT_number 19
_symmetry_cell_setting 'orthorhombic'
loop_
_space_group_symop_operation_xyz
x,y,z
1/2-x,-y,1/2+z
1/2+x,1/2-y,-z
-x,1/2+y,1/2-z
loop_
_atom_site_type_symbol
_atom_site_label
_atom_site_fract_x
_atom_site_fract_y
_atom_site_fract_z
Si Si1 0.151233 0.947128 0.883384
Si Si2 0.484972 0.462263 0.652027
Si Si3 0.818444 0.945031 0.488190
Si Si4 0.901424 0.425998 0.798792
Si Si5 0.520026 0.780642 0.431140
Si Si6 0.619076 0.250927 0.762513
Si Si7 0.640833 0.862752 0.129164
O O1 0.077459 0.947412 0.794780
O O2 0.109366 0.788660 0.914313
O O3 0.336176 0.959833 0.875082
O O4 0.090673 0.081648 0.931355
O O5 0.370695 0.443565 0.578791
O O6 0.482912 0.334942 0.716426
O O7 0.443818 0.619414 0.686612
O O8 0.685345 0.842870 0.455238
O O9 0.963411 0.842842 0.510018
O O10 0.778413 0.027789 0.568563
O O11 0.981364 0.291235 0.843958
O O12 0.719975 0.377399 0.805684
O O13 0.982404 0.563116 0.839903
O O14 0.742987 0.179054 0.700806
#
# Coordination Sequence:
#
# PCOD9314245 Si02
#       7
#     4   4   4   4   4   4   4
#     4  10  21  38  61  90 122 160 206 263 312 372
#     4  10  22  40  62  89 129 161 213 262 313 374
#     4  11  23  40  60  91 125 169 206 258 314 380
#     4   9  18  37  60  86 118 158 209 254 308 368
#     4  11  22  39  62  89 122 168 205 256 314 381
#     4  10  21  40  62  91 124 166 213 264 314 372
#     4   9  21  38  61  88 128 158 210 257 317 377
#
# _framework density 20.714044999999999
#
# number of rings (size 3 to 8) (size 9 to 14) (size 15 to 20)
#    0.000    2.286    1.429    2.571    0.000    5.714 
#    5.143    0.000    0.000    0.000    0.000    0.000 
#    0.000    0.000    0.000    0.000    0.000    0.000 
#
# Total GULP energy -156014.378552 kJ/mol
# GULP energy per Si atom -5571.942091 kJ/mol
# Density = 2.066690 g / cm^3
# Si number density = 20.714045 Si / 1000 Ang^3
#
#
#
# Elastic Constant Matrix: (Units=GPa)
#
#
# Indices 1 2 3 4 5 6 
#
# 1 33.0360 9.7903 2.6022 0.0000 0.0000 0.0000
# 2 9.7903 76.7421 8.6203 0.0000 0.0000 0.0000
# 3 2.6022 8.6203 25.6624 0.0000 0.0000 0.0000
# 4 0.0000 0.0000 0.0000 24.6524 0.0000 0.0000
# 5 0.0000 0.0000 0.0000 0.0000 19.7995 0.0000
# 6 0.0000 0.0000 0.0000 0.0000 0.0000 40.3504
#
#
#
# Elastic Compliance Matrix: (Units=1/GPa)
#
#
# Indices 1 2 3 4 5 6 
#
# 1 0.031550 -0.003809 -0.001920 0.000000 0.000000 0.000000
# 2 -0.003809 0.014002 -0.004317 0.000000 0.000000 0.000000
# 3 -0.001920 -0.004317 0.040612 0.000000 0.000000 0.000000
# 4 0.000000 0.000000 0.000000 0.040564 0.000000 0.000000
# 5 0.000000 0.000000 0.000000 0.000000 0.050506 0.000000
# 6 0.000000 0.000000 0.000000 0.000000 0.000000 0.024783
#
#
# Mechanical properties :
#
#
# Convention : Reuss Voigt Hill
#
# Bulk Modulus (GPa) = 15.13500 19.71846 17.42673
# Shear Modulus (GPa) = 20.48064 24.58899 22.53481
#
# Velocity S-wave (km/s) = 3.14782 3.44912 3.30191
# Velocity P-wave (km/s) = 4.53147 5.04004 4.79250
#
# Compressibility (1/GPa) = 0.06607201
#
# Stress axis : x y z
#
# Youngs Moduli (GPa) = 31.69561 71.42065 24.62311
#
# Poissons Ratio (x) = 0.27207 0.04727
# Poissons Ratio (y) = 0.12074 0.10630
# Poissons Ratio (z) = 0.06084 0.30832
#
# Static dielectric constant tensor:
#      x y z
#    x 1.738150 0.000000 0.000000 
#    y 0.000000 1.768740 0.000000 
#    z 0.000000 0.000000 1.775670 
# 
# From -- ./inp_files/2931.got.cif
#   From: 2010.05.17/outbox.cif.g08.bks.cpg/sg19_2_cif.got.tgz:2931.got - 2010.06.03 22:46:19.
