data_PCOD9314767
_publ_section_title
;
Structure prediction by ZEFSAII (Michael W. Deem and Ramdas Pophale) SiO2 
 PCOD9314767
Probable space group: P 21 21 21
;
_chemical_formula_sum "Si O2"
_cell_formula_units_Z 28
_cell_length_a 10.356524
_cell_length_b 18.214780
_cell_length_c 5.487559
_cell_angle_alpha 90.000000
_cell_angle_beta 90.000000
_cell_angle_gamma 90.000000
_cell_volume 1035.183042
_symmetry_space_group_name_H-M "P 21 21 21"
_symmetry_group_IT_number 19
_symmetry_cell_setting 'orthorhombic'
loop_
_space_group_symop_operation_xyz
x,y,z
1/2-x,-y,1/2+z
1/2+x,1/2-y,-z
-x,1/2+y,1/2-z
loop_
_atom_site_type_symbol
_atom_site_label
_atom_site_fract_x
_atom_site_fract_y
_atom_site_fract_z
Si Si1 0.784262 0.775585 0.479893
Si Si2 0.165565 0.873079 0.313322
Si Si3 0.926848 0.556307 0.572807
Si Si4 0.475241 0.511691 0.570007
Si Si5 0.782762 0.101385 0.358744
Si Si6 0.543600 0.808962 0.191073
Si Si7 0.950067 0.821186 0.072293
O O1 0.732441 0.703094 0.614888
O O2 0.758287 0.852617 0.620844
O O3 0.678711 0.775909 0.264921
O O4 0.916980 0.779388 0.326374
O O5 0.277606 0.932187 0.354117
O O6 0.094016 0.854683 0.059554
O O7 0.036564 0.906901 0.437339
O O8 0.949512 0.523588 0.305570
O O9 0.989881 0.636671 0.605447
O O10 0.993960 0.513332 0.794559
O O11 0.329952 0.482854 0.630267
O O12 0.657901 0.117581 0.525897
O O13 0.911914 0.142107 0.460809
O O14 0.446449 0.743875 0.125716
#
# Coordination Sequence:
#
# PCOD9314767 Si02
#       7
#     4   4   4   4   4   4   4
#     4  11  24  44  69 104 144 190 246 308 375 443
#     4  12  27  44  72 112 142 194 246 315 370 453
#     4  11  25  47  77 101 149 193 246 304 371 449
#     4  11  26  51  74 107 144 200 250 304 378 447
#     4  10  22  46  68  92 141 193 238 304 367 442
#     4  10  22  41  70 101 137 188 243 298 369 440
#     4  11  26  43  66 111 145 188 253 309 376 448
#
# _framework density 27.048355999999998
#
# number of rings (size 3 to 8) (size 9 to 14) (size 15 to 20)
#    0.000    1.143    2.857    1.714   10.000    1.143 
#    2.571    0.000    0.000    0.000    0.000    0.000 
#    0.000    0.000    0.000    0.000    0.000    0.000 
#
# Total GULP energy -156236.859677 kJ/mol
# GULP energy per Si atom -5579.887846 kJ/mol
# Density = 2.698679 g / cm^3
# Si number density = 27.048356 Si / 1000 Ang^3
#
#
#
# Elastic Constant Matrix: (Units=GPa)
#
#
# Indices 1 2 3 4 5 6 
#
# 1 101.7473 23.1767 26.3663 0.0000 0.0000 0.0000
# 2 23.1767 71.8497 18.9823 0.0000 0.0000 0.0000
# 3 26.3663 18.9823 90.7463 0.0000 0.0000 0.0000
# 4 0.0000 0.0000 0.0000 41.8797 0.0000 0.0000
# 5 0.0000 0.0000 0.0000 0.0000 36.5871 0.0000
# 6 0.0000 0.0000 0.0000 0.0000 0.0000 35.9136
#
#
#
# Elastic Compliance Matrix: (Units=1/GPa)
#
#
# Indices 1 2 3 4 5 6 
#
# 1 0.011174 -0.002907 -0.002639 0.000000 0.000000 0.000000
# 2 -0.002907 0.015489 -0.002395 0.000000 0.000000 0.000000
# 3 -0.002639 -0.002395 0.012287 0.000000 0.000000 0.000000
# 4 0.000000 0.000000 0.000000 0.023878 0.000000 0.000000
# 5 0.000000 0.000000 0.000000 0.000000 0.027332 0.000000
# 6 0.000000 0.000000 0.000000 0.000000 0.000000 0.027845
#
#
# Mechanical properties :
#
#
# Convention : Reuss Voigt Hill
#
# Bulk Modulus (GPa) = 43.34998 44.59933 43.97465
# Shear Modulus (GPa) = 35.31665 35.93062 35.62363
#
# Velocity S-wave (km/s) = 3.61735 3.64866 3.63303
# Velocity P-wave (km/s) = 5.78866 5.85447 5.82166
#
# Compressibility (1/GPa) = 0.02306806
#
# Stress axis : x y z
#
# Youngs Moduli (GPa) = 89.49132 64.56367 81.38442
#
# Poissons Ratio (x) = 0.18771 0.21473
# Poissons Ratio (y) = 0.26019 0.19493
# Poissons Ratio (z) = 0.23612 0.15464
#
# Static dielectric constant tensor:
#      x y z
#    x 2.134930 0.000000 0.000000 
#    y 0.000000 2.328030 0.000000 
#    z 0.000000 0.000000 2.182160 
# 
# From -- ./inp_files/1055.got.cif
#   From: 2010.05.17/outbox.cif.g08.bks.cpg/sg19_1_cif.got.tgz:1055.got - 2010.06.03 22:46:19.
