data_PCOD9314697
_publ_section_title
;
Structure prediction by ZEFSAII (Michael W. Deem and Ramdas Pophale) SiO2 
 PCOD9314697
Probable space group: P 21 21 21
;
_chemical_formula_sum "Si O2"
_cell_formula_units_Z 20
_cell_length_a 8.122349
_cell_length_b 14.871232
_cell_length_c 7.212649
_cell_angle_alpha 90.000000
_cell_angle_beta 90.000000
_cell_angle_gamma 90.000000
_cell_volume 871.211086
_symmetry_space_group_name_H-M "P 21 21 21"
_symmetry_group_IT_number 19
_symmetry_cell_setting 'orthorhombic'
loop_
_space_group_symop_operation_xyz
x,y,z
1/2-x,-y,1/2+z
1/2+x,1/2-y,-z
-x,1/2+y,1/2-z
loop_
_atom_site_type_symbol
_atom_site_label
_atom_site_fract_x
_atom_site_fract_y
_atom_site_fract_z
Si Si1 0.040678 0.368458 0.367958
Si Si2 0.942057 0.527626 0.092619
Si Si3 0.587192 0.589544 0.239168
Si Si4 0.397697 0.307662 0.760153
Si Si5 0.269080 0.745684 0.606076
O O1 0.982503 0.450224 0.241356
O O2 0.047353 0.395806 0.580500
O O3 0.908060 0.286441 0.350234
O O4 0.200822 0.324883 0.271874
O O5 0.755696 0.561027 0.132038
O O6 0.067376 0.608640 0.130607
O O7 0.954652 0.485406 0.889702
O O8 0.630002 0.681691 0.347061
O O9 0.562595 0.303031 0.889814
O O10 0.255882 0.303843 0.911806
#
# Coordination Sequence:
#
# PCOD9314697 Si02
#       5
#     4   4   4   4   4
#     4  10  22  40  68 102 145 182 236 293 356 418
#     4  11  21  39  71 102 142 189 236 297 346 439
#     4  11  20  40  67 105 143 186 247 285 349 433
#     4   9  21  42  71 101 144 185 235 291 367 414
#     4   9  20  43  67 102 144 184 230 302 354 426
#
# _framework density 22.956551000000001
#
# number of rings (size 3 to 8) (size 9 to 14) (size 15 to 20)
#    1.200    0.800    4.000    0.000    0.000    0.000 
#   10.800    4.000    0.000    0.000    0.000    0.000 
#    0.000    0.000    0.000    0.000    0.000    0.000 
#
# Total GULP energy -111708.479505 kJ/mol
# GULP energy per Si atom -5585.423975 kJ/mol
# Density = 2.290430 g / cm^3
# Si number density = 22.956551 Si / 1000 Ang^3
#
#
#
# Elastic Constant Matrix: (Units=GPa)
#
#
# Indices 1 2 3 4 5 6 
#
# 1 66.2349 18.5273 25.7986 0.0000 0.0000 0.0000
# 2 18.5273 122.4297 57.8521 0.0000 0.0000 0.0000
# 3 25.7986 57.8521 147.4278 0.0000 0.0000 0.0000
# 4 0.0000 0.0000 0.0000 51.9842 0.0000 0.0000
# 5 0.0000 0.0000 0.0000 0.0000 33.6562 0.0000
# 6 0.0000 0.0000 0.0000 0.0000 0.0000 17.9706
#
#
#
# Elastic Compliance Matrix: (Units=1/GPa)
#
#
# Indices 1 2 3 4 5 6 
#
# 1 0.016390 -0.001381 -0.002326 0.000000 0.000000 0.000000
# 2 -0.001381 0.010144 -0.003739 0.000000 0.000000 0.000000
# 3 -0.002326 -0.003739 0.008657 0.000000 0.000000 0.000000
# 4 0.000000 0.000000 0.000000 0.019237 0.000000 0.000000
# 5 0.000000 0.000000 0.000000 0.000000 0.029712 0.000000
# 6 0.000000 0.000000 0.000000 0.000000 0.000000 0.055646
#
#
# Mechanical properties :
#
#
# Convention : Reuss Voigt Hill
#
# Bulk Modulus (GPa) = 49.26393 60.04982 54.65688
# Shear Modulus (GPa) = 30.97037 36.31650 33.64344
#
# Velocity S-wave (km/s) = 3.67698 3.98171 3.83237
# Velocity P-wave (km/s) = 6.28753 6.88139 6.59115
#
# Compressibility (1/GPa) = 0.02029883
#
# Stress axis : x y z
#
# Youngs Moduli (GPa) = 61.01220 98.58377 115.51112
#
# Poissons Ratio (x) = 0.13616 0.26870
# Poissons Ratio (y) = 0.08427 0.43187
# Poissons Ratio (z) = 0.14193 0.36858
#
# Static dielectric constant tensor:
#      x y z
#    x 1.936210 0.000000 0.000000 
#    y 0.000000 1.840390 0.000000 
#    z 0.000000 0.000000 1.827890 
# 
# From -- ./inp_files/361.got.cif
#   From: 2010.05.17/outbox.cif.g08.bks.cpg/sg19_1_cif.got.tgz:361.got - 2010.06.03 22:46:19.
