data_PCOD9314462
_publ_section_title
;
Structure prediction by ZEFSAII (Michael W. Deem and Ramdas Pophale) SiO2 
 PCOD9314462
Probable space group: P 21 21 21
;
_chemical_formula_sum "Si O2"
_cell_formula_units_Z 32
_cell_length_a 11.272082
_cell_length_b 5.053869
_cell_length_c 22.557860
_cell_angle_alpha 90.000000
_cell_angle_beta 90.000000
_cell_angle_gamma 90.000000
_cell_volume 1285.067727
_symmetry_space_group_name_H-M "P 21 21 21"
_symmetry_group_IT_number 19
_symmetry_cell_setting 'orthorhombic'
loop_
_space_group_symop_operation_xyz
x,y,z
1/2-x,-y,1/2+z
1/2+x,1/2-y,-z
-x,1/2+y,1/2-z
loop_
_atom_site_type_symbol
_atom_site_label
_atom_site_fract_x
_atom_site_fract_y
_atom_site_fract_z
Si Si1 0.405353 0.566695 0.551576
Si Si2 0.341147 0.289655 0.437542
Si Si3 0.613458 0.962778 0.334302
Si Si4 0.301142 0.833808 0.731683
Si Si5 0.924626 0.455819 0.373542
Si Si6 0.671369 0.045774 0.662289
Si Si7 0.375820 0.799576 0.274351
Si Si8 0.494911 0.767701 0.441410
O O1 0.321423 0.424287 0.501982
O O2 0.435355 0.330689 0.596651
O O3 0.513316 0.671598 0.508895
O O4 0.361931 0.835083 0.582428
O O5 0.232794 0.305372 0.392476
O O6 0.443775 0.493320 0.413778
O O7 0.392473 0.994366 0.442231
O O8 0.741538 0.865848 0.314044
O O9 0.498608 0.807996 0.308301
O O10 0.596204 0.912392 0.403700
O O11 0.602572 0.225616 0.294573
O O12 0.358820 0.049703 0.689583
O O13 0.187638 0.920252 0.770603
O O14 0.381323 0.718181 0.783115
O O15 0.053613 0.588654 0.362822
O O16 0.774006 0.871332 0.693143
#
# Coordination Sequence:
#
# PCOD9314462 Si02
#       8
#     4   4   4   4   4   4   4   4
#     4  10  23  50  69 102 144 187 247 296 359 425
#     4  10  21  44  73 104 138 177 245 294 355 434
#     4  11  22  39  70 102 143 174 235 298 368 431
#     4  11  28  44  68 108 143 194 238 299 369 433
#     4  12  28  49  73 104 150 196 244 298 358 443
#     4  11  27  44  75 103 145 198 244 298 362 453
#     4  11  22  41  66 107 137 185 235 296 373 424
#     4  10  21  41  72 102 138 177 230 301 352 429
#
# _framework density 24.901409000000001
#
# number of rings (size 3 to 8) (size 9 to 14) (size 15 to 20)
#    0.750    0.500    3.750    0.750   10.500    0.000 
#    4.500    0.000    0.000    0.000    0.000    0.000 
#    0.000    0.000    0.000    0.000    0.000    0.000 
#
# Total GULP energy -178254.854659 kJ/mol
# GULP energy per Si atom -5570.464208 kJ/mol
# Density = 2.484473 g / cm^3
# Si number density = 24.901409 Si / 1000 Ang^3
#
#
#
# Elastic Constant Matrix: (Units=GPa)
#
#
# Indices 1 2 3 4 5 6 
#
# 1 57.8956 7.5622 28.6091 0.0000 0.0000 0.0000
# 2 7.5622 82.7231 7.9628 0.0000 0.0000 0.0000
# 3 28.6091 7.9628 113.8604 0.0000 0.0000 0.0000
# 4 0.0000 0.0000 0.0000 32.5716 0.0000 0.0000
# 5 0.0000 0.0000 0.0000 0.0000 32.6152 0.0000
# 6 0.0000 0.0000 0.0000 0.0000 0.0000 18.5922
#
#
#
# Elastic Compliance Matrix: (Units=1/GPa)
#
#
# Indices 1 2 3 4 5 6 
#
# 1 0.019869 -0.001345 -0.004898 0.000000 0.000000 0.000000
# 2 -0.001345 0.012261 -0.000520 0.000000 0.000000 0.000000
# 3 -0.004898 -0.000520 0.010050 0.000000 0.000000 0.000000
# 4 0.000000 0.000000 0.000000 0.030702 0.000000 0.000000
# 5 0.000000 0.000000 0.000000 0.000000 0.030661 0.000000
# 6 0.000000 0.000000 0.000000 0.000000 0.000000 0.053786
#
#
# Mechanical properties :
#
#
# Convention : Reuss Voigt Hill
#
# Bulk Modulus (GPa) = 34.89844 38.08303 36.49074
# Shear Modulus (GPa) = 27.71547 30.77881 29.24714
#
# Velocity S-wave (km/s) = 3.33980 3.51953 3.43084
# Velocity P-wave (km/s) = 5.37749 5.64295 5.51182
#
# Compressibility (1/GPa) = 0.02865458
#
# Stress axis : x y z
#
# Youngs Moduli (GPa) = 50.33070 81.55622 99.50470
#
# Poissons Ratio (x) = 0.10968 0.48740
# Poissons Ratio (y) = 0.06768 0.05170
# Poissons Ratio (z) = 0.24653 0.04238
#
# Static dielectric constant tensor:
#      x y z
#    x 1.957020 0.000000 0.000000 
#    y 0.000000 1.979280 0.000000 
#    z 0.000000 0.000000 2.113250 
# 
# From -- ./inp_files/7160.got.cif
#   From: 2010.05.17/outbox.cif.g08.bks.cpg/sg19_4_cif.got.tgz:7160.got - 2010.06.03 22:46:19.
