data_PCOD9314555
_publ_section_title
;
Structure prediction by ZEFSAII (Michael W. Deem and Ramdas Pophale) SiO2 
 PCOD9314555
Probable space group: P 21 21 21
;
_chemical_formula_sum "Si O2"
_cell_formula_units_Z 32
_cell_length_a 7.388618
_cell_length_b 15.824348
_cell_length_c 9.905659
_cell_angle_alpha 90.000000
_cell_angle_beta 90.000000
_cell_angle_gamma 90.000000
_cell_volume 1158.170269
_symmetry_space_group_name_H-M "P 21 21 21"
_symmetry_group_IT_number 19
_symmetry_cell_setting 'orthorhombic'
loop_
_space_group_symop_operation_xyz
x,y,z
1/2-x,-y,1/2+z
1/2+x,1/2-y,-z
-x,1/2+y,1/2-z
loop_
_atom_site_type_symbol
_atom_site_label
_atom_site_fract_x
_atom_site_fract_y
_atom_site_fract_z
Si Si1 0.164989 0.050750 0.440618
Si Si2 0.645627 0.846449 0.523661
Si Si3 0.735474 0.976350 0.316736
Si Si4 0.893633 0.445197 0.303408
Si Si5 0.709334 0.328650 0.093358
Si Si6 0.811612 0.149788 0.467940
Si Si7 0.479757 0.236255 0.310544
Si Si8 0.496908 0.575698 0.345359
O O1 0.193679 0.019441 0.288682
O O2 0.082222 0.965046 0.518853
O O3 0.325936 0.070129 0.545043
O O4 0.024046 0.128260 0.434389
O O5 0.731853 0.890047 0.394930
O O6 0.674331 0.746585 0.530579
O O7 0.430381 0.869733 0.518292
O O8 0.791108 0.884597 0.632503
O O9 0.897218 0.966977 0.210801
O O10 0.749141 0.053517 0.424792
O O11 0.551155 0.992069 0.238689
O O12 0.837545 0.368500 0.207595
O O13 0.555779 0.290426 0.188928
O O14 0.656469 0.205114 0.395336
O O15 0.844933 0.204757 0.603901
O O16 0.409853 0.150428 0.239052
#
# Coordination Sequence:
#
# PCOD9314555 Si02
#       8
#     4   4   4   4   4   4   4   4
#     4  11  23  44  71 102 146 180 240 294 359 430
#     4  11  22  41  68  96 139 178 234 293 360 425
#     4  10  22  40  67  97 135 186 235 291 353 433
#     4  11  23  42  69 103 140 181 236 296 355 430
#     4  11  24  41  66 100 139 182 235 300 361 433
#     4  10  21  45  64  97 134 184 234 286 351 427
#     4  10  23  42  67  92 136 180 231 290 351 427
#     4  10  22  43  64  97 135 183 229 288 362 427
#
# _framework density 27.629788000000001
#
# number of rings (size 3 to 8) (size 9 to 14) (size 15 to 20)
#    0.000    1.500    3.750    1.500    3.500    2.000 
#    2.250    3.750    0.000    0.000    0.000    0.000 
#    0.000    0.000    0.000    0.000    0.000    0.000 
#
# Total GULP energy -178444.724450 kJ/mol
# GULP energy per Si atom -5576.397639 kJ/mol
# Density = 2.756690 g / cm^3
# Si number density = 27.629788 Si / 1000 Ang^3
#
#
#
# Elastic Constant Matrix: (Units=GPa)
#
#
# Indices 1 2 3 4 5 6 
#
# 1 103.0755 6.1378 19.9947 0.0000 0.0000 0.0000
# 2 6.1378 49.1048 -3.5069 0.0000 0.0000 0.0000
# 3 19.9947 -3.5069 95.3112 0.0000 0.0000 0.0000
# 4 0.0000 0.0000 0.0000 30.1696 0.0000 0.0000
# 5 0.0000 0.0000 0.0000 0.0000 47.6150 0.0000
# 6 0.0000 0.0000 0.0000 0.0000 0.0000 53.3397
#
#
#
# Elastic Compliance Matrix: (Units=1/GPa)
#
#
# Indices 1 2 3 4 5 6 
#
# 1 0.010213 -0.001433 -0.002195 0.000000 0.000000 0.000000
# 2 -0.001433 0.020619 0.001059 0.000000 0.000000 0.000000
# 3 -0.002195 0.001059 0.010991 0.000000 0.000000 0.000000
# 4 0.000000 0.000000 0.000000 0.033146 0.000000 0.000000
# 5 0.000000 0.000000 0.000000 0.000000 0.021002 0.000000
# 6 0.000000 0.000000 0.000000 0.000000 0.000000 0.018748
#
#
# Mechanical properties :
#
#
# Convention : Reuss Voigt Hill
#
# Bulk Modulus (GPa) = 27.25884 32.52695 29.89289
# Shear Modulus (GPa) = 37.85415 41.21593 39.53504
#
# Velocity S-wave (km/s) = 3.70543 3.86647 3.78681
# Velocity P-wave (km/s) = 5.30981 5.63301 5.47380
#
# Compressibility (1/GPa) = 0.03668535
#
# Stress axis : x y z
#
# Youngs Moduli (GPa) = 97.91626 48.49799 90.97981
#
# Poissons Ratio (x) = 0.06951 0.19972
# Poissons Ratio (y) = 0.14034 -0.09638
# Poissons Ratio (z) = 0.21495 -0.05138
#
# Static dielectric constant tensor:
#      x y z
#    x 2.288570 0.000000 0.000000 
#    y 0.000000 2.261880 0.000000 
#    z 0.000000 0.000000 2.225510 
# 
# From -- ./inp_files/4815.got.cif
#   From: 2010.05.17/outbox.cif.g08.bks.cpg/sg19_3_cif.got.tgz:4815.got - 2010.06.03 22:46:19.
