data_PCOD9314647
_publ_section_title
;
Structure prediction by ZEFSAII (Michael W. Deem and Ramdas Pophale) SiO2 
 PCOD9314647
Probable space group: P 21 21 21
;
_chemical_formula_sum "Si O2"
_cell_formula_units_Z 24
_cell_length_a 4.832317
_cell_length_b 13.119461
_cell_length_c 14.197429
_cell_angle_alpha 90.000000
_cell_angle_beta 90.000000
_cell_angle_gamma 90.000000
_cell_volume 900.080006
_symmetry_space_group_name_H-M "P 21 21 21"
_symmetry_group_IT_number 19
_symmetry_cell_setting 'orthorhombic'
loop_
_space_group_symop_operation_xyz
x,y,z
1/2-x,-y,1/2+z
1/2+x,1/2-y,-z
-x,1/2+y,1/2-z
loop_
_atom_site_type_symbol
_atom_site_label
_atom_site_fract_x
_atom_site_fract_y
_atom_site_fract_z
Si Si1 0.475966 0.791979 0.956533
Si Si2 0.882623 0.209815 0.718461
Si Si3 0.222345 0.784285 0.451940
Si Si4 0.743712 0.120403 0.187136
Si Si5 0.366066 0.004979 0.032880
Si Si6 0.916701 0.437699 0.290331
O O1 0.302390 0.748493 0.870203
O O2 0.786361 0.751300 0.957769
O O3 0.484096 0.911316 0.974784
O O4 0.026363 0.313527 0.753587
O O5 0.132821 0.125682 0.721889
O O6 0.642345 0.135421 0.757536
O O7 0.544975 0.757293 0.459585
O O8 0.107155 0.708923 0.372559
O O9 0.198533 0.904611 0.460118
O O10 0.570271 0.050741 0.113146
O O11 0.967685 0.049889 0.239717
O O12 0.109747 0.962789 0.095828
#
# Coordination Sequence:
#
# PCOD9314647 Si02
#       6
#     4   4   4   4   4   4
#     4  12  23  43  70 103 136 187 238 286 355 432
#     4  12  27  43  74 104 142 186 242 294 360 433
#     4  10  22  39  68 100 129 183 232 283 348 428
#     4  11  26  47  73 104 148 189 239 301 371 421
#     4  11  23  44  72  97 144 185 234 292 358 418
#     4  12  23  46  69  98 141 188 227 296 362 414
#
# _framework density 26.664294999999999
#
# number of rings (size 3 to 8) (size 9 to 14) (size 15 to 20)
#    0.000    0.667    6.667    0.000    2.333    1.333 
#    0.000    0.000    0.000    0.000    0.000    0.000 
#    0.000    0.000    0.000    0.000    0.000    0.000 
#
# Total GULP energy -133786.026217 kJ/mol
# GULP energy per Si atom -5574.417759 kJ/mol
# Density = 2.660361 g / cm^3
# Si number density = 26.664295 Si / 1000 Ang^3
#
#
#
# Elastic Constant Matrix: (Units=GPa)
#
#
# Indices 1 2 3 4 5 6 
#
# 1 106.6543 43.1273 10.5689 0.0000 0.0000 0.0000
# 2 43.1273 191.4582 29.1426 0.0000 0.0000 0.0000
# 3 10.5689 29.1426 30.1018 0.0000 0.0000 0.0000
# 4 0.0000 0.0000 0.0000 57.4454 0.0000 0.0000
# 5 0.0000 0.0000 0.0000 0.0000 22.2031 0.0000
# 6 0.0000 0.0000 0.0000 0.0000 0.0000 46.2736
#
#
#
# Elastic Compliance Matrix: (Units=1/GPa)
#
#
# Indices 1 2 3 4 5 6 
#
# 1 0.010383 -0.002092 -0.001620 0.000000 0.000000 0.000000
# 2 -0.002092 0.006547 -0.005604 0.000000 0.000000 0.000000
# 3 -0.001620 -0.005604 0.039215 0.000000 0.000000 0.000000
# 4 0.000000 0.000000 0.000000 0.017408 0.000000 0.000000
# 5 0.000000 0.000000 0.000000 0.000000 0.045039 0.000000
# 6 0.000000 0.000000 0.000000 0.000000 0.000000 0.021611
#
#
# Mechanical properties :
#
#
# Convention : Reuss Voigt Hill
#
# Bulk Modulus (GPa) = 26.65783 54.87687 40.76735
# Shear Modulus (GPa) = 29.18197 41.54277 35.36237
#
# Velocity S-wave (km/s) = 3.31179 3.95142 3.64566
# Velocity P-wave (km/s) = 4.96420 6.43768 5.74834
#
# Compressibility (1/GPa) = 0.03751243
#
# Stress axis : x y z
#
# Youngs Moduli (GPa) = 96.31481 152.73281 25.50053
#
# Poissons Ratio (x) = 0.31955 0.04131
# Poissons Ratio (y) = 0.20151 0.14291
# Poissons Ratio (z) = 0.15602 0.85594
#
# Static dielectric constant tensor:
#      x y z
#    x 2.088200 0.000000 0.000000 
#    y 0.000000 2.062170 0.000000 
#    z 0.000000 0.000000 2.284280 
# 
# From -- ./inp_files/6404.got.cif
#   From: 2010.05.17/outbox.cif.g08.bks.cpg/sg19_4_cif.got.tgz:6404.got - 2010.06.03 22:46:19.
