data_PCOD9314199
_publ_section_title
;
Structure prediction by ZEFSAII (Michael W. Deem and Ramdas Pophale) SiO2 
 PCOD9314199
Probable space group: P 21 21 21
;
_chemical_formula_sum "Si O2"
_cell_formula_units_Z 28
_cell_length_a 7.937444
_cell_length_b 5.488419
_cell_length_c 23.621137
_cell_angle_alpha 90.000000
_cell_angle_beta 90.000000
_cell_angle_gamma 90.000000
_cell_volume 1029.031648
_symmetry_space_group_name_H-M "P 21 21 21"
_symmetry_group_IT_number 19
_symmetry_cell_setting 'orthorhombic'
loop_
_space_group_symop_operation_xyz
x,y,z
1/2-x,-y,1/2+z
1/2+x,1/2-y,-z
-x,1/2+y,1/2-z
loop_
_atom_site_type_symbol
_atom_site_label
_atom_site_fract_x
_atom_site_fract_y
_atom_site_fract_z
Si Si1 0.446454 0.652350 0.821475
Si Si2 0.006920 0.088249 0.584949
Si Si3 0.038535 0.710099 0.671196
Si Si4 0.166978 0.006139 0.936660
Si Si5 0.200751 0.569879 0.110151
Si Si6 0.998572 0.755417 0.474053
Si Si7 0.708974 0.651209 0.718549
O O1 0.550007 0.746014 0.875703
O O2 0.595791 0.649184 0.774459
O O3 0.326689 0.881510 0.806401
O O4 0.359050 0.387204 0.817180
O O5 0.826458 0.222322 0.579974
O O6 0.155328 0.283061 0.578300
O O7 0.051629 0.981656 0.646805
O O8 0.010805 0.910783 0.532094
O O9 0.928454 0.605788 0.618630
O O10 0.214087 0.565375 0.665296
O O11 0.911254 0.683170 0.723068
O O12 0.325980 0.179077 0.945097
O O13 0.068793 0.010261 0.997162
O O14 0.137669 0.355682 0.069749
#
# Coordination Sequence:
#
# PCOD9314199 Si02
#       7
#     4   4   4   4   4   4   4
#     4  10  24  46  72 103 133 181 227 287 346 431
#     4  10  22  38  57  91 129 175 222 277 341 407
#     4  10  23  40  62  92 132 172 218 286 338 415
#     4  10  21  37  57  86 123 171 221 271 339 395
#     4  11  24  40  63  98 134 177 237 284 352 416
#     4  11  21  38  59  86 129 174 226 284 334 416
#     4  10  23  47  72 100 138 176 229 281 358 418
#
# _framework density 27.210049999999999
#
# number of rings (size 3 to 8) (size 9 to 14) (size 15 to 20)
#    0.000    1.714    0.000    4.286    8.000    1.143 
#    5.143    0.000    0.000    0.000    0.000    0.000 
#    0.000    0.000    0.000    0.000    0.000    0.000 
#
# Total GULP energy -156448.498252 kJ/mol
# GULP energy per Si atom -5587.446366 kJ/mol
# Density = 2.714812 g / cm^3
# Si number density = 27.210050 Si / 1000 Ang^3
#
#
#
# Elastic Constant Matrix: (Units=GPa)
#
#
# Indices 1 2 3 4 5 6 
#
# 1 83.1816 16.5547 -2.0099 0.0000 0.0000 0.0000
# 2 16.5547 89.5761 22.6848 0.0000 0.0000 0.0000
# 3 -2.0099 22.6848 54.8257 0.0000 0.0000 0.0000
# 4 0.0000 0.0000 0.0000 37.8585 0.0000 0.0000
# 5 0.0000 0.0000 0.0000 0.0000 43.4553 0.0000
# 6 0.0000 0.0000 0.0000 0.0000 0.0000 39.1802
#
#
#
# Elastic Compliance Matrix: (Units=1/GPa)
#
#
# Indices 1 2 3 4 5 6 
#
# 1 0.012604 -0.002733 0.001593 0.000000 0.000000 0.000000
# 2 -0.002733 0.013063 -0.005505 0.000000 0.000000 0.000000
# 3 0.001593 -0.005505 0.020576 0.000000 0.000000 0.000000
# 4 0.000000 0.000000 0.000000 0.026414 0.000000 0.000000
# 5 0.000000 0.000000 0.000000 0.000000 0.023012 0.000000
# 6 0.000000 0.000000 0.000000 0.000000 0.000000 0.025523
#
#
# Mechanical properties :
#
#
# Convention : Reuss Voigt Hill
#
# Bulk Modulus (GPa) = 30.34647 33.56028 31.95338
# Shear Modulus (GPa) = 34.37209 36.78905 35.58057
#
# Velocity S-wave (km/s) = 3.55803 3.68100 3.62003
# Velocity P-wave (km/s) = 5.29682 5.51606 5.40755
#
# Compressibility (1/GPa) = 0.03295277
#
# Stress axis : x y z
#
# Youngs Moduli (GPa) = 79.33833 76.55273 48.60069
#
# Poissons Ratio (x) = 0.20920 -0.07741
# Poissons Ratio (y) = 0.21681 0.26755
# Poissons Ratio (z) = -0.12637 0.42143
#
# Static dielectric constant tensor:
#      x y z
#    x 2.251230 0.000000 0.000000 
#    y 0.000000 2.383300 0.000000 
#    z 0.000000 0.000000 2.135360 
# 
# From -- ./inp_files/648.got.cif
#   From: 2010.05.17/outbox.cif.g08.bks.cpg/sg19_1_cif.got.tgz:648.got - 2010.06.03 22:46:19.
