data_PCOD9314779
_publ_section_title
;
Structure prediction by ZEFSAII (Michael W. Deem and Ramdas Pophale) SiO2 
 PCOD9314779
Probable space group: P 21 21 21
;
_chemical_formula_sum "Si O2"
_cell_formula_units_Z 28
_cell_length_a 8.034548
_cell_length_b 15.210424
_cell_length_c 10.003355
_cell_angle_alpha 90.000000
_cell_angle_beta 90.000000
_cell_angle_gamma 90.000000
_cell_volume 1222.498828
_symmetry_space_group_name_H-M "P 21 21 21"
_symmetry_group_IT_number 19
_symmetry_cell_setting 'orthorhombic'
loop_
_space_group_symop_operation_xyz
x,y,z
1/2-x,-y,1/2+z
1/2+x,1/2-y,-z
-x,1/2+y,1/2-z
loop_
_atom_site_type_symbol
_atom_site_label
_atom_site_fract_x
_atom_site_fract_y
_atom_site_fract_z
Si Si1 0.764619 0.235695 0.823822
Si Si2 0.452718 0.148870 0.975143
Si Si3 0.506631 0.260956 0.612823
Si Si4 0.217608 0.492173 0.012253
Si Si5 0.406124 0.435982 0.771608
Si Si6 0.464958 0.369157 0.356719
Si Si7 0.177116 0.911416 0.211746
O O1 0.605645 0.205514 0.911463
O O2 0.688053 0.257957 0.679812
O O3 0.897929 0.161520 0.786267
O O4 0.863885 0.310135 0.899297
O O5 0.320508 0.131139 0.859181
O O6 0.544677 0.058776 0.003771
O O7 0.427541 0.340195 0.704338
O O8 0.511479 0.291206 0.460141
O O9 0.420205 0.165786 0.630219
O O10 0.345635 0.435814 0.924672
O O11 0.185687 0.580816 0.930136
O O12 0.224395 0.516318 0.168887
O O13 0.569185 0.499116 0.776601
O O14 0.636910 0.421720 0.339793
#
# Coordination Sequence:
#
# PCOD9314779 Si02
#       7
#     4   4   4   4   4   4   4
#     4  11  23  40  65  92 126 167 213 262 318 380
#     4  10  23  40  62  92 124 164 214 262 313 384
#     4  10  23  41  65  92 127 168 216 260 321 382
#     4  10  22  42  60  93 127 165 211 259 325 377
#     4  10  23  43  65  91 131 168 214 266 316 387
#     4  11  22  40  65  93 129 166 208 266 322 383
#     4  10  22  42  62  91 130 164 214 263 317 377
#
# _framework density 22.903907
#
# number of rings (size 3 to 8) (size 9 to 14) (size 15 to 20)
#    0.000    1.714    0.000    4.286    8.000    1.143 
#    5.143    0.000    0.000    0.000    0.000    0.000 
#    0.000    0.000    0.000    0.000    0.000    0.000 
#
# Total GULP energy -156185.206178 kJ/mol
# GULP energy per Si atom -5578.043078 kJ/mol
# Density = 2.285178 g / cm^3
# Si number density = 22.903907 Si / 1000 Ang^3
#
#
#
# Elastic Constant Matrix: (Units=GPa)
#
#
# Indices 1 2 3 4 5 6 
#
# 1 54.7035 -7.4214 17.6253 0.0000 0.0000 0.0000
# 2 -7.4214 46.8640 3.2194 0.0000 0.0000 0.0000
# 3 17.6253 3.2194 61.5751 0.0000 0.0000 0.0000
# 4 0.0000 0.0000 0.0000 34.8793 0.0000 0.0000
# 5 0.0000 0.0000 0.0000 0.0000 32.5702 0.0000
# 6 0.0000 0.0000 0.0000 0.0000 0.0000 21.8844
#
#
#
# Elastic Compliance Matrix: (Units=1/GPa)
#
#
# Indices 1 2 3 4 5 6 
#
# 1 0.020761 0.003709 -0.006136 0.000000 0.000000 0.000000
# 2 0.003709 0.022078 -0.002216 0.000000 0.000000 0.000000
# 3 -0.006136 -0.002216 0.018113 0.000000 0.000000 0.000000
# 4 0.000000 0.000000 0.000000 0.028670 0.000000 0.000000
# 5 0.000000 0.000000 0.000000 0.000000 0.030703 0.000000
# 6 0.000000 0.000000 0.000000 0.000000 0.000000 0.045695
#
#
# Mechanical properties :
#
#
# Convention : Reuss Voigt Hill
#
# Bulk Modulus (GPa) = 19.35552 21.10989 20.23270
# Shear Modulus (GPa) = 25.97032 27.84808 26.90920
#
# Velocity S-wave (km/s) = 3.37097 3.49071 3.43136
# Velocity P-wave (km/s) = 4.86008 5.04812 4.95499
#
# Compressibility (1/GPa) = 0.05166485
#
# Stress axis : x y z
#
# Youngs Moduli (GPa) = 48.16780 45.29400 55.20990
#
# Poissons Ratio (x) = -0.16801 0.33880
# Poissons Ratio (y) = -0.17867 0.12235
# Poissons Ratio (z) = 0.29558 0.10037
#
# Static dielectric constant tensor:
#      x y z
#    x 1.844180 0.000000 0.000000 
#    y 0.000000 1.963610 0.000000 
#    z 0.000000 0.000000 1.864000 
# 
# From -- ./inp_files/3039.got.cif
#   From: 2010.05.17/outbox.cif.g08.bks.cpg/sg19_2_cif.got.tgz:3039.got - 2010.06.03 22:46:19.
