data_PCOD9314515
_publ_section_title
;
Structure prediction by ZEFSAII (Michael W. Deem and Ramdas Pophale) SiO2 
 PCOD9314515
Probable space group: P 21 21 21
;
_chemical_formula_sum "Si O2"
_cell_formula_units_Z 20
_cell_length_a 7.123615
_cell_length_b 12.443326
_cell_length_c 8.872194
_cell_angle_alpha 90.000000
_cell_angle_beta 90.000000
_cell_angle_gamma 90.000000
_cell_volume 786.444263
_symmetry_space_group_name_H-M "P 21 21 21"
_symmetry_group_IT_number 19
_symmetry_cell_setting 'orthorhombic'
loop_
_space_group_symop_operation_xyz
x,y,z
1/2-x,-y,1/2+z
1/2+x,1/2-y,-z
-x,1/2+y,1/2-z
loop_
_atom_site_type_symbol
_atom_site_label
_atom_site_fract_x
_atom_site_fract_y
_atom_site_fract_z
Si Si1 0.934088 0.745732 0.099648
Si Si2 0.744659 0.615500 0.566491
Si Si3 0.041147 0.974778 0.152229
Si Si4 0.280699 0.344791 0.841308
Si Si5 0.975093 0.216366 0.722694
O O1 0.741641 0.769028 0.186977
O O2 0.022727 0.862245 0.068801
O O3 0.075831 0.683118 0.206515
O O4 0.927146 0.691304 0.938008
O O5 0.594619 0.557656 0.675824
O O6 0.800771 0.550681 0.419921
O O7 0.689741 0.742080 0.546453
O O8 0.938146 0.628140 0.664354
O O9 0.845080 0.036745 0.121604
O O10 0.071160 0.326143 0.784152
#
# Coordination Sequence:
#
# PCOD9314515 Si02
#       5
#     4   4   4   4   4
#     4  11  21  41  71  94 134 184 233 271 347 419
#     4   9  24  43  67 103 135 179 224 288 335 405
#     4  11  23  43  69 103 136 182 233 277 347 415
#     4   9  23  42  63  97 138 176 222 288 335 403
#     4  10  21  43  64  95 135 181 220 284 342 396
#
# _framework density 25.430917999999998
#
# number of rings (size 3 to 8) (size 9 to 14) (size 15 to 20)
#    1.200    0.800    2.000    0.000    5.600    3.200 
#    0.000    2.000    0.000    0.000    0.000    0.000 
#    0.000    0.000    0.000    0.000    0.000    0.000 
#
# Total GULP energy -111722.215701 kJ/mol
# GULP energy per Si atom -5586.110785 kJ/mol
# Density = 2.537304 g / cm^3
# Si number density = 25.430918 Si / 1000 Ang^3
#
#
#
# Elastic Constant Matrix: (Units=GPa)
#
#
# Indices 1 2 3 4 5 6 
#
# 1 103.7274 -4.5298 2.7763 0.0000 0.0000 0.0000
# 2 -4.5298 66.3997 12.7830 0.0000 0.0000 0.0000
# 3 2.7763 12.7830 30.9129 0.0000 0.0000 0.0000
# 4 0.0000 0.0000 0.0000 18.1361 0.0000 0.0000
# 5 0.0000 0.0000 0.0000 0.0000 43.7357 0.0000
# 6 0.0000 0.0000 0.0000 0.0000 0.0000 44.3397
#
#
#
# Elastic Compliance Matrix: (Units=1/GPa)
#
#
# Indices 1 2 3 4 5 6 
#
# 1 0.009713 0.000902 -0.001246 0.000000 0.000000 0.000000
# 2 0.000902 0.016447 -0.006882 0.000000 0.000000 0.000000
# 3 -0.001246 -0.006882 0.035307 0.000000 0.000000 0.000000
# 4 0.000000 0.000000 0.000000 0.055139 0.000000 0.000000
# 5 0.000000 0.000000 0.000000 0.000000 0.022865 0.000000
# 6 0.000000 0.000000 0.000000 0.000000 0.000000 0.022553
#
#
# Mechanical properties :
#
#
# Convention : Reuss Voigt Hill
#
# Bulk Modulus (GPa) = 21.26912 24.78876 23.02894
# Shear Modulus (GPa) = 26.02194 33.90968 29.96581
#
# Velocity S-wave (km/s) = 3.20228 3.65554 3.43639
# Velocity P-wave (km/s) = 4.69622 5.25223 4.98199
#
# Compressibility (1/GPa) = 0.04701652
#
# Stress axis : x y z
#
# Youngs Moduli (GPa) = 102.95052 60.80222 28.32332
#
# Poissons Ratio (x) = -0.05487 0.03528
# Poissons Ratio (y) = -0.09291 0.19492
# Poissons Ratio (z) = 0.12823 0.41844
#
# Static dielectric constant tensor:
#      x y z
#    x 2.006980 0.000000 0.000000 
#    y 0.000000 1.971060 0.000000 
#    z 0.000000 0.000000 2.043430 
# 
# From -- ./inp_files/2761.got.cif
#   From: 2010.05.17/outbox.cif.g08.bks.cpg/sg19_2_cif.got.tgz:2761.got - 2010.06.03 22:46:19.
