data_PCOD9314843
_publ_section_title
;
Structure prediction by ZEFSAII (Michael W. Deem and Ramdas Pophale) SiO2 
 PCOD9314843
Probable space group: P 21 21 21
;
_chemical_formula_sum "Si O2"
_cell_formula_units_Z 32
_cell_length_a 9.106357
_cell_length_b 10.483819
_cell_length_c 14.648387
_cell_angle_alpha 90.000000
_cell_angle_beta 90.000000
_cell_angle_gamma 90.000000
_cell_volume 1398.472696
_symmetry_space_group_name_H-M "P 21 21 21"
_symmetry_group_IT_number 19
_symmetry_cell_setting 'orthorhombic'
loop_
_space_group_symop_operation_xyz
x,y,z
1/2-x,-y,1/2+z
1/2+x,1/2-y,-z
-x,1/2+y,1/2-z
loop_
_atom_site_type_symbol
_atom_site_label
_atom_site_fract_x
_atom_site_fract_y
_atom_site_fract_z
Si Si1 0.143363 0.999130 0.421365
Si Si2 0.608456 0.402030 0.199268
Si Si3 0.232954 0.633732 0.000465
Si Si4 0.015896 0.275946 0.183988
Si Si5 0.003373 0.007429 0.608229
Si Si6 0.992595 0.269690 0.393588
Si Si7 0.284520 0.418137 0.147270
Si Si8 0.753192 0.869271 0.694179
O O1 0.063920 0.128079 0.390561
O O2 0.299140 0.985262 0.372746
O O3 0.053996 0.882143 0.380118
O O4 0.123169 0.989207 0.529767
O O5 0.576384 0.472872 0.294179
O O6 0.452516 0.377719 0.152215
O O7 0.691285 0.270695 0.224082
O O8 0.243838 0.504699 0.060055
O O9 0.169435 0.747204 0.064598
O O10 0.390639 0.656166 0.955795
O O11 0.102843 0.623673 0.925021
O O12 0.917231 0.150695 0.167762
O O13 0.994124 0.314436 0.289778
O O14 0.186422 0.292270 0.161673
O O15 0.874551 0.902644 0.618390
O O16 0.260562 0.519269 0.230789
#
# Coordination Sequence:
#
# PCOD9314843 Si02
#       8
#     4   4   4   4   4   4   4   4
#     4  10  23  43  65 103 136 174 240 287 336 435
#     4  10  24  41  70  96 140 183 230 283 361 419
#     4  11  24  40  65 101 134 175 239 289 348 419
#     4  11  20  42  66  92 136 179 228 285 353 408
#     4  10  22  45  69  95 148 177 234 296 339 419
#     4  11  23  38  68  96 130 184 223 293 354 411
#     4  11  22  43  63 101 144 170 234 301 335 429
#     4  10  22  42  70  96 130 192 222 286 364 412
#
# _framework density 22.882104999999999
#
# number of rings (size 3 to 8) (size 9 to 14) (size 15 to 20)
#    0.000    1.500    3.750    1.500    5.250    3.000 
#    4.500    2.500    0.000    0.000    0.000    0.000 
#    0.000    0.000    0.000    0.000    0.000    0.000 
#
# Total GULP energy -178620.512402 kJ/mol
# GULP energy per Si atom -5581.891013 kJ/mol
# Density = 2.283002 g / cm^3
# Si number density = 22.882105 Si / 1000 Ang^3
#
#
#
# Elastic Constant Matrix: (Units=GPa)
#
#
# Indices 1 2 3 4 5 6 
#
# 1 114.1914 5.4555 48.7167 0.0000 0.0000 0.0000
# 2 5.4555 32.4533 1.2033 0.0000 0.0000 0.0000
# 3 48.7167 1.2033 110.9115 0.0000 0.0000 0.0000
# 4 0.0000 0.0000 0.0000 9.1026 0.0000 0.0000
# 5 0.0000 0.0000 0.0000 0.0000 47.0695 0.0000
# 6 0.0000 0.0000 0.0000 0.0000 0.0000 28.0860
#
#
#
# Elastic Compliance Matrix: (Units=1/GPa)
#
#
# Indices 1 2 3 4 5 6 
#
# 1 0.010864 -0.001650 -0.004754 0.000000 0.000000 0.000000
# 2 -0.001650 0.031076 0.000388 0.000000 0.000000 0.000000
# 3 -0.004754 0.000388 0.011100 0.000000 0.000000 0.000000
# 4 0.000000 0.000000 0.000000 0.109859 0.000000 0.000000
# 5 0.000000 0.000000 0.000000 0.000000 0.021245 0.000000
# 6 0.000000 0.000000 0.000000 0.000000 0.000000 0.035605
#
#
# Mechanical properties :
#
#
# Convention : Reuss Voigt Hill
#
# Bulk Modulus (GPa) = 24.38557 40.92301 32.65429
# Shear Modulus (GPa) = 20.37054 30.33033 25.35044
#
# Velocity S-wave (km/s) = 2.98692 3.64470 3.33208
# Velocity P-wave (km/s) = 4.75140 5.96949 5.39494
#
# Compressibility (1/GPa) = 0.04100785
#
# Stress axis : x y z
#
# Youngs Moduli (GPa) = 92.04481 32.17869 90.08856
#
# Poissons Ratio (x) = 0.05310 0.42829
# Poissons Ratio (y) = 0.15188 -0.03492
# Poissons Ratio (z) = 0.43759 -0.01247
#
# Static dielectric constant tensor:
#      x y z
#    x 1.914580 0.000000 0.000000 
#    y 0.000000 1.874700 0.000000 
#    z 0.000000 0.000000 1.889220 
# 
# From -- ./inp_files/5944.got.cif
#   From: 2010.05.17/outbox.cif.g08.bks.cpg/sg19_3_cif.got.tgz:5944.got - 2010.06.03 22:46:19.
