data_PCOD9314280
_publ_section_title
;
Structure prediction by ZEFSAII (Michael W. Deem and Ramdas Pophale) SiO2 
 PCOD9314280
Probable space group: P 21 21 21
;
_chemical_formula_sum "Si O2"
_cell_formula_units_Z 32
_cell_length_a 9.247371
_cell_length_b 15.248428
_cell_length_c 10.857511
_cell_angle_alpha 90.000000
_cell_angle_beta 90.000000
_cell_angle_gamma 90.000000
_cell_volume 1530.994509
_symmetry_space_group_name_H-M "P 21 21 21"
_symmetry_group_IT_number 19
_symmetry_cell_setting 'orthorhombic'
loop_
_space_group_symop_operation_xyz
x,y,z
1/2-x,-y,1/2+z
1/2+x,1/2-y,-z
-x,1/2+y,1/2-z
loop_
_atom_site_type_symbol
_atom_site_label
_atom_site_fract_x
_atom_site_fract_y
_atom_site_fract_z
Si Si1 0.440452 0.720028 0.304002
Si Si2 0.958722 0.724998 0.137646
Si Si3 0.173805 0.095555 0.902313
Si Si4 0.185371 0.370638 0.037827
Si Si5 0.532604 0.586300 0.742394
Si Si6 0.256997 0.817919 0.659226
Si Si7 0.231790 0.318828 0.559231
Si Si8 0.931927 0.995367 0.010258
O O1 0.414647 0.819460 0.352201
O O2 0.399391 0.656668 0.416252
O O3 0.603348 0.691280 0.273284
O O4 0.333897 0.706943 0.190692
O O5 0.885464 0.667034 0.243945
O O6 0.015550 0.814764 0.202606
O O7 0.095498 0.683551 0.068884
O O8 0.834038 0.752906 0.042073
O O9 0.308311 0.077035 0.813822
O O10 0.233072 0.120744 0.039113
O O11 0.064788 0.014939 0.919181
O O12 0.328259 0.421139 0.997993
O O13 0.223258 0.279832 0.104454
O O14 0.084528 0.422806 0.133186
O O15 0.494329 0.523208 0.854757
O O16 0.165934 0.412890 0.525777
#
# Coordination Sequence:
#
# PCOD9314280 Si02
#       8
#     4   4   4   4   4   4   4   4
#     4  11  21  38  70  97 132 176 232 273 330 411
#     4  10  22  42  67  97 132 172 227 277 333 407
#     4  11  22  42  67  99 136 175 225 288 333 402
#     4  10  22  39  63  98 131 168 224 275 340 394
#     4  10  22  44  64  92 136 176 216 288 342 399
#     4  10  21  38  71  97 122 176 229 274 328 401
#     4  11  24  42  66  99 134 179 226 273 341 412
#     4  11  26  41  66  97 139 178 223 286 349 400
#
# _framework density 20.901447999999998
#
# number of rings (size 3 to 8) (size 9 to 14) (size 15 to 20)
#    0.000    1.500    3.750    0.750    3.500    1.000 
#    0.000    2.500    0.000    0.000    0.000    0.000 
#    0.000    0.000    0.000    0.000    0.000    0.000 
#
# Total GULP energy -178845.001123 kJ/mol
# GULP energy per Si atom -5588.906285 kJ/mol
# Density = 2.085388 g / cm^3
# Si number density = 20.901448 Si / 1000 Ang^3
#
#
#
# Elastic Constant Matrix: (Units=GPa)
#
#
# Indices 1 2 3 4 5 6 
#
# 1 135.0438 21.2640 42.7859 0.0000 0.0000 0.0000
# 2 21.2640 27.2502 26.2640 0.0000 0.0000 0.0000
# 3 42.7859 26.2640 95.7762 0.0000 0.0000 0.0000
# 4 0.0000 0.0000 0.0000 16.0608 0.0000 0.0000
# 5 0.0000 0.0000 0.0000 0.0000 45.4223 0.0000
# 6 0.0000 0.0000 0.0000 0.0000 0.0000 22.6288
#
#
#
# Elastic Compliance Matrix: (Units=1/GPa)
#
#
# Indices 1 2 3 4 5 6 
#
# 1 0.008977 -0.004268 -0.002840 0.000000 0.000000 0.000000
# 2 -0.004268 0.051909 -0.012328 0.000000 0.000000 0.000000
# 3 -0.002840 -0.012328 0.015090 0.000000 0.000000 0.000000
# 4 0.000000 0.000000 0.000000 0.062263 0.000000 0.000000
# 5 0.000000 0.000000 0.000000 0.000000 0.022016 0.000000
# 6 0.000000 0.000000 0.000000 0.000000 0.000000 0.044191
#
#
# Mechanical properties :
#
#
# Convention : Reuss Voigt Hill
#
# Bulk Modulus (GPa) = 26.95075 48.74423 37.84749
# Shear Modulus (GPa) = 19.55523 28.00614 23.78068
#
# Velocity S-wave (km/s) = 3.06206 3.66445 3.37672
# Velocity P-wave (km/s) = 5.04221 6.42463 5.77493
#
# Compressibility (1/GPa) = 0.03710472
#
# Stress axis : x y z
#
# Youngs Moduli (GPa) = 111.39889 19.26445 66.26760
#
# Poissons Ratio (x) = 0.08221 0.18819
# Poissons Ratio (y) = 0.47541 0.81696
# Poissons Ratio (z) = 0.31636 0.23750
#
# Static dielectric constant tensor:
#      x y z
#    x 1.763100 0.000000 0.000000 
#    y 0.000000 1.757300 0.000000 
#    z 0.000000 0.000000 1.726070 
# 
# From -- ./inp_files/4795.got.cif
#   From: 2010.05.17/outbox.cif.g08.bks.cpg/sg19_3_cif.got.tgz:4795.got - 2010.06.03 22:46:19.
