data_PCOD9314745
_publ_section_title
;
Structure prediction by ZEFSAII (Michael W. Deem and Ramdas Pophale) SiO2 
 PCOD9314745
Probable space group: P 21 21 21
;
_chemical_formula_sum "Si O2"
_cell_formula_units_Z 32
_cell_length_a 20.203621
_cell_length_b 5.509469
_cell_length_c 12.132988
_cell_angle_alpha 90.000000
_cell_angle_beta 90.000000
_cell_angle_gamma 90.000000
_cell_volume 1350.537740
_symmetry_space_group_name_H-M "P 21 21 21"
_symmetry_group_IT_number 19
_symmetry_cell_setting 'orthorhombic'
loop_
_space_group_symop_operation_xyz
x,y,z
1/2-x,-y,1/2+z
1/2+x,1/2-y,-z
-x,1/2+y,1/2-z
loop_
_atom_site_type_symbol
_atom_site_label
_atom_site_fract_x
_atom_site_fract_y
_atom_site_fract_z
Si Si1 0.493135 0.084350 0.403135
Si Si2 0.371743 0.877435 0.492742
Si Si3 0.834033 0.116283 0.385100
Si Si4 0.780933 0.388581 0.684299
Si Si5 0.656457 0.696318 0.662361
Si Si6 0.710010 0.076404 0.508774
Si Si7 0.920366 0.590539 0.011600
Si Si8 0.592680 0.751858 0.302770
O O1 0.446661 0.872655 0.448508
O O2 0.514485 0.248531 0.505241
O O3 0.448405 0.205481 0.309040
O O4 0.561910 0.999877 0.348452
O O5 0.360032 0.127906 0.562730
O O6 0.323679 0.919081 0.387579
O O7 0.357039 0.628216 0.554149
O O8 0.853933 0.109134 0.257404
O O9 0.754149 0.104489 0.400421
O O10 0.711851 0.516581 0.713378
O O11 0.759806 0.173743 0.602689
O O12 0.830433 0.281825 0.774662
O O13 0.590354 0.568955 0.620113
O O14 0.686142 0.814986 0.550534
O O15 0.646368 0.248063 0.508701
O O16 0.922993 0.437323 0.899193
#
# Coordination Sequence:
#
# PCOD9314745 Si02
#       8
#     4   4   4   4   4   4   4   4
#     4  11  24  42  70 101 141 191 235 307 368 438
#     4  10  24  44  71  99 144 190 244 300 357 438
#     4  11  24  44  73 101 139 195 245 297 369 436
#     4   9  21  39  65 107 141 183 232 294 369 439
#     4  11  23  41  70  98 145 190 239 305 367 445
#     4  10  22  41  66  99 144 183 230 304 360 433
#     4  11  24  41  63 102 143 180 236 297 361 437
#     4  11  22  40  68 101 139 182 239 292 371 434
#
# _framework density 23.694262999999999
#
# number of rings (size 3 to 8) (size 9 to 14) (size 15 to 20)
#    0.000    1.500    2.500    1.500    5.250    4.000 
#    0.000    0.000    5.500    0.000    0.000    0.000 
#    0.000    0.000    0.000    0.000    0.000    0.000 
#
# Total GULP energy -178849.072411 kJ/mol
# GULP energy per Si atom -5589.033513 kJ/mol
# Density = 2.364033 g / cm^3
# Si number density = 23.694263 Si / 1000 Ang^3
#
#
#
# Elastic Constant Matrix: (Units=GPa)
#
#
# Indices 1 2 3 4 5 6 
#
# 1 27.8291 14.8830 19.4848 0.0000 0.0000 0.0000
# 2 14.8830 77.6602 18.0734 0.0000 0.0000 0.0000
# 3 19.4848 18.0734 62.7974 0.0000 0.0000 0.0000
# 4 0.0000 0.0000 0.0000 37.8887 0.0000 0.0000
# 5 0.0000 0.0000 0.0000 0.0000 38.0450 0.0000
# 6 0.0000 0.0000 0.0000 0.0000 0.0000 27.6286
#
#
#
# Elastic Compliance Matrix: (Units=1/GPa)
#
#
# Indices 1 2 3 4 5 6 
#
# 1 0.048553 -0.006215 -0.013276 0.000000 0.000000 0.000000
# 2 -0.006215 0.014597 -0.002273 0.000000 0.000000 0.000000
# 3 -0.013276 -0.002273 0.020698 0.000000 0.000000 0.000000
# 4 0.000000 0.000000 0.000000 0.026393 0.000000 0.000000
# 5 0.000000 0.000000 0.000000 0.000000 0.026285 0.000000
# 6 0.000000 0.000000 0.000000 0.000000 0.000000 0.036194
#
#
# Mechanical properties :
#
#
# Convention : Reuss Voigt Hill
#
# Bulk Modulus (GPa) = 24.80201 30.35213 27.57707
# Shear Modulus (GPa) = 21.76875 28.43548 25.10212
#
# Velocity S-wave (km/s) = 3.03435 3.46800 3.25840
# Velocity P-wave (km/s) = 4.77144 5.37343 5.08136
#
# Compressibility (1/GPa) = 0.04031931
#
# Stress axis : x y z
#
# Youngs Moduli (GPa) = 20.59605 68.50925 48.31466
#
# Poissons Ratio (x) = 0.42579 0.64144
# Poissons Ratio (y) = 0.12801 0.10980
# Poissons Ratio (z) = 0.27344 0.15569
#
# Static dielectric constant tensor:
#      x y z
#    x 1.912100 0.000000 0.000000 
#    y 0.000000 1.956720 0.000000 
#    z 0.000000 0.000000 1.954610 
# 
# From -- ./inp_files/5504.got.cif
#   From: 2010.05.17/outbox.cif.g08.bks.cpg/sg19_3_cif.got.tgz:5504.got - 2010.06.03 22:46:19.
