data_PCOD9314638
_publ_section_title
;
Structure prediction by ZEFSAII (Michael W. Deem and Ramdas Pophale) SiO2 
 PCOD9314638
Probable space group: P 21 21 21
;
_chemical_formula_sum "Si O2"
_cell_formula_units_Z 28
_cell_length_a 9.150974
_cell_length_b 13.526539
_cell_length_c 8.624439
_cell_angle_alpha 90.000000
_cell_angle_beta 90.000000
_cell_angle_gamma 90.000000
_cell_volume 1067.541742
_symmetry_space_group_name_H-M "P 21 21 21"
_symmetry_group_IT_number 19
_symmetry_cell_setting 'orthorhombic'
loop_
_space_group_symop_operation_xyz
x,y,z
1/2-x,-y,1/2+z
1/2+x,1/2-y,-z
-x,1/2+y,1/2-z
loop_
_atom_site_type_symbol
_atom_site_label
_atom_site_fract_x
_atom_site_fract_y
_atom_site_fract_z
Si Si1 0.023959 0.214477 0.118632
Si Si2 0.477980 0.632793 0.118506
Si Si3 0.796447 0.829416 0.597378
Si Si4 0.290877 0.093282 0.588313
Si Si5 0.572043 0.456831 0.661637
Si Si6 0.975853 0.594899 0.698783
Si Si7 0.704098 0.942923 0.059795
O O1 0.030538 0.143949 0.967494
O O2 0.127857 0.303177 0.065827
O O3 0.850204 0.232838 0.132092
O O4 0.081561 0.152471 0.263644
O O5 0.424451 0.682939 0.275267
O O6 0.611391 0.668789 0.011945
O O7 0.526765 0.523493 0.174637
O O8 0.336749 0.617101 0.011608
O O9 0.750298 0.944914 0.604562
O O10 0.198747 0.027552 0.465154
O O11 0.159047 0.127403 0.695555
O O12 0.400626 0.032753 0.698840
O O13 0.420021 0.459836 0.571119
O O14 0.124214 0.608909 0.796223
#
# Coordination Sequence:
#
# PCOD9314638 Si02
#       7
#     4   4   4   4   4   4   4
#     4  12  24  44  64  95 140 169 217 275 347 393
#     4  11  20  41  66  98 128 173 235 260 318 398
#     4  11  26  40  68 100 129 181 215 276 332 405
#     4  11  21  35  65  97 128 166 227 272 324 383
#     4  11  21  39  66  97 131 172 217 278 324 394
#     4  10  22  39  64  95 134 171 215 278 326 393
#     4  10  22  42  71  94 126 176 238 263 317 394
#
# _framework density 26.228483000000001
#
# number of rings (size 3 to 8) (size 9 to 14) (size 15 to 20)
#    0.000    1.143    5.714    0.000    4.000    1.143 
#    0.000    1.429    6.286    0.000    0.000    0.000 
#    0.000    0.000    0.000    0.000    0.000    0.000 
#
# Total GULP energy -156855.492128 kJ/mol
# GULP energy per Si atom -5601.981862 kJ/mol
# Density = 2.616879 g / cm^3
# Si number density = 26.228483 Si / 1000 Ang^3
#
#
#
# Elastic Constant Matrix: (Units=GPa)
#
#
# Indices 1 2 3 4 5 6 
#
# 1 126.9236 1.6307 33.8261 0.0000 0.0000 0.0000
# 2 1.6307 47.8453 13.4121 0.0000 0.0000 0.0000
# 3 33.8261 13.4121 105.0500 0.0000 0.0000 0.0000
# 4 0.0000 0.0000 0.0000 44.9366 0.0000 0.0000
# 5 0.0000 0.0000 0.0000 0.0000 71.9920 0.0000
# 6 0.0000 0.0000 0.0000 0.0000 0.0000 25.6934
#
#
#
# Elastic Compliance Matrix: (Units=1/GPa)
#
#
# Indices 1 2 3 4 5 6 
#
# 1 0.008630 0.000503 -0.002843 0.000000 0.000000 0.000000
# 2 0.000503 0.021706 -0.002933 0.000000 0.000000 0.000000
# 3 -0.002843 -0.002933 0.010809 0.000000 0.000000 0.000000
# 4 0.000000 0.000000 0.000000 0.022254 0.000000 0.000000
# 5 0.000000 0.000000 0.000000 0.000000 0.013890 0.000000
# 6 0.000000 0.000000 0.000000 0.000000 0.000000 0.038920
#
#
# Mechanical properties :
#
#
# Convention : Reuss Voigt Hill
#
# Bulk Modulus (GPa) = 32.68164 41.95076 37.31620
# Shear Modulus (GPa) = 36.50817 43.92108 40.21462
#
# Velocity S-wave (km/s) = 3.73490 4.09657 3.91991
# Velocity P-wave (km/s) = 5.57555 6.19717 5.89456
#
# Compressibility (1/GPa) = 0.03059822
#
# Stress axis : x y z
#
# Youngs Moduli (GPa) = 115.87494 46.07069 92.51353
#
# Poissons Ratio (x) = -0.02317 0.26302
# Poissons Ratio (y) = -0.05827 0.27136
# Poissons Ratio (z) = 0.32944 0.13513
#
# Static dielectric constant tensor:
#      x y z
#    x 2.031650 0.000000 0.000000 
#    y 0.000000 2.079620 0.000000 
#    z 0.000000 0.000000 2.068310 
# 
# From -- ./inp_files/3003.got.cif
#   From: 2010.05.17/outbox.cif.g08.bks.cpg/sg19_2_cif.got.tgz:3003.got - 2010.06.03 22:46:19.
