data_PCOD9314761
_publ_section_title
;
Structure prediction by ZEFSAII (Michael W. Deem and Ramdas Pophale) SiO2 
 PCOD9314761
Probable space group: P 21 21 21
;
_chemical_formula_sum "Si O2"
_cell_formula_units_Z 20
_cell_length_a 8.734401
_cell_length_b 10.846364
_cell_length_c 7.450296
_cell_angle_alpha 90.000000
_cell_angle_beta 90.000000
_cell_angle_gamma 90.000000
_cell_volume 705.814912
_symmetry_space_group_name_H-M "P 21 21 21"
_symmetry_group_IT_number 19
_symmetry_cell_setting 'orthorhombic'
loop_
_space_group_symop_operation_xyz
x,y,z
1/2-x,-y,1/2+z
1/2+x,1/2-y,-z
-x,1/2+y,1/2-z
loop_
_atom_site_type_symbol
_atom_site_label
_atom_site_fract_x
_atom_site_fract_y
_atom_site_fract_z
Si Si1 0.734727 0.981775 0.331442
Si Si2 0.498125 0.163104 0.373006
Si Si3 0.785528 0.566015 0.516134
Si Si4 0.430744 0.272989 0.974131
Si Si5 0.513741 0.921123 0.001951
O O1 0.685212 0.883479 0.480882
O O2 0.635612 0.944533 0.160588
O O3 0.669843 0.115260 0.379538
O O4 0.915550 0.000671 0.337474
O O5 0.466191 0.214289 0.172590
O O6 0.488664 0.274568 0.513114
O O7 0.395942 0.042285 0.409975
O O8 0.907911 0.660357 0.417818
O O9 0.675215 0.667177 0.616406
O O10 0.650428 0.475275 0.444936
#
# Coordination Sequence:
#
# PCOD9314761 Si02
#       5
#     4   4   4   4   4
#     4  10  22  42  67 100 147 183 245 302 355 437
#     4  10  22  43  69  97 143 189 239 311 352 430
#     4  11  22  43  73 101 142 193 244 294 378 433
#     4  10  22  41  68  99 140 189 236 307 358 433
#     4  11  22  43  69 105 144 196 242 300 371 429
#
# _framework density 28.336043
#
# number of rings (size 3 to 8) (size 9 to 14) (size 15 to 20)
#    0.000    1.600    2.000    2.400    0.000    0.000 
#    7.200    4.000    0.000    0.000    0.000    0.000 
#    0.000    0.000    0.000    0.000    0.000    0.000 
#
# Total GULP energy -111540.469915 kJ/mol
# GULP energy per Si atom -5577.023496 kJ/mol
# Density = 2.827155 g / cm^3
# Si number density = 28.336043 Si / 1000 Ang^3
#
#
#
# Elastic Constant Matrix: (Units=GPa)
#
#
# Indices 1 2 3 4 5 6 
#
# 1 161.3133 74.1943 41.8144 0.0000 0.0000 0.0000
# 2 74.1943 182.1424 18.1439 0.0000 0.0000 0.0000
# 3 41.8144 18.1439 52.0415 0.0000 0.0000 0.0000
# 4 0.0000 0.0000 0.0000 41.0086 0.0000 0.0000
# 5 0.0000 0.0000 0.0000 0.0000 23.2881 0.0000
# 6 0.0000 0.0000 0.0000 0.0000 0.0000 84.5137
#
#
#
# Elastic Compliance Matrix: (Units=1/GPa)
#
#
# Indices 1 2 3 4 5 6 
#
# 1 0.009302 -0.003154 -0.006374 0.000000 0.000000 0.000000
# 2 -0.003154 0.006757 0.000178 0.000000 0.000000 0.000000
# 3 -0.006374 0.000178 0.024275 0.000000 0.000000 0.000000
# 4 0.000000 0.000000 0.000000 0.024385 0.000000 0.000000
# 5 0.000000 0.000000 0.000000 0.000000 0.042940 0.000000
# 6 0.000000 0.000000 0.000000 0.000000 0.000000 0.011832
#
#
# Mechanical properties :
#
#
# Convention : Reuss Voigt Hill
#
# Bulk Modulus (GPa) = 46.22340 73.75583 59.98962
# Shear Modulus (GPa) = 34.38696 47.18507 40.78601
#
# Velocity S-wave (km/s) = 3.48737 4.08511 3.79802
# Velocity P-wave (km/s) = 5.70646 6.95243 6.36003
#
# Compressibility (1/GPa) = 0.02163406
#
# Stress axis : x y z
#
# Youngs Moduli (GPa) = 107.50159 147.98887 41.19469
#
# Poissons Ratio (x) = 0.46678 0.26259
# Poissons Ratio (y) = 0.33908 -0.00735
# Poissons Ratio (z) = 0.68526 -0.02641
#
# Static dielectric constant tensor:
#      x y z
#    x 2.189770 0.000000 0.000000 
#    y 0.000000 2.180530 0.000000 
#    z 0.000000 0.000000 2.506880 
# 
# From -- ./inp_files/2610.got.cif
#   From: 2010.05.17/outbox.cif.g08.bks.cpg/sg19_2_cif.got.tgz:2610.got - 2010.06.03 22:46:19.
