data_PCOD9314441
_publ_section_title
;
Structure prediction by ZEFSAII (Michael W. Deem and Ramdas Pophale) SiO2 
 PCOD9314441
Probable space group: P 21 21 21
;
_chemical_formula_sum "Si O2"
_cell_formula_units_Z 24
_cell_length_a 15.478100
_cell_length_b 5.369379
_cell_length_c 11.080438
_cell_angle_alpha 90.000000
_cell_angle_beta 90.000000
_cell_angle_gamma 90.000000
_cell_volume 920.870660
_symmetry_space_group_name_H-M "P 21 21 21"
_symmetry_group_IT_number 19
_symmetry_cell_setting 'orthorhombic'
loop_
_space_group_symop_operation_xyz
x,y,z
1/2-x,-y,1/2+z
1/2+x,1/2-y,-z
-x,1/2+y,1/2-z
loop_
_atom_site_type_symbol
_atom_site_label
_atom_site_fract_x
_atom_site_fract_y
_atom_site_fract_z
Si Si1 0.370629 0.106717 0.315851
Si Si2 0.536571 0.915333 0.384886
Si Si3 0.052786 0.582511 0.220614
Si Si4 0.166764 0.805753 0.419867
Si Si5 0.826048 0.699982 0.893141
Si Si6 0.178273 0.489326 0.010180
O O1 0.434016 0.931361 0.394678
O O2 0.436585 0.238606 0.223533
O O3 0.334708 0.316059 0.402417
O O4 0.306299 0.985311 0.217906
O O5 0.582438 0.179780 0.363307
O O6 0.591141 0.816589 0.497520
O O7 0.132868 0.706273 0.293442
O O8 0.091478 0.493154 0.091040
O O9 0.012470 0.325596 0.278721
O O10 0.265762 0.733871 0.451639
O O11 0.164348 0.083383 0.473292
O O12 0.752745 0.903999 0.901665
#
# Coordination Sequence:
#
# PCOD9314441 Si02
#       6
#     4   4   4   4   4   4
#     4  11  22  40  70 102 139 178 246 299 367 439
#     4  10  21  41  67 104 133 188 232 308 360 435
#     4  12  31  53  78 113 160 206 255 316 391 466
#     4  10  26  46  73 100 151 190 253 305 374 454
#     4  10  24  43  67 101 142 187 245 306 372 437
#     4  11  28  43  75 106 147 199 249 304 386 445
#
# _framework density 26.062294000000001
#
# number of rings (size 3 to 8) (size 9 to 14) (size 15 to 20)
#    0.000    1.333    1.667    1.000   18.667    0.000 
#    0.000    0.000    0.000    0.000    0.000    0.000 
#    0.000    0.000    0.000    0.000    0.000    0.000 
#
# Total GULP energy -133980.111875 kJ/mol
# GULP energy per Si atom -5582.504661 kJ/mol
# Density = 2.600297 g / cm^3
# Si number density = 26.062294 Si / 1000 Ang^3
#
#
#
# Elastic Constant Matrix: (Units=GPa)
#
#
# Indices 1 2 3 4 5 6 
#
# 1 100.9391 18.5432 4.5692 0.0000 0.0000 0.0000
# 2 18.5432 56.2374 -8.6531 0.0000 0.0000 0.0000
# 3 4.5692 -8.6531 64.4372 0.0000 0.0000 0.0000
# 4 0.0000 0.0000 0.0000 256.1772 0.0000 0.0000
# 5 0.0000 0.0000 0.0000 0.0000 4.8432 0.0000
# 6 0.0000 0.0000 0.0000 0.0000 0.0000 14.6831
#
#
#
# Elastic Compliance Matrix: (Units=1/GPa)
#
#
# Indices 1 2 3 4 5 6 
#
# 1 0.010644 -0.003702 -0.001252 0.000000 0.000000 0.000000
# 2 -0.003702 0.019445 0.002874 0.000000 0.000000 0.000000
# 3 -0.001252 0.002874 0.015994 0.000000 0.000000 0.000000
# 4 0.000000 0.000000 0.000000 0.003904 0.000000 0.000000
# 5 0.000000 0.000000 0.000000 0.000000 0.206476 0.000000
# 6 0.000000 0.000000 0.000000 0.000000 0.000000 0.068105
#
#
# Mechanical properties :
#
#
# Convention : Reuss Voigt Hill
#
# Bulk Modulus (GPa) = 23.85424 27.83692 25.84558
# Shear Modulus (GPa) = 14.58995 68.95100 41.77048
#
# Velocity S-wave (km/s) = 2.36860 5.14914 4.00774
# Velocity P-wave (km/s) = 4.08081 6.78643 5.59949
#
# Compressibility (1/GPa) = 0.04192127
#
# Stress axis : x y z
#
# Youngs Moduli (GPa) = 93.95186 51.42797 62.52476
#
# Poissons Ratio (x) = 0.19040 0.07828
# Poissons Ratio (y) = 0.34783 -0.17968
# Poissons Ratio (z) = 0.11762 -0.14779
#
# Static dielectric constant tensor:
#      x y z
#    x 2.027190 0.000000 0.000000 
#    y 0.000000 2.203170 0.000000 
#    z 0.000000 0.000000 2.145630 
# 
# From -- ./inp_files/895.got.cif
#   From: 2010.05.17/outbox.cif.g08.bks.cpg/sg19_1_cif.got.tgz:895.got - 2010.06.03 22:46:19.
