data_PCOD9314090
_publ_section_title
;
Structure prediction by ZEFSAII (Michael W. Deem and Ramdas Pophale) SiO2 
 PCOD9314090
Probable space group: P 21 21 21
;
_chemical_formula_sum "Si O2"
_cell_formula_units_Z 28
_cell_length_a 16.167441
_cell_length_b 9.030569
_cell_length_c 7.732865
_cell_angle_alpha 90.000000
_cell_angle_beta 90.000000
_cell_angle_gamma 90.000000
_cell_volume 1129.007504
_symmetry_space_group_name_H-M "P 21 21 21"
_symmetry_group_IT_number 19
_symmetry_cell_setting 'orthorhombic'
loop_
_space_group_symop_operation_xyz
x,y,z
1/2-x,-y,1/2+z
1/2+x,1/2-y,-z
-x,1/2+y,1/2-z
loop_
_atom_site_type_symbol
_atom_site_label
_atom_site_fract_x
_atom_site_fract_y
_atom_site_fract_z
Si Si1 0.443236 0.846057 0.384746
Si Si2 0.350209 0.974553 0.704446
Si Si3 0.698628 0.804941 0.341287
Si Si4 0.336925 0.467331 0.619338
Si Si5 0.573858 0.045049 0.232738
Si Si6 0.252869 0.815350 0.985328
Si Si7 0.590870 0.741668 0.623437
O O1 0.379749 0.889944 0.533449
O O2 0.484130 0.984795 0.286911
O O3 0.414072 0.720556 0.250599
O O4 0.515856 0.762593 0.493108
O O5 0.330001 0.875181 0.872570
O O6 0.272501 0.070141 0.633649
O O7 0.417452 0.098716 0.756186
O O8 0.635173 0.941479 0.341160
O O9 0.687543 0.700416 0.176057
O O10 0.675561 0.719484 0.514021
O O11 0.787064 0.885295 0.330702
O O12 0.395997 0.504445 0.459765
O O13 0.265915 0.346974 0.565566
O O14 0.391369 0.387020 0.763511
#
# Coordination Sequence:
#
# PCOD9314090 Si02
#       7
#     4   4   4   4   4   4   4
#     4  11  26  43  66  93 136 182 219 266 330 402
#     4  11  24  43  65  96 134 170 221 272 336 385
#     4  10  20  41  68  95 130 166 223 273 329 387
#     4  10  21  41  67  96 130 164 225 273 327 392
#     4  10  24  42  65  94 128 179 216 268 325 395
#     4  10  22  39  66  94 129 167 214 278 320 383
#     4  10  23  39  63  98 131 174 218 274 323 396
#
# _framework density 24.800546000000001
#
# number of rings (size 3 to 8) (size 9 to 14) (size 15 to 20)
#    0.000    1.714    0.000    3.429   10.000    2.286 
#    5.143    0.000    0.000    0.000    0.000    0.000 
#    0.000    0.000    0.000    0.000    0.000    0.000 
#
# Total GULP energy -156302.213794 kJ/mol
# GULP energy per Si atom -5582.221921 kJ/mol
# Density = 2.474410 g / cm^3
# Si number density = 24.800546 Si / 1000 Ang^3
#
#
#
# Elastic Constant Matrix: (Units=GPa)
#
#
# Indices 1 2 3 4 5 6 
#
# 1 39.1787 11.7642 -1.0705 0.0000 0.0000 0.0000
# 2 11.7642 68.0166 17.8203 0.0000 0.0000 0.0000
# 3 -1.0705 17.8203 60.3568 0.0000 0.0000 0.0000
# 4 0.0000 0.0000 0.0000 40.1093 0.0000 0.0000
# 5 0.0000 0.0000 0.0000 0.0000 41.6862 0.0000
# 6 0.0000 0.0000 0.0000 0.0000 0.0000 31.0798
#
#
#
# Elastic Compliance Matrix: (Units=1/GPa)
#
#
# Indices 1 2 3 4 5 6 
#
# 1 0.027149 -0.005226 0.002025 0.000000 0.000000 0.000000
# 2 -0.005226 0.016941 -0.005094 0.000000 0.000000 0.000000
# 3 0.002025 -0.005094 0.018108 0.000000 0.000000 0.000000
# 4 0.000000 0.000000 0.000000 0.024932 0.000000 0.000000
# 5 0.000000 0.000000 0.000000 0.000000 0.023989 0.000000
# 6 0.000000 0.000000 0.000000 0.000000 0.000000 0.032175
#
#
# Mechanical properties :
#
#
# Convention : Reuss Voigt Hill
#
# Bulk Modulus (GPa) = 21.92709 24.95333 23.44021
# Shear Modulus (GPa) = 28.55714 31.84429 30.20071
#
# Velocity S-wave (km/s) = 3.39702 3.58720 3.49340
# Velocity P-wave (km/s) = 4.92411 5.21927 5.07384
#
# Compressibility (1/GPa) = 0.04560568
#
# Stress axis : x y z
#
# Youngs Moduli (GPa) = 36.83431 59.02858 55.22362
#
# Poissons Ratio (x) = 0.30849 -0.11180
# Poissons Ratio (y) = 0.19250 0.28134
# Poissons Ratio (z) = -0.07457 0.30072
#
# Static dielectric constant tensor:
#      x y z
#    x 2.018470 0.000000 0.000000 
#    y 0.000000 2.048440 0.000000 
#    z 0.000000 0.000000 1.897160 
# 
# From -- ./inp_files/4146.got.cif
#   From: 2010.05.17/outbox.cif.g08.bks.cpg/sg19_3_cif.got.tgz:4146.got - 2010.06.03 22:46:19.
