data_PCOD9314472
_publ_section_title
;
Structure prediction by ZEFSAII (Michael W. Deem and Ramdas Pophale) SiO2 
 PCOD9314472
Probable space group: P 21 21 21
;
_chemical_formula_sum "Si O2"
_cell_formula_units_Z 24
_cell_length_a 7.715075
_cell_length_b 10.772784
_cell_length_c 12.031036
_cell_angle_alpha 90.000000
_cell_angle_beta 90.000000
_cell_angle_gamma 90.000000
_cell_volume 999.933528
_symmetry_space_group_name_H-M "P 21 21 21"
_symmetry_group_IT_number 19
_symmetry_cell_setting 'orthorhombic'
loop_
_space_group_symop_operation_xyz
x,y,z
1/2-x,-y,1/2+z
1/2+x,1/2-y,-z
-x,1/2+y,1/2-z
loop_
_atom_site_type_symbol
_atom_site_label
_atom_site_fract_x
_atom_site_fract_y
_atom_site_fract_z
Si Si1 0.832320 0.355963 0.040220
Si Si2 0.850755 0.043676 0.418706
Si Si3 0.046645 0.770376 0.241055
Si Si4 0.020035 0.695306 0.900448
Si Si5 0.332690 0.316123 0.166600
Si Si6 0.355633 0.083319 0.540699
O O1 0.823177 0.280897 0.154874
O O2 0.990435 0.448295 0.067331
O O3 0.879291 0.267179 0.938660
O O4 0.675315 0.444209 0.001394
O O5 0.902943 0.153483 0.335004
O O6 0.836224 0.108480 0.538958
O O7 0.700281 0.956696 0.373087
O O8 0.057990 0.891254 0.160386
O O9 0.850708 0.763045 0.285470
O O10 0.039084 0.689891 0.769676
O O11 0.835877 0.642916 0.939810
O O12 0.051375 0.831702 0.949179
#
# Coordination Sequence:
#
# PCOD9314472 Si02
#       6
#     4   4   4   4   4   4
#     4  10  23  39  67  99 130 170 230 272 335 400
#     4   9  22  43  62  91 137 172 221 276 334 413
#     4  10  23  44  67  94 134 181 216 278 345 395
#     4  10  21  42  64  93 132 175 221 273 347 393
#     4  11  23  38  68  94 131 173 225 285 328 404
#     4  10  22  42  66  95 132 175 223 276 333 421
#
# _framework density 24.001594999999998
#
# number of rings (size 3 to 8) (size 9 to 14) (size 15 to 20)
#    0.000    2.000    0.000    3.000    9.333    2.667 
#    9.000    3.333    0.000    0.000    0.000    0.000 
#    0.000    0.000    0.000    0.000    0.000    0.000 
#
# Total GULP energy -134314.877377 kJ/mol
# GULP energy per Si atom -5596.453224 kJ/mol
# Density = 2.394697 g / cm^3
# Si number density = 24.001595 Si / 1000 Ang^3
#
#
#
# Elastic Constant Matrix: (Units=GPa)
#
#
# Indices 1 2 3 4 5 6 
#
# 1 70.6078 28.1843 48.8092 0.0000 0.0000 0.0000
# 2 28.1843 89.9318 47.9720 0.0000 0.0000 0.0000
# 3 48.8092 47.9720 155.8701 0.0000 0.0000 0.0000
# 4 0.0000 0.0000 0.0000 43.6915 0.0000 0.0000
# 5 0.0000 0.0000 0.0000 0.0000 8.4694 0.0000
# 6 0.0000 0.0000 0.0000 0.0000 0.0000 29.6041
#
#
#
# Elastic Compliance Matrix: (Units=1/GPa)
#
#
# Indices 1 2 3 4 5 6 
#
# 1 0.018861 -0.003303 -0.004890 0.000000 0.000000 0.000000
# 2 -0.003303 0.013882 -0.003238 0.000000 0.000000 0.000000
# 3 -0.004890 -0.003238 0.008943 0.000000 0.000000 0.000000
# 4 0.000000 0.000000 0.000000 0.022888 0.000000 0.000000
# 5 0.000000 0.000000 0.000000 0.000000 0.118073 0.000000
# 6 0.000000 0.000000 0.000000 0.000000 0.000000 0.033779
#
#
# Mechanical properties :
#
#
# Convention : Reuss Voigt Hill
#
# Bulk Modulus (GPa) = 53.12026 62.92674 58.02350
# Shear Modulus (GPa) = 20.36142 29.11594 24.73868
#
# Velocity S-wave (km/s) = 2.91578 3.48671 3.21395
# Velocity P-wave (km/s) = 5.78928 6.51799 6.16441
#
# Compressibility (1/GPa) = 0.01882521
#
# Stress axis : x y z
#
# Youngs Moduli (GPa) = 53.01891 72.03598 111.81436
#
# Poissons Ratio (x) = 0.23791 0.54674
# Poissons Ratio (y) = 0.17511 0.36208
# Poissons Ratio (z) = 0.25925 0.23327
#
# Static dielectric constant tensor:
#      x y z
#    x 1.988430 0.000000 0.000000 
#    y 0.000000 1.904960 0.000000 
#    z 0.000000 0.000000 1.911680 
# 
# From -- ./inp_files/3399.got.cif
#   From: 2010.05.17/outbox.cif.g08.bks.cpg/sg19_2_cif.got.tgz:3399.got - 2010.06.03 22:46:19.
