data_PCOD9314080
_publ_section_title
;
Structure prediction by ZEFSAII (Michael W. Deem and Ramdas Pophale) SiO2 
 PCOD9314080
Probable space group: P 21 21 21
;
_chemical_formula_sum "Si O2"
_cell_formula_units_Z 28
_cell_length_a 7.214190
_cell_length_b 9.657447
_cell_length_c 18.464366
_cell_angle_alpha 90.000000
_cell_angle_beta 90.000000
_cell_angle_gamma 90.000000
_cell_volume 1286.424521
_symmetry_space_group_name_H-M "P 21 21 21"
_symmetry_group_IT_number 19
_symmetry_cell_setting 'orthorhombic'
loop_
_space_group_symop_operation_xyz
x,y,z
1/2-x,-y,1/2+z
1/2+x,1/2-y,-z
-x,1/2+y,1/2-z
loop_
_atom_site_type_symbol
_atom_site_label
_atom_site_fract_x
_atom_site_fract_y
_atom_site_fract_z
Si Si1 0.972272 0.598562 0.628300
Si Si2 0.700465 0.394893 0.684830
Si Si3 0.831502 0.985695 0.291036
Si Si4 0.367067 0.105117 0.155597
Si Si5 0.697699 0.912790 0.513838
Si Si6 0.049502 0.269045 0.095546
Si Si7 0.197415 0.595784 0.863515
O O1 0.778215 0.527247 0.642140
O O2 0.127878 0.510282 0.673576
O O3 0.004852 0.755982 0.654657
O O4 0.036462 0.587714 0.545638
O O5 0.477457 0.396234 0.688114
O O6 0.775569 0.411104 0.766155
O O7 0.786684 0.257939 0.650287
O O8 0.806638 0.969732 0.205413
O O9 0.920384 0.848230 0.328589
O O10 0.201414 0.144517 0.100743
O O11 0.493843 0.973555 0.138537
O O12 0.643322 0.795436 0.572051
O O13 0.878160 0.871416 0.467628
O O14 0.719285 0.050465 0.559904
#
# Coordination Sequence:
#
# PCOD9314080 Si02
#       7
#     4   4   4   4   4   4   4
#     4  10  23  46  63  93 131 170 216 270 325 384
#     4  12  22  41  64  94 131 171 205 281 334 379
#     4  10  23  39  66  91 132 161 220 262 317 390
#     4  10  20  41  66  92 125 166 222 268 317 385
#     4  10  22  40  65  92 129 167 221 263 317 393
#     4  10  21  42  65  99 121 173 224 269 312 379
#     4  12  23  41  63 101 129 166 220 269 326 392
#
# _framework density 21.765754999999999
#
# number of rings (size 3 to 8) (size 9 to 14) (size 15 to 20)
#    0.000    1.714    4.286    2.571    4.000    0.000 
#   10.286    0.000    0.000    0.000    0.000    0.000 
#    0.000    0.000    0.000    0.000    0.000    0.000 
#
# Total GULP energy -156382.279391 kJ/mol
# GULP energy per Si atom -5585.081407 kJ/mol
# Density = 2.171622 g / cm^3
# Si number density = 21.765755 Si / 1000 Ang^3
#
#
#
# Elastic Constant Matrix: (Units=GPa)
#
#
# Indices 1 2 3 4 5 6 
#
# 1 57.8391 6.7248 -2.0560 0.0000 0.0000 0.0000
# 2 6.7248 48.6401 -1.4071 0.0000 0.0000 0.0000
# 3 -2.0560 -1.4071 69.4301 0.0000 0.0000 0.0000
# 4 0.0000 0.0000 0.0000 30.8874 0.0000 0.0000
# 5 0.0000 0.0000 0.0000 0.0000 23.0614 0.0000
# 6 0.0000 0.0000 0.0000 0.0000 0.0000 31.1573
#
#
#
# Elastic Compliance Matrix: (Units=1/GPa)
#
#
# Indices 1 2 3 4 5 6 
#
# 1 0.017587 -0.002418 0.000472 0.000000 0.000000 0.000000
# 2 -0.002418 0.020904 0.000352 0.000000 0.000000 0.000000
# 3 0.000472 0.000352 0.014424 0.000000 0.000000 0.000000
# 4 0.000000 0.000000 0.000000 0.032376 0.000000 0.000000
# 5 0.000000 0.000000 0.000000 0.000000 0.043362 0.000000
# 6 0.000000 0.000000 0.000000 0.000000 0.000000 0.032095
#
#
# Mechanical properties :
#
#
# Convention : Reuss Voigt Hill
#
# Bulk Modulus (GPa) = 20.10986 20.27030 20.19008
# Shear Modulus (GPa) = 27.69898 28.53106 28.11502
#
# Velocity S-wave (km/s) = 3.57121 3.62446 3.59793
# Velocity P-wave (km/s) = 5.12485 5.18158 5.15329
#
# Compressibility (1/GPa) = 0.04972686
#
# Stress axis : x y z
#
# Youngs Moduli (GPa) = 56.85940 47.83853 69.32848
#
# Poissons Ratio (x) = 0.11567 -0.03271
# Poissons Ratio (y) = 0.13748 -0.02441
# Poissons Ratio (z) = -0.02683 -0.01684
#
# Static dielectric constant tensor:
#      x y z
#    x 1.848180 0.000000 0.000000 
#    y 0.000000 1.815740 0.000000 
#    z 0.000000 0.000000 1.782780 
# 
# From -- ./inp_files/2940.got.cif
#   From: 2010.05.17/outbox.cif.g08.bks.cpg/sg19_2_cif.got.tgz:2940.got - 2010.06.03 22:46:19.
