data_PCOD9314847
_publ_section_title
;
Structure prediction by ZEFSAII (Michael W. Deem and Ramdas Pophale) SiO2 
 PCOD9314847
Probable space group: P 21 21 21
;
_chemical_formula_sum "Si O2"
_cell_formula_units_Z 32
_cell_length_a 10.428263
_cell_length_b 4.961263
_cell_length_c 27.829877
_cell_angle_alpha 90.000000
_cell_angle_beta 90.000000
_cell_angle_gamma 90.000000
_cell_volume 1439.844236
_symmetry_space_group_name_H-M "P 21 21 21"
_symmetry_group_IT_number 19
_symmetry_cell_setting 'orthorhombic'
loop_
_space_group_symop_operation_xyz
x,y,z
1/2-x,-y,1/2+z
1/2+x,1/2-y,-z
-x,1/2+y,1/2-z
loop_
_atom_site_type_symbol
_atom_site_label
_atom_site_fract_x
_atom_site_fract_y
_atom_site_fract_z
Si Si1 0.868250 0.782761 0.356808
Si Si2 0.089680 0.733397 0.884932
Si Si3 0.005989 0.495022 0.436607
Si Si4 0.159755 0.643127 0.993386
Si Si5 0.083764 0.750247 0.614785
Si Si6 0.328223 0.147963 0.008063
Si Si7 0.072746 0.080344 0.246946
Si Si8 0.127714 0.168446 0.352896
O O1 0.890934 0.600597 0.403454
O O2 0.718268 0.851475 0.361917
O O3 0.873134 0.633476 0.305600
O O4 0.996046 0.979897 0.357660
O O5 0.122283 0.633762 0.938289
O O6 0.221037 0.864866 0.863927
O O7 0.005961 0.486580 0.861866
O O8 0.997461 0.983725 0.889482
O O9 0.947793 0.269598 0.471989
O O10 0.078841 0.718870 0.468187
O O11 0.096910 0.390860 0.393446
O O12 0.207103 0.350357 0.008169
O O13 0.278135 0.851935 0.996322
O O14 0.113330 0.847195 0.560700
O O15 0.132294 0.205216 0.295267
O O16 0.942714 0.261658 0.245948
#
# Coordination Sequence:
#
# PCOD9314847 Si02
#       8
#     4   4   4   4   4   4   4   4
#     4  11  25  45  73 100 135 175 234 286 347 403
#     4  12  27  45  66  99 146 185 227 279 345 413
#     4  12  24  36  70  94 130 174 230 270 330 396
#     4  12  25  40  61  95 136 181 229 272 330 404
#     4  12  27  45  66  99 146 185 227 279 345 413
#     4  12  25  40  61  95 136 181 229 272 330 404
#     4  10  22  42  72 104 130 166 226 296 344 396
#     4  11  25  45  73 100 135 175 234 286 347 403
#
# _framework density 22.224625
#
# number of rings (size 3 to 8) (size 9 to 14) (size 15 to 20)
#    0.000    0.500    5.000    3.000    3.500    0.000 
#    0.000    1.250    0.000    0.000    0.000    0.000 
#    0.000    0.000    0.000    0.000    0.000    0.000 
#
# Total GULP energy -178378.892382 kJ/mol
# GULP energy per Si atom -5574.340387 kJ/mol
# Density = 2.217404 g / cm^3
# Si number density = 22.224625 Si / 1000 Ang^3
#
#
#
# Elastic Constant Matrix: (Units=GPa)
#
#
# Indices 1 2 3 4 5 6 
#
# 1 135.3456 29.5436 23.3938 0.0000 0.0000 0.0000
# 2 29.5436 53.5824 2.2788 0.0000 0.0000 0.0000
# 3 23.3938 2.2788 92.0655 0.0000 0.0000 0.0000
# 4 0.0000 0.0000 0.0000 14.5081 0.0000 0.0000
# 5 0.0000 0.0000 0.0000 0.0000 6.1225 0.0000
# 6 0.0000 0.0000 0.0000 0.0000 0.0000 49.1271
#
#
#
# Elastic Compliance Matrix: (Units=1/GPa)
#
#
# Indices 1 2 3 4 5 6 
#
# 1 0.008793 -0.004758 -0.002117 0.000000 0.000000 0.000000
# 2 -0.004758 0.021257 0.000683 0.000000 0.000000 0.000000
# 3 -0.002117 0.000683 0.011383 0.000000 0.000000 0.000000
# 4 0.000000 0.000000 0.000000 0.068927 0.000000 0.000000
# 5 0.000000 0.000000 0.000000 0.000000 0.163331 0.000000
# 6 0.000000 0.000000 0.000000 0.000000 0.000000 0.020355
#
#
# Mechanical properties :
#
#
# Convention : Reuss Voigt Hill
#
# Bulk Modulus (GPa) = 34.42409 43.49176 38.95792
# Shear Modulus (GPa) = 15.81713 29.00338 22.41026
#
# Velocity S-wave (km/s) = 2.67065 3.61641 3.17890
# Velocity P-wave (km/s) = 5.00326 6.08684 5.57146
#
# Compressibility (1/GPa) = 0.02904942
#
# Stress axis : x y z
#
# Youngs Moduli (GPa) = 113.72764 47.04275 87.85240
#
# Poissons Ratio (x) = 0.22384 0.18594
# Poissons Ratio (y) = 0.54113 -0.05999
# Poissons Ratio (z) = 0.24071 -0.03212
#
# Static dielectric constant tensor:
#      x y z
#    x 1.968300 0.000000 0.000000 
#    y 0.000000 1.828440 0.000000 
#    z 0.000000 0.000000 1.801420 
# 
# From -- ./inp_files/7585.got.cif
#   From: 2010.05.17/outbox.cif.g08.bks.cpg/sg19_4_cif.got.tgz:7585.got - 2010.06.03 22:46:19.
