data_PCOD9314907
_publ_section_title
;
Structure prediction by ZEFSAII (Michael W. Deem and Ramdas Pophale) SiO2 
 PCOD9314907
Probable space group: P 21 21 21
;
_chemical_formula_sum "Si O2"
_cell_formula_units_Z 32
_cell_length_a 9.711586
_cell_length_b 11.170969
_cell_length_c 12.253915
_cell_angle_alpha 90.000000
_cell_angle_beta 90.000000
_cell_angle_gamma 90.000000
_cell_volume 1329.400600
_symmetry_space_group_name_H-M "P 21 21 21"
_symmetry_group_IT_number 19
_symmetry_cell_setting 'orthorhombic'
loop_
_space_group_symop_operation_xyz
x,y,z
1/2-x,-y,1/2+z
1/2+x,1/2-y,-z
-x,1/2+y,1/2-z
loop_
_atom_site_type_symbol
_atom_site_label
_atom_site_fract_x
_atom_site_fract_y
_atom_site_fract_z
Si Si1 0.087805 0.454230 0.888551
Si Si2 0.948888 0.846304 0.389166
Si Si3 0.255385 0.905238 0.394335
Si Si4 0.646863 0.614492 0.233146
Si Si5 0.981488 0.723682 0.919794
Si Si6 0.019769 0.321731 0.341600
Si Si7 0.249999 0.308991 0.747414
Si Si8 0.394542 0.916976 0.616261
O O1 0.962871 0.379154 0.831354
O O2 0.026610 0.586488 0.906663
O O3 0.208488 0.437342 0.797683
O O4 0.127301 0.406166 0.009055
O O5 0.091959 0.918974 0.379458
O O6 0.888877 0.844958 0.266870
O O7 0.975299 0.704871 0.414818
O O8 0.279688 0.772324 0.353096
O O9 0.289542 0.933308 0.517156
O O10 0.356174 0.983965 0.320975
O O11 0.607615 0.703106 0.135708
O O12 0.800146 0.614702 0.280326
O O13 0.852211 0.765111 0.847049
O O14 0.944056 0.761950 0.043149
O O15 0.899114 0.231601 0.296040
O O16 0.968060 0.456493 0.369445
#
# Coordination Sequence:
#
# PCOD9314907 Si02
#       8
#     4   4   4   4   4   4   4   4
#     4  11  22  42  66  99 133 174 218 278 329 387
#     4  11  25  37  66  98 128 169 215 276 329 389
#     4  11  20  42  66  94 128 170 222 265 327 394
#     4  11  22  41  72  93 125 177 227 261 325 409
#     4  11  24  40  70  99 127 176 228 265 330 400
#     4  11  25  43  65  98 133 177 218 276 331 392
#     4  10  22  44  66  92 133 175 213 275 329 386
#     4  12  22  41  67  95 129 170 227 270 324 399
#
# _framework density 24.071000999999999
#
# number of rings (size 3 to 8) (size 9 to 14) (size 15 to 20)
#    0.000    1.000    7.500    0.000    1.750    1.000 
#    2.250    2.500    0.000    0.000    0.000    0.000 
#    0.000    0.000    0.000    0.000    0.000    0.000 
#
# Total GULP energy -178458.840641 kJ/mol
# GULP energy per Si atom -5576.838770 kJ/mol
# Density = 2.401621 g / cm^3
# Si number density = 24.071001 Si / 1000 Ang^3
#
#
#
# Elastic Constant Matrix: (Units=GPa)
#
#
# Indices 1 2 3 4 5 6 
#
# 1 34.2736 21.9464 13.8758 0.0000 0.0000 0.0000
# 2 21.9464 74.8783 33.4048 0.0000 0.0000 0.0000
# 3 13.8758 33.4048 124.9041 0.0000 0.0000 0.0000
# 4 0.0000 0.0000 0.0000 35.1252 0.0000 0.0000
# 5 0.0000 0.0000 0.0000 0.0000 22.0241 0.0000
# 6 0.0000 0.0000 0.0000 0.0000 0.0000 23.4206
#
#
#
# Elastic Compliance Matrix: (Units=1/GPa)
#
#
# Indices 1 2 3 4 5 6 
#
# 1 0.036115 -0.009987 -0.001341 0.000000 0.000000 0.000000
# 2 -0.009987 0.017926 -0.003685 0.000000 0.000000 0.000000
# 3 -0.001341 -0.003685 0.009141 0.000000 0.000000 0.000000
# 4 0.000000 0.000000 0.000000 0.028470 0.000000 0.000000
# 5 0.000000 0.000000 0.000000 0.000000 0.045405 0.000000
# 6 0.000000 0.000000 0.000000 0.000000 0.000000 0.042697
#
#
# Mechanical properties :
#
#
# Convention : Reuss Voigt Hill
#
# Bulk Modulus (GPa) = 30.16041 41.38998 35.77520
# Shear Modulus (GPa) = 22.64182 27.10258 24.87220
#
# Velocity S-wave (km/s) = 3.07029 3.35915 3.21796
# Velocity P-wave (km/s) = 5.01257 5.68132 5.35739
#
# Compressibility (1/GPa) = 0.03315605
#
# Stress axis : x y z
#
# Youngs Moduli (GPa) = 27.68953 55.78524 109.40210
#
# Poissons Ratio (x) = 0.55711 0.14672
# Poissons Ratio (y) = 0.27653 0.40312
# Poissons Ratio (z) = 0.03714 0.20555
#
# Static dielectric constant tensor:
#      x y z
#    x 1.993480 0.000000 0.000000 
#    y 0.000000 1.966780 0.000000 
#    z 0.000000 0.000000 1.930090 
# 
# From -- ./inp_files/5056.got.cif
#   From: 2010.05.17/outbox.cif.g08.bks.cpg/sg19_3_cif.got.tgz:5056.got - 2010.06.03 22:46:19.
