data_PCOD9314125
_publ_section_title
;
Structure prediction by ZEFSAII (Michael W. Deem and Ramdas Pophale) SiO2 
 PCOD9314125
Probable space group: P 21 21 21
;
_chemical_formula_sum "Si O2"
_cell_formula_units_Z 32
_cell_length_a 14.146232
_cell_length_b 9.321867
_cell_length_c 12.680076
_cell_angle_alpha 90.000000
_cell_angle_beta 90.000000
_cell_angle_gamma 90.000000
_cell_volume 1672.112661
_symmetry_space_group_name_H-M "P 21 21 21"
_symmetry_group_IT_number 19
_symmetry_cell_setting 'orthorhombic'
loop_
_space_group_symop_operation_xyz
x,y,z
1/2-x,-y,1/2+z
1/2+x,1/2-y,-z
-x,1/2+y,1/2-z
loop_
_atom_site_type_symbol
_atom_site_label
_atom_site_fract_x
_atom_site_fract_y
_atom_site_fract_z
Si Si1 0.546744 0.797657 0.944202
Si Si2 0.178040 0.424058 0.564606
Si Si3 0.770768 0.352797 0.368063
Si Si4 0.507939 0.672181 0.170730
Si Si5 0.428908 0.556292 0.870498
Si Si6 0.116193 0.110650 0.049740
Si Si7 0.369998 0.567934 0.630959
Si Si8 0.613695 0.399973 0.202681
O O1 0.629991 0.732187 0.870598
O O2 0.454570 0.722380 0.896964
O O3 0.561600 0.966656 0.939311
O O4 0.552492 0.741408 0.064482
O O5 0.207107 0.255652 0.562803
O O6 0.080562 0.424638 0.629728
O O7 0.156453 0.481497 0.448465
O O8 0.263384 0.510850 0.615581
O O9 0.797994 0.506270 0.415569
O O10 0.713775 0.368957 0.259391
O O11 0.581293 0.563664 0.223274
O O12 0.462419 0.792525 0.244745
O O13 0.520024 0.463943 0.906564
O O14 0.403331 0.543121 0.749977
O O15 0.124204 0.267694 0.098142
O O16 0.115153 0.118158 0.923053
#
# Coordination Sequence:
#
# PCOD9314125 Si02
#       8
#     4   4   4   4   4   4   4   4
#     4   9  19  42  60  83 129 165 202 247 323 381
#     4   9  20  40  58  87 123 166 210 246 322 376
#     4   9  20  39  61  87 120 167 197 253 318 365
#     4  10  21  40  65  86 125 170 203 265 311 376
#     4  10  20  43  64  82 126 173 200 259 318 375
#     4  11  23  42  61  98 131 150 218 269 298 377
#     4  11  23  35  64  96 119 165 211 258 313 376
#     4  11  22  39  67  91 123 164 213 259 315 368
#
# _framework density 19.137467000000001
#
# number of rings (size 3 to 8) (size 9 to 14) (size 15 to 20)
#    0.000    2.000    3.750    0.750    1.750    5.000 
#    2.250    3.750    0.000    0.000    0.000    0.000 
#    0.000    0.000    0.000    0.000    0.000    0.000 
#
# Total GULP energy -178346.213549 kJ/mol
# GULP energy per Si atom -5573.319173 kJ/mol
# Density = 1.909391 g / cm^3
# Si number density = 19.137467 Si / 1000 Ang^3
#
#
#
# Elastic Constant Matrix: (Units=GPa)
#
#
# Indices 1 2 3 4 5 6 
#
# 1 76.9508 30.3389 53.5531 0.0000 0.0000 0.0000
# 2 30.3389 113.2144 48.5937 0.0000 0.0000 0.0000
# 3 53.5531 48.5937 122.8357 0.0000 0.0000 0.0000
# 4 0.0000 0.0000 0.0000 22.7681 0.0000 0.0000
# 5 0.0000 0.0000 0.0000 0.0000 33.5657 0.0000
# 6 0.0000 0.0000 0.0000 0.0000 0.0000 26.5983
#
#
#
# Elastic Compliance Matrix: (Units=1/GPa)
#
#
# Indices 1 2 3 4 5 6 
#
# 1 0.018971 -0.001848 -0.007540 0.000000 0.000000 0.000000
# 2 -0.001848 0.010819 -0.003475 0.000000 0.000000 0.000000
# 3 -0.007540 -0.003475 0.012803 0.000000 0.000000 0.000000
# 4 0.000000 0.000000 0.000000 0.043921 0.000000 0.000000
# 5 0.000000 0.000000 0.000000 0.000000 0.029792 0.000000
# 6 0.000000 0.000000 0.000000 0.000000 0.000000 0.037596
#
#
# Mechanical properties :
#
#
# Convention : Reuss Voigt Hill
#
# Bulk Modulus (GPa) = 59.28098 64.21916 61.75007
# Shear Modulus (GPa) = 26.99052 28.62076 27.80564
#
# Velocity S-wave (km/s) = 3.75954 3.87141 3.81588
# Velocity P-wave (km/s) = 7.06322 7.32212 7.19383
#
# Compressibility (1/GPa) = 0.01686882
#
# Stress axis : x y z
#
# Youngs Moduli (GPa) = 52.71163 92.42770 78.10808
#
# Poissons Ratio (x) = 0.17076 0.58894
# Poissons Ratio (y) = 0.09739 0.27140
# Poissons Ratio (z) = 0.39745 0.32115
#
# Static dielectric constant tensor:
#      x y z
#    x 1.716780 0.000000 0.000000 
#    y 0.000000 1.696480 0.000000 
#    z 0.000000 0.000000 1.651370 
# 
# From -- ./inp_files/4729.got.cif
#   From: 2010.05.17/outbox.cif.g08.bks.cpg/sg19_3_cif.got.tgz:4729.got - 2010.06.03 22:46:19.
