data_PCOD9314019
_publ_section_title
;
Structure prediction by ZEFSAII (Michael W. Deem and Ramdas Pophale) SiO2 
 PCOD9314019
Probable space group: P 21 21 21
;
_chemical_formula_sum "Si O2"
_cell_formula_units_Z 20
_cell_length_a 9.059645
_cell_length_b 12.060706
_cell_length_c 8.107960
_cell_angle_alpha 90.000000
_cell_angle_beta 90.000000
_cell_angle_gamma 90.000000
_cell_volume 885.922045
_symmetry_space_group_name_H-M "P 21 21 21"
_symmetry_group_IT_number 19
_symmetry_cell_setting 'orthorhombic'
loop_
_space_group_symop_operation_xyz
x,y,z
1/2-x,-y,1/2+z
1/2+x,1/2-y,-z
-x,1/2+y,1/2-z
loop_
_atom_site_type_symbol
_atom_site_label
_atom_site_fract_x
_atom_site_fract_y
_atom_site_fract_z
Si Si1 0.434289 0.077695 0.002418
Si Si2 0.504774 0.299446 0.808317
Si Si3 0.770397 0.391358 0.653045
Si Si4 0.187209 0.528938 0.152353
Si Si5 0.024195 0.473315 0.466972
O O1 0.457539 0.195232 0.914261
O O2 0.330919 0.997540 0.892112
O O3 0.592995 0.017104 0.001652
O O4 0.363041 0.090524 0.180726
O O5 0.650469 0.296244 0.692784
O O6 0.369311 0.348855 0.701665
O O7 0.538124 0.402534 0.934631
O O8 0.892677 0.389209 0.508269
O O9 0.121179 0.455723 0.302594
O O10 0.357018 0.523319 0.112064
#
# Coordination Sequence:
#
# PCOD9314019 Si02
#       5
#     4   4   4   4   4
#     4  11  21  41  65  90 130 169 220 259 329 391
#     4   9  23  37  64  91 123 176 216 244 343 390
#     4  11  21  40  67  91 132 170 214 275 312 390
#     4   9  21  38  61  92 128 162 211 271 313 383
#     4  10  20  40  61  92 125 167 209 269 321 376
#
# _framework density 22.57535
#
# number of rings (size 3 to 8) (size 9 to 14) (size 15 to 20)
#    1.200    0.800    2.000    1.200    2.800    0.000 
#    0.000    6.000    8.800    0.000    0.000    0.000 
#    0.000    0.000    0.000    0.000    0.000    0.000 
#
# Total GULP energy -111482.231966 kJ/mol
# GULP energy per Si atom -5574.111598 kJ/mol
# Density = 2.252397 g / cm^3
# Si number density = 22.575350 Si / 1000 Ang^3
#
#
#
# Elastic Constant Matrix: (Units=GPa)
#
#
# Indices 1 2 3 4 5 6 
#
# 1 105.0094 17.0375 16.1742 0.0000 0.0000 0.0000
# 2 17.0375 58.6200 4.7022 0.0000 0.0000 0.0000
# 3 16.1742 4.7022 68.7053 0.0000 0.0000 0.0000
# 4 0.0000 0.0000 0.0000 7.6315 0.0000 0.0000
# 5 0.0000 0.0000 0.0000 0.0000 45.2501 0.0000
# 6 0.0000 0.0000 0.0000 0.0000 0.0000 3.2139
#
#
#
# Elastic Compliance Matrix: (Units=1/GPa)
#
#
# Indices 1 2 3 4 5 6 
#
# 1 0.010325 -0.002822 -0.002238 0.000000 0.000000 0.000000
# 2 -0.002822 0.017924 -0.000562 0.000000 0.000000 0.000000
# 3 -0.002238 -0.000562 0.015120 0.000000 0.000000 0.000000
# 4 0.000000 0.000000 0.000000 0.131036 0.000000 0.000000
# 5 0.000000 0.000000 0.000000 0.000000 0.022099 0.000000
# 6 0.000000 0.000000 0.000000 0.000000 0.000000 0.311152
#
#
# Mechanical properties :
#
#
# Convention : Reuss Voigt Hill
#
# Bulk Modulus (GPa) = 31.12696 34.24025 32.68361
# Shear Modulus (GPa) = 9.44094 24.18047 16.81071
#
# Velocity S-wave (km/s) = 2.04720 3.27632 2.73179
# Velocity P-wave (km/s) = 4.40523 5.43253 4.94562
#
# Compressibility (1/GPa) = 0.03212649
#
# Stress axis : x y z
#
# Youngs Moduli (GPa) = 96.84855 55.79046 66.13674
#
# Poissons Ratio (x) = 0.15741 0.14799
# Poissons Ratio (y) = 0.27326 0.03720
# Poissons Ratio (z) = 0.21671 0.03138
#
# Static dielectric constant tensor:
#      x y z
#    x 1.854120 0.000000 0.000000 
#    y 0.000000 1.850480 0.000000 
#    z 0.000000 0.000000 1.911580 
# 
# From -- ./inp_files/2620.got.cif
#   From: 2010.05.17/outbox.cif.g08.bks.cpg/sg19_2_cif.got.tgz:2620.got - 2010.06.03 22:46:19.
