data_PCOD9314693
_publ_section_title
;
Structure prediction by ZEFSAII (Michael W. Deem and Ramdas Pophale) SiO2 
 PCOD9314693
Probable space group: P 21 21 21
;
_chemical_formula_sum "Si O2"
_cell_formula_units_Z 28
_cell_length_a 9.921327
_cell_length_b 17.624786
_cell_length_c 5.786069
_cell_angle_alpha 90.000000
_cell_angle_beta 90.000000
_cell_angle_gamma 90.000000
_cell_volume 1011.759346
_symmetry_space_group_name_H-M "P 21 21 21"
_symmetry_group_IT_number 19
_symmetry_cell_setting 'orthorhombic'
loop_
_space_group_symop_operation_xyz
x,y,z
1/2-x,-y,1/2+z
1/2+x,1/2-y,-z
-x,1/2+y,1/2-z
loop_
_atom_site_type_symbol
_atom_site_label
_atom_site_fract_x
_atom_site_fract_y
_atom_site_fract_z
Si Si1 0.948934 0.966244 0.784237
Si Si2 0.520619 0.209244 0.223946
Si Si3 0.625012 0.436188 0.929380
Si Si4 0.721611 0.792441 0.428641
Si Si5 0.878518 0.683896 0.084993
Si Si6 0.865058 0.928509 0.284779
Si Si7 0.662178 0.605121 0.750111
O O1 0.007128 0.879159 0.780791
O O2 0.865618 0.964350 0.028322
O O3 0.048811 0.035260 0.841317
O O4 0.892402 0.973649 0.524689
O O5 0.496471 0.122494 0.774178
O O6 0.516636 0.268294 0.435281
O O7 0.677671 0.208337 0.146446
O O8 0.757014 0.392186 0.011077
O O9 0.555730 0.380666 0.747218
O O10 0.657731 0.515345 0.808569
O O11 0.798800 0.743710 0.238233
O O12 0.578344 0.752441 0.454629
O O13 0.733755 0.878066 0.333475
O O14 0.760763 0.645707 0.929308
#
# Coordination Sequence:
#
# PCOD9314693 Si02
#       7
#     4   4   4   4   4   4   4
#     4  10  22  42  66 104 146 199 247 315 391 455
#     4  11  26  45  71 110 161 204 262 324 401 473
#     4  11  22  37  66 107 147 189 248 329 385 450
#     4  11  25  45  69 106 152 205 255 322 387 470
#     4  12  25  40  68 109 158 190 256 328 395 465
#     4  10  22  40  67 101 143 196 250 303 380 463
#     4  11  22  37  65 107 143 187 246 319 387 450
#
# _framework density 27.674567
#
# number of rings (size 3 to 8) (size 9 to 14) (size 15 to 20)
#    0.000    1.143    2.857    3.429   12.000    0.000 
#    0.000    0.000    0.000    0.000   29.714    0.000 
#    0.000    0.000    0.000    0.000    0.000    0.000 
#
# Total GULP energy -156566.646663 kJ/mol
# GULP energy per Si atom -5591.665952 kJ/mol
# Density = 2.761158 g / cm^3
# Si number density = 27.674567 Si / 1000 Ang^3
#
#
#
# Elastic Constant Matrix: (Units=GPa)
#
#
# Indices 1 2 3 4 5 6 
#
# 1 106.6555 56.6976 26.4162 0.0000 0.0000 0.0000
# 2 56.6976 102.9773 43.9545 0.0000 0.0000 0.0000
# 3 26.4162 43.9545 149.1961 0.0000 0.0000 0.0000
# 4 0.0000 0.0000 0.0000 42.3431 0.0000 0.0000
# 5 0.0000 0.0000 0.0000 0.0000 -25.5264 0.0000
# 6 0.0000 0.0000 0.0000 0.0000 0.0000 48.7643
#
#
#
# Elastic Compliance Matrix: (Units=1/GPa)
#
#
# Indices 1 2 3 4 5 6 
#
# 1 0.013262 -0.007206 -0.000225 0.000000 0.000000 0.000000
# 2 -0.007206 0.015023 -0.003150 0.000000 0.000000 0.000000
# 3 -0.000225 -0.003150 0.007671 0.000000 0.000000 0.000000
# 4 0.000000 0.000000 0.000000 0.023617 0.000000 0.000000
# 5 0.000000 0.000000 0.000000 0.000000 -0.039175 0.000000
# 6 0.000000 0.000000 0.000000 0.000000 0.000000 0.020507
#
#
# Mechanical properties :
#
#
# Convention : Reuss Voigt Hill
#
# Bulk Modulus (GPa) = 67.59780 68.10728 67.85254
# Shear Modulus (GPa) = 74.62952 28.56691 51.59822
#
# Velocity S-wave (km/s) = 5.19859 3.21634 4.32263
# Velocity P-wave (km/s) = 7.77900 6.20134 7.03454
#
# Compressibility (1/GPa) = 0.01479338
#
# Stress axis : x y z
#
# Youngs Moduli (GPa) = 75.40108 66.56517 130.36960
#
# Poissons Ratio (x) = 0.47966 0.02937
# Poissons Ratio (y) = 0.54333 0.41067
# Poissons Ratio (z) = 0.01699 0.20968
#
# Static dielectric constant tensor:
#      x y z
#    x 2.236240 0.000000 0.000000 
#    y 0.000000 2.136460 0.000000 
#    z 0.000000 0.000000 2.213570 
# 
# From -- ./inp_files/1852.got.cif
#   From: 2010.05.17/outbox.cif.g08.bks.cpg/sg19_1_cif.got.tgz:1852.got - 2010.06.03 22:46:19.
