data_PCOD9314789
_publ_section_title
;
Structure prediction by ZEFSAII (Michael W. Deem and Ramdas Pophale) SiO2 
 PCOD9314789
Probable space group: P 21 21 21
;
_chemical_formula_sum "Si O2"
_cell_formula_units_Z 20
_cell_length_a 9.586884
_cell_length_b 18.210138
_cell_length_c 4.847810
_cell_angle_alpha 90.000000
_cell_angle_beta 90.000000
_cell_angle_gamma 90.000000
_cell_volume 846.323304
_symmetry_space_group_name_H-M "P 21 21 21"
_symmetry_group_IT_number 19
_symmetry_cell_setting 'orthorhombic'
loop_
_space_group_symop_operation_xyz
x,y,z
1/2-x,-y,1/2+z
1/2+x,1/2-y,-z
-x,1/2+y,1/2-z
loop_
_atom_site_type_symbol
_atom_site_label
_atom_site_fract_x
_atom_site_fract_y
_atom_site_fract_z
Si Si1 0.435920 0.081527 0.287941
Si Si2 0.446553 0.235711 0.503468
Si Si3 0.770229 0.378148 0.242573
Si Si4 0.984587 0.165967 0.009905
Si Si5 0.832600 0.022251 0.015445
O O1 0.506045 0.158165 0.393434
O O2 0.298094 0.074846 0.482739
O O3 0.541129 0.017530 0.356864
O O4 0.382267 0.094361 0.981240
O O5 0.309757 0.204826 0.661395
O O6 0.422694 0.285541 0.238021
O O7 0.525498 0.282626 0.733640
O O8 0.619889 0.374289 0.112039
O O9 0.876605 0.103780 0.100649
O O10 0.710697 0.021585 0.788202
#
# Coordination Sequence:
#
# PCOD9314789 Si02
#       5
#     4   4   4   4   4
#     4  10  22  46  64  96 134 179 220 271 348 385
#     4  10  22  42  63 103 131 174 214 285 330 388
#     4  10  22  42  67  97 125 177 225 271 342 377
#     4  12  24  42  70 102 130 173 236 271 332 411
#     4  12  28  46  66 102 138 185 221 276 350 403
#
# _framework density 23.631629
#
# number of rings (size 3 to 8) (size 9 to 14) (size 15 to 20)
#    1.200    0.000    2.000    3.600    0.000    6.400 
#    0.000    0.000    0.000    0.000    0.000    0.000 
#    0.000    0.000    0.000    0.000    0.000    0.000 
#
# Total GULP energy -111744.070744 kJ/mol
# GULP energy per Si atom -5587.203537 kJ/mol
# Density = 2.357784 g / cm^3
# Si number density = 23.631629 Si / 1000 Ang^3
#
#
#
# Elastic Constant Matrix: (Units=GPa)
#
#
# Indices 1 2 3 4 5 6 
#
# 1 40.1200 17.9427 2.2178 0.0000 0.0000 0.0000
# 2 17.9427 84.6886 7.1998 0.0000 0.0000 0.0000
# 3 2.2178 7.1998 92.9579 0.0000 0.0000 0.0000
# 4 0.0000 0.0000 0.0000 15.7368 0.0000 0.0000
# 5 0.0000 0.0000 0.0000 0.0000 25.3027 0.0000
# 6 0.0000 0.0000 0.0000 0.0000 0.0000 23.1382
#
#
#
# Elastic Compliance Matrix: (Units=1/GPa)
#
#
# Indices 1 2 3 4 5 6 
#
# 1 0.027538 -0.005817 -0.000206 0.000000 0.000000 0.000000
# 2 -0.005817 0.013115 -0.000877 0.000000 0.000000 0.000000
# 3 -0.000206 -0.000877 0.010830 0.000000 0.000000 0.000000
# 4 0.000000 0.000000 0.000000 0.063545 0.000000 0.000000
# 5 0.000000 0.000000 0.000000 0.000000 0.039521 0.000000
# 6 0.000000 0.000000 0.000000 0.000000 0.000000 0.043219
#
#
# Mechanical properties :
#
#
# Convention : Reuss Voigt Hill
#
# Bulk Modulus (GPa) = 26.53736 30.27636 28.40686
# Shear Modulus (GPa) = 22.30843 25.52928 23.91886
#
# Velocity S-wave (km/s) = 3.07580 3.29036 3.18489
# Velocity P-wave (km/s) = 4.88549 5.22254 5.05683
#
# Compressibility (1/GPa) = 0.03768273
#
# Stress axis : x y z
#
# Youngs Moduli (GPa) = 36.31333 76.24901 92.33263
#
# Poissons Ratio (x) = 0.44353 0.01907
# Poissons Ratio (y) = 0.21123 0.08098
# Poissons Ratio (z) = 0.00750 0.06687
#
# Static dielectric constant tensor:
#      x y z
#    x 1.928260 0.000000 0.000000 
#    y 0.000000 1.910000 0.000000 
#    z 0.000000 0.000000 1.853930 
# 
# From -- ./inp_files/390.got.cif
#   From: 2010.05.17/outbox.cif.g08.bks.cpg/sg19_1_cif.got.tgz:390.got - 2010.06.03 22:46:19.
