data_PCOD9314990
_publ_section_title
;
Structure prediction by ZEFSAII (Michael W. Deem and Ramdas Pophale) SiO2 
 PCOD9314990
Probable space group: P 21 21 21
;
_chemical_formula_sum "Si O2"
_cell_formula_units_Z 28
_cell_length_a 23.197570
_cell_length_b 5.252450
_cell_length_c 8.407624
_cell_angle_alpha 90.000000
_cell_angle_beta 90.000000
_cell_angle_gamma 90.000000
_cell_volume 1024.419182
_symmetry_space_group_name_H-M "P 21 21 21"
_symmetry_group_IT_number 19
_symmetry_cell_setting 'orthorhombic'
loop_
_space_group_symop_operation_xyz
x,y,z
1/2-x,-y,1/2+z
1/2+x,1/2-y,-z
-x,1/2+y,1/2-z
loop_
_atom_site_type_symbol
_atom_site_label
_atom_site_fract_x
_atom_site_fract_y
_atom_site_fract_z
Si Si1 0.367656 0.608230 0.811919
Si Si2 0.747167 0.425420 0.660223
Si Si3 0.516618 0.610142 0.343832
Si Si4 0.765625 0.195058 0.951142
Si Si5 0.474133 0.823321 0.680327
Si Si6 0.880903 0.066956 0.839386
Si Si7 0.153590 0.622422 0.996040
O O1 0.301819 0.705577 0.843455
O O2 0.406858 0.821233 0.726544
O O3 0.372953 0.390545 0.673002
O O4 0.394323 0.557103 0.987848
O O5 0.762512 0.449266 0.844053
O O6 0.714395 0.680179 0.612344
O O7 0.808328 0.359649 0.573386
O O8 0.505244 0.322814 0.285626
O O9 0.489100 0.709233 0.507516
O O10 0.585431 0.664282 0.355564
O O11 0.811912 0.044530 0.852892
O O12 0.705117 0.076569 0.980693
O O13 0.501558 0.605451 0.794540
O O14 0.887212 0.022941 0.648656
#
# Coordination Sequence:
#
# PCOD9314990 Si02
#       7
#     4   4   4   4   4   4   4
#     4  11  24  44  75 102 139 198 239 312 382 446
#     4  10  23  38  65 100 141 185 235 294 366 443
#     4  12  28  53  80 112 153 202 261 328 389 458
#     4  10  23  39  64 104 139 186 235 298 362 447
#     4  12  27  51  77 113 154 196 262 325 383 460
#     4  11  24  45  76 100 142 199 241 307 386 451
#     4  10  23  46  63 105 148 184 243 298 364 459
#
# _framework density 27.332560000000001
#
# number of rings (size 3 to 8) (size 9 to 14) (size 15 to 20)
#    0.000    1.143    2.857    1.714    6.000    0.000 
#   15.429    0.000    0.000    0.000    0.000    0.000 
#    0.000    0.000    0.000    0.000    0.000    0.000 
#
# Total GULP energy -155906.231186 kJ/mol
# GULP energy per Si atom -5568.079685 kJ/mol
# Density = 2.727035 g / cm^3
# Si number density = 27.332560 Si / 1000 Ang^3
#
#
#
# Elastic Constant Matrix: (Units=GPa)
#
#
# Indices 1 2 3 4 5 6 
#
# 1 91.6277 4.5714 20.0429 0.0000 0.0000 0.0000
# 2 4.5714 58.7986 23.3366 0.0000 0.0000 0.0000
# 3 20.0429 23.3366 58.7770 0.0000 0.0000 0.0000
# 4 0.0000 0.0000 0.0000 35.0774 0.0000 0.0000
# 5 0.0000 0.0000 0.0000 0.0000 31.1107 0.0000
# 6 0.0000 0.0000 0.0000 0.0000 0.0000 30.8590
#
#
#
# Elastic Compliance Matrix: (Units=1/GPa)
#
#
# Indices 1 2 3 4 5 6 
#
# 1 0.011826 0.000808 -0.004354 0.000000 0.000000 0.000000
# 2 0.000808 0.020244 -0.008313 0.000000 0.000000 0.000000
# 3 -0.004354 -0.008313 0.021799 0.000000 0.000000 0.000000
# 4 0.000000 0.000000 0.000000 0.028508 0.000000 0.000000
# 5 0.000000 0.000000 0.000000 0.000000 0.032143 0.000000
# 6 0.000000 0.000000 0.000000 0.000000 0.000000 0.032405
#
#
# Mechanical properties :
#
#
# Convention : Reuss Voigt Hill
#
# Bulk Modulus (GPa) = 33.16575 33.90056 33.53315
# Shear Modulus (GPa) = 27.67135 30.15957 28.91546
#
# Velocity S-wave (km/s) = 3.18527 3.32540 3.25609
# Velocity P-wave (km/s) = 5.06837 5.21289 5.14114
#
# Compressibility (1/GPa) = 0.03015159
#
# Stress axis : x y z
#
# Youngs Moduli (GPa) = 84.56160 49.39793 45.87441
#
# Poissons Ratio (x) = -0.03994 0.19972
# Poissons Ratio (y) = -0.06837 0.38136
# Poissons Ratio (z) = 0.36814 0.41065
#
# Static dielectric constant tensor:
#      x y z
#    x 2.171600 0.000000 0.000000 
#    y 0.000000 2.195420 0.000000 
#    z 0.000000 0.000000 2.250230 
# 
# From -- ./inp_files/4364.got.cif
#   From: 2010.05.17/outbox.cif.g08.bks.cpg/sg19_3_cif.got.tgz:4364.got - 2010.06.03 22:46:19.
