data_PCOD9314608
_publ_section_title
;
Structure prediction by ZEFSAII (Michael W. Deem and Ramdas Pophale) SiO2 
 PCOD9314608
Probable space group: P 21 21 21
;
_chemical_formula_sum "Si O2"
_cell_formula_units_Z 28
_cell_length_a 12.648076
_cell_length_b 19.356361
_cell_length_c 5.196637
_cell_angle_alpha 90.000000
_cell_angle_beta 90.000000
_cell_angle_gamma 90.000000
_cell_volume 1272.244438
_symmetry_space_group_name_H-M "P 21 21 21"
_symmetry_group_IT_number 19
_symmetry_cell_setting 'orthorhombic'
loop_
_space_group_symop_operation_xyz
x,y,z
1/2-x,-y,1/2+z
1/2+x,1/2-y,-z
-x,1/2+y,1/2-z
loop_
_atom_site_type_symbol
_atom_site_label
_atom_site_fract_x
_atom_site_fract_y
_atom_site_fract_z
Si Si1 0.030472 0.645992 0.333255
Si Si2 0.348953 0.382311 0.353768
Si Si3 0.640990 0.591936 0.611070
Si Si4 0.011335 0.298270 0.050501
Si Si5 0.112755 0.364099 0.546398
Si Si6 0.361716 0.963097 0.551489
Si Si7 0.026582 0.490646 0.817230
O O1 0.117609 0.625400 0.553611
O O2 0.982774 0.715982 0.445632
O O3 0.942996 0.585817 0.293245
O O4 0.079795 0.660771 0.054027
O O5 0.231253 0.366764 0.440931
O O6 0.380988 0.461367 0.418760
O O7 0.610344 0.671903 0.559773
O O8 0.747973 0.572396 0.462684
O O9 0.654677 0.543426 0.865396
O O10 0.531101 0.559262 0.512568
O O11 0.050455 0.325796 0.323870
O O12 0.083207 0.326091 0.814604
O O13 0.073086 0.442327 0.593584
O O14 0.427479 0.965196 0.286976
#
# Coordination Sequence:
#
# PCOD9314608 Si02
#       7
#     4   4   4   4   4   4   4
#     4  11  25  45  66  98 138 181 225 288 340 412
#     4  11  24  42  68  96 135 176 227 274 342 409
#     4  11  21  38  65  95 128 173 225 280 339 402
#     4  11  25  45  66  98 138 181 225 288 340 412
#     4  11  24  42  68  96 135 176 227 274 342 409
#     4  11  21  38  65  95 128 173 225 280 339 402
#     4  10  22  38  62  96 130 170 216 284 338 396
#
# _framework density 22.008348000000002
#
# number of rings (size 3 to 8) (size 9 to 14) (size 15 to 20)
#    0.000    1.143    4.286    1.714    0.000    6.857 
#    0.000    1.429    0.000    0.000    0.000    0.000 
#    0.000    0.000    0.000    0.000    0.000    0.000 
#
# Total GULP energy -155921.326491 kJ/mol
# GULP energy per Si atom -5568.618803 kJ/mol
# Density = 2.195826 g / cm^3
# Si number density = 22.008348 Si / 1000 Ang^3
#
#
#
# Elastic Constant Matrix: (Units=GPa)
#
#
# Indices 1 2 3 4 5 6 
#
# 1 49.7237 7.1136 2.8621 0.0000 0.0000 0.0000
# 2 7.1136 46.1508 -0.7772 0.0000 0.0000 0.0000
# 3 2.8621 -0.7772 75.3703 0.0000 0.0000 0.0000
# 4 0.0000 0.0000 0.0000 29.7421 0.0000 0.0000
# 5 0.0000 0.0000 0.0000 0.0000 19.2953 0.0000
# 6 0.0000 0.0000 0.0000 0.0000 0.0000 11.3863
#
#
#
# Elastic Compliance Matrix: (Units=1/GPa)
#
#
# Indices 1 2 3 4 5 6 
#
# 1 0.020615 -0.003191 -0.000816 0.000000 0.000000 0.000000
# 2 -0.003191 0.022166 0.000350 0.000000 0.000000 0.000000
# 3 -0.000816 0.000350 0.013302 0.000000 0.000000 0.000000
# 4 0.000000 0.000000 0.000000 0.033622 0.000000 0.000000
# 5 0.000000 0.000000 0.000000 0.000000 0.051826 0.000000
# 6 0.000000 0.000000 0.000000 0.000000 0.000000 0.087825
#
#
# Mechanical properties :
#
#
# Convention : Reuss Voigt Hill
#
# Bulk Modulus (GPa) = 20.50504 21.07131 20.78817
# Shear Modulus (GPa) = 19.76859 22.88784 21.32821
#
# Velocity S-wave (km/s) = 3.00030 3.22834 3.11641
# Velocity P-wave (km/s) = 4.61948 4.84678 4.73449
#
# Compressibility (1/GPa) = 0.04876851
#
# Stress axis : x y z
#
# Youngs Moduli (GPa) = 48.50928 45.11436 75.17438
#
# Poissons Ratio (x) = 0.14397 0.06132
# Poissons Ratio (y) = 0.15480 -0.02629
# Poissons Ratio (z) = 0.03957 -0.01578
#
# Static dielectric constant tensor:
#      x y z
#    x 1.815150 0.000000 0.000000 
#    y 0.000000 1.955860 0.000000 
#    z 0.000000 0.000000 1.878560 
# 
# From -- ./inp_files/1142.got.cif
#   From: 2010.05.17/outbox.cif.g08.bks.cpg/sg19_1_cif.got.tgz:1142.got - 2010.06.03 22:46:19.
