data_PCOD9314630
_publ_section_title
;
Structure prediction by ZEFSAII (Michael W. Deem and Ramdas Pophale) SiO2 
 PCOD9314630
Probable space group: P 21 21 21
;
_chemical_formula_sum "Si O2"
_cell_formula_units_Z 28
_cell_length_a 8.977664
_cell_length_b 17.274794
_cell_length_c 9.129343
_cell_angle_alpha 90.000000
_cell_angle_beta 90.000000
_cell_angle_gamma 90.000000
_cell_volume 1415.845122
_symmetry_space_group_name_H-M "P 21 21 21"
_symmetry_group_IT_number 19
_symmetry_cell_setting 'orthorhombic'
loop_
_space_group_symop_operation_xyz
x,y,z
1/2-x,-y,1/2+z
1/2+x,1/2-y,-z
-x,1/2+y,1/2-z
loop_
_atom_site_type_symbol
_atom_site_label
_atom_site_fract_x
_atom_site_fract_y
_atom_site_fract_z
Si Si1 0.928664 0.531170 0.150821
Si Si2 0.868445 0.882837 0.262887
Si Si3 0.808073 0.918627 0.672901
Si Si4 0.038135 0.808937 0.510423
Si Si5 0.918489 0.131981 0.960995
Si Si6 0.710844 0.922331 0.991041
Si Si7 0.785647 0.571736 0.457938
O O1 0.830982 0.559754 0.288401
O O2 0.035084 0.461802 0.216259
O O3 0.821819 0.492636 0.028423
O O4 0.042508 0.590299 0.069790
O O5 0.715399 0.888371 0.353682
O O6 0.808032 0.869030 0.099793
O O7 0.967722 0.819557 0.348108
O O8 0.654828 0.878008 0.621299
O O9 0.938003 0.863581 0.614258
O O10 0.809090 0.999387 0.586014
O O11 0.807430 0.930783 0.844727
O O12 0.038107 0.720885 0.558604
O O13 0.200548 0.846989 0.518982
O O14 0.060449 0.077309 0.952851
#
# Coordination Sequence:
#
# PCOD9314630 Si02
#       7
#     4   4   4   4   4   4   4
#     4  11  23  36  58  95 125 152 197 259 324 359
#     4  10  22  39  62  90 116 164 207 246 303 383
#     4  11  20  37  64  90 114 169 202 252 308 378
#     4  10  22  40  60  89 118 164 215 248 306 370
#     4  11  20  39  64  83 121 170 212 246 299 381
#     4  12  19  39  63  91 123 151 216 249 315 372
#     4  11  22  36  57  94 125 150 197 268 317 351
#
# _framework density 19.776174999999999
#
# number of rings (size 3 to 8) (size 9 to 14) (size 15 to 20)
#    0.000    1.143    7.143    1.714    2.000    2.286 
#    0.000    1.429    0.000    0.000    0.000    0.000 
#    0.000    0.000    0.000    0.000    0.000    0.000 
#
# Total GULP energy -156099.008619 kJ/mol
# GULP energy per Si atom -5574.964594 kJ/mol
# Density = 1.973116 g / cm^3
# Si number density = 19.776175 Si / 1000 Ang^3
#
#
#
# Elastic Constant Matrix: (Units=GPa)
#
#
# Indices 1 2 3 4 5 6 
#
# 1 110.8693 11.7044 38.6538 0.0000 0.0000 0.0000
# 2 11.7044 37.5737 15.2460 0.0000 0.0000 0.0000
# 3 38.6538 15.2460 144.8639 0.0000 0.0000 0.0000
# 4 0.0000 0.0000 0.0000 11.6930 0.0000 0.0000
# 5 0.0000 0.0000 0.0000 0.0000 37.4405 0.0000
# 6 0.0000 0.0000 0.0000 0.0000 0.0000 23.1212
#
#
#
# Elastic Compliance Matrix: (Units=1/GPa)
#
#
# Indices 1 2 3 4 5 6 
#
# 1 0.010108 -0.002146 -0.002471 0.000000 0.000000 0.000000
# 2 -0.002146 0.028257 -0.002401 0.000000 0.000000 0.000000
# 3 -0.002471 -0.002401 0.007815 0.000000 0.000000 0.000000
# 4 0.000000 0.000000 0.000000 0.085521 0.000000 0.000000
# 5 0.000000 0.000000 0.000000 0.000000 0.026709 0.000000
# 6 0.000000 0.000000 0.000000 0.000000 0.000000 0.043250
#
#
# Mechanical properties :
#
#
# Convention : Reuss Voigt Hill
#
# Bulk Modulus (GPa) = 31.11067 47.16835 39.13951
# Shear Modulus (GPa) = 22.08364 29.63112 25.85738
#
# Velocity S-wave (km/s) = 3.34530 3.87502 3.61986
# Velocity P-wave (km/s) = 5.53958 6.62751 6.10782
#
# Compressibility (1/GPa) = 0.03214331
#
# Stress axis : x y z
#
# Youngs Moduli (GPa) = 98.93415 35.38921 127.95681
#
# Poissons Ratio (x) = 0.07594 0.31621
# Poissons Ratio (y) = 0.21230 0.30726
# Poissons Ratio (z) = 0.24449 0.08498
#
# Static dielectric constant tensor:
#      x y z
#    x 1.747080 0.000000 0.000000 
#    y 0.000000 1.696790 0.000000 
#    z 0.000000 0.000000 1.749910 
# 
# From -- ./inp_files/2991.got.cif
#   From: 2010.05.17/outbox.cif.g08.bks.cpg/sg19_2_cif.got.tgz:2991.got - 2010.06.03 22:46:19.
