data_PCOD9314827
_publ_section_title
;
Structure prediction by ZEFSAII (Michael W. Deem and Ramdas Pophale) SiO2 
 PCOD9314827
Probable space group: P 21 21 21
;
_chemical_formula_sum "Si O2"
_cell_formula_units_Z 28
_cell_length_a 7.777564
_cell_length_b 7.814719
_cell_length_c 17.289568
_cell_angle_alpha 90.000000
_cell_angle_beta 90.000000
_cell_angle_gamma 90.000000
_cell_volume 1050.850903
_symmetry_space_group_name_H-M "P 21 21 21"
_symmetry_group_IT_number 19
_symmetry_cell_setting 'orthorhombic'
loop_
_space_group_symop_operation_xyz
x,y,z
1/2-x,-y,1/2+z
1/2+x,1/2-y,-z
-x,1/2+y,1/2-z
loop_
_atom_site_type_symbol
_atom_site_label
_atom_site_fract_x
_atom_site_fract_y
_atom_site_fract_z
Si Si1 0.326944 0.975951 0.783315
Si Si2 0.076646 0.513444 0.715457
Si Si3 0.815340 0.739520 0.981307
Si Si4 0.372295 0.242085 0.667253
Si Si5 0.126652 0.582097 0.892799
Si Si6 0.324990 0.223149 0.916586
Si Si7 0.017536 0.604369 0.555344
O O1 0.357287 0.050586 0.698253
O O2 0.389581 0.133462 0.839268
O O3 0.452792 0.823238 0.802345
O O4 0.122254 0.954759 0.790761
O O5 0.215891 0.362525 0.700496
O O6 0.098750 0.589244 0.800762
O O7 0.085192 0.645444 0.642400
O O8 0.648783 0.736507 0.924692
O O9 0.950260 0.606544 0.942425
O O10 0.896456 0.924960 0.961603
O O11 0.748828 0.774473 0.068018
O O12 0.217548 0.397026 0.902224
O O13 0.186088 0.086609 0.945555
O O14 0.447810 0.265384 0.986469
#
# Coordination Sequence:
#
# PCOD9314827 Si02
#       7
#     4   4   4   4   4   4   4
#     4  11  24  44  72 105 139 183 231 289 349 419
#     4  10  22  45  69  96 134 187 224 288 343 419
#     4  10  24  44  65 100 137 183 229 294 346 414
#     4  11  24  46  69 105 142 176 236 291 348 418
#     4  11  22  44  71  92 144 178 242 280 353 423
#     4  10  22  42  67  99 132 183 227 285 350 421
#     4   9  22  39  65  95 134 172 231 283 347 404
#
# _framework density 26.645074000000001
#
# number of rings (size 3 to 8) (size 9 to 14) (size 15 to 20)
#    0.000    1.714    2.857    0.000    6.000    3.429 
#   10.286    0.000    0.000    0.000    0.000    0.000 
#    0.000    0.000    0.000    0.000    0.000    0.000 
#
# Total GULP energy -156693.180682 kJ/mol
# GULP energy per Si atom -5596.185024 kJ/mol
# Density = 2.658443 g / cm^3
# Si number density = 26.645074 Si / 1000 Ang^3
#
#
#
# Elastic Constant Matrix: (Units=GPa)
#
#
# Indices 1 2 3 4 5 6 
#
# 1 90.5542 12.7710 45.4001 0.0000 0.0000 0.0000
# 2 12.7710 57.8824 18.5908 0.0000 0.0000 0.0000
# 3 45.4001 18.5908 154.6463 0.0000 0.0000 0.0000
# 4 0.0000 0.0000 0.0000 27.6687 0.0000 0.0000
# 5 0.0000 0.0000 0.0000 0.0000 38.3196 0.0000
# 6 0.0000 0.0000 0.0000 0.0000 0.0000 49.7605
#
#
#
# Elastic Compliance Matrix: (Units=1/GPa)
#
#
# Indices 1 2 3 4 5 6 
#
# 1 0.013112 -0.001723 -0.003642 0.000000 0.000000 0.000000
# 2 -0.001723 0.018197 -0.001682 0.000000 0.000000 0.000000
# 3 -0.003642 -0.001682 0.007738 0.000000 0.000000 0.000000
# 4 0.000000 0.000000 0.000000 0.036142 0.000000 0.000000
# 5 0.000000 0.000000 0.000000 0.000000 0.026096 0.000000
# 6 0.000000 0.000000 0.000000 0.000000 0.000000 0.020096
#
#
# Mechanical properties :
#
#
# Convention : Reuss Voigt Hill
#
# Bulk Modulus (GPa) = 40.07604 50.73406 45.40505
# Shear Modulus (GPa) = 34.77225 38.23784 36.50504
#
# Velocity S-wave (km/s) = 3.61642 3.79236 3.70543
# Velocity P-wave (km/s) = 5.70187 6.18530 5.94850
#
# Compressibility (1/GPa) = 0.02495257
#
# Stress axis : x y z
#
# Youngs Moduli (GPa) = 76.26482 54.95494 129.23583
#
# Poissons Ratio (x) = 0.09470 0.47071
# Poissons Ratio (y) = 0.13142 0.21733
# Poissons Ratio (z) = 0.27778 0.09241
#
# Static dielectric constant tensor:
#      x y z
#    x 2.094580 0.000000 0.000000 
#    y 0.000000 2.108820 0.000000 
#    z 0.000000 0.000000 2.102940 
# 
# From -- ./inp_files/6572.got.cif
#   From: 2010.05.17/outbox.cif.g08.bks.cpg/sg19_4_cif.got.tgz:6572.got - 2010.06.03 22:46:19.
