data_PCOD9314925
_publ_section_title
;
Structure prediction by ZEFSAII (Michael W. Deem and Ramdas Pophale) SiO2 
 PCOD9314925
Probable space group: P 21 21 21
;
_chemical_formula_sum "Si O2"
_cell_formula_units_Z 24
_cell_length_a 11.828272
_cell_length_b 6.869200
_cell_length_c 11.980947
_cell_angle_alpha 90.000000
_cell_angle_beta 90.000000
_cell_angle_gamma 90.000000
_cell_volume 973.461121
_symmetry_space_group_name_H-M "P 21 21 21"
_symmetry_group_IT_number 19
_symmetry_cell_setting 'orthorhombic'
loop_
_space_group_symop_operation_xyz
x,y,z
1/2-x,-y,1/2+z
1/2+x,1/2-y,-z
-x,1/2+y,1/2-z
loop_
_atom_site_type_symbol
_atom_site_label
_atom_site_fract_x
_atom_site_fract_y
_atom_site_fract_z
Si Si1 0.055070 0.570231 0.906697
Si Si2 0.517868 0.863082 0.349785
Si Si3 0.075181 0.247916 0.389960
Si Si4 0.247329 0.411362 0.052394
Si Si5 0.371688 0.399891 0.757487
Si Si6 0.736018 0.422921 0.115611
O O1 0.048707 0.643959 0.780807
O O2 0.104546 0.037930 0.863342
O O3 0.984064 0.694184 0.994145
O O4 0.178887 0.539808 0.961320
O O5 0.497199 0.647572 0.399196
O O6 0.625681 0.954605 0.409704
O O7 0.984065 0.189616 0.295046
O O8 0.184255 0.109364 0.380785
O O9 0.099086 0.472237 0.364702
O O10 0.177870 0.452545 0.165525
O O11 0.243889 0.193574 0.001994
O O12 0.284362 0.231194 0.792904
#
# Coordination Sequence:
#
# PCOD9314925 Si02
#       6
#     4   4   4   4   4   4
#     4  10  24  44  73 107 145 195 247 306 383 450
#     4  11  23  45  70 104 152 190 248 313 372 445
#     4  11  23  45  71 109 147 196 258 303 380 451
#     4  10  22  44  69 102 147 188 242 309 369 443
#     4  11  24  43  74 104 149 198 251 312 372 456
#     4  11  24  43  73 106 146 203 244 315 382 439
#
# _framework density 24.654295999999999
#
# number of rings (size 3 to 8) (size 9 to 14) (size 15 to 20)
#    0.000    1.333    3.333    2.000    2.333    2.667 
#    0.000    0.000    0.000    0.000    0.000    0.000 
#    0.000    0.000    0.000    0.000    0.000    0.000 
#
# Total GULP energy -134476.293919 kJ/mol
# GULP energy per Si atom -5603.178913 kJ/mol
# Density = 2.459818 g / cm^3
# Si number density = 24.654296 Si / 1000 Ang^3
#
#
#
# Elastic Constant Matrix: (Units=GPa)
#
#
# Indices 1 2 3 4 5 6 
#
# 1 213.9730 44.2277 80.3738 0.0000 0.0000 0.0000
# 2 44.2277 50.1170 13.5700 0.0000 0.0000 0.0000
# 3 80.3738 13.5700 146.9888 0.0000 0.0000 0.0000
# 4 0.0000 0.0000 0.0000 30.5884 0.0000 0.0000
# 5 0.0000 0.0000 0.0000 0.0000 36.1760 0.0000
# 6 0.0000 0.0000 0.0000 0.0000 0.0000 33.3987
#
#
#
# Elastic Compliance Matrix: (Units=1/GPa)
#
#
# Indices 1 2 3 4 5 6 
#
# 1 0.007027 -0.005294 -0.003354 0.000000 0.000000 0.000000
# 2 -0.005294 0.024452 0.000637 0.000000 0.000000 0.000000
# 3 -0.003354 0.000637 0.008578 0.000000 0.000000 0.000000
# 4 0.000000 0.000000 0.000000 0.032692 0.000000 0.000000
# 5 0.000000 0.000000 0.000000 0.000000 0.027643 0.000000
# 6 0.000000 0.000000 0.000000 0.000000 0.000000 0.029941
#
#
# Mechanical properties :
#
#
# Convention : Reuss Voigt Hill
#
# Bulk Modulus (GPa) = 41.60190 76.38022 58.99106
# Shear Modulus (GPa) = 32.39023 38.22643 35.30833
#
# Velocity S-wave (km/s) = 3.62854 3.94191 3.78846
# Velocity P-wave (km/s) = 5.87076 7.19485 6.56627
#
# Compressibility (1/GPa) = 0.02403736
#
# Stress axis : x y z
#
# Youngs Moduli (GPa) = 142.29857 40.89590 116.57231
#
# Poissons Ratio (x) = 0.21648 0.39098
# Poissons Ratio (y) = 0.75326 -0.07427
# Poissons Ratio (z) = 0.47726 -0.02605
#
# Static dielectric constant tensor:
#      x y z
#    x 1.953170 0.000000 0.000000 
#    y 0.000000 1.942760 0.000000 
#    z 0.000000 0.000000 1.929010 
# 
# From -- ./inp_files/6225.got.cif
#   From: 2010.05.17/outbox.cif.g08.bks.cpg/sg19_4_cif.got.tgz:6225.got - 2010.06.03 22:46:19.
