data_PCOD9314029
_publ_section_title
;
Structure prediction by ZEFSAII (Michael W. Deem and Ramdas Pophale) SiO2 
 PCOD9314029
Probable space group: P 21 21 21
;
_chemical_formula_sum "Si O2"
_cell_formula_units_Z 32
_cell_length_a 15.718504
_cell_length_b 10.082722
_cell_length_c 7.863577
_cell_angle_alpha 90.000000
_cell_angle_beta 90.000000
_cell_angle_gamma 90.000000
_cell_volume 1246.261408
_symmetry_space_group_name_H-M "P 21 21 21"
_symmetry_group_IT_number 19
_symmetry_cell_setting 'orthorhombic'
loop_
_space_group_symop_operation_xyz
x,y,z
1/2-x,-y,1/2+z
1/2+x,1/2-y,-z
-x,1/2+y,1/2-z
loop_
_atom_site_type_symbol
_atom_site_label
_atom_site_fract_x
_atom_site_fract_y
_atom_site_fract_z
Si Si1 0.642152 0.467116 0.007951
Si Si2 0.885851 0.774305 0.718656
Si Si3 0.250999 0.429674 0.617133
Si Si4 0.922102 0.306694 0.724909
Si Si5 0.425388 0.330807 0.644454
Si Si6 0.242012 0.300526 0.244222
Si Si7 0.961569 0.427101 0.192637
Si Si8 0.673656 0.414532 0.523371
O O1 0.648726 0.315085 0.064032
O O2 0.604558 0.545391 0.171928
O O3 0.733392 0.534070 0.971209
O O4 0.575525 0.509345 0.865945
O O5 0.833834 0.904882 0.772869
O O6 0.985751 0.799452 0.690095
O O7 0.867683 0.683725 0.886840
O O8 0.326256 0.338053 0.692489
O O9 0.240284 0.378224 0.426146
O O10 0.280349 0.581130 0.618689
O O11 0.932435 0.227402 0.545056
O O12 0.837742 0.242606 0.803404
O O13 0.460512 0.479066 0.647987
O O14 0.473086 0.227157 0.767633
O O15 0.189259 0.170305 0.301444
O O16 0.887606 0.462516 0.060101
#
# Coordination Sequence:
#
# PCOD9314029 Si02
#       8
#     4   4   4   4   4   4   4   4
#     4  10  22  38  60  89 118 148 210 250 289 366
#     4  11  21  38  62  86 120 163 190 253 312 359
#     4  10  22  39  62  87 125 161 205 251 307 364
#     4   9  20  40  57  84 121 164 191 239 314 371
#     4  10  22  41  62  89 121 162 208 250 305 367
#     4   9  21  38  61  87 121 160 202 246 302 369
#     4  11  22  40  66  88 123 158 209 254 295 365
#     4  10  20  40  64  84 119 168 193 241 322 359
#
# _framework density 25.676797000000001
#
# number of rings (size 3 to 8) (size 9 to 14) (size 15 to 20)
#    0.000    2.000    1.250    3.750    3.500    2.000 
#    4.500    1.250    0.000    0.000    0.000    0.000 
#    0.000    0.000    0.000    0.000    0.000    0.000 
#
# Total GULP energy -179067.931825 kJ/mol
# GULP energy per Si atom -5595.872870 kJ/mol
# Density = 2.561836 g / cm^3
# Si number density = 25.676797 Si / 1000 Ang^3
#
#
#
# Elastic Constant Matrix: (Units=GPa)
#
#
# Indices 1 2 3 4 5 6 
#
# 1 102.7433 24.6726 -7.0819 0.0000 0.0000 0.0000
# 2 24.6726 94.8880 9.3061 0.0000 0.0000 0.0000
# 3 -7.0819 9.3061 38.9680 0.0000 0.0000 0.0000
# 4 0.0000 0.0000 0.0000 47.4564 0.0000 0.0000
# 5 0.0000 0.0000 0.0000 0.0000 14.8010 0.0000
# 6 0.0000 0.0000 0.0000 0.0000 0.0000 24.0513
#
#
#
# Elastic Compliance Matrix: (Units=1/GPa)
#
#
# Indices 1 2 3 4 5 6 
#
# 1 0.010643 -0.003028 0.002657 0.000000 0.000000 0.000000
# 2 -0.003028 0.011653 -0.003333 0.000000 0.000000 0.000000
# 3 0.002657 -0.003333 0.026941 0.000000 0.000000 0.000000
# 4 0.000000 0.000000 0.000000 0.021072 0.000000 0.000000
# 5 0.000000 0.000000 0.000000 0.000000 0.067563 0.000000
# 6 0.000000 0.000000 0.000000 0.000000 0.000000 0.041578
#
#
# Mechanical properties :
#
#
# Convention : Reuss Voigt Hill
#
# Bulk Modulus (GPa) = 23.90651 32.26588 28.08620
# Shear Modulus (GPa) = 24.90026 31.24191 28.07108
#
# Velocity S-wave (km/s) = 3.11747 3.49196 3.31002
# Velocity P-wave (km/s) = 4.72111 5.37139 5.05672
#
# Compressibility (1/GPa) = 0.04182961
#
# Stress axis : x y z
#
# Youngs Moduli (GPa) = 93.95557 85.81481 37.11812
#
# Poissons Ratio (x) = 0.25985 -0.09864
# Poissons Ratio (y) = 0.28451 0.12372
# Poissons Ratio (z) = -0.24968 0.28604
#
# Static dielectric constant tensor:
#      x y z
#    x 1.969760 0.000000 0.000000 
#    y 0.000000 2.010580 0.000000 
#    z 0.000000 0.000000 2.105750 
# 
# From -- ./inp_files/5294.got.cif
#   From: 2010.05.17/outbox.cif.g08.bks.cpg/sg19_3_cif.got.tgz:5294.got - 2010.06.03 22:46:19.
