data_PCOD9314403
_publ_section_title
;
Structure prediction by ZEFSAII (Michael W. Deem and Ramdas Pophale) SiO2 
 PCOD9314403
Probable space group: P 21 21 21
;
_chemical_formula_sum "Si O2"
_cell_formula_units_Z 20
_cell_length_a 5.101838
_cell_length_b 10.647723
_cell_length_c 12.685647
_cell_angle_alpha 90.000000
_cell_angle_beta 90.000000
_cell_angle_gamma 90.000000
_cell_volume 689.121867
_symmetry_space_group_name_H-M "P 21 21 21"
_symmetry_group_IT_number 19
_symmetry_cell_setting 'orthorhombic'
loop_
_space_group_symop_operation_xyz
x,y,z
1/2-x,-y,1/2+z
1/2+x,1/2-y,-z
-x,1/2+y,1/2-z
loop_
_atom_site_type_symbol
_atom_site_label
_atom_site_fract_x
_atom_site_fract_y
_atom_site_fract_z
Si Si1 0.936538 0.376436 0.501929
Si Si2 0.317859 0.316787 0.333271
Si Si3 0.941807 0.410443 0.006967
Si Si4 0.056241 0.680811 0.373761
Si Si5 0.398374 0.571677 0.216331
O O1 0.039337 0.365384 0.382430
O O2 0.667584 0.451345 0.518133
O O3 0.922393 0.241218 0.556628
O O4 0.112980 0.449084 0.590778
O O5 0.438944 0.438666 0.275593
O O6 0.397112 0.189913 0.267719
O O7 0.940582 0.331473 0.115300
O O8 0.199757 0.376257 0.941271
O O9 0.700971 0.358228 0.935575
O O10 0.128437 0.629343 0.259737
#
# Coordination Sequence:
#
# PCOD9314403 Si02
#       5
#     4   4   4   4   4
#     4  10  23  41  70 101 150 196 246 317 376 443
#     4  10  23  43  68 102 148 195 249 311 382 450
#     4  10  21  40  71 101 150 191 252 310 379 438
#     4  10  21  41  69 109 141 197 249 312 371 459
#     4  10  22  41  70  97 149 191 254 300 384 450
#
# _framework density 29.022442000000002
#
# number of rings (size 3 to 8) (size 9 to 14) (size 15 to 20)
#    1.200    0.800    2.000    1.200    2.800    0.000 
#    3.600    0.000    4.400    0.000    0.000    0.000 
#    0.000    0.000    0.000    0.000    0.000    0.000 
#
# Total GULP energy -111615.232381 kJ/mol
# GULP energy per Si atom -5580.761619 kJ/mol
# Density = 2.895639 g / cm^3
# Si number density = 29.022442 Si / 1000 Ang^3
#
#
#
# Elastic Constant Matrix: (Units=GPa)
#
#
# Indices 1 2 3 4 5 6 
#
# 1 69.9693 26.2758 23.3871 0.0000 0.0000 0.0000
# 2 26.2758 225.4626 61.4273 0.0000 0.0000 0.0000
# 3 23.3871 61.4273 88.8115 0.0000 0.0000 0.0000
# 4 0.0000 0.0000 0.0000 64.2888 0.0000 0.0000
# 5 0.0000 0.0000 0.0000 0.0000 19.5642 0.0000
# 6 0.0000 0.0000 0.0000 0.0000 0.0000 40.1583
#
#
#
# Elastic Compliance Matrix: (Units=1/GPa)
#
#
# Indices 1 2 3 4 5 6 
#
# 1 0.015809 -0.000873 -0.003560 0.000000 0.000000 0.000000
# 2 -0.000873 0.005513 -0.003584 0.000000 0.000000 0.000000
# 3 -0.003560 -0.003584 0.014676 0.000000 0.000000 0.000000
# 4 0.000000 0.000000 0.000000 0.015555 0.000000 0.000000
# 5 0.000000 0.000000 0.000000 0.000000 0.051114 0.000000
# 6 0.000000 0.000000 0.000000 0.000000 0.000000 0.024901
#
#
# Mechanical properties :
#
#
# Convention : Reuss Voigt Hill
#
# Bulk Modulus (GPa) = 50.08268 67.38041 58.73155
# Shear Modulus (GPa) = 33.27656 43.01246 38.14451
#
# Velocity S-wave (km/s) = 3.38979 3.85391 3.62928
# Velocity P-wave (km/s) = 5.71095 6.56281 6.15164
#
# Compressibility (1/GPa) = 0.01996698
#
# Stress axis : x y z
#
# Youngs Moduli (GPa) = 63.25314 181.37722 68.13946
#
# Poissons Ratio (x) = 0.15828 0.24255
# Poissons Ratio (y) = 0.05520 0.24418
# Poissons Ratio (z) = 0.22516 0.64998
#
# Static dielectric constant tensor:
#      x y z
#    x 2.691180 0.000000 0.000000 
#    y 0.000000 2.371640 0.000000 
#    z 0.000000 0.000000 2.307690 
# 
# From -- ./inp_files/836.got.cif
#   From: 2010.05.17/outbox.cif.g08.bks.cpg/sg19_1_cif.got.tgz:836.got - 2010.06.03 22:46:19.
