data_PCOD9314512
_publ_section_title
;
Structure prediction by ZEFSAII (Michael W. Deem and Ramdas Pophale) SiO2 
 PCOD9314512
Probable space group: P 21 21 21
;
_chemical_formula_sum "Si O2"
_cell_formula_units_Z 32
_cell_length_a 10.022859
_cell_length_b 11.299628
_cell_length_c 13.403857
_cell_angle_alpha 90.000000
_cell_angle_beta 90.000000
_cell_angle_gamma 90.000000
_cell_volume 1518.048171
_symmetry_space_group_name_H-M "P 21 21 21"
_symmetry_group_IT_number 19
_symmetry_cell_setting 'orthorhombic'
loop_
_space_group_symop_operation_xyz
x,y,z
1/2-x,-y,1/2+z
1/2+x,1/2-y,-z
-x,1/2+y,1/2-z
loop_
_atom_site_type_symbol
_atom_site_label
_atom_site_fract_x
_atom_site_fract_y
_atom_site_fract_z
Si Si1 0.336402 0.943467 0.325289
Si Si2 0.160175 0.169795 0.143495
Si Si3 0.733066 0.360107 0.518428
Si Si4 0.358732 0.403945 0.821505
Si Si5 0.637194 0.207546 0.056540
Si Si6 0.636287 0.693514 0.810544
Si Si7 0.917824 0.482146 0.885999
Si Si8 0.322870 0.674389 0.820809
O O1 0.390443 0.831205 0.386412
O O2 0.204951 0.895550 0.267652
O O3 0.296419 0.047426 0.401894
O O4 0.426969 0.978168 0.229823
O O5 0.273981 0.082661 0.103666
O O6 0.230069 0.239401 0.234444
O O7 0.020154 0.103012 0.167030
O O8 0.127513 0.265449 0.059529
O O9 0.823217 0.335697 0.422319
O O10 0.597961 0.413330 0.467670
O O11 0.710325 0.237653 0.575912
O O12 0.284702 0.336370 0.911960
O O13 0.323102 0.325038 0.724862
O O14 0.299040 0.535146 0.816410
O O15 0.533267 0.108186 0.088202
O O16 0.479945 0.685021 0.801532
#
# Coordination Sequence:
#
# PCOD9314512 Si02
#       8
#     4   4   4   4   4   4   4   4
#     4  10  21  43  64  89 134 169 215 264 330 394
#     4  11  22  41  66  92 122 175 222 253 327 391
#     4  11  22  41  65  94 127 173 219 262 332 390
#     4  10  23  43  61  93 137 164 213 279 324 379
#     4  11  24  40  65  97 129 172 210 277 333 379
#     4   9  23  42  62  90 131 174 210 269 331 385
#     4  11  23  41  66  93 127 175 219 262 324 397
#     4  11  24  37  69  96 123 168 226 272 313 387
#
# _framework density 21.079701
#
# number of rings (size 3 to 8) (size 9 to 14) (size 15 to 20)
#    0.000    1.500    2.500    2.250    5.250    3.000 
#    6.750    0.000    0.000    0.000    0.000    0.000 
#    0.000    0.000    0.000    0.000    0.000    0.000 
#
# Total GULP energy -178642.473312 kJ/mol
# GULP energy per Si atom -5582.577291 kJ/mol
# Density = 2.103172 g / cm^3
# Si number density = 21.079701 Si / 1000 Ang^3
#
#
#
# Elastic Constant Matrix: (Units=GPa)
#
#
# Indices 1 2 3 4 5 6 
#
# 1 30.3315 2.0363 -8.3326 0.0000 0.0000 0.0000
# 2 2.0363 111.7041 34.2675 0.0000 0.0000 0.0000
# 3 -8.3326 34.2675 109.1523 0.0000 0.0000 0.0000
# 4 0.0000 0.0000 0.0000 27.3588 0.0000 0.0000
# 5 0.0000 0.0000 0.0000 0.0000 7.6313 0.0000
# 6 0.0000 0.0000 0.0000 0.0000 0.0000 -11.8905
#
#
#
# Elastic Compliance Matrix: (Units=1/GPa)
#
#
# Indices 1 2 3 4 5 6 
#
# 1 0.033920 -0.001563 0.003080 0.000000 0.000000 0.000000
# 2 -0.001563 0.009978 -0.003252 0.000000 0.000000 0.000000
# 3 0.003080 -0.003252 0.010418 0.000000 0.000000 0.000000
# 4 0.000000 0.000000 0.000000 0.036551 0.000000 0.000000
# 5 0.000000 0.000000 0.000000 0.000000 0.131039 0.000000
# 6 0.000000 0.000000 0.000000 0.000000 0.000000 -0.084100
#
#
# Mechanical properties :
#
#
# Convention : Reuss Voigt Hill
#
# Bulk Modulus (GPa) = 19.66723 34.12560 26.89642
# Shear Modulus (GPa) = 31.60062 19.50102 25.55082
#
# Velocity S-wave (km/s) = 3.87602 3.04486 3.48531
# Velocity P-wave (km/s) = 5.42048 5.34655 5.38364
#
# Compressibility (1/GPa) = 0.05084599
#
# Stress axis : x y z
#
# Youngs Moduli (GPa) = 29.48103 100.21725 95.99167
#
# Poissons Ratio (x) = 0.15666 -0.29567
# Poissons Ratio (y) = 0.04609 0.31216
# Poissons Ratio (z) = -0.09081 0.32590
#
# Static dielectric constant tensor:
#      x y z
#    x 1.747830 0.000000 0.000000 
#    y 0.000000 1.847150 0.000000 
#    z 0.000000 0.000000 1.802240 
# 
# From -- ./inp_files/5055.got.cif
#   From: 2010.05.17/outbox.cif.g08.bks.cpg/sg19_3_cif.got.tgz:5055.got - 2010.06.03 22:46:19.
