data_PCOD9314385
_publ_section_title
;
Structure prediction by ZEFSAII (Michael W. Deem and Ramdas Pophale) SiO2 
 PCOD9314385
Probable space group: P 21 21 21
;
_chemical_formula_sum "Si O2"
_cell_formula_units_Z 32
_cell_length_a 17.106898
_cell_length_b 6.730414
_cell_length_c 12.194793
_cell_angle_alpha 90.000000
_cell_angle_beta 90.000000
_cell_angle_gamma 90.000000
_cell_volume 1404.065855
_symmetry_space_group_name_H-M "P 21 21 21"
_symmetry_group_IT_number 19
_symmetry_cell_setting 'orthorhombic'
loop_
_space_group_symop_operation_xyz
x,y,z
1/2-x,-y,1/2+z
1/2+x,1/2-y,-z
-x,1/2+y,1/2-z
loop_
_atom_site_type_symbol
_atom_site_label
_atom_site_fract_x
_atom_site_fract_y
_atom_site_fract_z
Si Si1 0.485835 0.624514 0.872049
Si Si2 0.603157 0.721404 0.427620
Si Si3 0.910034 0.042290 0.724243
Si Si4 0.464082 0.502401 0.510881
Si Si5 0.743820 0.691396 0.194683
Si Si6 0.337738 0.845285 0.211784
Si Si7 0.327239 0.592737 0.005377
Si Si8 0.394009 0.767806 0.661233
O O1 0.418319 0.607752 0.965395
O O2 0.551832 0.457711 0.862758
O O3 0.440095 0.650240 0.757822
O O4 0.528874 0.824569 0.905550
O O5 0.541742 0.638636 0.515185
O O6 0.630409 0.526508 0.361966
O O7 0.560205 0.863117 0.337720
O O8 0.673258 0.853836 0.477896
O O9 0.955562 0.077817 0.612188
O O10 0.898485 0.806149 0.733726
O O11 0.827427 0.157044 0.714728
O O12 0.392815 0.637424 0.551187
O O13 0.712196 0.464556 0.197742
O O14 0.782188 0.782302 0.085988
O O15 0.809350 0.691507 0.289277
O O16 0.303242 0.695401 0.119969
#
# Coordination Sequence:
#
# PCOD9314385 Si02
#       8
#     4   4   4   4   4   4   4   4
#     4  11  22  41  64 104 130 172 224 284 348 402
#     4  10  22  40  64  95 134 174 225 286 342 402
#     4  10  26  42  62  99 138 178 233 278 341 425
#     4  12  24  39  71 101 134 180 224 286 344 414
#     4  10  25  44  64  97 136 184 222 287 347 419
#     4  10  22  44  65  94 133 180 222 273 348 410
#     4  10  21  40  67  93 133 177 224 278 341 417
#     4  11  24  42  69  99 138 169 230 290 345 411
#
# _framework density 22.790952999999998
#
# number of rings (size 3 to 8) (size 9 to 14) (size 15 to 20)
#    0.000    1.500    3.750    0.000    1.750    9.000 
#    0.000    0.000    0.000    0.000    0.000    0.000 
#    0.000    0.000    0.000    0.000    0.000    0.000 
#
# Total GULP energy -178454.535119 kJ/mol
# GULP energy per Si atom -5576.704222 kJ/mol
# Density = 2.273908 g / cm^3
# Si number density = 22.790953 Si / 1000 Ang^3
#
#
#
# Elastic Constant Matrix: (Units=GPa)
#
#
# Indices 1 2 3 4 5 6 
#
# 1 53.9638 22.2878 -4.0023 0.0000 0.0000 0.0000
# 2 22.2878 94.8152 5.2264 0.0000 0.0000 0.0000
# 3 -4.0023 5.2264 57.5417 0.0000 0.0000 0.0000
# 4 0.0000 0.0000 0.0000 36.1609 0.0000 0.0000
# 5 0.0000 0.0000 0.0000 0.0000 26.8781 0.0000
# 6 0.0000 0.0000 0.0000 0.0000 0.0000 16.9835
#
#
#
# Elastic Compliance Matrix: (Units=1/GPa)
#
#
# Indices 1 2 3 4 5 6 
#
# 1 0.020727 -0.004977 0.001894 0.000000 0.000000 0.000000
# 2 -0.004977 0.011795 -0.001417 0.000000 0.000000 0.000000
# 3 0.001894 -0.001417 0.017639 0.000000 0.000000 0.000000
# 4 0.000000 0.000000 0.000000 0.027654 0.000000 0.000000
# 5 0.000000 0.000000 0.000000 0.000000 0.037205 0.000000
# 6 0.000000 0.000000 0.000000 0.000000 0.000000 0.058881
#
#
# Mechanical properties :
#
#
# Convention : Reuss Voigt Hill
#
# Bulk Modulus (GPa) = 24.29543 28.14941 26.22242
# Shear Modulus (GPa) = 25.42960 28.19176 26.81068
#
# Velocity S-wave (km/s) = 3.34395 3.52088 3.43355
# Velocity P-wave (km/s) = 5.05891 5.37650 5.22012
#
# Compressibility (1/GPa) = 0.04116001
#
# Stress axis : x y z
#
# Youngs Moduli (GPa) = 48.24683 84.78326 56.69210
#
# Poissons Ratio (x) = 0.42193 -0.10735
# Poissons Ratio (y) = 0.24010 0.08036
# Poissons Ratio (z) = -0.09136 0.12017
#
# Static dielectric constant tensor:
#      x y z
#    x 1.910070 0.000000 0.000000 
#    y 0.000000 1.873080 0.000000 
#    z 0.000000 0.000000 1.901500 
# 
# From -- ./inp_files/5488.got.cif
#   From: 2010.05.17/outbox.cif.g08.bks.cpg/sg19_3_cif.got.tgz:5488.got - 2010.06.03 22:46:19.
