data_PCOD9314298
_publ_section_title
;
Structure prediction by ZEFSAII (Michael W. Deem and Ramdas Pophale) SiO2 
 PCOD9314298
Probable space group: P 21 21 21
;
_chemical_formula_sum "Si O2"
_cell_formula_units_Z 32
_cell_length_a 12.256845
_cell_length_b 5.383909
_cell_length_c 19.150927
_cell_angle_alpha 90.000000
_cell_angle_beta 90.000000
_cell_angle_gamma 90.000000
_cell_volume 1263.764657
_symmetry_space_group_name_H-M "P 21 21 21"
_symmetry_group_IT_number 19
_symmetry_cell_setting 'orthorhombic'
loop_
_space_group_symop_operation_xyz
x,y,z
1/2-x,-y,1/2+z
1/2+x,1/2-y,-z
-x,1/2+y,1/2-z
loop_
_atom_site_type_symbol
_atom_site_label
_atom_site_fract_x
_atom_site_fract_y
_atom_site_fract_z
Si Si1 0.716949 0.265714 0.279633
Si Si2 0.425799 0.117867 0.475166
Si Si3 0.103416 0.411521 0.279304
Si Si4 0.993312 0.156527 0.715139
Si Si5 0.000287 0.821262 0.364408
Si Si6 0.705884 0.427768 0.905814
Si Si7 0.211169 0.882672 0.843758
Si Si8 0.435182 0.111224 0.014852
O O1 0.601379 0.210433 0.316795
O O2 0.773304 0.464916 0.329238
O O3 0.685317 0.383750 0.205184
O O4 0.798773 0.052187 0.260538
O O5 0.324656 0.075517 0.422373
O O6 0.494322 0.369059 0.462635
O O7 0.366821 0.121036 0.550071
O O8 0.501858 0.872020 0.471479
O O9 0.015817 0.410816 0.215999
O O10 0.169494 0.192340 0.317845
O O11 0.050607 0.554029 0.344388
O O12 0.878738 0.175876 0.677213
O O13 0.976990 0.366343 0.776331
O O14 0.877625 0.799700 0.395477
O O15 0.070667 0.913915 0.430114
O O16 0.819076 0.380280 0.945694
#
# Coordination Sequence:
#
# PCOD9314298 Si02
#       8
#     4   4   4   4   4   4   4   4
#     4  11  23  42  72 106 149 195 245 307 388 450
#     4  11  28  47  76 113 151 200 263 312 387 469
#     4  12  25  46  74 110 151 199 252 334 384 465
#     4  10  21  39  63 103 143 183 236 297 364 442
#     4  11  27  47  76 109 151 197 268 312 393 467
#     4  11  25  49  75 108 151 205 250 317 388 469
#     4  11  25  42  72 111 149 194 252 321 381 457
#     4  11  28  52  76 108 157 207 254 320 385 467
#
# _framework density 25.321168
#
# number of rings (size 3 to 8) (size 9 to 14) (size 15 to 20)
#    0.000    1.000    2.500    2.250    3.500   12.000 
#    0.000    0.000    0.000    0.000    0.000    0.000 
#    0.000    0.000    0.000    0.000    0.000    0.000 
#
# Total GULP energy -178475.750698 kJ/mol
# GULP energy per Si atom -5577.367209 kJ/mol
# Density = 2.526354 g / cm^3
# Si number density = 25.321168 Si / 1000 Ang^3
#
#
#
# Elastic Constant Matrix: (Units=GPa)
#
#
# Indices 1 2 3 4 5 6 
#
# 1 136.7726 38.4066 25.4871 0.0000 0.0000 0.0000
# 2 38.4066 91.9693 24.3012 0.0000 0.0000 0.0000
# 3 25.4871 24.3012 124.6538 0.0000 0.0000 0.0000
# 4 0.0000 0.0000 0.0000 26.3037 0.0000 0.0000
# 5 0.0000 0.0000 0.0000 0.0000 32.8208 0.0000
# 6 0.0000 0.0000 0.0000 0.0000 0.0000 40.6882
#
#
#
# Elastic Compliance Matrix: (Units=1/GPa)
#
#
# Indices 1 2 3 4 5 6 
#
# 1 0.008421 -0.003228 -0.001093 0.000000 0.000000 0.000000
# 2 -0.003228 0.012701 -0.001816 0.000000 0.000000 0.000000
# 3 -0.001093 -0.001816 0.008600 0.000000 0.000000 0.000000
# 4 0.000000 0.000000 0.000000 0.038017 0.000000 0.000000
# 5 0.000000 0.000000 0.000000 0.000000 0.030468 0.000000
# 6 0.000000 0.000000 0.000000 0.000000 0.000000 0.024577
#
#
# Mechanical properties :
#
#
# Convention : Reuss Voigt Hill
#
# Bulk Modulus (GPa) = 57.31063 58.86505 58.08784
# Shear Modulus (GPa) = 35.49246 37.64261 36.56754
#
# Velocity S-wave (km/s) = 3.74798 3.85984 3.80432
# Velocity P-wave (km/s) = 6.43525 6.56980 6.50287
#
# Compressibility (1/GPa) = 0.01744877
#
# Stress axis : x y z
#
# Youngs Moduli (GPa) = 118.74394 78.73317 116.28390
#
# Poissons Ratio (x) = 0.25416 0.12705
# Poissons Ratio (y) = 0.38332 0.21118
# Poissons Ratio (z) = 0.12973 0.14298
#
# Static dielectric constant tensor:
#      x y z
#    x 2.108740 0.000000 0.000000 
#    y 0.000000 2.134680 0.000000 
#    z 0.000000 0.000000 2.026850 
# 
# From -- ./inp_files/7156.got.cif
#   From: 2010.05.17/outbox.cif.g08.bks.cpg/sg19_4_cif.got.tgz:7156.got - 2010.06.03 22:46:19.
