data_PCOD9314004
_publ_section_title
;
Structure prediction by ZEFSAII (Michael W. Deem and Ramdas Pophale) SiO2 
 PCOD9314004
Probable space group: P 21 21 21
;
_chemical_formula_sum "Si O2"
_cell_formula_units_Z 32
_cell_length_a 17.641016
_cell_length_b 14.947892
_cell_length_c 5.337437
_cell_angle_alpha 90.000000
_cell_angle_beta 90.000000
_cell_angle_gamma 90.000000
_cell_volume 1407.460797
_symmetry_space_group_name_H-M "P 21 21 21"
_symmetry_group_IT_number 19
_symmetry_cell_setting 'orthorhombic'
loop_
_space_group_symop_operation_xyz
x,y,z
1/2-x,-y,1/2+z
1/2+x,1/2-y,-z
-x,1/2+y,1/2-z
loop_
_atom_site_type_symbol
_atom_site_label
_atom_site_fract_x
_atom_site_fract_y
_atom_site_fract_z
Si Si1 0.192389 0.880195 0.618801
Si Si2 0.599702 0.165643 0.538283
Si Si3 0.818063 0.543997 0.099887
Si Si4 0.571504 0.336000 0.865943
Si Si5 0.196430 0.198716 0.766431
Si Si6 0.801130 0.008714 0.119251
Si Si7 0.903294 0.181237 0.073766
Si Si8 0.426271 0.203334 0.428681
O O1 0.238655 0.799922 0.484178
O O2 0.135530 0.868303 0.845075
O O3 0.149451 0.944261 0.428401
O O4 0.257937 0.954309 0.671417
O O5 0.587317 0.234352 0.770722
O O6 0.665132 0.212122 0.364471
O O7 0.514024 0.170285 0.422283
O O8 0.634378 0.069519 0.607934
O O9 0.779701 0.624740 0.933743
O O10 0.893248 0.599112 0.165649
O O11 0.486023 0.361374 0.902687
O O12 0.621811 0.343894 0.110432
O O13 0.840390 0.105862 0.102092
O O14 0.753828 0.001086 0.377451
O O15 0.904927 0.251337 0.306737
O O16 0.909018 0.228033 0.802089
#
# Coordination Sequence:
#
# PCOD9314004 Si02
#       8
#     4   4   4   4   4   4   4   4
#     4  11  23  38  65 105 139 188 230 296 361 441
#     4  10  24  48  70 105 136 194 247 298 374 436
#     4  10  21  38  61 100 140 178 229 282 359 437
#     4   9  21  42  71  96 138 188 235 296 369 438
#     4  10  20  39  68  91 141 180 231 288 363 439
#     4  12  30  49  76 109 151 197 256 316 368 452
#     4  11  25  50  71 106 141 189 250 307 368 427
#     4  11  26  46  76 104 146 188 246 307 368 440
#
# _framework density 22.735977999999999
#
# number of rings (size 3 to 8) (size 9 to 14) (size 15 to 20)
#    0.000    1.500    2.500    0.750    5.250    5.000 
#    6.750    0.000    0.000    0.000    0.000    0.000 
#    0.000    0.000    0.000    0.000    0.000    0.000 
#
# Total GULP energy -178188.289026 kJ/mol
# GULP energy per Si atom -5568.384032 kJ/mol
# Density = 2.268423 g / cm^3
# Si number density = 22.735978 Si / 1000 Ang^3
#
#
#
# Elastic Constant Matrix: (Units=GPa)
#
#
# Indices 1 2 3 4 5 6 
#
# 1 98.5877 40.7448 35.1991 0.0000 0.0000 0.0000
# 2 40.7448 71.3318 5.7758 0.0000 0.0000 0.0000
# 3 35.1991 5.7758 111.1350 0.0000 0.0000 0.0000
# 4 0.0000 0.0000 0.0000 -438.1606 0.0000 0.0000
# 5 0.0000 0.0000 0.0000 0.0000 36.4824 0.0000
# 6 0.0000 0.0000 0.0000 0.0000 0.0000 48.4042
#
#
#
# Elastic Compliance Matrix: (Units=1/GPa)
#
#
# Indices 1 2 3 4 5 6 
#
# 1 0.015124 -0.008286 -0.004360 0.000000 0.000000 0.000000
# 2 -0.008286 0.018618 0.001657 0.000000 0.000000 0.000000
# 3 -0.004360 0.001657 0.010293 0.000000 0.000000 0.000000
# 4 0.000000 0.000000 0.000000 -0.002282 0.000000 0.000000
# 5 0.000000 0.000000 0.000000 0.000000 0.027410 0.000000
# 6 0.000000 0.000000 0.000000 0.000000 0.000000 0.020659
#
#
# Mechanical properties :
#
#
# Convention : Reuss Voigt Hill
#
# Bulk Modulus (GPa) = 45.33661 49.38821 47.36241
# Shear Modulus (GPa) = 41.96311 -57.36580 -7.70135
#
# Velocity S-wave (km/s) = 4.30079 -5.02852 -1.84246
# Velocity P-wave (km/s) = 6.68177 3.45617 4.04358
#
# Compressibility (1/GPa) = 0.02205723
#
# Stress axis : x y z
#
# Youngs Moduli (GPa) = 66.11908 53.71205 97.15586
#
# Poissons Ratio (x) = 0.44506 0.42356
# Poissons Ratio (y) = 0.54786 -0.16097
# Poissons Ratio (z) = 0.28825 -0.08899
#
# Static dielectric constant tensor:
#      x y z
#    x 2.514690 0.000000 0.000000 
#    y 0.000000 1.594840 0.000000 
#    z 0.000000 0.000000 1.280820 
# 
# From -- ./inp_files/1785.got.cif
#   From: 2010.05.17/outbox.cif.g08.bks.cpg/sg19_1_cif.got.tgz:1785.got - 2010.06.03 22:46:19.
