data_PCOD9314185
_publ_section_title
;
Structure prediction by ZEFSAII (Michael W. Deem and Ramdas Pophale) SiO2 
 PCOD9314185
Probable space group: P 21 21 21
;
_chemical_formula_sum "Si O2"
_cell_formula_units_Z 28
_cell_length_a 13.221415
_cell_length_b 12.849126
_cell_length_c 6.480423
_cell_angle_alpha 90.000000
_cell_angle_beta 90.000000
_cell_angle_gamma 90.000000
_cell_volume 1100.917765
_symmetry_space_group_name_H-M "P 21 21 21"
_symmetry_group_IT_number 19
_symmetry_cell_setting 'orthorhombic'
loop_
_space_group_symop_operation_xyz
x,y,z
1/2-x,-y,1/2+z
1/2+x,1/2-y,-z
-x,1/2+y,1/2-z
loop_
_atom_site_type_symbol
_atom_site_label
_atom_site_fract_x
_atom_site_fract_y
_atom_site_fract_z
Si Si1 0.938850 0.319024 0.384608
Si Si2 0.155849 0.942654 0.730208
Si Si3 0.012891 0.474371 0.112860
Si Si4 0.293346 0.638152 0.181321
Si Si5 0.620703 0.862643 0.109959
Si Si6 0.261912 0.837012 0.387649
Si Si7 0.612817 0.945272 0.532423
O O1 0.900583 0.391207 0.574864
O O2 0.959646 0.210748 0.495604
O O3 0.843130 0.309872 0.230228
O O4 0.022304 0.364877 0.230143
O O5 0.235917 0.862685 0.625934
O O6 0.080053 0.969511 0.541863
O O7 0.201559 0.052459 0.799248
O O8 0.016814 0.547813 0.316889
O O9 0.101607 0.521263 0.976099
O O10 0.329016 0.738346 0.313063
O O11 0.210503 0.580893 0.328620
O O12 0.369746 0.554625 0.085213
O O13 0.228907 0.671055 0.976993
O O14 0.606495 0.861681 0.351919
#
# Coordination Sequence:
#
# PCOD9314185 Si02
#       7
#     4   4   4   4   4   4   4
#     4  10  21  40  62  87 121 165 206 251 319 375
#     4  11  20  40  61  91 125 163 210 263 314 376
#     4  10  24  38  60  88 128 164 206 262 306 374
#     4  10  21  36  61  91 120 159 207 261 316 371
#     4  10  21  40  62  87 121 165 206 251 319 375
#     4  10  21  36  61  91 120 159 207 261 316 371
#     4  11  20  40  61  91 125 163 210 263 314 376
#
# _framework density 25.433325
#
# number of rings (size 3 to 8) (size 9 to 14) (size 15 to 20)
#    0.000    1.714    2.857    1.714    0.000    2.286 
#    0.000    1.429    0.000    0.000    0.000    0.000 
#    0.000    0.000    0.000    0.000    0.000    0.000 
#
# Total GULP energy -156202.262182 kJ/mol
# GULP energy per Si atom -5578.652221 kJ/mol
# Density = 2.537544 g / cm^3
# Si number density = 25.433325 Si / 1000 Ang^3
#
#
#
# Elastic Constant Matrix: (Units=GPa)
#
#
# Indices 1 2 3 4 5 6 
#
# 1 23.7487 15.0209 21.8188 0.0000 0.0000 0.0000
# 2 15.0209 102.1309 37.2945 0.0000 0.0000 0.0000
# 3 21.8188 37.2945 139.2426 0.0000 0.0000 0.0000
# 4 0.0000 0.0000 0.0000 45.1755 0.0000 0.0000
# 5 0.0000 0.0000 0.0000 0.0000 44.8770 0.0000
# 6 0.0000 0.0000 0.0000 0.0000 0.0000 19.4617
#
#
#
# Elastic Compliance Matrix: (Units=1/GPa)
#
#
# Indices 1 2 3 4 5 6 
#
# 1 0.051505 -0.005130 -0.006697 0.000000 0.000000 0.000000
# 2 -0.005130 0.011364 -0.002240 0.000000 0.000000 0.000000
# 3 -0.006697 -0.002240 0.008831 0.000000 0.000000 0.000000
# 4 0.000000 0.000000 0.000000 0.022136 0.000000 0.000000
# 5 0.000000 0.000000 0.000000 0.000000 0.022283 0.000000
# 6 0.000000 0.000000 0.000000 0.000000 0.000000 0.051383
#
#
# Mechanical properties :
#
#
# Convention : Reuss Voigt Hill
#
# Bulk Modulus (GPa) = 22.95317 45.93226 34.44271
# Shear Modulus (GPa) = 23.79186 34.63538 29.21362
#
# Velocity S-wave (km/s) = 3.06185 3.69428 3.39283
# Velocity P-wave (km/s) = 4.64158 6.02461 5.37775
#
# Compressibility (1/GPa) = 0.04356697
#
# Stress axis : x y z
#
# Youngs Moduli (GPa) = 19.41575 87.99948 113.23785
#
# Poissons Ratio (x) = 0.45141 0.75832
# Poissons Ratio (y) = 0.09960 0.25363
# Poissons Ratio (z) = 0.13002 0.19710
#
# Static dielectric constant tensor:
#      x y z
#    x 2.060600 0.000000 0.000000 
#    y 0.000000 2.154220 0.000000 
#    z 0.000000 0.000000 1.990030 
# 
# From -- ./inp_files/1730.got.cif
#   From: 2010.05.17/outbox.cif.g08.bks.cpg/sg19_1_cif.got.tgz:1730.got - 2010.06.03 22:46:19.
