data_PCOD9314408
_publ_section_title
;
Structure prediction by ZEFSAII (Michael W. Deem and Ramdas Pophale) SiO2 
 PCOD9314408
Probable space group: P 21 21 21
;
_chemical_formula_sum "Si O2"
_cell_formula_units_Z 32
_cell_length_a 14.011409
_cell_length_b 16.494924
_cell_length_c 5.099285
_cell_angle_alpha 90.000000
_cell_angle_beta 90.000000
_cell_angle_gamma 90.000000
_cell_volume 1178.532097
_symmetry_space_group_name_H-M "P 21 21 21"
_symmetry_group_IT_number 19
_symmetry_cell_setting 'orthorhombic'
loop_
_space_group_symop_operation_xyz
x,y,z
1/2-x,-y,1/2+z
1/2+x,1/2-y,-z
-x,1/2+y,1/2-z
loop_
_atom_site_type_symbol
_atom_site_label
_atom_site_fract_x
_atom_site_fract_y
_atom_site_fract_z
Si Si1 0.203013 0.010205 0.882963
Si Si2 0.753323 0.755481 0.303743
Si Si3 0.061209 0.643230 0.247980
Si Si4 0.469059 0.228697 0.129226
Si Si5 0.579352 0.061388 0.094745
Si Si6 0.645622 0.315390 0.306952
Si Si7 0.977595 0.496139 0.405938
Si Si8 0.679903 0.918029 0.245483
O O1 0.271962 0.037612 0.119461
O O2 0.160985 0.091470 0.759328
O O3 0.127569 0.960640 0.062435
O O4 0.641643 0.728005 0.285313
O O5 0.795030 0.733970 0.586783
O O6 0.766721 0.853397 0.259392
O O7 0.812060 0.710171 0.082762
O O8 0.127183 0.605724 0.483997
O O9 0.039579 0.734563 0.333733
O O10 0.969020 0.586117 0.283944
O O11 0.120018 0.619987 0.995056
O O12 0.534406 0.293603 0.282540
O O13 0.536025 0.149921 0.150243
O O14 0.548414 0.045752 0.796594
O O15 0.515720 0.009086 0.299427
O O16 0.679657 0.014692 0.170854
#
# Coordination Sequence:
#
# PCOD9314408 Si02
#       8
#     4   4   4   4   4   4   4   4
#     4  12  26  43  66  98 148 186 216 296 360 424
#     4  11  26  45  72 101 144 186 239 294 360 425
#     4   9  18  37  64  87 127 175 223 266 342 407
#     4  11  25  47  72 103 141 191 233 303 358 413
#     4  10  23  37  71  98 130 177 241 279 346 422
#     4  12  28  48  70 110 143 185 246 291 351 443
#     4  10  21  41  59  96 132 173 224 274 345 429
#     4   9  19  40  62  95 129 179 224 283 334 409
#
# _framework density 27.152418999999998
#
# number of rings (size 3 to 8) (size 9 to 14) (size 15 to 20)
#    0.000    1.500    1.250    3.000    5.250    6.000 
#    0.000    1.250    0.000    0.000    0.000    0.000 
#    0.000    0.000    0.000    0.000    0.000    0.000 
#
# Total GULP energy -178758.787805 kJ/mol
# GULP energy per Si atom -5586.212119 kJ/mol
# Density = 2.709062 g / cm^3
# Si number density = 27.152419 Si / 1000 Ang^3
#
#
#
# Elastic Constant Matrix: (Units=GPa)
#
#
# Indices 1 2 3 4 5 6 
#
# 1 108.0843 28.1865 27.1030 0.0000 0.0000 0.0000
# 2 28.1865 113.9642 1.8544 0.0000 0.0000 0.0000
# 3 27.1030 1.8544 140.3288 0.0000 0.0000 0.0000
# 4 0.0000 0.0000 0.0000 26.8617 0.0000 0.0000
# 5 0.0000 0.0000 0.0000 0.0000 26.9915 0.0000
# 6 0.0000 0.0000 0.0000 0.0000 0.0000 36.9907
#
#
#
# Elastic Compliance Matrix: (Units=1/GPa)
#
#
# Indices 1 2 3 4 5 6 
#
# 1 0.010411 -0.002543 -0.001977 0.000000 0.000000 0.000000
# 2 -0.002543 0.009398 0.000367 0.000000 0.000000 0.000000
# 3 -0.001977 0.000367 0.007503 0.000000 0.000000 0.000000
# 4 0.000000 0.000000 0.000000 0.037228 0.000000 0.000000
# 5 0.000000 0.000000 0.000000 0.000000 0.037049 0.000000
# 6 0.000000 0.000000 0.000000 0.000000 0.000000 0.027034
#
#
# Mechanical properties :
#
#
# Convention : Reuss Voigt Hill
#
# Bulk Modulus (GPa) = 52.61575 52.96278 52.78927
# Shear Modulus (GPa) = 34.90081 38.51767 36.70924
#
# Velocity S-wave (km/s) = 3.58909 3.77048 3.68090
# Velocity P-wave (km/s) = 6.04941 6.20511 6.12776
#
# Compressibility (1/GPa) = 0.01900571
#
# Stress axis : x y z
#
# Youngs Moduli (GPa) = 96.05290 106.41010 133.27752
#
# Poissons Ratio (x) = 0.27057 0.26351
# Poissons Ratio (y) = 0.24424 -0.04890
# Poissons Ratio (z) = 0.18991 -0.03904
#
# Static dielectric constant tensor:
#      x y z
#    x 2.333000 0.000000 0.000000 
#    y 0.000000 2.232990 0.000000 
#    z 0.000000 0.000000 2.138650 
# 
# From -- ./inp_files/1609.got.cif
#   From: 2010.05.17/outbox.cif.g08.bks.cpg/sg19_1_cif.got.tgz:1609.got - 2010.06.03 22:46:19.
