data_PCOD9314213
_publ_section_title
;
Structure prediction by ZEFSAII (Michael W. Deem and Ramdas Pophale) SiO2 
 PCOD9314213
Probable space group: P 21 21 21
;
_chemical_formula_sum "Si O2"
_cell_formula_units_Z 28
_cell_length_a 10.647986
_cell_length_b 15.897959
_cell_length_c 7.817256
_cell_angle_alpha 90.000000
_cell_angle_beta 90.000000
_cell_angle_gamma 90.000000
_cell_volume 1323.314827
_symmetry_space_group_name_H-M "P 21 21 21"
_symmetry_group_IT_number 19
_symmetry_cell_setting 'orthorhombic'
loop_
_space_group_symop_operation_xyz
x,y,z
1/2-x,-y,1/2+z
1/2+x,1/2-y,-z
-x,1/2+y,1/2-z
loop_
_atom_site_type_symbol
_atom_site_label
_atom_site_fract_x
_atom_site_fract_y
_atom_site_fract_z
Si Si1 0.289332 0.550248 0.350596
Si Si2 0.173920 0.175642 0.745512
Si Si3 0.979172 0.826678 0.743269
Si Si4 0.412481 0.095987 0.909589
Si Si5 0.182513 0.388306 0.211841
Si Si6 0.498758 0.927660 0.999213
Si Si7 0.340844 0.276818 0.478978
O O1 0.363163 0.609755 0.216853
O O2 0.188620 0.485294 0.279836
O O3 0.258422 0.604882 0.519470
O O4 0.395121 0.486158 0.418242
O O5 0.085333 0.243564 0.838033
O O6 0.280758 0.132040 0.853710
O O7 0.086871 0.109337 0.649190
O O8 0.246171 0.228889 0.600618
O O9 0.062405 0.874887 0.604306
O O10 0.063907 0.790474 0.894319
O O11 0.534921 0.131798 0.808834
O O12 0.418950 0.994583 0.891370
O O13 0.261566 0.325687 0.331014
O O14 0.573215 0.847171 0.925677
#
# Coordination Sequence:
#
# PCOD9314213 Si02
#       7
#     4   4   4   4   4   4   4
#     4   9  19  37  61  80 121 157 202 246 301 353
#     4  11  23  37  65  88 121 161 199 254 308 354
#     4   9  22  38  57  88 123 150 198 257 291 361
#     4  10  23  40  61  88 123 160 208 242 310 369
#     4   9  20  36  58  87 116 160 201 251 289 367
#     4   8  20  41  52  83 120 153 194 243 285 371
#     4  10  21  37  62  86 124 155 202 251 308 347
#
# _framework density 21.158988000000001
#
# number of rings (size 3 to 8) (size 9 to 14) (size 15 to 20)
#    0.000    2.857    0.000    0.000   14.000    2.286 
#    0.000    4.286    0.000    0.000    0.000    0.000 
#    0.000    0.000    0.000    0.000    0.000    0.000 
#
# Total GULP energy -156065.157031 kJ/mol
# GULP energy per Si atom -5573.755608 kJ/mol
# Density = 2.111083 g / cm^3
# Si number density = 21.158988 Si / 1000 Ang^3
#
#
#
# Elastic Constant Matrix: (Units=GPa)
#
#
# Indices 1 2 3 4 5 6 
#
# 1 19.6561 -9.1760 0.5784 0.0000 0.0000 0.0000
# 2 -9.1760 56.7474 21.0698 0.0000 0.0000 0.0000
# 3 0.5784 21.0698 35.0173 0.0000 0.0000 0.0000
# 4 0.0000 0.0000 0.0000 28.5852 0.0000 0.0000
# 5 0.0000 0.0000 0.0000 0.0000 25.6461 0.0000
# 6 0.0000 0.0000 0.0000 0.0000 0.0000 33.3374
#
#
#
# Elastic Compliance Matrix: (Units=1/GPa)
#
#
# Indices 1 2 3 4 5 6 
#
# 1 0.056856 0.012287 -0.008332 0.000000 0.000000 0.000000
# 2 0.012287 0.025347 -0.015454 0.000000 0.000000 0.000000
# 3 -0.008332 -0.015454 0.037994 0.000000 0.000000 0.000000
# 4 0.000000 0.000000 0.000000 0.034983 0.000000 0.000000
# 5 0.000000 0.000000 0.000000 0.000000 0.038992 0.000000
# 6 0.000000 0.000000 0.000000 0.000000 0.000000 0.029996
#
#
# Mechanical properties :
#
#
# Convention : Reuss Voigt Hill
#
# Bulk Modulus (GPa) = 10.28826 15.15170 12.71998
# Shear Modulus (GPa) = 17.88487 24.11031 20.99759
#
# Velocity S-wave (km/s) = 2.91049 3.37929 3.15361
# Velocity P-wave (km/s) = 4.02089 4.73313 4.39147
#
# Compressibility (1/GPa) = 0.09719816
#
# Stress axis : x y z
#
# Youngs Moduli (GPa) = 17.58828 39.45277 26.32018
#
# Poissons Ratio (x) = -0.48477 0.21931
# Poissons Ratio (y) = -0.21611 0.40675
# Poissons Ratio (z) = 0.14655 0.60971
#
# Static dielectric constant tensor:
#      x y z
#    x 1.776260 0.000000 0.000000 
#    y 0.000000 1.821730 0.000000 
#    z 0.000000 0.000000 1.807170 
# 
# From -- ./inp_files/3562.got.cif
#   From: 2010.05.17/outbox.cif.g08.bks.cpg/sg19_2_cif.got.tgz:3562.got - 2010.06.03 22:46:19.
