data_PCOD9314633
_publ_section_title
;
Structure prediction by ZEFSAII (Michael W. Deem and Ramdas Pophale) SiO2 
 PCOD9314633
Probable space group: P 21 21 21
;
_chemical_formula_sum "Si O2"
_cell_formula_units_Z 20
_cell_length_a 13.035670
_cell_length_b 8.137154
_cell_length_c 7.110561
_cell_angle_alpha 90.000000
_cell_angle_beta 90.000000
_cell_angle_gamma 90.000000
_cell_volume 754.240345
_symmetry_space_group_name_H-M "P 21 21 21"
_symmetry_group_IT_number 19
_symmetry_cell_setting 'orthorhombic'
loop_
_space_group_symop_operation_xyz
x,y,z
1/2-x,-y,1/2+z
1/2+x,1/2-y,-z
-x,1/2+y,1/2-z
loop_
_atom_site_type_symbol
_atom_site_label
_atom_site_fract_x
_atom_site_fract_y
_atom_site_fract_z
Si Si1 0.635073 0.358377 0.831996
Si Si2 0.363622 0.086795 0.198740
Si Si3 0.753766 0.763215 0.001729
Si Si4 0.683249 0.105729 0.149235
Si Si5 0.525051 0.909145 0.402670
O O1 0.747830 0.439302 0.875464
O O2 0.649177 0.315733 0.613270
O O3 0.640502 0.197360 0.966314
O O4 0.529973 0.442337 0.897304
O O5 0.343130 0.179203 0.397704
O O6 0.421595 0.230909 0.087367
O O7 0.429453 0.928928 0.255616
O O8 0.745992 0.950090 0.078302
O O9 0.748629 0.776441 0.779022
O O10 0.600873 0.036991 0.300762
#
# Coordination Sequence:
#
# PCOD9314633 Si02
#       5
#     4   4   4   4   4
#     4  10  22  39  63  93 129 167 220 263 318 385
#     4   9  22  39  66  94 127 173 204 270 325 379
#     4   9  20  37  62  95 120 170 213 258 324 376
#     4  11  18  39  68  88 127 174 207 264 324 388
#     4  11  20  40  65  94 129 170 214 261 327 376
#
# _framework density 26.516746000000001
#
# number of rings (size 3 to 8) (size 9 to 14) (size 15 to 20)
#    1.200    0.800    4.000    0.000    0.000    1.600 
#    0.000    8.000    0.000    0.000    0.000    0.000 
#    0.000    0.000    0.000    0.000    0.000    0.000 
#
# Total GULP energy -111545.495169 kJ/mol
# GULP energy per Si atom -5577.274758 kJ/mol
# Density = 2.645639 g / cm^3
# Si number density = 26.516746 Si / 1000 Ang^3
#
#
#
# Elastic Constant Matrix: (Units=GPa)
#
#
# Indices 1 2 3 4 5 6 
#
# 1 72.4449 11.8438 4.0544 0.0000 0.0000 0.0000
# 2 11.8438 62.8123 4.8075 0.0000 0.0000 0.0000
# 3 4.0544 4.8075 103.4446 0.0000 0.0000 0.0000
# 4 0.0000 0.0000 0.0000 34.2432 0.0000 0.0000
# 5 0.0000 0.0000 0.0000 0.0000 56.4538 0.0000
# 6 0.0000 0.0000 0.0000 0.0000 0.0000 39.1024
#
#
#
# Elastic Compliance Matrix: (Units=1/GPa)
#
#
# Indices 1 2 3 4 5 6 
#
# 1 0.014262 -0.002656 -0.000436 0.000000 0.000000 0.000000
# 2 -0.002656 0.016472 -0.000661 0.000000 0.000000 0.000000
# 3 -0.000436 -0.000661 0.009715 0.000000 0.000000 0.000000
# 4 0.000000 0.000000 0.000000 0.029203 0.000000 0.000000
# 5 0.000000 0.000000 0.000000 0.000000 0.017714 0.000000
# 6 0.000000 0.000000 0.000000 0.000000 0.000000 0.025574
#
#
# Mechanical properties :
#
#
# Convention : Reuss Voigt Hill
#
# Bulk Modulus (GPa) = 30.35537 31.12366 30.73951
# Shear Modulus (GPa) = 38.04421 40.49295 39.26858
#
# Velocity S-wave (km/s) = 3.79188 3.91201 3.85242
# Velocity P-wave (km/s) = 5.53567 5.67168 5.60409
#
# Compressibility (1/GPa) = 0.03294310
#
# Stress axis : x y z
#
# Youngs Moduli (GPa) = 70.11547 60.70952 102.93550
#
# Poissons Ratio (x) = 0.16124 0.04483
# Poissons Ratio (y) = 0.18622 0.06808
# Poissons Ratio (z) = 0.03054 0.04015
#
# Static dielectric constant tensor:
#      x y z
#    x 2.203210 0.000000 0.000000 
#    y 0.000000 2.225360 0.000000 
#    z 0.000000 0.000000 2.004170 
# 
# From -- ./inp_files/3827.got.cif
#   From: 2010.05.17/outbox.cif.g08.bks.cpg/sg19_2_cif.got.tgz:3827.got - 2010.06.03 22:46:19.
