data_PCOD9314389
_publ_section_title
;
Structure prediction by ZEFSAII (Michael W. Deem and Ramdas Pophale) SiO2 
 PCOD9314389
Probable space group: P 21 21 21
;
_chemical_formula_sum "Si O2"
_cell_formula_units_Z 20
_cell_length_a 8.408434
_cell_length_b 4.840868
_cell_length_c 18.948567
_cell_angle_alpha 90.000000
_cell_angle_beta 90.000000
_cell_angle_gamma 90.000000
_cell_volume 771.284728
_symmetry_space_group_name_H-M "P 21 21 21"
_symmetry_group_IT_number 19
_symmetry_cell_setting 'orthorhombic'
loop_
_space_group_symop_operation_xyz
x,y,z
1/2-x,-y,1/2+z
1/2+x,1/2-y,-z
-x,1/2+y,1/2-z
loop_
_atom_site_type_symbol
_atom_site_label
_atom_site_fract_x
_atom_site_fract_y
_atom_site_fract_z
Si Si1 0.974116 0.986856 0.558320
Si Si2 0.009736 0.690090 0.345620
Si Si3 0.848763 0.501479 0.482132
Si Si4 0.340425 0.312916 0.707718
Si Si5 0.510248 0.227011 0.298530
O O1 0.939393 0.125366 0.633816
O O2 0.892103 0.189531 0.501447
O O3 0.165860 0.971100 0.544212
O O4 0.886887 0.694225 0.549423
O O5 0.981404 0.607481 0.425627
O O6 0.873148 0.504548 0.308441
O O7 0.151226 0.623239 0.291090
O O8 0.973897 0.010336 0.332490
O O9 0.175788 0.404154 0.675214
O O10 0.561331 0.472995 0.244588
#
# Coordination Sequence:
#
# PCOD9314389 Si02
#       5
#     4   4   4   4   4
#     4  12  28  47  75 107 148 197 246 297 375 437
#     4  10  21  40  71  96 131 180 232 289 345 417
#     4  12  26  47  76 107 150 196 243 306 361 450
#     4  10  21  40  68 101 129 176 235 283 351 421
#     4  12  26  44  72 101 144 187 234 303 366 435
#
# _framework density 25.930758000000001
#
# number of rings (size 3 to 8) (size 9 to 14) (size 15 to 20)
#    0.000    0.800    2.000    4.800    2.800    4.800 
#    0.000    0.000    0.000    0.000    0.000    0.000 
#    0.000    0.000    0.000    0.000    0.000    0.000 
#
# Total GULP energy -111712.203976 kJ/mol
# GULP energy per Si atom -5585.610199 kJ/mol
# Density = 2.587174 g / cm^3
# Si number density = 25.930758 Si / 1000 Ang^3
#
#
#
# Elastic Constant Matrix: (Units=GPa)
#
#
# Indices 1 2 3 4 5 6 
#
# 1 51.3674 11.0415 9.3823 0.0000 0.0000 0.0000
# 2 11.0415 101.5233 7.1542 0.0000 0.0000 0.0000
# 3 9.3823 7.1542 66.5040 0.0000 0.0000 0.0000
# 4 0.0000 0.0000 0.0000 34.7303 0.0000 0.0000
# 5 0.0000 0.0000 0.0000 0.0000 25.9543 0.0000
# 6 0.0000 0.0000 0.0000 0.0000 0.0000 30.7585
#
#
#
# Elastic Compliance Matrix: (Units=1/GPa)
#
#
# Indices 1 2 3 4 5 6 
#
# 1 0.020389 -0.002030 -0.002658 0.000000 0.000000 0.000000
# 2 -0.002030 0.010127 -0.000803 0.000000 0.000000 0.000000
# 3 -0.002658 -0.000803 0.015498 0.000000 0.000000 0.000000
# 4 0.000000 0.000000 0.000000 0.028793 0.000000 0.000000
# 5 0.000000 0.000000 0.000000 0.000000 0.038529 0.000000
# 6 0.000000 0.000000 0.000000 0.000000 0.000000 0.032511
#
#
# Mechanical properties :
#
#
# Convention : Reuss Voigt Hill
#
# Bulk Modulus (GPa) = 28.54518 30.50564 29.52541
# Shear Modulus (GPa) = 29.67200 31.07639 30.37420
#
# Velocity S-wave (km/s) = 3.38639 3.46560 3.42622
# Velocity P-wave (km/s) = 5.13053 5.27292 5.20221
#
# Compressibility (1/GPa) = 0.03503218
#
# Stress axis : x y z
#
# Youngs Moduli (GPa) = 49.04488 98.74253 64.52407
#
# Poissons Ratio (x) = 0.20047 0.17151
# Poissons Ratio (y) = 0.09957 0.05181
# Poissons Ratio (z) = 0.13037 0.07929
#
# Static dielectric constant tensor:
#      x y z
#    x 2.103050 0.000000 0.000000 
#    y 0.000000 1.968150 0.000000 
#    z 0.000000 0.000000 2.127380 
# 
# From -- ./inp_files/383.got.cif
#   From: 2010.05.17/outbox.cif.g08.bks.cpg/sg19_1_cif.got.tgz:383.got - 2010.06.03 22:46:19.
