data_PCOD9314372
_publ_section_title
;
Structure prediction by ZEFSAII (Michael W. Deem and Ramdas Pophale) SiO2 
 PCOD9314372
Probable space group: P 21 21 21
;
_chemical_formula_sum "Si O2"
_cell_formula_units_Z 16
_cell_length_a 7.674608
_cell_length_b 4.892911
_cell_length_c 16.631206
_cell_angle_alpha 90.000000
_cell_angle_beta 90.000000
_cell_angle_gamma 90.000000
_cell_volume 624.521309
_symmetry_space_group_name_H-M "P 21 21 21"
_symmetry_group_IT_number 19
_symmetry_cell_setting 'orthorhombic'
loop_
_space_group_symop_operation_xyz
x,y,z
1/2-x,-y,1/2+z
1/2+x,1/2-y,-z
-x,1/2+y,1/2-z
loop_
_atom_site_type_symbol
_atom_site_label
_atom_site_fract_x
_atom_site_fract_y
_atom_site_fract_z
Si Si1 0.788426 0.338802 0.588907
Si Si2 0.488397 0.537096 0.306834
Si Si3 0.675933 0.163204 0.413666
Si Si4 0.013491 0.427496 0.191619
O O1 0.742652 0.217030 0.502574
O O2 0.982139 0.467946 0.580128
O O3 0.640118 0.527227 0.626359
O O4 0.818185 0.089122 0.651248
O O5 0.527815 0.327677 0.233508
O O6 0.634690 0.456918 0.371853
O O7 0.188290 0.511758 0.143698
O O8 0.019901 0.136834 0.234667
#
# Coordination Sequence:
#
# PCOD9314372 Si02
#       4
#     4   4   4   4
#     4  10  22  43  67  98 136 175 218 272 331 393
#     4  10  21  40  65  90 124 166 212 264 315 374
#     4  10  22  43  67  98 136 175 218 272 331 393
#     4  12  25  44  71 100 130 174 224 272 329 392
#
# _framework density 25.619624000000002
#
# number of rings (size 3 to 8) (size 9 to 14) (size 15 to 20)
#    1.500    0.000    2.500    3.000    0.000    0.000 
#    0.000   15.000    0.000    0.000    0.000    0.000 
#    0.000    0.000    0.000    0.000    0.000    0.000 
#
# Total GULP energy -89581.142563 kJ/mol
# GULP energy per Si atom -5598.821410 kJ/mol
# Density = 2.556131 g / cm^3
# Si number density = 25.619624 Si / 1000 Ang^3
#
#
#
# Elastic Constant Matrix: (Units=GPa)
#
#
# Indices 1 2 3 4 5 6 
#
# 1 155.1982 -8.7462 8.2929 0.0000 0.0000 0.0000
# 2 -8.7462 52.4590 -23.2571 0.0000 0.0000 0.0000
# 3 8.2929 -23.2571 118.3876 0.0000 0.0000 0.0000
# 4 0.0000 0.0000 0.0000 5.6501 0.0000 0.0000
# 5 0.0000 0.0000 0.0000 0.0000 68.5779 0.0000
# 6 0.0000 0.0000 0.0000 0.0000 0.0000 27.7086
#
#
#
# Elastic Compliance Matrix: (Units=1/GPa)
#
#
# Indices 1 2 3 4 5 6 
#
# 1 0.006512 0.000968 -0.000266 0.000000 0.000000 0.000000
# 2 0.000968 0.021025 0.004063 0.000000 0.000000 0.000000
# 3 -0.000266 0.004063 0.009264 0.000000 0.000000 0.000000
# 4 0.000000 0.000000 0.000000 0.176988 0.000000 0.000000
# 5 0.000000 0.000000 0.000000 0.000000 0.014582 0.000000
# 6 0.000000 0.000000 0.000000 0.000000 0.000000 0.036090
#
#
# Mechanical properties :
#
#
# Convention : Reuss Voigt Hill
#
# Bulk Modulus (GPa) = 21.58469 30.95821 26.27145
# Shear Modulus (GPa) = 18.49283 43.70432 31.09858
#
# Velocity S-wave (km/s) = 2.68959 4.13473 3.48783
# Velocity P-wave (km/s) = 4.25306 5.90801 5.14748
#
# Compressibility (1/GPa) = 0.04632913
#
# Stress axis : x y z
#
# Youngs Moduli (GPa) = 153.55959 47.56259 107.95001
#
# Poissons Ratio (x) = -0.04603 0.02872
# Poissons Ratio (y) = -0.14861 -0.43855
# Poissons Ratio (z) = 0.04085 -0.19322
#
# Static dielectric constant tensor:
#      x y z
#    x 2.114180 0.000000 0.000000 
#    y 0.000000 2.082240 0.000000 
#    z 0.000000 0.000000 1.968190 
# 
# From -- ./inp_files/4409.got.cif
#   From: 2010.05.17/outbox.cif.g08.bks.cpg/sg19_3_cif.got.tgz:4409.got - 2010.06.03 22:46:19.
