data_PCOD9314914
_publ_section_title
;
Structure prediction by ZEFSAII (Michael W. Deem and Ramdas Pophale) SiO2 
 PCOD9314914
Probable space group: P 21 21 21
;
_chemical_formula_sum "Si O2"
_cell_formula_units_Z 32
_cell_length_a 19.999047
_cell_length_b 5.319134
_cell_length_c 13.500302
_cell_angle_alpha 90.000000
_cell_angle_beta 90.000000
_cell_angle_gamma 90.000000
_cell_volume 1436.129873
_symmetry_space_group_name_H-M "P 21 21 21"
_symmetry_group_IT_number 19
_symmetry_cell_setting 'orthorhombic'
loop_
_space_group_symop_operation_xyz
x,y,z
1/2-x,-y,1/2+z
1/2+x,1/2-y,-z
-x,1/2+y,1/2-z
loop_
_atom_site_type_symbol
_atom_site_label
_atom_site_fract_x
_atom_site_fract_y
_atom_site_fract_z
Si Si1 0.110781 0.223477 0.632888
Si Si2 0.389219 0.723477 0.367112
Si Si3 0.108331 0.626995 0.049124
Si Si4 0.000000 1.000000 0.981113
Si Si5 1.000000 1.000000 0.313180
Si Si6 0.251895 0.576621 0.057441
Si Si7 0.251895 0.923379 0.442559
Si Si8 0.108331 0.873005 0.450876
O O1 0.103960 0.250000 0.750000
O O2 0.040530 0.313540 0.588912
O O3 0.178015 0.385225 0.611709
O O4 0.121195 0.975534 0.563065
O O5 0.378805 0.475534 0.436935
O O6 0.459470 0.813540 0.411088
O O7 0.321985 0.885225 0.388291
O O8 0.180058 0.662688 0.100366
O O9 0.063438 0.443596 0.115890
O O10 0.059364 0.863808 0.040011
O O11 0.940636 0.136192 0.040011
O O12 0.063438 0.056404 0.384110
O O13 0.013455 0.750000 0.250000
O O14 0.242463 0.283993 0.030848
O O15 0.257537 0.783993 0.969152
O O16 0.180058 0.837312 0.399634
#
# Coordination Sequence:
#
# PCOD9314914 Si02
#       8
#     4   4   4   4   4   4   4   4
#     4  11  25  41  69 105 141 186 236 284 355 428
#     4  11  25  41  69 105 141 186 236 284 355 428
#     4  11  24  45  69  98 142 183 228 298 355 413
#     4  12  21  41  70 100 138 186 221 289 352 422
#     4  12  27  43  72 104 132 182 245 295 354 414
#     4  10  22  44  67  94 133 188 229 277 342 410
#     4  10  22  44  67  94 133 188 229 277 342 410
#     4  11  24  45  69  98 142 183 228 298 355 413
#
# _framework density 22.282105999999999
#
# number of rings (size 3 to 8) (size 9 to 14) (size 15 to 20)
#    0.000    1.000    5.000    0.750    3.500    1.000 
#    0.000    5.000    0.000    0.000    0.000    0.000 
#    0.000    0.000    0.000    0.000    0.000    0.000 
#
# Total GULP energy -178142.724523 kJ/mol
# GULP energy per Si atom -5566.960141 kJ/mol
# Density = 2.223139 g / cm^3
# Si number density = 22.282106 Si / 1000 Ang^3
#
#
#
# Elastic Constant Matrix: (Units=GPa)
#
#
# Indices 1 2 3 4 5 6 
#
# 1 151.3355 7.2738 8.6088 0.0000 0.0000 0.0000
# 2 7.2738 71.9099 27.6928 0.0000 0.0000 0.0000
# 3 8.6088 27.6928 97.6144 0.0000 0.0000 0.0000
# 4 0.0000 0.0000 0.0000 14.5123 0.0000 0.0000
# 5 0.0000 0.0000 0.0000 0.0000 10.9931 0.0000
# 6 0.0000 0.0000 0.0000 0.0000 0.0000 49.6766
#
#
#
# Elastic Compliance Matrix: (Units=1/GPa)
#
#
# Indices 1 2 3 4 5 6 
#
# 1 0.006657 -0.000502 -0.000445 0.000000 0.000000 0.000000
# 2 -0.000502 0.015650 -0.004396 0.000000 0.000000 0.000000
# 3 -0.000445 -0.004396 0.011531 0.000000 0.000000 0.000000
# 4 0.000000 0.000000 0.000000 0.068907 0.000000 0.000000
# 5 0.000000 0.000000 0.000000 0.000000 0.090966 0.000000
# 6 0.000000 0.000000 0.000000 0.000000 0.000000 0.020130
#
#
# Mechanical properties :
#
#
# Convention : Reuss Voigt Hill
#
# Bulk Modulus (GPa) = 43.19089 45.33454 44.26272
# Shear Modulus (GPa) = 21.52913 33.52202 27.52558
#
# Velocity S-wave (km/s) = 3.11176 3.88291 3.51853
# Velocity P-wave (km/s) = 5.68652 6.36338 6.03445
#
# Compressibility (1/GPa) = 0.02315303
#
# Stress axis : x y z
#
# Youngs Moduli (GPa) = 150.21183 63.89856 86.72580
#
# Poissons Ratio (x) = 0.03209 0.03856
# Poissons Ratio (y) = 0.07543 0.38120
# Poissons Ratio (z) = 0.06679 0.28087
#
# Static dielectric constant tensor:
#      x y z
#    x 1.853430 0.000000 0.000000 
#    y 0.000000 1.965630 0.000000 
#    z 0.000000 0.000000 1.855120 
# 
# From -- ./inp_files/5499.got.cif
#   From: 2010.05.17/outbox.cif.g08.bks.cpg/sg19_3_cif.got.tgz:5499.got - 2010.06.03 22:46:19.
