data_PCOD9314228
_publ_section_title
;
Structure prediction by ZEFSAII (Michael W. Deem and Ramdas Pophale) SiO2 
 PCOD9314228
Probable space group: P 21 21 21
;
_chemical_formula_sum "Si O2"
_cell_formula_units_Z 28
_cell_length_a 9.686006
_cell_length_b 15.887415
_cell_length_c 7.361775
_cell_angle_alpha 90.000000
_cell_angle_beta 90.000000
_cell_angle_gamma 90.000000
_cell_volume 1132.871141
_symmetry_space_group_name_H-M "P 21 21 21"
_symmetry_group_IT_number 19
_symmetry_cell_setting 'orthorhombic'
loop_
_space_group_symop_operation_xyz
x,y,z
1/2-x,-y,1/2+z
1/2+x,1/2-y,-z
-x,1/2+y,1/2-z
loop_
_atom_site_type_symbol
_atom_site_label
_atom_site_fract_x
_atom_site_fract_y
_atom_site_fract_z
Si Si1 0.384887 0.599107 0.579741
Si Si2 0.815387 0.062420 0.614588
Si Si3 0.936642 0.501043 0.654634
Si Si4 0.182765 0.194774 0.326895
Si Si5 0.462453 0.189434 0.200854
Si Si6 0.588954 0.778363 0.959696
Si Si7 0.367861 0.996687 0.763301
O O1 0.294582 0.530444 0.466208
O O2 0.306742 0.604623 0.770589
O O3 0.427707 0.678188 0.457845
O O4 0.530968 0.553012 0.617396
O O5 0.854321 0.127052 0.455454
O O6 0.942489 0.052413 0.751833
O O7 0.963828 0.402576 0.701930
O O8 0.926521 0.508796 0.439155
O O9 0.789050 0.528262 0.734917
O O10 0.297440 0.204031 0.165811
O O11 0.277125 0.221506 0.500821
O O12 0.145603 0.097106 0.340275
O O13 0.032168 0.237913 0.317266
O O14 0.490882 0.260875 0.348811
#
# Coordination Sequence:
#
# PCOD9314228 Si02
#       7
#     4   4   4   4   4   4   4
#     4  11  22  41  66  93 130 166 217 271 314 384
#     4  11  23  41  63  97 128 166 215 271 324 372
#     4  10  21  37  66  91 124 163 221 262 314 373
#     4   9  20  39  63  89 126 172 207 263 314 398
#     4   8  21  40  62  88 130 166 214 260 317 386
#     4  10  21  41  64  90 134 165 213 261 330 389
#     4  11  20  39  64  94 122 170 217 262 317 380
#
# _framework density 24.715959999999999
#
# number of rings (size 3 to 8) (size 9 to 14) (size 15 to 20)
#    0.857    1.143    1.429    3.429    2.000    3.429 
#    5.143    0.000    0.000    0.000    0.000    0.000 
#    0.000    0.000    0.000    0.000    0.000    0.000 
#
# Total GULP energy -156234.052183 kJ/mol
# GULP energy per Si atom -5579.787578 kJ/mol
# Density = 2.465971 g / cm^3
# Si number density = 24.715960 Si / 1000 Ang^3
#
#
#
# Elastic Constant Matrix: (Units=GPa)
#
#
# Indices 1 2 3 4 5 6 
#
# 1 105.1649 5.5877 2.0846 0.0000 0.0000 0.0000
# 2 5.5877 40.2509 7.9556 0.0000 0.0000 0.0000
# 3 2.0846 7.9556 45.3565 0.0000 0.0000 0.0000
# 4 0.0000 0.0000 0.0000 13.6023 0.0000 0.0000
# 5 0.0000 0.0000 0.0000 0.0000 44.3413 0.0000
# 6 0.0000 0.0000 0.0000 0.0000 0.0000 16.0352
#
#
#
# Elastic Compliance Matrix: (Units=1/GPa)
#
#
# Indices 1 2 3 4 5 6 
#
# 1 0.009582 -0.001288 -0.000215 0.000000 0.000000 0.000000
# 2 -0.001288 0.025909 -0.004485 0.000000 0.000000 0.000000
# 3 -0.000215 -0.004485 0.022844 0.000000 0.000000 0.000000
# 4 0.000000 0.000000 0.000000 0.073517 0.000000 0.000000
# 5 0.000000 0.000000 0.000000 0.000000 0.022552 0.000000
# 6 0.000000 0.000000 0.000000 0.000000 0.000000 0.062363
#
#
# Mechanical properties :
#
#
# Convention : Reuss Voigt Hill
#
# Bulk Modulus (GPa) = 21.57035 24.66980 23.12007
# Shear Modulus (GPa) = 20.47535 26.47203 23.47369
#
# Velocity S-wave (km/s) = 2.88136 3.27624 3.08513
# Velocity P-wave (km/s) = 4.45151 4.93099 4.69737
#
# Compressibility (1/GPa) = 0.04635993
#
# Stress axis : x y z
#
# Youngs Moduli (GPa) = 104.36723 38.59591 43.77485
#
# Poissons Ratio (x) = 0.04970 0.00939
# Poissons Ratio (y) = 0.13440 0.19635
# Poissons Ratio (z) = 0.02239 0.17312
#
# Static dielectric constant tensor:
#      x y z
#    x 2.003450 0.000000 0.000000 
#    y 0.000000 1.979700 0.000000 
#    z 0.000000 0.000000 1.941170 
# 
# From -- ./inp_files/3086.got.cif
#   From: 2010.05.17/outbox.cif.g08.bks.cpg/sg19_2_cif.got.tgz:3086.got - 2010.06.03 22:46:19.
