data_PCOD9314375
_publ_section_title
;
Structure prediction by ZEFSAII (Michael W. Deem and Ramdas Pophale) SiO2 
 PCOD9314375
Probable space group: P 21 21 21
;
_chemical_formula_sum "Si O2"
_cell_formula_units_Z 32
_cell_length_a 6.035898
_cell_length_b 8.282606
_cell_length_c 25.702100
_cell_angle_alpha 90.000000
_cell_angle_beta 90.000000
_cell_angle_gamma 90.000000
_cell_volume 1284.924185
_symmetry_space_group_name_H-M "P 21 21 21"
_symmetry_group_IT_number 19
_symmetry_cell_setting 'orthorhombic'
loop_
_space_group_symop_operation_xyz
x,y,z
1/2-x,-y,1/2+z
1/2+x,1/2-y,-z
-x,1/2+y,1/2-z
loop_
_atom_site_type_symbol
_atom_site_label
_atom_site_fract_x
_atom_site_fract_y
_atom_site_fract_z
Si Si1 0.856980 0.441636 0.897962
Si Si2 0.574387 0.931110 0.742070
Si Si3 0.196063 0.741387 0.781955
Si Si4 0.104462 0.235999 0.817594
Si Si5 0.091189 0.769104 0.079275
Si Si6 0.824918 0.194542 0.982262
Si Si7 0.615961 0.079871 0.345142
Si Si8 0.805640 0.137882 0.530312
O O1 0.994560 0.387244 0.847866
O O2 0.999066 0.548058 0.938874
O O3 0.652004 0.562988 0.892346
O O4 0.791007 0.273116 0.925329
O O5 0.330049 0.898571 0.762528
O O6 0.652833 0.792270 0.701232
O O7 0.727430 0.931669 0.793910
O O8 0.624631 0.100666 0.714959
O O9 0.025959 0.707028 0.735797
O O10 0.050227 0.775043 0.831816
O O11 0.043724 0.075942 0.850038
O O12 0.221870 0.627810 0.108349
O O13 0.828612 0.764246 0.073821
O O14 0.142525 0.754880 0.017594
O O15 0.585569 0.256889 0.006716
O O16 0.819075 0.010904 0.001798
#
# Coordination Sequence:
#
# PCOD9314375 Si02
#       8
#     4   4   4   4   4   4   4   4
#     4  11  23  40  65  94 128 174 226 274 344 412
#     4  10  21  40  65  96 133 168 216 268 335 402
#     4  10  21  40  65  95 132 170 211 272 333 403
#     4  10  22  41  62  96 130 172 217 273 328 405
#     4  12  23  42  63  92 129 170 223 279 342 409
#     4  10  21  41  66  92 129 176 227 287 345 408
#     4  10  23  40  65  93 130 170 218 271 333 405
#     4  11  24  42  63  92 129 172 224 286 344 408
#
# _framework density 24.904191999999998
#
# number of rings (size 3 to 8) (size 9 to 14) (size 15 to 20)
#    0.000    1.500    2.500    2.250    0.000    6.000 
#    0.000    0.000    2.750    0.000    0.000    0.000 
#    0.000    0.000    0.000    0.000    0.000    0.000 
#
# Total GULP energy -178422.008879 kJ/mol
# GULP energy per Si atom -5575.687777 kJ/mol
# Density = 2.484751 g / cm^3
# Si number density = 24.904192 Si / 1000 Ang^3
#
#
#
# Elastic Constant Matrix: (Units=GPa)
#
#
# Indices 1 2 3 4 5 6 
#
# 1 49.3001 19.0505 20.3498 0.0000 0.0000 0.0000
# 2 19.0505 85.7701 16.9879 0.0000 0.0000 0.0000
# 3 20.3498 16.9879 84.4771 0.0000 0.0000 0.0000
# 4 0.0000 0.0000 0.0000 35.3266 0.0000 0.0000
# 5 0.0000 0.0000 0.0000 0.0000 44.0274 0.0000
# 6 0.0000 0.0000 0.0000 0.0000 0.0000 29.6354
#
#
#
# Elastic Compliance Matrix: (Units=1/GPa)
#
#
# Indices 1 2 3 4 5 6 
#
# 1 0.023992 -0.004358 -0.004903 0.000000 0.000000 0.000000
# 2 -0.004358 0.012934 -0.001551 0.000000 0.000000 0.000000
# 3 -0.004903 -0.001551 0.013331 0.000000 0.000000 0.000000
# 4 0.000000 0.000000 0.000000 0.028307 0.000000 0.000000
# 5 0.000000 0.000000 0.000000 0.000000 0.022713 0.000000
# 6 0.000000 0.000000 0.000000 0.000000 0.000000 0.033743
#
#
# Mechanical properties :
#
#
# Convention : Reuss Voigt Hill
#
# Bulk Modulus (GPa) = 34.92548 36.92486 35.92517
# Shear Modulus (GPa) = 30.08630 32.67516 31.38073
#
# Velocity S-wave (km/s) = 3.47952 3.62613 3.55358
# Velocity P-wave (km/s) = 5.49519 5.69129 5.59410
#
# Compressibility (1/GPa) = 0.02863239
#
# Stress axis : x y z
#
# Youngs Moduli (GPa) = 41.68102 77.31424 75.01547
#
# Poissons Ratio (x) = 0.33691 0.36781
# Poissons Ratio (y) = 0.18163 0.11637
# Poissons Ratio (z) = 0.20437 0.11993
#
# Static dielectric constant tensor:
#      x y z
#    x 2.044470 0.000000 0.000000 
#    y 0.000000 2.016600 0.000000 
#    z 0.000000 0.000000 1.959620 
# 
# From -- ./inp_files/7542.got.cif
#   From: 2010.05.17/outbox.cif.g08.bks.cpg/sg19_4_cif.got.tgz:7542.got - 2010.06.03 22:46:19.
