data_PCOD9314778
_publ_section_title
;
Structure prediction by ZEFSAII (Michael W. Deem and Ramdas Pophale) SiO2 
 PCOD9314778
Probable space group: P 21 21 21
;
_chemical_formula_sum "Si O2"
_cell_formula_units_Z 28
_cell_length_a 9.138519
_cell_length_b 18.471543
_cell_length_c 9.036354
_cell_angle_alpha 90.000000
_cell_angle_beta 90.000000
_cell_angle_gamma 90.000000
_cell_volume 1525.359568
_symmetry_space_group_name_H-M "P 21 21 21"
_symmetry_group_IT_number 19
_symmetry_cell_setting 'orthorhombic'
loop_
_space_group_symop_operation_xyz
x,y,z
1/2-x,-y,1/2+z
1/2+x,1/2-y,-z
-x,1/2+y,1/2-z
loop_
_atom_site_type_symbol
_atom_site_label
_atom_site_fract_x
_atom_site_fract_y
_atom_site_fract_z
Si Si1 0.661358 0.919878 0.489659
Si Si2 0.916771 0.648691 0.324273
Si Si3 0.616787 0.978788 0.163570
Si Si4 0.907187 0.168159 0.479099
Si Si5 0.897585 0.783537 0.847268
Si Si6 0.117288 0.290737 0.985777
Si Si7 0.915741 0.391398 0.822075
O O1 0.506870 0.900945 0.562141
O O2 0.647074 0.957455 0.332085
O O3 0.750859 0.844591 0.474368
O O4 0.755726 0.969886 0.599451
O O5 0.903552 0.728119 0.396974
O O6 0.754659 0.618642 0.299293
O O7 0.008248 0.653907 0.173923
O O8 0.470861 0.027557 0.154258
O O9 0.606876 0.906373 0.068033
O O10 0.746905 0.198891 0.439524
O O11 0.999835 0.225365 0.574573
O O12 0.854643 0.759486 0.679799
O O13 0.991387 0.856334 0.813534
O O14 0.974031 0.341170 0.958427
#
# Coordination Sequence:
#
# PCOD9314778 Si02
#       7
#     4   4   4   4   4   4   4
#     4  11  22  41  67  88 127 174 214 265 327 399
#     4  12  21  38  66  96 123 172 210 271 331 383
#     4  11  24  44  62  94 128 178 212 271 324 400
#     4  12  24  39  68  94 135 166 224 266 339 379
#     4  10  22  42  59  98 124 168 212 277 309 394
#     4   9  21  40  61  92 122 167 217 266 319 386
#     4   9  22  40  63  88 133 159 223 264 313 393
#
# _framework density 18.356327
#
# number of rings (size 3 to 8) (size 9 to 14) (size 15 to 20)
#    0.857    0.571    1.429    4.286    4.000    1.143 
#    0.000    1.429    0.000    0.000    0.000    0.000 
#    0.000    0.000    0.000    0.000    0.000    0.000 
#
# Total GULP energy -156313.709257 kJ/mol
# GULP energy per Si atom -5582.632473 kJ/mol
# Density = 1.831455 g / cm^3
# Si number density = 18.356327 Si / 1000 Ang^3
#
#
#
# Elastic Constant Matrix: (Units=GPa)
#
#
# Indices 1 2 3 4 5 6 
#
# 1 127.8814 48.6058 20.1308 0.0000 0.0000 0.0000
# 2 48.6058 66.7215 33.4500 0.0000 0.0000 0.0000
# 3 20.1308 33.4500 76.4897 0.0000 0.0000 0.0000
# 4 0.0000 0.0000 0.0000 39.5060 0.0000 0.0000
# 5 0.0000 0.0000 0.0000 0.0000 13.3605 0.0000
# 6 0.0000 0.0000 0.0000 0.0000 0.0000 4.3991
#
#
#
# Elastic Compliance Matrix: (Units=1/GPa)
#
#
# Indices 1 2 3 4 5 6 
#
# 1 0.010849 -0.008289 0.000770 0.000000 0.000000 0.000000
# 2 -0.008289 0.025530 -0.008983 0.000000 0.000000 0.000000
# 3 0.000770 -0.008983 0.016799 0.000000 0.000000 0.000000
# 4 0.000000 0.000000 0.000000 0.025313 0.000000 0.000000
# 5 0.000000 0.000000 0.000000 0.000000 0.074847 0.000000
# 6 0.000000 0.000000 0.000000 0.000000 0.000000 0.227317
#
#
# Mechanical properties :
#
#
# Convention : Reuss Voigt Hill
#
# Bulk Modulus (GPa) = 49.57043 52.82955 51.19999
# Shear Modulus (GPa) = 11.89385 22.71353 17.30369
#
# Velocity S-wave (km/s) = 2.54823 3.52144 3.07360
# Velocity P-wave (km/s) = 5.97672 6.73621 6.36780
#
# Compressibility (1/GPa) = 0.02017332
#
# Stress axis : x y z
#
# Youngs Moduli (GPa) = 92.17200 39.16966 59.52575
#
# Poissons Ratio (x) = 0.32470 -0.04582
# Poissons Ratio (y) = 0.76406 0.53472
# Poissons Ratio (z) = -0.07095 0.35186
#
# Static dielectric constant tensor:
#      x y z
#    x 1.620840 0.000000 0.000000 
#    y 0.000000 1.615260 0.000000 
#    z 0.000000 0.000000 1.621300 
# 
# From -- ./inp_files/2984.got.cif
#   From: 2010.05.17/outbox.cif.g08.bks.cpg/sg19_2_cif.got.tgz:2984.got - 2010.06.03 22:46:19.
