data_PCOD9314290
_publ_section_title
;
Structure prediction by ZEFSAII (Michael W. Deem and Ramdas Pophale) SiO2 
 PCOD9314290
Probable space group: P 21 21 21
;
_chemical_formula_sum "Si O2"
_cell_formula_units_Z 32
_cell_length_a 8.421573
_cell_length_b 5.349979
_cell_length_c 32.671296
_cell_angle_alpha 90.000000
_cell_angle_beta 90.000000
_cell_angle_gamma 90.000000
_cell_volume 1472.013040
_symmetry_space_group_name_H-M "P 21 21 21"
_symmetry_group_IT_number 19
_symmetry_cell_setting 'orthorhombic'
loop_
_space_group_symop_operation_xyz
x,y,z
1/2-x,-y,1/2+z
1/2+x,1/2-y,-z
-x,1/2+y,1/2-z
loop_
_atom_site_type_symbol
_atom_site_label
_atom_site_fract_x
_atom_site_fract_y
_atom_site_fract_z
Si Si1 0.814423 0.962475 0.611736
Si Si2 0.382101 0.333902 0.126640
Si Si3 0.615384 0.009588 0.462646
Si Si4 0.668025 0.141542 0.262999
Si Si5 0.879532 0.339797 0.683078
Si Si6 0.815613 0.644113 0.301715
Si Si7 0.597401 0.007189 0.024574
Si Si8 0.171337 0.756075 0.314972
O O1 0.821690 0.177649 0.644937
O O2 0.785260 0.008079 0.564514
O O3 0.702706 0.771259 0.636618
O O4 0.995640 0.872549 0.611150
O O5 0.346753 0.493097 0.086178
O O6 0.489522 0.487569 0.158899
O O7 0.244568 0.195989 0.151717
O O8 0.781801 0.999996 0.486628
O O9 0.517504 0.263973 0.472628
O O10 0.505382 0.766062 0.474221
O O11 0.487157 0.192600 0.276483
O O12 0.756010 0.380470 0.283937
O O13 0.692413 0.132958 0.213823
O O14 0.748565 0.889577 0.279169
O O15 0.711835 0.460304 0.696079
O O16 0.004600 0.656238 0.301446
#
# Coordination Sequence:
#
# PCOD9314290 Si02
#       8
#     4   4   4   4   4   4   4   4
#     4  10  21  41  63  91 128 172 211 271 318 391
#     4   9  20  41  64  87 125 173 211 252 328 402
#     4  11  23  43  68  99 130 172 219 269 332 400
#     4  11  25  42  64  88 133 173 220 261 338 390
#     4  10  21  39  62  88 119 171 209 263 309 392
#     4  11  24  43  61  93 129 174 209 274 333 389
#     4  11  24  44  70  98 137 172 219 275 335 400
#     4  11  26  37  64  96 129 165 226 281 319 380
#
# _framework density 21.738938999999998
#
# number of rings (size 3 to 8) (size 9 to 14) (size 15 to 20)
#    0.000    1.500    2.500    1.500    5.250    1.000 
#    2.250    0.000    0.000    0.000    0.000    0.000 
#    0.000    0.000    0.000    0.000    0.000    0.000 
#
# Total GULP energy -178246.227500 kJ/mol
# GULP energy per Si atom -5570.194609 kJ/mol
# Density = 2.168946 g / cm^3
# Si number density = 21.738939 Si / 1000 Ang^3
#
#
#
# Elastic Constant Matrix: (Units=GPa)
#
#
# Indices 1 2 3 4 5 6 
#
# 1 66.2434 15.2999 23.3148 0.0000 0.0000 0.0000
# 2 15.2999 74.7020 -1.4729 0.0000 0.0000 0.0000
# 3 23.3148 -1.4729 100.7217 0.0000 0.0000 0.0000
# 4 0.0000 0.0000 0.0000 27.0494 0.0000 0.0000
# 5 0.0000 0.0000 0.0000 0.0000 23.8504 0.0000
# 6 0.0000 0.0000 0.0000 0.0000 0.0000 26.1762
#
#
#
# Elastic Compliance Matrix: (Units=1/GPa)
#
#
# Indices 1 2 3 4 5 6 
#
# 1 0.017370 -0.003638 -0.004074 0.000000 0.000000 0.000000
# 2 -0.003638 0.014152 0.001049 0.000000 0.000000 0.000000
# 3 -0.004074 0.001049 0.010887 0.000000 0.000000 0.000000
# 4 0.000000 0.000000 0.000000 0.036969 0.000000 0.000000
# 5 0.000000 0.000000 0.000000 0.000000 0.041928 0.000000
# 6 0.000000 0.000000 0.000000 0.000000 0.000000 0.038203
#
#
# Mechanical properties :
#
#
# Convention : Reuss Voigt Hill
#
# Bulk Modulus (GPa) = 34.38395 35.10564 34.74479
# Shear Modulus (GPa) = 27.39290 29.05021 28.22156
#
# Velocity S-wave (km/s) = 3.55362 3.65954 3.60697
# Velocity P-wave (km/s) = 5.71740 5.83439 5.77619
#
# Compressibility (1/GPa) = 0.02908333
#
# Stress axis : x y z
#
# Youngs Moduli (GPa) = 57.57079 70.65995 91.85507
#
# Poissons Ratio (x) = 0.25705 0.37421
# Poissons Ratio (y) = 0.20944 -0.09636
# Poissons Ratio (z) = 0.23454 -0.07413
#
# Static dielectric constant tensor:
#      x y z
#    x 1.771300 0.000000 0.000000 
#    y 0.000000 2.058960 0.000000 
#    z 0.000000 0.000000 1.965450 
# 
# From -- ./inp_files/7584.got.cif
#   From: 2010.05.17/outbox.cif.g08.bks.cpg/sg19_4_cif.got.tgz:7584.got - 2010.06.03 22:46:19.
