data_PCOD9314679
_publ_section_title
;
Structure prediction by ZEFSAII (Michael W. Deem and Ramdas Pophale) SiO2 
 PCOD9314679
Probable space group: P 21 21 21
;
_chemical_formula_sum "Si O2"
_cell_formula_units_Z 28
_cell_length_a 9.599063
_cell_length_b 5.186066
_cell_length_c 23.029076
_cell_angle_alpha 90.000000
_cell_angle_beta 90.000000
_cell_angle_gamma 90.000000
_cell_volume 1146.419051
_symmetry_space_group_name_H-M "P 21 21 21"
_symmetry_group_IT_number 19
_symmetry_cell_setting 'orthorhombic'
loop_
_space_group_symop_operation_xyz
x,y,z
1/2-x,-y,1/2+z
1/2+x,1/2-y,-z
-x,1/2+y,1/2-z
loop_
_atom_site_type_symbol
_atom_site_label
_atom_site_fract_x
_atom_site_fract_y
_atom_site_fract_z
Si Si1 0.427358 0.796843 0.924751
Si Si2 0.870568 0.517909 0.481107
Si Si3 0.840386 0.339846 0.292872
Si Si4 0.476181 0.745746 0.212762
Si Si5 0.078174 0.899174 0.533151
Si Si6 0.515935 0.658957 0.674432
Si Si7 0.640873 0.806807 0.100129
O O1 0.581689 0.682289 0.931983
O O2 0.426262 0.054103 0.886351
O O3 0.304445 0.623109 0.897152
O O4 0.398329 0.848121 0.993108
O O5 0.737451 0.674521 0.457210
O O6 0.857283 0.388567 0.545180
O O7 0.998791 0.705486 0.491854
O O8 0.677499 0.336976 0.307300
O O9 0.907206 0.067467 0.309563
O O10 0.863761 0.354817 0.223134
O O11 0.932524 0.573655 0.319175
O O12 0.463866 0.483687 0.249692
O O13 0.579000 0.694307 0.158883
O O14 0.969113 0.970322 0.582909
#
# Coordination Sequence:
#
# PCOD9314679 Si02
#       7
#     4   4   4   4   4   4   4
#     4  10  22  40  64  97 128 181 224 280 347 415
#     4  10  22  42  66  99 133 178 232 283 359 416
#     4  10  23  44  64 103 131 183 229 287 341 406
#     4  12  27  46  70 101 138 187 235 283 352 420
#     4  10  22  40  65  97 132 174 227 286 346 421
#     4  10  22  41  70  94 140 172 230 286 338 409
#     4  10  24  43  65  95 140 177 227 291 345 415
#
# _framework density 24.423877999999998
#
# number of rings (size 3 to 8) (size 9 to 14) (size 15 to 20)
#    0.000    1.714    0.000    2.571    6.000    3.429 
#    0.000    0.000    0.000    0.000    0.000    0.000 
#    0.000    0.000    0.000    0.000    0.000    0.000 
#
# Total GULP energy -156306.236347 kJ/mol
# GULP energy per Si atom -5582.365584 kJ/mol
# Density = 2.436829 g / cm^3
# Si number density = 24.423878 Si / 1000 Ang^3
#
#
#
# Elastic Constant Matrix: (Units=GPa)
#
#
# Indices 1 2 3 4 5 6 
#
# 1 117.9379 21.8021 2.3194 0.0000 0.0000 0.0000
# 2 21.8021 75.6554 14.5205 0.0000 0.0000 0.0000
# 3 2.3194 14.5205 81.2777 0.0000 0.0000 0.0000
# 4 0.0000 0.0000 0.0000 36.8072 0.0000 0.0000
# 5 0.0000 0.0000 0.0000 0.0000 23.9870 0.0000
# 6 0.0000 0.0000 0.0000 0.0000 0.0000 28.5200
#
#
#
# Elastic Compliance Matrix: (Units=1/GPa)
#
#
# Indices 1 2 3 4 5 6 
#
# 1 0.008960 -0.002623 0.000213 0.000000 0.000000 0.000000
# 2 -0.002623 0.014455 -0.002508 0.000000 0.000000 0.000000
# 3 0.000213 -0.002508 0.012745 0.000000 0.000000 0.000000
# 4 0.000000 0.000000 0.000000 0.027169 0.000000 0.000000
# 5 0.000000 0.000000 0.000000 0.000000 0.041689 0.000000
# 6 0.000000 0.000000 0.000000 0.000000 0.000000 0.035063
#
#
# Mechanical properties :
#
#
# Convention : Reuss Voigt Hill
#
# Bulk Modulus (GPa) = 37.98667 39.12835 38.55751
# Shear Modulus (GPa) = 31.50777 33.61144 32.55960
#
# Velocity S-wave (km/s) = 3.59561 3.71370 3.65513
# Velocity P-wave (km/s) = 5.72929 5.86891 5.79952
#
# Compressibility (1/GPa) = 0.02632503
#
# Stress axis : x y z
#
# Youngs Moduli (GPa) = 111.61075 69.18043 78.45958
#
# Poissons Ratio (x) = 0.18145 -0.01670
# Poissons Ratio (y) = 0.29274 0.19674
# Poissons Ratio (z) = -0.02376 0.17348
#
# Static dielectric constant tensor:
#      x y z
#    x 2.138850 0.000000 0.000000 
#    y 0.000000 1.980190 0.000000 
#    z 0.000000 0.000000 1.992740 
# 
# From -- ./inp_files/7326.got.cif
#   From: 2010.05.17/outbox.cif.g08.bks.cpg/sg19_4_cif.got.tgz:7326.got - 2010.06.03 22:46:19.
