data_PCOD9314145
_publ_section_title
;
Structure prediction by ZEFSAII (Michael W. Deem and Ramdas Pophale) SiO2 
 PCOD9314145
Probable space group: P 21 21 21
;
_chemical_formula_sum "Si O2"
_cell_formula_units_Z 28
_cell_length_a 9.481559
_cell_length_b 8.763285
_cell_length_c 16.447226
_cell_angle_alpha 90.000000
_cell_angle_beta 90.000000
_cell_angle_gamma 90.000000
_cell_volume 1366.593491
_symmetry_space_group_name_H-M "P 21 21 21"
_symmetry_group_IT_number 19
_symmetry_cell_setting 'orthorhombic'
loop_
_space_group_symop_operation_xyz
x,y,z
1/2-x,-y,1/2+z
1/2+x,1/2-y,-z
-x,1/2+y,1/2-z
loop_
_atom_site_type_symbol
_atom_site_label
_atom_site_fract_x
_atom_site_fract_y
_atom_site_fract_z
Si Si1 0.296171 0.429717 0.844035
Si Si2 0.126443 0.240445 0.345364
Si Si3 0.724450 0.366229 0.481573
Si Si4 0.758060 0.391914 0.809195
Si Si5 0.507272 0.102558 0.081560
Si Si6 0.695957 0.752726 0.821917
Si Si7 0.941940 0.635427 0.452602
O O1 0.373734 0.583757 0.819474
O O2 0.151087 0.470478 0.888013
O O3 0.264928 0.331788 0.763253
O O4 0.403966 0.363663 0.911045
O O5 0.190809 0.210719 0.433325
O O6 0.222820 0.160390 0.279671
O O7 0.963740 0.193582 0.338730
O O8 0.597268 0.486238 0.464674
O O9 0.727915 0.238502 0.410082
O O10 0.868525 0.472051 0.478543
O O11 0.718725 0.571046 0.810056
O O12 0.659732 0.314357 0.878179
O O13 0.915274 0.358107 0.838746
O O14 0.548853 0.247875 0.027078
#
# Coordination Sequence:
#
# PCOD9314145 Si02
#       7
#     4   4   4   4   4   4   4
#     4  12  23  40  70  95 128 170 231 262 322 416
#     4  12  23  42  68  99 127 181 220 271 337 395
#     4  10  25  44  66  95 143 171 217 290 337 389
#     4  10  23  43  66  96 136 169 227 269 338 388
#     4  10  24  41  65 102 130 171 219 280 337 383
#     4  10  22  46  64  93 129 180 219 268 324 401
#     4  10  20  44  65  98 125 176 223 264 329 404
#
# _framework density 20.488902
#
# number of rings (size 3 to 8) (size 9 to 14) (size 15 to 20)
#    0.000    1.714    4.286    1.714    6.000    3.429 
#    2.571    0.000    0.000    0.000    0.000    0.000 
#    0.000    0.000    0.000    0.000    0.000    0.000 
#
# Total GULP energy -156009.662010 kJ/mol
# GULP energy per Si atom -5571.773643 kJ/mol
# Density = 2.044227 g / cm^3
# Si number density = 20.488902 Si / 1000 Ang^3
#
#
#
# Elastic Constant Matrix: (Units=GPa)
#
#
# Indices 1 2 3 4 5 6 
#
# 1 90.5325 -2.6078 11.6085 0.0000 0.0000 0.0000
# 2 -2.6078 32.3734 36.0116 0.0000 0.0000 0.0000
# 3 11.6085 36.0116 94.9481 0.0000 0.0000 0.0000
# 4 0.0000 0.0000 0.0000 34.7767 0.0000 0.0000
# 5 0.0000 0.0000 0.0000 0.0000 30.3039 0.0000
# 6 0.0000 0.0000 0.0000 0.0000 0.0000 13.5920
#
#
#
# Elastic Compliance Matrix: (Units=1/GPa)
#
#
# Indices 1 2 3 4 5 6 
#
# 1 0.011562 0.004331 -0.003056 0.000000 0.000000 0.000000
# 2 0.004331 0.055056 -0.021411 0.000000 0.000000 0.000000
# 3 -0.003056 -0.021411 0.019026 0.000000 0.000000 0.000000
# 4 0.000000 0.000000 0.000000 0.028755 0.000000 0.000000
# 5 0.000000 0.000000 0.000000 0.000000 0.032999 0.000000
# 6 0.000000 0.000000 0.000000 0.000000 0.000000 0.073573
#
#
# Mechanical properties :
#
#
# Convention : Reuss Voigt Hill
#
# Bulk Modulus (GPa) = 22.03982 34.20875 28.12428
# Shear Modulus (GPa) = 18.09187 27.25729 22.67458
#
# Velocity S-wave (km/s) = 2.97477 3.65135 3.33028
# Velocity P-wave (km/s) = 4.75177 5.87443 5.34267
#
# Compressibility (1/GPa) = 0.04537243
#
# Stress axis : x y z
#
# Youngs Moduli (GPa) = 86.48708 18.16348 52.55864
#
# Poissons Ratio (x) = -0.07867 0.16064
# Poissons Ratio (y) = -0.37460 1.12532
# Poissons Ratio (z) = 0.26434 0.38889
#
# Static dielectric constant tensor:
#      x y z
#    x 1.744110 0.000000 0.000000 
#    y 0.000000 1.735130 0.000000 
#    z 0.000000 0.000000 1.660980 
# 
# From -- ./inp_files/6591.got.cif
#   From: 2010.05.17/outbox.cif.g08.bks.cpg/sg19_4_cif.got.tgz:6591.got - 2010.06.03 22:46:19.
