data_PCOD9314840
_publ_section_title
;
Structure prediction by ZEFSAII (Michael W. Deem and Ramdas Pophale) SiO2 
 PCOD9314840
Probable space group: P 21 21 21
;
_chemical_formula_sum "Si O2"
_cell_formula_units_Z 28
_cell_length_a 7.839432
_cell_length_b 11.255461
_cell_length_c 12.216126
_cell_angle_alpha 90.000000
_cell_angle_beta 90.000000
_cell_angle_gamma 90.000000
_cell_volume 1077.907238
_symmetry_space_group_name_H-M "P 21 21 21"
_symmetry_group_IT_number 19
_symmetry_cell_setting 'orthorhombic'
loop_
_space_group_symop_operation_xyz
x,y,z
1/2-x,-y,1/2+z
1/2+x,1/2-y,-z
-x,1/2+y,1/2-z
loop_
_atom_site_type_symbol
_atom_site_label
_atom_site_fract_x
_atom_site_fract_y
_atom_site_fract_z
Si Si1 0.972375 0.628451 0.186507
Si Si2 0.566265 0.207281 0.890993
Si Si3 0.310831 0.501882 0.136559
Si Si4 0.332781 0.132624 0.075851
Si Si5 0.192247 0.912057 0.181583
Si Si6 0.122894 0.849225 0.948205
Si Si7 0.478959 0.313598 0.261814
O O1 0.963744 0.745114 0.267077
O O2 0.926917 0.504902 0.253611
O O3 0.814295 0.634540 0.101133
O O4 0.164657 0.600461 0.148719
O O5 0.637515 0.328202 0.941257
O O6 0.711857 0.109186 0.916510
O O7 0.415519 0.156921 0.960903
O O8 0.483673 0.550602 0.084226
O O9 0.373272 0.434580 0.245740
O O10 0.412752 0.213975 0.174078
O O11 0.325128 0.000619 0.118651
O O12 0.321324 0.836408 0.254932
O O13 0.114788 0.843073 0.078482
O O14 0.054004 0.736338 0.882098
#
# Coordination Sequence:
#
# PCOD9314840 Si02
#       7
#     4   4   4   4   4   4   4
#     4  11  24  46  70 109 142 188 251 298 371 436
#     4  10  23  42  69 110 136 183 252 294 358 447
#     4  11  24  45  74 101 148 191 236 310 364 436
#     4  10  22  42  70 105 139 183 244 300 361 426
#     4  11  25  45  74 103 147 195 237 307 367 448
#     4  12  25  50  70 104 152 192 247 302 371 437
#     4  11  23  48  71 102 150 188 239 309 370 432
#
# _framework density 25.976262999999999
#
# number of rings (size 3 to 8) (size 9 to 14) (size 15 to 20)
#    0.000    1.143    5.714    0.857    8.000    5.714 
#    7.714    0.000    0.000    0.000    0.000    0.000 
#    0.000    0.000    0.000    0.000    0.000    0.000 
#
# Total GULP energy -156447.817380 kJ/mol
# GULP energy per Si atom -5587.422049 kJ/mol
# Density = 2.591714 g / cm^3
# Si number density = 25.976263 Si / 1000 Ang^3
#
#
#
# Elastic Constant Matrix: (Units=GPa)
#
#
# Indices 1 2 3 4 5 6 
#
# 1 99.8318 15.7258 32.0041 0.0000 0.0000 0.0000
# 2 15.7258 89.5676 14.9339 0.0000 0.0000 0.0000
# 3 32.0041 14.9339 95.4044 0.0000 0.0000 0.0000
# 4 0.0000 0.0000 0.0000 36.2690 0.0000 0.0000
# 5 0.0000 0.0000 0.0000 0.0000 40.4924 0.0000
# 6 0.0000 0.0000 0.0000 0.0000 0.0000 40.1445
#
#
#
# Elastic Compliance Matrix: (Units=1/GPa)
#
#
# Indices 1 2 3 4 5 6 
#
# 1 0.011392 -0.001400 -0.003603 0.000000 0.000000 0.000000
# 2 -0.001400 0.011636 -0.001352 0.000000 0.000000 0.000000
# 3 -0.003603 -0.001352 0.011902 0.000000 0.000000 0.000000
# 4 0.000000 0.000000 0.000000 0.027572 0.000000 0.000000
# 5 0.000000 0.000000 0.000000 0.000000 0.024696 0.000000
# 6 0.000000 0.000000 0.000000 0.000000 0.000000 0.024910
#
#
# Mechanical properties :
#
#
# Convention : Reuss Voigt Hill
#
# Bulk Modulus (GPa) = 45.00050 45.57014 45.28532
# Shear Modulus (GPa) = 37.81494 38.19052 38.00273
#
# Velocity S-wave (km/s) = 3.81957 3.83849 3.82904
# Velocity P-wave (km/s) = 6.06741 6.10135 6.08440
#
# Compressibility (1/GPa) = 0.02222198
#
# Stress axis : x y z
#
# Youngs Moduli (GPa) = 87.77932 85.94105 84.02081
#
# Poissons Ratio (x) = 0.12028 0.30269
# Poissons Ratio (y) = 0.12285 0.11359
# Poissons Ratio (z) = 0.31623 0.11618
#
# Static dielectric constant tensor:
#      x y z
#    x 2.158950 0.000000 0.000000 
#    y 0.000000 2.120170 0.000000 
#    z 0.000000 0.000000 2.078890 
# 
# From -- ./inp_files/4601.got.cif
#   From: 2010.05.17/outbox.cif.g08.bks.cpg/sg19_3_cif.got.tgz:4601.got - 2010.06.03 22:46:19.
