data_PCOD9314150
_publ_section_title
;
Structure prediction by ZEFSAII (Michael W. Deem and Ramdas Pophale) SiO2 
 PCOD9314150
Probable space group: P 21 21 21
;
_chemical_formula_sum "Si O2"
_cell_formula_units_Z 28
_cell_length_a 21.662911
_cell_length_b 9.692146
_cell_length_c 5.707856
_cell_angle_alpha 90.000000
_cell_angle_beta 90.000000
_cell_angle_gamma 90.000000
_cell_volume 1198.421995
_symmetry_space_group_name_H-M "P 21 21 21"
_symmetry_group_IT_number 19
_symmetry_cell_setting 'orthorhombic'
loop_
_space_group_symop_operation_xyz
x,y,z
1/2-x,-y,1/2+z
1/2+x,1/2-y,-z
-x,1/2+y,1/2-z
loop_
_atom_site_type_symbol
_atom_site_label
_atom_site_fract_x
_atom_site_fract_y
_atom_site_fract_z
Si Si1 0.716754 0.466867 0.017917
Si Si2 0.514052 0.823382 0.031103
Si Si3 0.103681 0.659788 0.356562
Si Si4 0.063658 0.426215 0.709453
Si Si5 0.811530 0.833116 0.622132
Si Si6 0.220245 0.626149 0.013384
Si Si7 0.635278 0.682703 0.242481
O O1 0.758972 0.483644 0.259765
O O2 0.700682 0.307426 0.992385
O O3 0.656020 0.547579 0.107402
O O4 0.461596 0.712447 0.087640
O O5 0.574712 0.747133 0.130865
O O6 0.514132 0.974014 0.156907
O O7 0.536235 0.839107 0.764477
O O8 0.097811 0.530622 0.531873
O O9 0.162491 0.638151 0.192102
O O10 0.118794 0.804731 0.485445
O O11 0.117344 0.376681 0.883710
O O12 0.783325 0.814014 0.883654
O O13 0.773728 0.965811 0.538537
O O14 0.192914 0.714195 0.799909
#
# Coordination Sequence:
#
# PCOD9314150 Si02
#       7
#     4   4   4   4   4   4   4
#     4  12  28  46  67 110 150 185 230 295 367 435
#     4  10  24  44  70  94 136 182 235 289 350 420
#     4  10  20  44  71  96 132 182 237 280 366 415
#     4  11  24  45  66 102 132 182 235 293 349 429
#     4  12  24  42  73 101 139 183 241 292 361 438
#     4  11  22  42  69 101 132 180 228 293 349 431
#     4  10  22  45  66  92 139 182 226 288 352 422
#
# _framework density 23.364058
#
# number of rings (size 3 to 8) (size 9 to 14) (size 15 to 20)
#    0.000    1.143    5.714    1.714    6.000    3.429 
#    0.000    0.000    0.000    0.000    0.000    0.000 
#    0.000    0.000    0.000    0.000    0.000    0.000 
#
# Total GULP energy -156148.757393 kJ/mol
# GULP energy per Si atom -5576.741335 kJ/mol
# Density = 2.331088 g / cm^3
# Si number density = 23.364058 Si / 1000 Ang^3
#
#
#
# Elastic Constant Matrix: (Units=GPa)
#
#
# Indices 1 2 3 4 5 6 
#
# 1 39.5297 11.3780 -3.1285 0.0000 0.0000 0.0000
# 2 11.3780 90.0944 -10.4016 0.0000 0.0000 0.0000
# 3 -3.1285 -10.4016 42.0970 0.0000 0.0000 0.0000
# 4 0.0000 0.0000 0.0000 22.7240 0.0000 0.0000
# 5 0.0000 0.0000 0.0000 0.0000 27.7833 0.0000
# 6 0.0000 0.0000 0.0000 0.0000 0.0000 50.5642
#
#
#
# Elastic Compliance Matrix: (Units=1/GPa)
#
#
# Indices 1 2 3 4 5 6 
#
# 1 0.026307 -0.003188 0.001167 0.000000 0.000000 0.000000
# 2 -0.003188 0.011812 0.002682 0.000000 0.000000 0.000000
# 3 0.001167 0.002682 0.024504 0.000000 0.000000 0.000000
# 4 0.000000 0.000000 0.000000 0.044006 0.000000 0.000000
# 5 0.000000 0.000000 0.000000 0.000000 0.035993 0.000000
# 6 0.000000 0.000000 0.000000 0.000000 0.000000 0.019777
#
#
# Mechanical properties :
#
#
# Convention : Reuss Voigt Hill
#
# Bulk Modulus (GPa) = 15.63819 18.60187 17.12003
# Shear Modulus (GPa) = 27.41358 31.80584 29.60971
#
# Velocity S-wave (km/s) = 3.42910 3.69360 3.56380
# Velocity P-wave (km/s) = 4.73139 5.11559 4.92724
#
# Compressibility (1/GPa) = 0.06394603
#
# Stress axis : x y z
#
# Youngs Moduli (GPa) = 38.01219 84.66237 40.80964
#
# Poissons Ratio (x) = 0.26987 -0.04764
# Poissons Ratio (y) = 0.12117 -0.10943
# Poissons Ratio (z) = -0.04438 -0.22703
#
# Static dielectric constant tensor:
#      x y z
#    x 1.880280 0.000000 0.000000 
#    y 0.000000 1.904610 0.000000 
#    z 0.000000 0.000000 2.149380 
# 
# From -- ./inp_files/532.got.cif
#   From: 2010.05.17/outbox.cif.g08.bks.cpg/sg19_1_cif.got.tgz:532.got - 2010.06.03 22:46:19.
