data_PCOD9314357
_publ_section_title
;
Structure prediction by ZEFSAII (Michael W. Deem and Ramdas Pophale) SiO2 
 PCOD9314357
Probable space group: P 21 21 21
;
_chemical_formula_sum "Si O2"
_cell_formula_units_Z 32
_cell_length_a 18.081300
_cell_length_b 5.995113
_cell_length_c 12.591640
_cell_angle_alpha 90.000000
_cell_angle_beta 90.000000
_cell_angle_gamma 90.000000
_cell_volume 1364.926683
_symmetry_space_group_name_H-M "P 21 21 21"
_symmetry_group_IT_number 19
_symmetry_cell_setting 'orthorhombic'
loop_
_space_group_symop_operation_xyz
x,y,z
1/2-x,-y,1/2+z
1/2+x,1/2-y,-z
-x,1/2+y,1/2-z
loop_
_atom_site_type_symbol
_atom_site_label
_atom_site_fract_x
_atom_site_fract_y
_atom_site_fract_z
Si Si1 0.495354 0.837077 0.859998
Si Si2 0.311758 0.302481 0.366231
Si Si3 0.560127 0.514716 0.040742
Si Si4 0.392125 0.462033 0.823621
Si Si5 0.558463 0.699077 0.489472
Si Si6 0.820773 0.806549 0.476855
Si Si7 0.702052 0.428025 0.465184
Si Si8 0.756207 0.073857 0.299983
O O1 0.418097 0.721720 0.822819
O O2 0.550304 0.853579 0.760369
O O3 0.485765 0.071806 0.917477
O O4 0.526219 0.686057 0.956416
O O5 0.329657 0.540611 0.420178
O O6 0.240970 0.203698 0.433595
O O7 0.293134 0.372261 0.246172
O O8 0.382556 0.141199 0.381065
O O9 0.498170 0.340232 0.083919
O O10 0.613421 0.363627 0.969829
O O11 0.399837 0.390795 0.945673
O O12 0.310984 0.370719 0.795669
O O13 0.617400 0.510566 0.457129
O O14 0.748419 0.655737 0.469545
O O15 0.815884 0.976958 0.381675
O O16 0.717599 0.272734 0.362455
#
# Coordination Sequence:
#
# PCOD9314357 Si02
#       8
#     4   4   4   4   4   4   4   4
#     4  11  21  34  56  94 130 176 211 271 337 415
#     4  10  21  40  61  93 132 180 230 273 340 404
#     4  10  22  37  61  90 129 180 221 270 341 398
#     4  11  21  33  56  94 137 173 217 268 347 412
#     4  11  22  38  59  92 139 175 217 278 340 407
#     4  10  21  40  62  94 131 167 224 276 331 400
#     4  10  23  39  60  96 135 183 223 278 349 404
#     4  11  23  37  63  95 135 176 227 280 329 416
#
# _framework density 23.444481
#
# number of rings (size 3 to 8) (size 9 to 14) (size 15 to 20)
#    0.000    1.500    1.250    5.250    1.750    8.000 
#    0.000    0.000    0.000    0.000   32.500    0.000 
#    0.000    0.000    0.000    0.000    0.000    0.000 
#
# Total GULP energy -178379.637797 kJ/mol
# GULP energy per Si atom -5574.363681 kJ/mol
# Density = 2.339112 g / cm^3
# Si number density = 23.444481 Si / 1000 Ang^3
#
#
#
# Elastic Constant Matrix: (Units=GPa)
#
#
# Indices 1 2 3 4 5 6 
#
# 1 113.1844 43.3179 13.9922 0.0000 0.0000 0.0000
# 2 43.3179 87.2204 19.0187 0.0000 0.0000 0.0000
# 3 13.9922 19.0187 18.6927 0.0000 0.0000 0.0000
# 4 0.0000 0.0000 0.0000 21.5293 0.0000 0.0000
# 5 0.0000 0.0000 0.0000 0.0000 22.8237 0.0000
# 6 0.0000 0.0000 0.0000 0.0000 0.0000 41.0373
#
#
#
# Elastic Compliance Matrix: (Units=1/GPa)
#
#
# Indices 1 2 3 4 5 6 
#
# 1 0.011080 -0.004748 -0.003463 0.000000 0.000000 0.000000
# 2 -0.004748 0.016768 -0.013507 0.000000 0.000000 0.000000
# 3 -0.003463 -0.013507 0.069832 0.000000 0.000000 0.000000
# 4 0.000000 0.000000 0.000000 0.046448 0.000000 0.000000
# 5 0.000000 0.000000 0.000000 0.000000 0.043814 0.000000
# 6 0.000000 0.000000 0.000000 0.000000 0.000000 0.024368
#
#
# Mechanical properties :
#
#
# Convention : Reuss Voigt Hill
#
# Bulk Modulus (GPa) = 18.43517 41.30613 29.87065
# Shear Modulus (GPa) = 18.25958 26.59598 22.42778
#
# Velocity S-wave (km/s) = 2.79380 3.37177 3.09630
# Velocity P-wave (km/s) = 4.27639 5.72848 5.05485
#
# Compressibility (1/GPa) = 0.05424415
#
# Stress axis : x y z
#
# Youngs Moduli (GPa) = 90.24948 59.63580 14.32014
#
# Poissons Ratio (x) = 0.28314 0.04960
# Poissons Ratio (y) = 0.42849 0.19342
# Poissons Ratio (z) = 0.31257 0.80550
#
# Static dielectric constant tensor:
#      x y z
#    x 2.045700 0.000000 0.000000 
#    y 0.000000 1.897360 0.000000 
#    z 0.000000 0.000000 1.972450 
# 
# From -- ./inp_files/6319.got.cif
#   From: 2010.05.17/outbox.cif.g08.bks.cpg/sg19_4_cif.got.tgz:6319.got - 2010.06.03 22:46:19.
