data_PCOD9314435
_publ_section_title
;
Structure prediction by ZEFSAII (Michael W. Deem and Ramdas Pophale) SiO2 
 PCOD9314435
Probable space group: P 21 21 21
;
_chemical_formula_sum "Si O2"
_cell_formula_units_Z 20
_cell_length_a 9.406849
_cell_length_b 5.434470
_cell_length_c 15.219047
_cell_angle_alpha 90.000000
_cell_angle_beta 90.000000
_cell_angle_gamma 90.000000
_cell_volume 778.016534
_symmetry_space_group_name_H-M "P 21 21 21"
_symmetry_group_IT_number 19
_symmetry_cell_setting 'orthorhombic'
loop_
_space_group_symop_operation_xyz
x,y,z
1/2-x,-y,1/2+z
1/2+x,1/2-y,-z
-x,1/2+y,1/2-z
loop_
_atom_site_type_symbol
_atom_site_label
_atom_site_fract_x
_atom_site_fract_y
_atom_site_fract_z
Si Si1 0.901205 0.500000 0.643937
Si Si2 0.470924 0.999998 0.695284
Si Si3 0.612151 0.000000 0.507761
Si Si4 0.309384 0.000001 0.080369
Si Si5 0.398161 0.500000 0.306882
O O1 0.823057 0.747111 0.670886
O O2 0.963831 0.500000 0.547330
O O3 0.041809 0.500000 0.708278
O O4 0.823057 0.252889 0.670886
O O5 0.500000 0.249998 0.750000
O O6 0.567408 0.999999 0.607877
O O7 0.312306 0.999999 0.653530
O O8 0.691173 0.248975 0.476615
O O9 0.691174 0.751026 0.476614
O O10 0.462372 0.000000 0.130209
#
# Coordination Sequence:
#
# PCOD9314435 Si02
#       5
#     4   4   4   4   4
#     4   8  14  27  50  81 117 154 201 265 318 375
#     4  12  26  46  70 102 144 186 229 290 355 421
#     4  10  21  41  66  96 131 178 233 284 330 421
#     4  10  21  41  69  93 135 178 226 279 344 417
#     4   8  14  27  51  82 117 154 199 260 325 378
#
# _framework density 25.706394
#
# number of rings (size 3 to 8) (size 9 to 14) (size 15 to 20)
#    0.000    2.400    0.000    2.400    0.000    0.000 
#    7.200    0.000   17.600    0.000    0.000    0.000 
#    0.000    0.000    0.000    0.000    0.000    0.000 
#
# Total GULP energy -112051.068598 kJ/mol
# GULP energy per Si atom -5602.553430 kJ/mol
# Density = 2.564788 g / cm^3
# Si number density = 25.706394 Si / 1000 Ang^3
#
#
#
# Elastic Constant Matrix: (Units=GPa)
#
#
# Indices 1 2 3 4 5 6 
#
# 1 100.6358 52.7886 49.7551 0.0000 0.0000 0.0000
# 2 52.7886 322.7030 115.4650 0.0000 0.0000 0.0000
# 3 49.7551 115.4650 219.9614 0.0000 0.0000 0.0000
# 4 0.0000 0.0000 0.0000 36.1675 0.0000 0.0000
# 5 0.0000 0.0000 0.0000 0.0000 54.0651 0.0000
# 6 0.0000 0.0000 0.0000 0.0000 0.0000 15.5424
#
#
#
# Elastic Compliance Matrix: (Units=1/GPa)
#
#
# Indices 1 2 3 4 5 6 
#
# 1 0.011538 -0.001174 -0.001994 0.000000 0.000000 0.000000
# 2 -0.001174 0.003935 -0.001800 0.000000 0.000000 0.000000
# 3 -0.001994 -0.001800 0.005942 0.000000 0.000000 0.000000
# 4 0.000000 0.000000 0.000000 0.027649 0.000000 0.000000
# 5 0.000000 0.000000 0.000000 0.000000 0.018496 0.000000
# 6 0.000000 0.000000 0.000000 0.000000 0.000000 0.064340
#
#
# Mechanical properties :
#
#
# Convention : Reuss Voigt Hill
#
# Bulk Modulus (GPa) = 87.10888 119.92417 103.51653
# Shear Modulus (GPa) = 34.32581 49.50776 41.91679
#
# Velocity S-wave (km/s) = 3.65814 4.39326 4.04245
# Velocity P-wave (km/s) = 7.19738 8.51394 7.88319
#
# Compressibility (1/GPa) = 0.01147989
#
# Stress axis : x y z
#
# Youngs Moduli (GPa) = 86.66726 254.13341 168.29120
#
# Poissons Ratio (x) = 0.29839 0.33551
# Poissons Ratio (y) = 0.10176 0.30292
# Poissons Ratio (z) = 0.17278 0.45744
#
# Static dielectric constant tensor:
#      x y z
#    x 1.994590 0.000000 0.000000 
#    y 0.000000 2.092180 0.000000 
#    z 0.000000 0.000000 1.996010 
# 
# From -- ./inp_files/1395.got.cif
#   From: 2010.05.17/outbox.cif.g08.bks.cpg/sg19_1_cif.got.tgz:1395.got - 2010.06.03 22:46:19.
