data_PCOD9314330
_publ_section_title
;
Structure prediction by ZEFSAII (Michael W. Deem and Ramdas Pophale) SiO2 
 PCOD9314330
Probable space group: P 21 21 21
;
_chemical_formula_sum "Si O2"
_cell_formula_units_Z 24
_cell_length_a 5.762845
_cell_length_b 12.320774
_cell_length_c 13.259206
_cell_angle_alpha 90.000000
_cell_angle_beta 90.000000
_cell_angle_gamma 90.000000
_cell_volume 941.439570
_symmetry_space_group_name_H-M "P 21 21 21"
_symmetry_group_IT_number 19
_symmetry_cell_setting 'orthorhombic'
loop_
_space_group_symop_operation_xyz
x,y,z
1/2-x,-y,1/2+z
1/2+x,1/2-y,-z
-x,1/2+y,1/2-z
loop_
_atom_site_type_symbol
_atom_site_label
_atom_site_fract_x
_atom_site_fract_y
_atom_site_fract_z
Si Si1 0.919697 0.727271 0.253459
Si Si2 0.517445 0.630643 0.149567
Si Si3 0.958085 0.103708 0.824986
Si Si4 0.181130 0.310606 0.865104
Si Si5 0.492172 0.966750 0.095211
Si Si6 0.005136 0.862956 0.059574
O O1 0.776881 0.635723 0.193157
O O2 0.762774 0.821040 0.304309
O O3 0.047120 0.674005 0.349259
O O4 0.033122 0.791380 0.159603
O O5 0.426022 0.511473 0.122840
O O6 0.383968 0.675115 0.245988
O O7 0.496165 0.699293 0.047974
O O8 0.125815 0.185464 0.884897
O O9 0.038444 0.064663 0.713829
O O10 0.040805 0.404283 0.919019
O O11 0.748175 0.916652 0.070977
O O12 0.245051 0.932123 0.048509
#
# Coordination Sequence:
#
# PCOD9314330 Si02
#       6
#     4   4   4   4   4   4
#     4  10  22  37  69  90 130 170 223 269 325 394
#     4  10  24  37  66  95 132 167 214 271 339 387
#     4   9  20  41  58  95 123 170 217 270 306 396
#     4  10  21  39  66  91 121 177 223 264 311 400
#     4  10  23  40  64  90 130 170 218 260 325 383
#     4  11  24  42  61  99 134 166 205 280 330 386
#
# _framework density 25.492872999999999
#
# number of rings (size 3 to 8) (size 9 to 14) (size 15 to 20)
#    0.000    2.000    1.667    0.000   11.667    1.333 
#    0.000    1.667    0.000    0.000    0.000    0.000 
#    0.000    0.000    0.000    0.000    0.000    0.000 
#
# Total GULP energy -133721.725782 kJ/mol
# GULP energy per Si atom -5571.738574 kJ/mol
# Density = 2.543485 g / cm^3
# Si number density = 25.492873 Si / 1000 Ang^3
#
#
#
# Elastic Constant Matrix: (Units=GPa)
#
#
# Indices 1 2 3 4 5 6 
#
# 1 81.5741 35.0250 30.9108 0.0000 0.0000 0.0000
# 2 35.0250 115.9071 3.7593 0.0000 0.0000 0.0000
# 3 30.9108 3.7593 41.3341 0.0000 0.0000 0.0000
# 4 0.0000 0.0000 0.0000 16.6696 0.0000 0.0000
# 5 0.0000 0.0000 0.0000 0.0000 18.4747 0.0000
# 6 0.0000 0.0000 0.0000 0.0000 0.0000 37.4347
#
#
#
# Elastic Compliance Matrix: (Units=1/GPa)
#
#
# Indices 1 2 3 4 5 6 
#
# 1 0.020211 -0.005634 -0.014602 0.000000 0.000000 0.000000
# 2 -0.005634 0.010224 0.003283 0.000000 0.000000 0.000000
# 3 -0.014602 0.003283 0.034814 0.000000 0.000000 0.000000
# 4 0.000000 0.000000 0.000000 0.059990 0.000000 0.000000
# 5 0.000000 0.000000 0.000000 0.000000 0.054128 0.000000
# 6 0.000000 0.000000 0.000000 0.000000 0.000000 0.026713
#
#
# Mechanical properties :
#
#
# Convention : Reuss Voigt Hill
#
# Bulk Modulus (GPa) = 31.90423 42.02285 36.96354
# Shear Modulus (GPa) = 19.96552 25.79046 22.87799
#
# Velocity S-wave (km/s) = 2.80157 3.18413 2.99896
# Velocity P-wave (km/s) = 4.79658 5.48071 5.15002
#
# Compressibility (1/GPa) = 0.03134381
#
# Stress axis : x y z
#
# Youngs Moduli (GPa) = 49.47866 97.81372 28.72403
#
# Poissons Ratio (x) = 0.55105 0.41942
# Poissons Ratio (y) = 0.27875 -0.09431
# Poissons Ratio (z) = 0.72247 -0.32114
#
# Static dielectric constant tensor:
#      x y z
#    x 2.344910 0.000000 0.000000 
#    y 0.000000 2.034050 0.000000 
#    z 0.000000 0.000000 1.997640 
# 
# From -- ./inp_files/6415.got.cif
#   From: 2010.05.17/outbox.cif.g08.bks.cpg/sg19_4_cif.got.tgz:6415.got - 2010.06.03 22:46:19.
