data_PCOD9314132
_publ_section_title
;
Structure prediction by ZEFSAII (Michael W. Deem and Ramdas Pophale) SiO2 
 PCOD9314132
Probable space group: P 21 21 21
;
_chemical_formula_sum "Si O2"
_cell_formula_units_Z 32
_cell_length_a 12.106656
_cell_length_b 9.859365
_cell_length_c 10.227038
_cell_angle_alpha 90.000000
_cell_angle_beta 90.000000
_cell_angle_gamma 90.000000
_cell_volume 1220.739555
_symmetry_space_group_name_H-M "P 21 21 21"
_symmetry_group_IT_number 19
_symmetry_cell_setting 'orthorhombic'
loop_
_space_group_symop_operation_xyz
x,y,z
1/2-x,-y,1/2+z
1/2+x,1/2-y,-z
-x,1/2+y,1/2-z
loop_
_atom_site_type_symbol
_atom_site_label
_atom_site_fract_x
_atom_site_fract_y
_atom_site_fract_z
Si Si1 0.786629 0.333502 0.661973
Si Si2 0.255610 0.849662 0.296500
Si Si3 0.708098 0.121833 0.481741
Si Si4 0.682969 0.280587 0.933387
Si Si5 0.496288 0.726254 0.284090
Si Si6 0.607187 0.844608 0.804590
Si Si7 0.520328 0.928664 0.522836
Si Si8 0.918377 0.985850 0.531692
O O1 0.770501 0.492010 0.684624
O O2 0.725466 0.271968 0.536935
O O3 0.734260 0.272349 0.793285
O O4 0.914273 0.287001 0.670470
O O5 0.238378 0.782746 0.440641
O O6 0.374693 0.786129 0.250997
O O7 0.146646 0.810232 0.214131
O O8 0.771901 0.096565 0.345538
O O9 0.587443 0.063035 0.488169
O O10 0.795880 0.036814 0.571634
O O11 0.610710 0.415872 0.957103
O O12 0.602564 0.152064 0.949475
O O13 0.484852 0.574421 0.346693
O O14 0.539148 0.826555 0.399832
O O15 0.561047 0.891296 0.668093
O O16 0.538454 0.901075 0.928822
#
# Coordination Sequence:
#
# PCOD9314132 Si02
#       8
#     4   4   4   4   4   4   4   4
#     4  12  25  42  67  94 144 181 236 290 352 421
#     4  10  24  41  64  97 137 177 228 287 356 418
#     4  10  23  38  71 102 129 181 238 292 344 430
#     4  10  23  43  63  97 136 186 224 281 363 414
#     4  10  23  42  70 100 135 193 220 297 363 435
#     4  10  21  41  70  97 133 173 233 298 337 425
#     4  10  20  43  66  99 135 178 228 294 345 425
#     4   8  19  40  67 102 125 161 245 267 356 422
#
# _framework density 26.213615999999998
#
# number of rings (size 3 to 8) (size 9 to 14) (size 15 to 20)
#    0.750    1.500    0.000    3.750    5.250    2.000 
#    9.000    1.250    0.000    0.000    0.000    0.000 
#    0.000    0.000    0.000    0.000    0.000    0.000 
#
# Total GULP energy -178512.958624 kJ/mol
# GULP energy per Si atom -5578.529957 kJ/mol
# Density = 2.615395 g / cm^3
# Si number density = 26.213616 Si / 1000 Ang^3
#
#
#
# Elastic Constant Matrix: (Units=GPa)
#
#
# Indices 1 2 3 4 5 6 
#
# 1 57.2584 22.1346 19.5109 0.0000 0.0000 0.0000
# 2 22.1346 94.6554 19.7564 0.0000 0.0000 0.0000
# 3 19.5109 19.7564 74.8188 0.0000 0.0000 0.0000
# 4 0.0000 0.0000 0.0000 30.6538 0.0000 0.0000
# 5 0.0000 0.0000 0.0000 0.0000 39.2820 0.0000
# 6 0.0000 0.0000 0.0000 0.0000 0.0000 45.6458
#
#
#
# Elastic Compliance Matrix: (Units=1/GPa)
#
#
# Indices 1 2 3 4 5 6 
#
# 1 0.020431 -0.003879 -0.004303 0.000000 0.000000 0.000000
# 2 -0.003879 0.011917 -0.002135 0.000000 0.000000 0.000000
# 3 -0.004303 -0.002135 0.015052 0.000000 0.000000 0.000000
# 4 0.000000 0.000000 0.000000 0.032622 0.000000 0.000000
# 5 0.000000 0.000000 0.000000 0.000000 0.025457 0.000000
# 6 0.000000 0.000000 0.000000 0.000000 0.000000 0.021908
#
#
# Mechanical properties :
#
#
# Convention : Reuss Voigt Hill
#
# Bulk Modulus (GPa) = 37.36399 38.83738 38.10069
# Shear Modulus (GPa) = 31.85839 34.13835 32.99837
#
# Velocity S-wave (km/s) = 3.48995 3.61267 3.55184
# Velocity P-wave (km/s) = 5.52488 5.67889 5.60241
#
# Compressibility (1/GPa) = 0.02676374
#
# Stress axis : x y z
#
# Youngs Moduli (GPa) = 48.94580 83.91032 66.43780
#
# Poissons Ratio (x) = 0.32552 0.28591
# Poissons Ratio (y) = 0.18988 0.14186
# Poissons Ratio (z) = 0.21064 0.17917
#
# Static dielectric constant tensor:
#      x y z
#    x 2.070440 0.000000 0.000000 
#    y 0.000000 2.153200 0.000000 
#    z 0.000000 0.000000 2.097160 
# 
# From -- ./inp_files/5215.got.cif
#   From: 2010.05.17/outbox.cif.g08.bks.cpg/sg19_3_cif.got.tgz:5215.got - 2010.06.03 22:46:19.
