data_PCOD9314077
_publ_section_title
;
Structure prediction by ZEFSAII (Michael W. Deem and Ramdas Pophale) SiO2 
 PCOD9314077
Probable space group: P 21 21 21
;
_chemical_formula_sum "Si O2"
_cell_formula_units_Z 32
_cell_length_a 16.820851
_cell_length_b 15.838990
_cell_length_c 5.220746
_cell_angle_alpha 90.000000
_cell_angle_beta 90.000000
_cell_angle_gamma 90.000000
_cell_volume 1390.938771
_symmetry_space_group_name_H-M "P 21 21 21"
_symmetry_group_IT_number 19
_symmetry_cell_setting 'orthorhombic'
loop_
_space_group_symop_operation_xyz
x,y,z
1/2-x,-y,1/2+z
1/2+x,1/2-y,-z
-x,1/2+y,1/2-z
loop_
_atom_site_type_symbol
_atom_site_label
_atom_site_fract_x
_atom_site_fract_y
_atom_site_fract_z
Si Si1 0.469501 0.705770 0.216610
Si Si2 0.371319 0.970688 0.656303
Si Si3 0.032489 0.558136 0.099264
Si Si4 0.251067 0.711197 0.697019
Si Si5 0.775775 0.390654 0.560107
Si Si6 0.155666 0.172163 0.813471
Si Si7 0.090902 0.381239 0.241479
Si Si8 0.919468 0.152845 0.904728
O O1 0.405964 0.779336 0.134393
O O2 0.438479 0.661263 0.475712
O O3 0.546239 0.757484 0.304487
O O4 0.467339 0.644196 0.975332
O O5 0.440907 0.973738 0.866113
O O6 0.395475 0.890613 0.484971
O O7 0.354463 0.056571 0.501295
O O8 0.284402 0.940350 0.753395
O O9 0.086595 0.480175 0.189950
O O10 0.052440 0.631102 0.307437
O O11 0.052338 0.586292 0.812048
O O12 0.296414 0.757796 0.466965
O O13 0.320608 0.652231 0.811347
O O14 0.175629 0.659033 0.606603
O O15 0.220352 0.792217 0.860295
O O16 0.722137 0.385229 0.308908
#
# Coordination Sequence:
#
# PCOD9314077 Si02
#       8
#     4   4   4   4   4   4   4   4
#     4  11  22  44  71  93 138 176 221 276 341 404
#     4  11  23  38  62 100 137 179 217 276 360 408
#     4  12  28  45  69 100 141 185 225 285 342 414
#     4  10  26  41  69  97 126 181 233 280 336 398
#     4  11  21  39  64  99 136 171 225 286 342 417
#     4  10  20  41  65  94 133 170 216 277 342 407
#     4  11  25  46  70 100 134 181 228 282 337 400
#     4  12  27  46  70 101 137 183 229 278 344 408
#
# _framework density 23.006043999999999
#
# number of rings (size 3 to 8) (size 9 to 14) (size 15 to 20)
#    0.000    1.000    3.750    2.250    5.250    2.000 
#    0.000    0.000    0.000    0.000    0.000    0.000 
#    0.000    0.000    0.000    0.000    0.000    0.000 
#
# Total GULP energy -178666.804966 kJ/mol
# GULP energy per Si atom -5583.337655 kJ/mol
# Density = 2.295368 g / cm^3
# Si number density = 23.006044 Si / 1000 Ang^3
#
#
#
# Elastic Constant Matrix: (Units=GPa)
#
#
# Indices 1 2 3 4 5 6 
#
# 1 71.0593 12.8921 -4.1573 0.0000 0.0000 0.0000
# 2 12.8921 33.5297 3.8753 0.0000 0.0000 0.0000
# 3 -4.1573 3.8753 72.2751 0.0000 0.0000 0.0000
# 4 0.0000 0.0000 0.0000 26.1026 0.0000 0.0000
# 5 0.0000 0.0000 0.0000 0.0000 13.7839 0.0000
# 6 0.0000 0.0000 0.0000 0.0000 0.0000 2.0703
#
#
#
# Elastic Compliance Matrix: (Units=1/GPa)
#
#
# Indices 1 2 3 4 5 6 
#
# 1 0.015230 -0.005994 0.001197 0.000000 0.000000 0.000000
# 2 -0.005994 0.032370 -0.002080 0.000000 0.000000 0.000000
# 3 0.001197 -0.002080 0.014016 0.000000 0.000000 0.000000
# 4 0.000000 0.000000 0.000000 0.038310 0.000000 0.000000
# 5 0.000000 0.000000 0.000000 0.000000 0.072549 0.000000
# 6 0.000000 0.000000 0.000000 0.000000 0.000000 0.483026
#
#
# Mechanical properties :
#
#
# Convention : Reuss Voigt Hill
#
# Bulk Modulus (GPa) = 20.89356 22.45381 21.67368
# Shear Modulus (GPa) = 7.29704 19.34161 13.31933
#
# Velocity S-wave (km/s) = 1.78288 2.90266 2.40875
# Velocity P-wave (km/s) = 3.65236 4.58422 4.14456
#
# Compressibility (1/GPa) = 0.04786164
#
# Stress axis : x y z
#
# Youngs Moduli (GPa) = 65.65830 30.89320 71.34472
#
# Poissons Ratio (x) = 0.18519 -0.08543
# Poissons Ratio (y) = 0.39358 0.14843
# Poissons Ratio (z) = -0.07862 0.06427
#
# Static dielectric constant tensor:
#      x y z
#    x 1.854490 0.000000 0.000000 
#    y 0.000000 1.963410 0.000000 
#    z 0.000000 0.000000 1.991880 
# 
# From -- ./inp_files/1836.got.cif
#   From: 2010.05.17/outbox.cif.g08.bks.cpg/sg19_1_cif.got.tgz:1836.got - 2010.06.03 22:46:19.
