data_PCOD9314059
_publ_section_title
;
Structure prediction by ZEFSAII (Michael W. Deem and Ramdas Pophale) SiO2 
 PCOD9314059
Probable space group: P 21 21 21
;
_chemical_formula_sum "Si O2"
_cell_formula_units_Z 20
_cell_length_a 13.063058
_cell_length_b 9.529208
_cell_length_c 6.079133
_cell_angle_alpha 90.000000
_cell_angle_beta 90.000000
_cell_angle_gamma 90.000000
_cell_volume 756.734104
_symmetry_space_group_name_H-M "P 21 21 21"
_symmetry_group_IT_number 19
_symmetry_cell_setting 'orthorhombic'
loop_
_space_group_symop_operation_xyz
x,y,z
1/2-x,-y,1/2+z
1/2+x,1/2-y,-z
-x,1/2+y,1/2-z
loop_
_atom_site_type_symbol
_atom_site_label
_atom_site_fract_x
_atom_site_fract_y
_atom_site_fract_z
Si Si1 0.295019 0.669492 0.994171
Si Si2 0.284347 0.046246 0.669256
Si Si3 0.068073 0.181440 0.151265
Si Si4 0.919408 0.144020 0.531764
Si Si5 0.009481 0.384445 0.759549
O O1 0.250336 0.792424 0.150229
O O2 0.396717 0.601012 0.089809
O O3 0.337550 0.744895 0.777516
O O4 0.193269 0.578008 0.960977
O O5 0.235289 0.986337 0.433577
O O6 0.397030 0.979613 0.630493
O O7 0.965674 0.177858 0.295920
O O8 0.048452 0.278809 0.946322
O O9 0.917809 0.291446 0.661870
O O10 0.002204 0.038009 0.639195
#
# Coordination Sequence:
#
# PCOD9314059 Si02
#       5
#     4   4   4   4   4
#     4  10  24  44  70 105 141 193 248 307 385 455
#     4  10  20  40  71 102 144 194 247 307 375 464
#     4  10  24  43  69 105 145 191 248 303 381 457
#     4  11  28  44  73 104 149 194 250 317 386 457
#     4  11  26  49  71 106 147 192 249 316 385 469
#
# _framework density 26.429361
#
# number of rings (size 3 to 8) (size 9 to 14) (size 15 to 20)
#    0.000    1.600    2.000    0.000    8.400    6.400 
#    0.000    0.000    0.000    0.000    0.000    0.000 
#    0.000    0.000    0.000    0.000    0.000    0.000 
#
# Total GULP energy -111622.140679 kJ/mol
# GULP energy per Si atom -5581.107034 kJ/mol
# Density = 2.636921 g / cm^3
# Si number density = 26.429361 Si / 1000 Ang^3
#
#
#
# Elastic Constant Matrix: (Units=GPa)
#
#
# Indices 1 2 3 4 5 6 
#
# 1 112.7751 -4.0360 24.0374 0.0000 0.0000 0.0000
# 2 -4.0360 67.9202 24.6263 0.0000 0.0000 0.0000
# 3 24.0374 24.6263 82.5585 0.0000 0.0000 0.0000
# 4 0.0000 0.0000 0.0000 30.7233 0.0000 0.0000
# 5 0.0000 0.0000 0.0000 0.0000 32.8101 0.0000
# 6 0.0000 0.0000 0.0000 0.0000 0.0000 31.2222
#
#
#
# Elastic Compliance Matrix: (Units=1/GPa)
#
#
# Indices 1 2 3 4 5 6 
#
# 1 0.009643 0.001784 -0.003340 0.000000 0.000000 0.000000
# 2 0.001784 0.016839 -0.005542 0.000000 0.000000 0.000000
# 3 -0.003340 -0.005542 0.014738 0.000000 0.000000 0.000000
# 4 0.000000 0.000000 0.000000 0.032549 0.000000 0.000000
# 5 0.000000 0.000000 0.000000 0.000000 0.030478 0.000000
# 6 0.000000 0.000000 0.000000 0.000000 0.000000 0.032029
#
#
# Mechanical properties :
#
#
# Convention : Reuss Voigt Hill
#
# Bulk Modulus (GPa) = 37.00450 39.16770 38.08610
# Shear Modulus (GPa) = 31.35207 33.52618 32.43913
#
# Velocity S-wave (km/s) = 3.44795 3.56549 3.50721
# Velocity P-wave (km/s) = 5.46652 5.63935 5.55361
#
# Compressibility (1/GPa) = 0.02702374
#
# Stress axis : x y z
#
# Youngs Moduli (GPa) = 103.70337 59.38723 67.85104
#
# Poissons Ratio (x) = -0.10594 0.22660
# Poissons Ratio (y) = -0.18500 0.37604
# Poissons Ratio (z) = 0.34634 0.32913
#
# Static dielectric constant tensor:
#      x y z
#    x 2.085270 0.000000 0.000000 
#    y 0.000000 2.095720 0.000000 
#    z 0.000000 0.000000 2.132890 
# 
# From -- ./inp_files/777.got.cif
#   From: 2010.05.17/outbox.cif.g08.bks.cpg/sg19_1_cif.got.tgz:777.got - 2010.06.03 22:46:19.
