data_PCOD9314737
_publ_section_title
;
Structure prediction by ZEFSAII (Michael W. Deem and Ramdas Pophale) SiO2 
 PCOD9314737
Probable space group: P 21 21 21
;
_chemical_formula_sum "Si O2"
_cell_formula_units_Z 32
_cell_length_a 8.948719
_cell_length_b 27.357971
_cell_length_c 5.185557
_cell_angle_alpha 90.000000
_cell_angle_beta 90.000000
_cell_angle_gamma 90.000000
_cell_volume 1269.521816
_symmetry_space_group_name_H-M "P 21 21 21"
_symmetry_group_IT_number 19
_symmetry_cell_setting 'orthorhombic'
loop_
_space_group_symop_operation_xyz
x,y,z
1/2-x,-y,1/2+z
1/2+x,1/2-y,-z
-x,1/2+y,1/2-z
loop_
_atom_site_type_symbol
_atom_site_label
_atom_site_fract_x
_atom_site_fract_y
_atom_site_fract_z
Si Si1 0.249844 0.063175 0.847123
Si Si2 0.604666 0.809066 0.334240
Si Si3 0.089512 0.802836 0.591749
Si Si4 0.336599 0.496829 0.884626
Si Si5 0.625432 0.314896 0.551697
Si Si6 0.888068 0.454294 0.650030
Si Si7 0.413312 0.701405 0.906407
Si Si8 0.472290 0.395103 0.851895
O O1 0.379309 0.066828 0.063523
O O2 0.109114 0.090652 0.961399
O O3 0.197545 0.006495 0.826240
O O4 0.301382 0.077291 0.563156
O O5 0.624842 0.754867 0.447548
O O6 0.739364 0.810870 0.129113
O O7 0.631916 0.856949 0.501958
O O8 0.427923 0.810669 0.248583
O O9 0.227338 0.821052 0.771601
O O10 0.026887 0.820243 0.312750
O O11 0.958529 0.809451 0.801487
O O12 0.260536 0.519394 0.632756
O O13 0.455621 0.532593 0.019168
O O14 0.407906 0.447136 0.773395
O O15 0.573484 0.260221 0.628242
O O16 0.530162 0.362252 0.621831
#
# Coordination Sequence:
#
# PCOD9314737 Si02
#       8
#     4   4   4   4   4   4   4   4
#     4   9  19  34  62  90 116 155 203 264 307 369
#     4  10  23  39  67  96 136 180 227 278 338 407
#     4  10  22  41  65  96 134 179 230 276 335 402
#     4  11  25  44  68  95 130 176 217 269 347 420
#     4  10  23  39  67  96 133 178 234 276 328 411
#     4   9  18  38  60  87 120 156 203 250 320 376
#     4  10  22  41  65  96 138 183 219 273 347 396
#     4  11  24  40  68  96 127 171 233 274 328 407
#
# _framework density 25.206339
#
# number of rings (size 3 to 8) (size 9 to 14) (size 15 to 20)
#    0.000    2.000    1.250    0.750    7.000    4.000 
#    0.000    3.750    0.000    0.000    0.000    0.000 
#    0.000    0.000    0.000    0.000    0.000    0.000 
#
# Total GULP energy -178384.863483 kJ/mol
# GULP energy per Si atom -5574.526984 kJ/mol
# Density = 2.514897 g / cm^3
# Si number density = 25.206339 Si / 1000 Ang^3
#
#
#
# Elastic Constant Matrix: (Units=GPa)
#
#
# Indices 1 2 3 4 5 6 
#
# 1 42.3781 7.9105 16.8818 0.0000 0.0000 0.0000
# 2 7.9105 27.5579 -22.1659 0.0000 0.0000 0.0000
# 3 16.8818 -22.1659 -109.5719 0.0000 0.0000 0.0000
# 4 0.0000 0.0000 0.0000 28.8368 0.0000 0.0000
# 5 0.0000 0.0000 0.0000 0.0000 33.3458 0.0000
# 6 0.0000 0.0000 0.0000 0.0000 0.0000 -4.0788
#
#
#
# Elastic Compliance Matrix: (Units=1/GPa)
#
#
# Indices 1 2 3 4 5 6 
#
# 1 0.022549 -0.003164 0.004114 0.000000 0.000000 0.000000
# 2 -0.003164 0.031653 -0.006891 0.000000 0.000000 0.000000
# 3 0.004114 -0.006891 -0.007099 0.000000 0.000000 0.000000
# 4 0.000000 0.000000 0.000000 0.034678 0.000000 0.000000
# 5 0.000000 0.000000 0.000000 0.000000 0.029989 0.000000
# 6 0.000000 0.000000 0.000000 0.000000 0.000000 -0.245172
#
#
# Mechanical properties :
#
#
# Convention : Reuss Voigt Hill
#
# Bulk Modulus (GPa) = 28.39069 -3.82033 12.28518
# Shear Modulus (GPa) = -45.54498 8.80328 -18.37085
#
# Velocity S-wave (km/s) = -4.25536 1.87085 -2.70259
# Velocity P-wave (km/s) = 3.58557 1.77422 2.20324
#
# Compressibility (1/GPa) = 0.03522281
#
# Stress axis : x y z
#
# Youngs Moduli (GPa) = 44.34846 31.59267 -140.87231
#
# Poissons Ratio (x) = 0.09994 0.57956
# Poissons Ratio (y) = 0.14030 -0.97070
# Poissons Ratio (z) = -0.18245 0.21769
#
# Static dielectric constant tensor:
#      x y z
#    x 2.074570 0.000000 0.000000 
#    y 0.000000 1.978360 0.000000 
#    z 0.000000 0.000000 2.078650 
# 
# From -- ./inp_files/668.got.cif
#   From: 2010.05.17/outbox.cif.g08.bks.cpg/sg19_1_cif.got.tgz:668.got - 2010.06.03 22:46:19.
