data_PCOD9314538
_publ_section_title
;
Structure prediction by ZEFSAII (Michael W. Deem and Ramdas Pophale) SiO2 
 PCOD9314538
Probable space group: P 21 21 21
;
_chemical_formula_sum "Si O2"
_cell_formula_units_Z 32
_cell_length_a 14.140854
_cell_length_b 9.031519
_cell_length_c 12.228136
_cell_angle_alpha 90.000000
_cell_angle_beta 90.000000
_cell_angle_gamma 90.000000
_cell_volume 1561.696721
_symmetry_space_group_name_H-M "P 21 21 21"
_symmetry_group_IT_number 19
_symmetry_cell_setting 'orthorhombic'
loop_
_space_group_symop_operation_xyz
x,y,z
1/2-x,-y,1/2+z
1/2+x,1/2-y,-z
-x,1/2+y,1/2-z
loop_
_atom_site_type_symbol
_atom_site_label
_atom_site_fract_x
_atom_site_fract_y
_atom_site_fract_z
Si Si1 0.205107 0.211860 0.537818
Si Si2 0.893690 0.873896 0.491160
Si Si3 0.967486 0.853116 0.854123
Si Si4 0.851174 0.161399 0.627987
Si Si5 0.616202 0.595200 0.540512
Si Si6 0.276221 0.052410 0.735952
Si Si7 0.581092 0.357682 0.160234
Si Si8 0.233020 0.736844 0.643399
O O1 0.127790 0.328454 0.578675
O O2 0.263457 0.266631 0.435335
O O3 0.276346 0.167527 0.635670
O O4 0.147896 0.062715 0.509140
O O5 0.886513 0.712450 0.547016
O O6 0.814860 0.873390 0.397234
O O7 0.003064 0.892075 0.458886
O O8 0.867311 0.999310 0.579071
O O9 0.950331 0.778463 0.736142
O O10 0.055551 0.757186 0.898588
O O11 0.000969 0.020439 0.849795
O O12 0.826236 0.171137 0.755784
O O13 0.656725 0.596536 0.663807
O O14 0.665364 0.713751 0.458047
O O15 0.169419 0.063221 0.782634
O O16 0.283914 0.886744 0.688954
#
# Coordination Sequence:
#
# PCOD9314538 Si02
#       8
#     4   4   4   4   4   4   4   4
#     4  10  23  41  70 101 134 184 228 286 351 418
#     4  12  27  42  70 107 143 182 241 291 356 419
#     4  11  22  40  69 100 127 182 233 283 348 414
#     4  12  24  45  70 102 143 179 236 294 343 422
#     4  11  21  47  69 103 139 183 232 297 353 424
#     4  10  21  43  73  93 136 182 231 279 356 419
#     4  11  22  42  69 101 131 178 236 292 343 418
#     4  11  24  44  72 101 137 186 233 294 354 422
#
# _framework density 20.490535000000001
#
# number of rings (size 3 to 8) (size 9 to 14) (size 15 to 20)
#    0.000    1.000    5.000    1.500    3.500    4.000 
#    4.500    0.000    0.000    0.000    0.000    0.000 
#    0.000    0.000    0.000    0.000    0.000    0.000 
#
# Total GULP energy -178948.602080 kJ/mol
# GULP energy per Si atom -5592.143815 kJ/mol
# Density = 2.044390 g / cm^3
# Si number density = 20.490535 Si / 1000 Ang^3
#
#
#
# Elastic Constant Matrix: (Units=GPa)
#
#
# Indices 1 2 3 4 5 6 
#
# 1 100.7379 28.5689 52.1329 0.0000 0.0000 0.0000
# 2 28.5689 60.2049 29.3033 0.0000 0.0000 0.0000
# 3 52.1329 29.3033 74.3533 0.0000 0.0000 0.0000
# 4 0.0000 0.0000 0.0000 24.7243 0.0000 0.0000
# 5 0.0000 0.0000 0.0000 0.0000 36.7632 0.0000
# 6 0.0000 0.0000 0.0000 0.0000 0.0000 20.2898
#
#
#
# Elastic Compliance Matrix: (Units=1/GPa)
#
#
# Indices 1 2 3 4 5 6 
#
# 1 0.015908 -0.002623 -0.010120 0.000000 0.000000 0.000000
# 2 -0.002623 0.020985 -0.006431 0.000000 0.000000 0.000000
# 3 -0.010120 -0.006431 0.023080 0.000000 0.000000 0.000000
# 4 0.000000 0.000000 0.000000 0.040446 0.000000 0.000000
# 5 0.000000 0.000000 0.000000 0.000000 0.027201 0.000000
# 6 0.000000 0.000000 0.000000 0.000000 0.000000 0.049286
#
#
# Mechanical properties :
#
#
# Convention : Reuss Voigt Hill
#
# Bulk Modulus (GPa) = 46.24540 50.58959 48.41749
# Shear Modulus (GPa) = 22.47578 24.70819 23.59198
#
# Velocity S-wave (km/s) = 3.31552 3.47628 3.39685
# Velocity P-wave (km/s) = 6.10533 6.39183 6.25022
#
# Compressibility (1/GPa) = 0.02162377
#
# Stress axis : x y z
#
# Youngs Moduli (GPa) = 62.86196 47.65335 43.32837
#
# Poissons Ratio (x) = 0.12500 0.43849
# Poissons Ratio (y) = 0.16489 0.27865
# Poissons Ratio (z) = 0.63617 0.30647
#
# Static dielectric constant tensor:
#      x y z
#    x 1.708930 0.000000 0.000000 
#    y 0.000000 1.747060 0.000000 
#    z 0.000000 0.000000 1.742010 
# 
# From -- ./inp_files/3574.got.cif
#   From: 2010.05.17/outbox.cif.g08.bks.cpg/sg19_2_cif.got.tgz:3574.got - 2010.06.03 22:46:19.
