data_PCOD9314094
_publ_section_title
;
Structure prediction by ZEFSAII (Michael W. Deem and Ramdas Pophale) SiO2 
 PCOD9314094
Probable space group: P 21 21 21
;
_chemical_formula_sum "Si O2"
_cell_formula_units_Z 28
_cell_length_a 16.113207
_cell_length_b 9.511898
_cell_length_c 7.442330
_cell_angle_alpha 90.000000
_cell_angle_beta 90.000000
_cell_angle_gamma 90.000000
_cell_volume 1140.664942
_symmetry_space_group_name_H-M "P 21 21 21"
_symmetry_group_IT_number 19
_symmetry_cell_setting 'orthorhombic'
loop_
_space_group_symop_operation_xyz
x,y,z
1/2-x,-y,1/2+z
1/2+x,1/2-y,-z
-x,1/2+y,1/2-z
loop_
_atom_site_type_symbol
_atom_site_label
_atom_site_fract_x
_atom_site_fract_y
_atom_site_fract_z
Si Si1 0.435666 0.452990 0.179042
Si Si2 0.886443 0.104575 0.461722
Si Si3 0.410350 0.676031 0.907815
Si Si4 0.240006 0.391701 0.189986
Si Si5 0.143472 0.018176 0.516800
Si Si6 0.542801 0.738593 0.624081
Si Si7 0.803943 0.369756 0.661449
O O1 0.452604 0.450155 0.390892
O O2 0.333968 0.447496 0.185734
O O3 0.457058 0.587217 0.059453
O O4 0.466303 0.318880 0.065206
O O5 0.920777 0.148358 0.267181
O O6 0.850191 0.251215 0.543633
O O7 0.815981 0.985499 0.440727
O O8 0.320791 0.609901 0.863251
O O9 0.396587 0.832551 0.974581
O O10 0.460489 0.683582 0.721451
O O11 0.256666 0.223361 0.182632
O O12 0.238562 0.046902 0.457481
O O13 0.104172 0.891806 0.402868
O O14 0.139365 0.974455 0.725390
#
# Coordination Sequence:
#
# PCOD9314094 Si02
#       7
#     4   4   4   4   4   4   4
#     4  11  22  45  70  99 135 180 241 278 333 417
#     4  11  23  40  69 101 130 179 241 279 339 411
#     4  11  25  44  69 102 140 186 217 286 361 398
#     4  10  20  41  70  97 131 175 238 282 326 407
#     4  11  22  40  68  95 144 170 225 281 350 408
#     4  12  24  45  68  96 146 183 220 285 351 417
#     4  10  22  39  64 104 130 177 224 293 342 394
#
# _framework density 24.547089
#
# number of rings (size 3 to 8) (size 9 to 14) (size 15 to 20)
#    0.000    1.143    4.286    4.286    0.000    1.143 
#    5.143    0.000    0.000    0.000    0.000    0.000 
#    0.000    0.000    0.000    0.000    0.000    0.000 
#
# Total GULP energy -156415.284010 kJ/mol
# GULP energy per Si atom -5586.260143 kJ/mol
# Density = 2.449122 g / cm^3
# Si number density = 24.547089 Si / 1000 Ang^3
#
#
#
# Elastic Constant Matrix: (Units=GPa)
#
#
# Indices 1 2 3 4 5 6 
#
# 1 58.3670 -9.2951 4.7270 0.0000 0.0000 0.0000
# 2 -9.2951 83.0087 31.0529 0.0000 0.0000 0.0000
# 3 4.7270 31.0529 82.1790 0.0000 0.0000 0.0000
# 4 0.0000 0.0000 0.0000 46.6992 0.0000 0.0000
# 5 0.0000 0.0000 0.0000 0.0000 39.3941 0.0000
# 6 0.0000 0.0000 0.0000 0.0000 0.0000 33.2288
#
#
#
# Elastic Compliance Matrix: (Units=1/GPa)
#
#
# Indices 1 2 3 4 5 6 
#
# 1 0.017739 0.002758 -0.002063 0.000000 0.000000 0.000000
# 2 0.002758 0.014459 -0.005622 0.000000 0.000000 0.000000
# 3 -0.002063 -0.005622 0.014412 0.000000 0.000000 0.000000
# 4 0.000000 0.000000 0.000000 0.021414 0.000000 0.000000
# 5 0.000000 0.000000 0.000000 0.000000 0.025385 0.000000
# 6 0.000000 0.000000 0.000000 0.000000 0.000000 0.030094
#
#
# Mechanical properties :
#
#
# Convention : Reuss Voigt Hill
#
# Bulk Modulus (GPa) = 27.20623 30.72492 28.96558
# Shear Modulus (GPa) = 34.33873 37.00241 35.67057
#
# Velocity S-wave (km/s) = 3.74423 3.88674 3.81615
# Velocity P-wave (km/s) = 5.45891 5.71719 5.58954
#
# Compressibility (1/GPa) = 0.03675628
#
# Stress axis : x y z
#
# Youngs Moduli (GPa) = 56.37223 69.16108 69.38821
#
# Poissons Ratio (x) = -0.19074 0.14312
# Poissons Ratio (y) = -0.15547 0.39012
# Poissons Ratio (z) = 0.11627 0.38884
#
# Static dielectric constant tensor:
#      x y z
#    x 2.047010 0.000000 0.000000 
#    y 0.000000 1.940260 0.000000 
#    z 0.000000 0.000000 2.026470 
# 
# From -- ./inp_files/4163.got.cif
#   From: 2010.05.17/outbox.cif.g08.bks.cpg/sg19_3_cif.got.tgz:4163.got - 2010.06.03 22:46:19.
