data_PCOD9314130
_publ_section_title
;
Structure prediction by ZEFSAII (Michael W. Deem and Ramdas Pophale) SiO2 
 PCOD9314130
Probable space group: P 21 21 21
;
_chemical_formula_sum "Si O2"
_cell_formula_units_Z 24
_cell_length_a 13.808728
_cell_length_b 9.585076
_cell_length_c 6.957393
_cell_angle_alpha 90.000000
_cell_angle_beta 90.000000
_cell_angle_gamma 90.000000
_cell_volume 920.864587
_symmetry_space_group_name_H-M "P 21 21 21"
_symmetry_group_IT_number 19
_symmetry_cell_setting 'orthorhombic'
loop_
_space_group_symop_operation_xyz
x,y,z
1/2-x,-y,1/2+z
1/2+x,1/2-y,-z
-x,1/2+y,1/2-z
loop_
_atom_site_type_symbol
_atom_site_label
_atom_site_fract_x
_atom_site_fract_y
_atom_site_fract_z
Si Si1 0.855304 0.046148 0.739122
Si Si2 0.445674 0.118403 0.773041
Si Si3 0.909630 0.774068 0.565780
Si Si4 0.201553 0.655014 0.389090
Si Si5 0.631506 0.436766 0.403435
Si Si6 0.660473 0.651934 0.074332
O O1 0.869601 0.089965 0.956260
O O2 0.854633 0.184153 0.612648
O O3 0.924165 0.925527 0.665262
O O4 0.749773 0.968403 0.733853
O O5 0.355102 0.224064 0.788033
O O6 0.427283 0.985240 0.908156
O O7 0.531237 0.208330 0.869176
O O8 0.429098 0.086790 0.549846
O O9 0.795689 0.773950 0.514052
O O10 0.917443 0.667162 0.745773
O O11 0.732911 0.376265 0.485282
O O12 0.656319 0.573982 0.279342
#
# Coordination Sequence:
#
# PCOD9314130 Si02
#       6
#     4   4   4   4   4   4
#     4  10  22  43  69  97 134 178 241 278 344 417
#     4  12  25  44  71 101 149 177 232 297 344 415
#     4  10  26  42  68 108 131 186 240 276 354 416
#     4  10  20  43  66  97 131 181 225 284 345 407
#     4  12  24  44  69 103 140 181 238 283 354 418
#     4  12  23  44  71 100 137 191 228 288 355 413
#
# _framework density 26.062467000000002
#
# number of rings (size 3 to 8) (size 9 to 14) (size 15 to 20)
#    1.000    0.000    5.000    2.000    2.333    1.333 
#    0.000    0.000    0.000    0.000    0.000    0.000 
#    0.000    0.000    0.000    0.000    0.000    0.000 
#
# Total GULP energy -134110.162184 kJ/mol
# GULP energy per Si atom -5587.923424 kJ/mol
# Density = 2.600315 g / cm^3
# Si number density = 26.062467 Si / 1000 Ang^3
#
#
#
# Elastic Constant Matrix: (Units=GPa)
#
#
# Indices 1 2 3 4 5 6 
#
# 1 72.6793 13.8660 -3.6668 0.0000 0.0000 0.0000
# 2 13.8660 135.9330 32.3168 0.0000 0.0000 0.0000
# 3 -3.6668 32.3168 51.5406 0.0000 0.0000 0.0000
# 4 0.0000 0.0000 0.0000 44.8876 0.0000 0.0000
# 5 0.0000 0.0000 0.0000 0.0000 37.7991 0.0000
# 6 0.0000 0.0000 0.0000 0.0000 0.0000 27.1095
#
#
#
# Elastic Compliance Matrix: (Units=1/GPa)
#
#
# Indices 1 2 3 4 5 6 
#
# 1 0.014253 -0.001992 0.002263 0.000000 0.000000 0.000000
# 2 -0.001992 0.008924 -0.005737 0.000000 0.000000 0.000000
# 3 0.002263 -0.005737 0.023160 0.000000 0.000000 0.000000
# 4 0.000000 0.000000 0.000000 0.022278 0.000000 0.000000
# 5 0.000000 0.000000 0.000000 0.000000 0.026456 0.000000
# 6 0.000000 0.000000 0.000000 0.000000 0.000000 0.036887
#
#
# Mechanical properties :
#
#
# Convention : Reuss Voigt Hill
#
# Bulk Modulus (GPa) = 28.24425 38.35391 33.29908
# Shear Modulus (GPa) = 32.32230 36.46836 34.39533
#
# Velocity S-wave (km/s) = 3.52545 3.74474 3.63675
# Velocity P-wave (km/s) = 5.23759 5.78321 5.51715
#
# Compressibility (1/GPa) = 0.03540544
#
# Stress axis : x y z
#
# Youngs Moduli (GPa) = 70.15934 112.06145 43.17720
#
# Poissons Ratio (x) = 0.22322 -0.09771
# Poissons Ratio (y) = 0.13975 0.24771
# Poissons Ratio (z) = -0.15877 0.64290
#
# Static dielectric constant tensor:
#      x y z
#    x 2.112390 0.000000 0.000000 
#    y 0.000000 2.095640 0.000000 
#    z 0.000000 0.000000 2.179190 
# 
# From -- ./inp_files/4126.got.cif
#   From: 2010.05.17/outbox.cif.g08.bks.cpg/sg19_3_cif.got.tgz:4126.got - 2010.06.03 22:46:19.
