data_PCOD9314876
_publ_section_title
;
Structure prediction by ZEFSAII (Michael W. Deem and Ramdas Pophale) SiO2 
 PCOD9314876
Probable space group: P 21 21 21
;
_chemical_formula_sum "Si O2"
_cell_formula_units_Z 32
_cell_length_a 10.634404
_cell_length_b 8.189759
_cell_length_c 15.337311
_cell_angle_alpha 90.000000
_cell_angle_beta 90.000000
_cell_angle_gamma 90.000000
_cell_volume 1335.775584
_symmetry_space_group_name_H-M "P 21 21 21"
_symmetry_group_IT_number 19
_symmetry_cell_setting 'orthorhombic'
loop_
_space_group_symop_operation_xyz
x,y,z
1/2-x,-y,1/2+z
1/2+x,1/2-y,-z
-x,1/2+y,1/2-z
loop_
_atom_site_type_symbol
_atom_site_label
_atom_site_fract_x
_atom_site_fract_y
_atom_site_fract_z
Si Si1 0.055415 0.827070 0.274140
Si Si2 0.988423 0.747268 0.457819
Si Si3 0.336328 0.354893 0.101264
Si Si4 0.803493 0.530113 0.366923
Si Si5 0.676815 0.026485 0.694911
Si Si6 0.825884 0.023060 0.519345
Si Si7 0.553307 0.040886 0.274197
Si Si8 0.443517 0.870090 0.116913
O O1 0.110414 0.645849 0.283516
O O2 0.019075 0.862586 0.374465
O O3 0.151891 0.942244 0.221819
O O4 0.925529 0.839357 0.220802
O O5 0.924929 0.579120 0.424543
O O6 0.889962 0.843727 0.517522
O O7 0.114047 0.718997 0.510512
O O8 0.257053 0.209929 0.144351
O O9 0.464262 0.409025 0.149373
O O10 0.252046 0.511556 0.070760
O O11 0.698101 0.414356 0.411022
O O12 0.727613 0.047527 0.597221
O O13 0.805186 0.014114 0.749400
O O14 0.948699 0.132301 0.542824
O O15 0.546111 0.212778 0.321336
O O16 0.476111 0.014033 0.186972
#
# Coordination Sequence:
#
# PCOD9314876 Si02
#       8
#     4   4   4   4   4   4   4   4
#     4  12  22  41  68 101 132 179 232 283 333 422
#     4  11  23  42  71  98 136 185 230 283 355 400
#     4  11  22  44  69  98 135 183 229 287 350 411
#     4  11  22  40  70  97 133 179 233 272 342 420
#     4  11  23  41  68 100 133 179 228 282 341 405
#     4  10  22  43  67  95 139 174 224 282 347 412
#     4  11  25  42  69  97 137 179 232 284 341 418
#     4  11  23  43  66 102 135 180 230 285 345 414
#
# _framework density 23.956118
#
# number of rings (size 3 to 8) (size 9 to 14) (size 15 to 20)
#    0.000    1.000    5.000    2.250    1.750    1.000 
#    2.250    1.250    0.000    0.000    0.000    0.000 
#    0.000    0.000    0.000    0.000    0.000    0.000 
#
# Total GULP energy -178513.817296 kJ/mol
# GULP energy per Si atom -5578.556791 kJ/mol
# Density = 2.390159 g / cm^3
# Si number density = 23.956118 Si / 1000 Ang^3
#
#
#
# Elastic Constant Matrix: (Units=GPa)
#
#
# Indices 1 2 3 4 5 6 
#
# 1 98.8185 4.8602 16.3132 0.0000 0.0000 0.0000
# 2 4.8602 35.2615 -18.7169 0.0000 0.0000 0.0000
# 3 16.3132 -18.7169 46.2622 0.0000 0.0000 0.0000
# 4 0.0000 0.0000 0.0000 35.6995 0.0000 0.0000
# 5 0.0000 0.0000 0.0000 0.0000 41.5642 0.0000
# 6 0.0000 0.0000 0.0000 0.0000 0.0000 33.5192
#
#
#
# Elastic Compliance Matrix: (Units=1/GPa)
#
#
# Indices 1 2 3 4 5 6 
#
# 1 0.011322 -0.004686 -0.005888 0.000000 0.000000 0.000000
# 2 -0.004686 0.038055 0.017049 0.000000 0.000000 0.000000
# 3 -0.005888 0.017049 0.030590 0.000000 0.000000 0.000000
# 4 0.000000 0.000000 0.000000 0.028012 0.000000 0.000000
# 5 0.000000 0.000000 0.000000 0.000000 0.024059 0.000000
# 6 0.000000 0.000000 0.000000 0.000000 0.000000 0.029834
#
#
# Mechanical properties :
#
#
# Convention : Reuss Voigt Hill
#
# Bulk Modulus (GPa) = 10.76242 20.58390 15.67316
# Shear Modulus (GPa) = 27.79403 34.01562 30.90483
#
# Velocity S-wave (km/s) = 3.40987 3.77226 3.59564
# Velocity P-wave (km/s) = 4.47273 5.25207 4.87799
#
# Compressibility (1/GPa) = 0.09291587
#
# Stress axis : x y z
#
# Youngs Moduli (GPa) = 88.32282 26.27773 32.69044
#
# Poissons Ratio (x) = 0.12314 0.19249
# Poissons Ratio (y) = 0.41389 -0.55733
# Poissons Ratio (z) = 0.52008 -0.44801
#
# Static dielectric constant tensor:
#      x y z
#    x 1.981190 0.000000 0.000000 
#    y 0.000000 1.961440 0.000000 
#    z 0.000000 0.000000 2.192750 
# 
# From -- ./inp_files/6174.got.cif
#   From: 2010.05.17/outbox.cif.g08.bks.cpg/sg19_4_cif.got.tgz:6174.got - 2010.06.03 22:46:19.
