data_PCOD9314390
_publ_section_title
;
Structure prediction by ZEFSAII (Michael W. Deem and Ramdas Pophale) SiO2 
 PCOD9314390
Probable space group: P 21 21 21
;
_chemical_formula_sum "Si O2"
_cell_formula_units_Z 32
_cell_length_a 14.663541
_cell_length_b 8.847728
_cell_length_c 9.572849
_cell_angle_alpha 90.000000
_cell_angle_beta 90.000000
_cell_angle_gamma 90.000000
_cell_volume 1241.972070
_symmetry_space_group_name_H-M "P 21 21 21"
_symmetry_group_IT_number 19
_symmetry_cell_setting 'orthorhombic'
loop_
_space_group_symop_operation_xyz
x,y,z
1/2-x,-y,1/2+z
1/2+x,1/2-y,-z
-x,1/2+y,1/2-z
loop_
_atom_site_type_symbol
_atom_site_label
_atom_site_fract_x
_atom_site_fract_y
_atom_site_fract_z
Si Si1 0.574061 0.607456 0.810468
Si Si2 0.283797 0.430420 0.245805
Si Si3 0.942611 0.876360 0.520786
Si Si4 0.392753 0.668189 0.159046
Si Si5 0.675187 0.351235 0.873287
Si Si6 0.893056 0.326001 0.616358
Si Si7 0.143431 0.992509 0.603633
Si Si8 0.397466 0.441161 0.753989
O O1 0.633461 0.465734 0.757483
O O2 0.470956 0.549750 0.827014
O O3 0.575734 0.766352 0.734865
O O4 0.624405 0.634027 0.957481
O O5 0.335715 0.519170 0.121370
O O6 0.218410 0.296088 0.194726
O O7 0.354018 0.335683 0.338857
O O8 0.206549 0.543493 0.301754
O O9 0.895305 0.862258 0.672690
O O10 0.911245 0.713677 0.458667
O O11 0.049436 0.918883 0.544618
O O12 0.909260 0.002046 0.408235
O O13 0.498079 0.674907 0.123240
O O14 0.353986 0.825968 0.104046
O O15 0.763358 0.419811 0.951956
O O16 0.859559 0.444434 0.731972
#
# Coordination Sequence:
#
# PCOD9314390 Si02
#       8
#     4   4   4   4   4   4   4   4
#     4  12  24  46  69 101 143 192 234 292 357 423
#     4  10  22  43  66 100 140 180 239 286 349 424
#     4  10  22  44  68 101 142 181 231 294 353 427
#     4  11  20  40  72 103 136 178 231 300 350 410
#     4  10  23  43  64  98 140 181 233 287 343 428
#     4  10  22  42  72  99 138 179 235 298 345 416
#     4  10  21  40  68 103 133 180 232 290 362 407
#     4  11  24  44  67  99 146 189 235 289 359 435
#
# _framework density 25.765474000000001
#
# number of rings (size 3 to 8) (size 9 to 14) (size 15 to 20)
#    0.000    1.500    0.000    6.000    0.000    2.000 
#   22.500    0.000    0.000    0.000    0.000    0.000 
#    0.000    0.000    0.000    0.000    0.000    0.000 
#
# Total GULP energy -178752.690159 kJ/mol
# GULP energy per Si atom -5586.021567 kJ/mol
# Density = 2.570683 g / cm^3
# Si number density = 25.765474 Si / 1000 Ang^3
#
#
#
# Elastic Constant Matrix: (Units=GPa)
#
#
# Indices 1 2 3 4 5 6 
#
# 1 173.8525 70.9976 11.8987 0.0000 0.0000 0.0000
# 2 70.9976 129.8696 8.4137 0.0000 0.0000 0.0000
# 3 11.8987 8.4137 64.5370 0.0000 0.0000 0.0000
# 4 0.0000 0.0000 0.0000 27.5494 0.0000 0.0000
# 5 0.0000 0.0000 0.0000 0.0000 5.0328 0.0000
# 6 0.0000 0.0000 0.0000 0.0000 0.0000 49.7323
#
#
#
# Elastic Compliance Matrix: (Units=1/GPa)
#
#
# Indices 1 2 3 4 5 6 
#
# 1 0.007451 -0.004018 -0.000850 0.000000 0.000000 0.000000
# 2 -0.004018 0.009933 -0.000554 0.000000 0.000000 0.000000
# 3 -0.000850 -0.000554 0.015724 0.000000 0.000000 0.000000
# 4 0.000000 0.000000 0.000000 0.036298 0.000000 0.000000
# 5 0.000000 0.000000 0.000000 0.000000 0.198696 0.000000
# 6 0.000000 0.000000 0.000000 0.000000 0.000000 0.020108
#
#
# Mechanical properties :
#
#
# Convention : Reuss Voigt Hill
#
# Bulk Modulus (GPa) = 44.91730 61.20879 53.06304
# Shear Modulus (GPa) = 16.31450 34.92617 25.62033
#
# Velocity S-wave (km/s) = 2.51906 3.68576 3.15678
# Velocity P-wave (km/s) = 5.09233 6.47463 5.82463
#
# Compressibility (1/GPa) = 0.02226314
#
# Stress axis : x y z
#
# Youngs Moduli (GPa) = 134.20667 100.67737 63.59736
#
# Poissons Ratio (x) = 0.40456 0.05405
# Poissons Ratio (y) = 0.53929 0.03524
# Poissons Ratio (z) = 0.11406 0.05578
#
# Static dielectric constant tensor:
#      x y z
#    x 2.129890 0.000000 0.000000 
#    y 0.000000 2.163190 0.000000 
#    z 0.000000 0.000000 2.144210 
# 
# From -- ./inp_files/5284.got.cif
#   From: 2010.05.17/outbox.cif.g08.bks.cpg/sg19_3_cif.got.tgz:5284.got - 2010.06.03 22:46:19.
