data_PCOD9314531
_publ_section_title
;
Structure prediction by ZEFSAII (Michael W. Deem and Ramdas Pophale) SiO2 
 PCOD9314531
Probable space group: P 21 21 21
;
_chemical_formula_sum "Si O2"
_cell_formula_units_Z 32
_cell_length_a 15.220532
_cell_length_b 7.724986
_cell_length_c 12.236378
_cell_angle_alpha 90.000000
_cell_angle_beta 90.000000
_cell_angle_gamma 90.000000
_cell_volume 1438.733706
_symmetry_space_group_name_H-M "P 21 21 21"
_symmetry_group_IT_number 19
_symmetry_cell_setting 'orthorhombic'
loop_
_space_group_symop_operation_xyz
x,y,z
1/2-x,-y,1/2+z
1/2+x,1/2-y,-z
-x,1/2+y,1/2-z
loop_
_atom_site_type_symbol
_atom_site_label
_atom_site_fract_x
_atom_site_fract_y
_atom_site_fract_z
Si Si1 0.915657 0.040849 0.826189
Si Si2 0.200865 0.952209 0.005697
Si Si3 0.301943 0.204074 0.847487
Si Si4 0.083934 0.032665 0.192678
Si Si5 0.954844 0.244718 0.610037
Si Si6 0.536873 0.832666 0.543336
Si Si7 0.463237 0.462270 0.610078
Si Si8 0.258623 0.375906 0.646574
O O1 0.921654 0.120219 0.706596
O O2 0.816229 0.017074 0.868364
O O3 0.965373 0.162603 0.913982
O O4 0.965918 0.859042 0.842090
O O5 0.246732 0.787091 0.063840
O O6 0.161271 0.074068 0.103333
O O7 0.123531 0.870020 0.931611
O O8 0.261210 0.062155 0.926038
O O9 0.363833 0.325133 0.917512
O O10 0.237756 0.308477 0.769562
O O11 0.365947 0.115224 0.758527
O O12 0.007192 0.004453 0.103838
O O13 0.026703 0.111905 0.293493
O O14 0.980668 0.133217 0.503959
O O15 0.486661 0.664401 0.590894
O O16 0.359627 0.442589 0.638707
#
# Coordination Sequence:
#
# PCOD9314531 Si02
#       8
#     4   4   4   4   4   4   4   4
#     4  12  27  43  68 102 144 193 232 293 352 431
#     4  10  23  44  67 103 139 185 226 297 355 424
#     4  10  23  41  70 105 142 177 232 293 360 415
#     4  10  21  43  71 101 135 186 231 284 352 423
#     4  11  26  45  66  97 145 191 238 277 364 415
#     4  11  23  41  72 102 140 183 237 284 355 426
#     4  10  23  46  72 102 136 185 241 298 349 427
#     4  10  24  43  68 102 141 176 241 300 349 417
#
# _framework density 22.241782000000001
#
# number of rings (size 3 to 8) (size 9 to 14) (size 15 to 20)
#    0.000    1.500    2.500    0.750    7.000    7.000 
#    0.000    0.000    0.000    0.000    0.000    0.000 
#    0.000    0.000    0.000    0.000    0.000    0.000 
#
# Total GULP energy -178278.590406 kJ/mol
# GULP energy per Si atom -5571.205950 kJ/mol
# Density = 2.219116 g / cm^3
# Si number density = 22.241782 Si / 1000 Ang^3
#
#
#
# Elastic Constant Matrix: (Units=GPa)
#
#
# Indices 1 2 3 4 5 6 
#
# 1 67.4807 38.6155 41.8811 0.0000 0.0000 0.0000
# 2 38.6155 49.8647 50.9401 0.0000 0.0000 0.0000
# 3 41.8811 50.9401 159.4422 0.0000 0.0000 0.0000
# 4 0.0000 0.0000 0.0000 38.2368 0.0000 0.0000
# 5 0.0000 0.0000 0.0000 0.0000 18.7731 0.0000
# 6 0.0000 0.0000 0.0000 0.0000 0.0000 39.8163
#
#
#
# Elastic Compliance Matrix: (Units=1/GPa)
#
#
# Indices 1 2 3 4 5 6 
#
# 1 0.026651 -0.020022 -0.000604 0.000000 0.000000 0.000000
# 2 -0.020022 0.044813 -0.009058 0.000000 0.000000 0.000000
# 3 -0.000604 -0.009058 0.009324 0.000000 0.000000 0.000000
# 4 0.000000 0.000000 0.000000 0.026153 0.000000 0.000000
# 5 0.000000 0.000000 0.000000 0.000000 0.053268 0.000000
# 6 0.000000 0.000000 0.000000 0.000000 0.000000 0.025115
#
#
# Mechanical properties :
#
#
# Convention : Reuss Voigt Hill
#
# Bulk Modulus (GPa) = 46.68349 59.96233 53.32291
# Shear Modulus (GPa) = 19.85448 29.05532 24.45490
#
# Velocity S-wave (km/s) = 2.99099 3.61825 3.31947
# Velocity P-wave (km/s) = 5.74132 6.66885 6.22239
#
# Compressibility (1/GPa) = 0.02142085
#
# Stress axis : x y z
#
# Youngs Moduli (GPa) = 37.52161 22.31500 107.24587
#
# Poissons Ratio (x) = 0.44680 0.06474
# Poissons Ratio (y) = 0.75127 0.97143
# Poissons Ratio (z) = 0.02265 0.20213
#
# Static dielectric constant tensor:
#      x y z
#    x 1.850860 0.000000 0.000000 
#    y 0.000000 1.897440 0.000000 
#    z 0.000000 0.000000 1.818570 
# 
# From -- ./inp_files/5250.got.cif
#   From: 2010.05.17/outbox.cif.g08.bks.cpg/sg19_3_cif.got.tgz:5250.got - 2010.06.03 22:46:19.
