data_PCOD9314858
_publ_section_title
;
Structure prediction by ZEFSAII (Michael W. Deem and Ramdas Pophale) SiO2 
 PCOD9314858
Probable space group: P 21 21 21
;
_chemical_formula_sum "Si O2"
_cell_formula_units_Z 32
_cell_length_a 5.087082
_cell_length_b 13.045921
_cell_length_c 17.326361
_cell_angle_alpha 90.000000
_cell_angle_beta 90.000000
_cell_angle_gamma 90.000000
_cell_volume 1149.875555
_symmetry_space_group_name_H-M "P 21 21 21"
_symmetry_group_IT_number 19
_symmetry_cell_setting 'orthorhombic'
loop_
_space_group_symop_operation_xyz
x,y,z
1/2-x,-y,1/2+z
1/2+x,1/2-y,-z
-x,1/2+y,1/2-z
loop_
_atom_site_type_symbol
_atom_site_label
_atom_site_fract_x
_atom_site_fract_y
_atom_site_fract_z
Si Si1 0.379412 0.999853 0.459838
Si Si2 0.270842 0.676759 0.600317
Si Si3 0.283416 0.999804 0.297535
Si Si4 0.768771 0.797322 0.965041
Si Si5 0.986506 0.375678 0.948656
Si Si6 0.862438 0.816483 0.798620
Si Si7 0.679868 0.861451 0.236165
Si Si8 0.112793 0.568799 0.328806
O O1 0.551658 0.903024 0.430508
O O2 0.204439 0.971270 0.534273
O O3 0.181227 0.014333 0.385254
O O4 0.573755 0.095186 0.474637
O O5 0.158866 0.791701 0.603354
O O6 0.484076 0.674971 0.532967
O O7 0.350186 0.643122 0.685987
O O8 0.551225 0.065648 0.309336
O O9 0.147196 0.048547 0.222584
O O10 0.390433 0.891219 0.268748
O O11 0.709815 0.781987 0.874237
O O12 0.994134 0.716325 0.991145
O O13 0.266491 0.404220 0.912343
O O14 0.125972 0.748758 0.798617
O O15 0.717813 0.831446 0.718482
O O16 0.765273 0.953526 0.182143
#
# Coordination Sequence:
#
# PCOD9314858 Si02
#       8
#     4   4   4   4   4   4   4   4
#     4  10  24  45  69  97 145 188 240 297 384 442
#     4  11  23  42  67 100 142 188 233 300 379 446
#     4   9  22  43  65  92 130 192 229 295 368 438
#     4  11  28  49  76 109 147 196 255 312 373 440
#     4  12  24  40  69 106 141 187 240 306 370 457
#     4  10  23  43  69  94 140 184 236 294 363 438
#     4  10  22  43  63  94 136 180 232 295 362 434
#     4  11  24  41  66 100 139 181 245 293 361 445
#
# _framework density 27.829097000000001
#
# number of rings (size 3 to 8) (size 9 to 14) (size 15 to 20)
#    0.000    1.500    2.500    1.500    7.000    4.000 
#    0.000    0.000    0.000    0.000    0.000    0.000 
#    0.000    0.000    0.000    0.000    0.000    0.000 
#
# Total GULP energy -178795.848914 kJ/mol
# GULP energy per Si atom -5587.370279 kJ/mol
# Density = 2.776576 g / cm^3
# Si number density = 27.829097 Si / 1000 Ang^3
#
#
#
# Elastic Constant Matrix: (Units=GPa)
#
#
# Indices 1 2 3 4 5 6 
#
# 1 83.6419 6.8702 -3.8056 0.0000 0.0000 0.0000
# 2 6.8702 98.5372 10.4658 0.0000 0.0000 0.0000
# 3 -3.8056 10.4658 71.6973 0.0000 0.0000 0.0000
# 4 0.0000 0.0000 0.0000 36.2013 0.0000 0.0000
# 5 0.0000 0.0000 0.0000 0.0000 22.8288 0.0000
# 6 0.0000 0.0000 0.0000 0.0000 0.0000 45.6395
#
#
#
# Elastic Compliance Matrix: (Units=1/GPa)
#
#
# Indices 1 2 3 4 5 6 
#
# 1 0.012067 -0.000924 0.000775 0.000000 0.000000 0.000000
# 2 -0.000924 0.010379 -0.001564 0.000000 0.000000 0.000000
# 3 0.000775 -0.001564 0.014217 0.000000 0.000000 0.000000
# 4 0.000000 0.000000 0.000000 0.027623 0.000000 0.000000
# 5 0.000000 0.000000 0.000000 0.000000 0.043804 0.000000
# 6 0.000000 0.000000 0.000000 0.000000 0.000000 0.021911
#
#
# Mechanical properties :
#
#
# Convention : Reuss Voigt Hill
#
# Bulk Modulus (GPa) = 30.08606 31.21526 30.65066
# Shear Modulus (GPa) = 34.60076 36.95698 35.77887
#
# Velocity S-wave (km/s) = 3.52991 3.64812 3.58951
# Velocity P-wave (km/s) = 5.23910 5.38388 5.31199
#
# Compressibility (1/GPa) = 0.03323799
#
# Stress axis : x y z
#
# Youngs Moduli (GPa) = 82.87150 96.34866 70.33838
#
# Poissons Ratio (x) = 0.08899 -0.05453
# Poissons Ratio (y) = 0.07655 0.11001
# Poissons Ratio (z) = -0.06425 0.15070
#
# Static dielectric constant tensor:
#      x y z
#    x 2.268940 0.000000 0.000000 
#    y 0.000000 2.139350 0.000000 
#    z 0.000000 0.000000 2.320940 
# 
# From -- ./inp_files/6481.got.cif
#   From: 2010.05.17/outbox.cif.g08.bks.cpg/sg19_4_cif.got.tgz:6481.got - 2010.06.03 22:46:19.
