data_PCOD9314309
_publ_section_title
;
Structure prediction by ZEFSAII (Michael W. Deem and Ramdas Pophale) SiO2 
 PCOD9314309
Probable space group: P 21 21 21
;
_chemical_formula_sum "Si O2"
_cell_formula_units_Z 24
_cell_length_a 7.515240
_cell_length_b 9.584052
_cell_length_c 14.142973
_cell_angle_alpha 90.000000
_cell_angle_beta 90.000000
_cell_angle_gamma 90.000000
_cell_volume 1018.668151
_symmetry_space_group_name_H-M "P 21 21 21"
_symmetry_group_IT_number 19
_symmetry_cell_setting 'orthorhombic'
loop_
_space_group_symop_operation_xyz
x,y,z
1/2-x,-y,1/2+z
1/2+x,1/2-y,-z
-x,1/2+y,1/2-z
loop_
_atom_site_type_symbol
_atom_site_label
_atom_site_fract_x
_atom_site_fract_y
_atom_site_fract_z
Si Si1 0.874148 0.072845 0.959948
Si Si2 0.289099 0.062304 0.562106
Si Si3 0.316377 0.935020 0.861826
Si Si4 0.302961 0.347677 0.664545
Si Si5 0.322865 0.259186 0.859230
Si Si6 0.745947 0.701356 0.321638
O O1 0.867754 0.178209 0.871047
O O2 0.798740 0.931981 0.914907
O O3 0.778413 0.162203 0.043096
O O4 0.045806 0.016144 0.014035
O O5 0.180351 0.112510 0.470540
O O6 0.339579 0.192011 0.627110
O O7 0.200789 0.943405 0.625531
O O8 0.515437 0.931642 0.823674
O O9 0.217405 0.831406 0.789516
O O10 0.266278 0.097680 0.860731
O O11 0.230140 0.333158 0.770195
O O12 0.540939 0.264447 0.841563
#
# Coordination Sequence:
#
# PCOD9314309 Si02
#       6
#     4   4   4   4   4   4
#     4  11  23  41  64  94 128 160 207 268 317 362
#     4  11  23  40  60  97 126 157 209 262 314 365
#     4  11  21  40  67  87 125 169 209 252 310 378
#     4  11  23  41  66  94 122 164 215 257 304 382
#     4  10  21  39  67  91 119 168 212 250 307 378
#     4  10  21  39  64  89 122 166 210 251 304 379
#
# _framework density 23.560175000000001
#
# number of rings (size 3 to 8) (size 9 to 14) (size 15 to 20)
#    0.000    1.333    5.000    1.000    0.000    1.333 
#    3.000    0.000    0.000    0.000    0.000    0.000 
#    0.000    0.000    0.000    0.000    0.000    0.000 
#
# Total GULP energy -133963.558701 kJ/mol
# GULP energy per Si atom -5581.814946 kJ/mol
# Density = 2.350655 g / cm^3
# Si number density = 23.560175 Si / 1000 Ang^3
#
#
#
# Elastic Constant Matrix: (Units=GPa)
#
#
# Indices 1 2 3 4 5 6 
#
# 1 14.2290 9.1397 -0.7128 0.0000 0.0000 0.0000
# 2 9.1397 116.6233 25.9655 0.0000 0.0000 0.0000
# 3 -0.7128 25.9655 104.7682 0.0000 0.0000 0.0000
# 4 0.0000 0.0000 0.0000 47.8400 0.0000 0.0000
# 5 0.0000 0.0000 0.0000 0.0000 22.3957 0.0000
# 6 0.0000 0.0000 0.0000 0.0000 0.0000 18.0661
#
#
#
# Elastic Compliance Matrix: (Units=1/GPa)
#
#
# Indices 1 2 3 4 5 6 
#
# 1 0.074425 -0.006293 0.002066 0.000000 0.000000 0.000000
# 2 -0.006293 0.009607 -0.002424 0.000000 0.000000 0.000000
# 3 0.002066 -0.002424 0.010160 0.000000 0.000000 0.000000
# 4 0.000000 0.000000 0.000000 0.020903 0.000000 0.000000
# 5 0.000000 0.000000 0.000000 0.000000 0.044651 0.000000
# 6 0.000000 0.000000 0.000000 0.000000 0.000000 0.055352
#
#
# Mechanical properties :
#
#
# Convention : Reuss Voigt Hill
#
# Bulk Modulus (GPa) = 12.36239 33.82282 23.09260
# Shear Modulus (GPa) = 19.57996 31.07557 25.32777
#
# Velocity S-wave (km/s) = 2.88594 3.63573 3.28231
# Velocity P-wave (km/s) = 4.04517 5.65789 4.91809
#
# Compressibility (1/GPa) = 0.08089053
#
# Stress axis : x y z
#
# Youngs Moduli (GPa) = 13.43641 104.08613 98.42844
#
# Poissons Ratio (x) = 0.65497 -0.20334
# Poissons Ratio (y) = 0.08455 0.23858
# Poissons Ratio (z) = -0.02776 0.25229
#
# Static dielectric constant tensor:
#      x y z
#    x 2.018980 0.000000 0.000000 
#    y 0.000000 1.880370 0.000000 
#    z 0.000000 0.000000 1.994630 
# 
# From -- ./inp_files/2689.got.cif
#   From: 2010.05.17/outbox.cif.g08.bks.cpg/sg19_2_cif.got.tgz:2689.got - 2010.06.03 22:46:19.
