data_PCOD9314305
_publ_section_title
;
Structure prediction by ZEFSAII (Michael W. Deem and Ramdas Pophale) SiO2 
 PCOD9314305
Probable space group: P 21 21 21
;
_chemical_formula_sum "Si O2"
_cell_formula_units_Z 24
_cell_length_a 14.076384
_cell_length_b 7.138409
_cell_length_c 9.551172
_cell_angle_alpha 90.000000
_cell_angle_beta 90.000000
_cell_angle_gamma 90.000000
_cell_volume 959.730285
_symmetry_space_group_name_H-M "P 21 21 21"
_symmetry_group_IT_number 19
_symmetry_cell_setting 'orthorhombic'
loop_
_space_group_symop_operation_xyz
x,y,z
1/2-x,-y,1/2+z
1/2+x,1/2-y,-z
-x,1/2+y,1/2-z
loop_
_atom_site_type_symbol
_atom_site_label
_atom_site_fract_x
_atom_site_fract_y
_atom_site_fract_z
Si Si1 0.452674 0.755462 0.643176
Si Si2 0.265864 0.528059 0.720849
Si Si3 0.585661 0.130583 0.312680
Si Si4 0.803403 0.203888 0.518578
Si Si5 0.895682 0.540181 0.613635
Si Si6 0.983812 0.613610 0.044331
O O1 0.348343 0.659398 0.660066
O O2 0.440564 0.929594 0.540337
O O3 0.523420 0.608011 0.569814
O O4 0.484505 0.807929 0.797915
O O5 0.155808 0.546677 0.674629
O O6 0.284378 0.327577 0.645831
O O7 0.259771 0.567306 0.885475
O O8 0.618107 0.257726 0.182045
O O9 0.587205 0.270555 0.446551
O O10 0.478701 0.056622 0.295929
O O11 0.804665 0.409264 0.587989
O O12 0.913980 0.145338 0.527331
#
# Coordination Sequence:
#
# PCOD9314305 Si02
#       6
#     4   4   4   4   4   4
#     4  11  23  42  65  91 133 174 222 277 335 400
#     4  11  23  43  65  96 134 173 218 280 333 383
#     4  11  21  39  66  93 129 170 221 274 331 394
#     4  10  23  41  63  92 127 166 216 265 326 390
#     4  11  23  42  66  97 130 172 221 270 330 406
#     4  10  21  39  63  93 125 173 220 268 329 399
#
# _framework density 25.007027000000001
#
# number of rings (size 3 to 8) (size 9 to 14) (size 15 to 20)
#    0.000    1.333    0.000    8.000    0.000    2.667 
#    0.000    6.667    0.000    0.000    0.000    0.000 
#    0.000    0.000    0.000    0.000    0.000    0.000 
#
# Total GULP energy -133938.918540 kJ/mol
# GULP energy per Si atom -5580.788272 kJ/mol
# Density = 2.495011 g / cm^3
# Si number density = 25.007027 Si / 1000 Ang^3
#
#
#
# Elastic Constant Matrix: (Units=GPa)
#
#
# Indices 1 2 3 4 5 6 
#
# 1 58.5729 20.1589 22.4776 0.0000 0.0000 0.0000
# 2 20.1589 79.8322 35.1010 0.0000 0.0000 0.0000
# 3 22.4776 35.1010 130.0336 0.0000 0.0000 0.0000
# 4 0.0000 0.0000 0.0000 53.2338 0.0000 0.0000
# 5 0.0000 0.0000 0.0000 0.0000 46.7034 0.0000
# 6 0.0000 0.0000 0.0000 0.0000 0.0000 33.8215
#
#
#
# Elastic Compliance Matrix: (Units=1/GPa)
#
#
# Indices 1 2 3 4 5 6 
#
# 1 0.019281 -0.003862 -0.002290 0.000000 0.000000 0.000000
# 2 -0.003862 0.014987 -0.003378 0.000000 0.000000 0.000000
# 3 -0.002290 -0.003378 0.008998 0.000000 0.000000 0.000000
# 4 0.000000 0.000000 0.000000 0.018785 0.000000 0.000000
# 5 0.000000 0.000000 0.000000 0.000000 0.021412 0.000000
# 6 0.000000 0.000000 0.000000 0.000000 0.000000 0.029567
#
#
# Mechanical properties :
#
#
# Convention : Reuss Voigt Hill
#
# Bulk Modulus (GPa) = 41.31304 47.10149 44.20727
# Shear Modulus (GPa) = 35.67408 39.46515 37.56962
#
# Velocity S-wave (km/s) = 3.78108 3.97692 3.88024
# Velocity P-wave (km/s) = 5.96813 6.32171 6.14746
#
# Compressibility (1/GPa) = 0.02420543
#
# Stress axis : x y z
#
# Youngs Moduli (GPa) = 51.86515 66.72617 111.13479
#
# Poissons Ratio (x) = 0.25767 0.25455
# Poissons Ratio (y) = 0.20028 0.37541
# Poissons Ratio (z) = 0.11880 0.22540
#
# Static dielectric constant tensor:
#      x y z
#    x 2.032310 0.000000 0.000000 
#    y 0.000000 2.033530 0.000000 
#    z 0.000000 0.000000 1.976970 
# 
# From -- ./inp_files/2813.got.cif
#   From: 2010.05.17/outbox.cif.g08.bks.cpg/sg19_2_cif.got.tgz:2813.got - 2010.06.03 22:46:19.
