data_PCOD9314092
_publ_section_title
;
Structure prediction by ZEFSAII (Michael W. Deem and Ramdas Pophale) SiO2 
 PCOD9314092
Probable space group: P 21 21 21
;
_chemical_formula_sum "Si O2"
_cell_formula_units_Z 24
_cell_length_a 6.449473
_cell_length_b 14.494433
_cell_length_c 11.241926
_cell_angle_alpha 90.000000
_cell_angle_beta 90.000000
_cell_angle_gamma 90.000000
_cell_volume 1050.911591
_symmetry_space_group_name_H-M "P 21 21 21"
_symmetry_group_IT_number 19
_symmetry_cell_setting 'orthorhombic'
loop_
_space_group_symop_operation_xyz
x,y,z
1/2-x,-y,1/2+z
1/2+x,1/2-y,-z
-x,1/2+y,1/2-z
loop_
_atom_site_type_symbol
_atom_site_label
_atom_site_fract_x
_atom_site_fract_y
_atom_site_fract_z
Si Si1 0.784785 0.116227 0.547338
Si Si2 0.215807 0.068978 0.520645
Si Si3 0.547223 0.687067 0.136004
Si Si4 0.845563 0.616522 0.554779
Si Si5 0.301418 0.260119 0.135797
Si Si6 0.539551 0.632399 0.766046
O O1 0.643626 0.139463 0.432928
O O2 0.649227 0.085847 0.660909
O O3 0.974449 0.048334 0.529265
O O4 0.893385 0.214024 0.579817
O O5 0.263062 0.120179 0.397750
O O6 0.298268 0.138104 0.624103
O O7 0.343885 0.974749 0.524568
O O8 0.545113 0.704041 0.276093
O O9 0.756902 0.701183 0.478480
O O10 0.684275 0.595218 0.661374
O O11 0.069995 0.648060 0.601934
O O12 0.089375 0.283388 0.207288
#
# Coordination Sequence:
#
# PCOD9314092 Si02
#       6
#     4   4   4   4   4   4
#     4  10  20  41  69 100 133 178 231 290 349 409
#     4  11  25  43  71 106 138 178 240 296 342 414
#     4  10  21  39  70  99 132 183 230 284 351 408
#     4  12  26  47  68 102 142 187 237 288 352 415
#     4  11  25  47  71  95 142 192 234 283 359 423
#     4  10  23  45  71  96 135 184 226 291 345 415
#
# _framework density 22.837316999999999
#
# number of rings (size 3 to 8) (size 9 to 14) (size 15 to 20)
#    0.000    1.333    3.333    2.000    4.667    2.667 
#    3.000    0.000    0.000    0.000    0.000    0.000 
#    0.000    0.000    0.000    0.000    0.000    0.000 
#
# Total GULP energy -133775.384717 kJ/mol
# GULP energy per Si atom -5573.974363 kJ/mol
# Density = 2.278534 g / cm^3
# Si number density = 22.837317 Si / 1000 Ang^3
#
#
#
# Elastic Constant Matrix: (Units=GPa)
#
#
# Indices 1 2 3 4 5 6 
#
# 1 90.3071 23.5472 38.4929 0.0000 0.0000 0.0000
# 2 23.5472 50.2105 13.1631 0.0000 0.0000 0.0000
# 3 38.4929 13.1631 78.2450 0.0000 0.0000 0.0000
# 4 0.0000 0.0000 0.0000 12.1553 0.0000 0.0000
# 5 0.0000 0.0000 0.0000 0.0000 29.1882 0.0000
# 6 0.0000 0.0000 0.0000 0.0000 0.0000 29.5124
#
#
#
# Elastic Compliance Matrix: (Units=1/GPa)
#
#
# Indices 1 2 3 4 5 6 
#
# 1 0.015314 -0.005447 -0.006618 0.000000 0.000000 0.000000
# 2 -0.005447 0.022772 -0.001151 0.000000 0.000000 0.000000
# 3 -0.006618 -0.001151 0.016230 0.000000 0.000000 0.000000
# 4 0.000000 0.000000 0.000000 0.082269 0.000000 0.000000
# 5 0.000000 0.000000 0.000000 0.000000 0.034260 0.000000
# 6 0.000000 0.000000 0.000000 0.000000 0.000000 0.033884
#
#
# Mechanical properties :
#
#
# Convention : Reuss Voigt Hill
#
# Bulk Modulus (GPa) = 35.86223 41.01880 38.44052
# Shear Modulus (GPa) = 20.79378 23.74181 22.26780
#
# Velocity S-wave (km/s) = 3.02075 3.22779 3.12599
# Velocity P-wave (km/s) = 5.28243 5.64728 5.46790
#
# Compressibility (1/GPa) = 0.02788449
#
# Stress axis : x y z
#
# Youngs Moduli (GPa) = 65.29827 43.91262 61.61591
#
# Poissons Ratio (x) = 0.23920 0.40775
# Poissons Ratio (y) = 0.35569 0.07094
# Poissons Ratio (z) = 0.43212 0.05056
#
# Static dielectric constant tensor:
#      x y z
#    x 1.912560 0.000000 0.000000 
#    y 0.000000 1.845520 0.000000 
#    z 0.000000 0.000000 1.873850 
# 
# From -- ./inp_files/953.got.cif
#   From: 2010.05.17/outbox.cif.g08.bks.cpg/sg19_1_cif.got.tgz:953.got - 2010.06.03 22:46:19.
