data_PCOD9314037
_publ_section_title
;
Structure prediction by ZEFSAII (Michael W. Deem and Ramdas Pophale) SiO2 
 PCOD9314037
Probable space group: P 21 21 21
;
_chemical_formula_sum "Si O2"
_cell_formula_units_Z 32
_cell_length_a 11.899580
_cell_length_b 8.955856
_cell_length_c 14.118705
_cell_angle_alpha 90.000000
_cell_angle_beta 90.000000
_cell_angle_gamma 90.000000
_cell_volume 1504.643451
_symmetry_space_group_name_H-M "P 21 21 21"
_symmetry_group_IT_number 19
_symmetry_cell_setting 'orthorhombic'
loop_
_space_group_symop_operation_xyz
x,y,z
1/2-x,-y,1/2+z
1/2+x,1/2-y,-z
-x,1/2+y,1/2-z
loop_
_atom_site_type_symbol
_atom_site_label
_atom_site_fract_x
_atom_site_fract_y
_atom_site_fract_z
Si Si1 0.094745 0.029411 0.570422
Si Si2 0.162763 0.837753 0.875496
Si Si3 0.357648 0.990361 0.564063
Si Si4 0.533191 0.082979 0.723183
Si Si5 0.997409 0.537592 0.727586
Si Si6 0.077097 0.269356 0.932805
Si Si7 0.088278 0.099830 0.362983
Si Si8 0.218371 0.504726 0.823548
O O1 0.226159 0.002928 0.587105
O O2 0.042221 0.086814 0.667942
O O3 0.076327 0.126501 0.475714
O O4 0.027875 0.877127 0.549081
O O5 0.278285 0.926143 0.851227
O O6 0.196926 0.665201 0.873129
O O7 0.071244 0.887998 0.798976
O O8 0.123625 0.892279 0.978220
O O9 0.439190 0.026825 0.649759
O O10 0.384321 0.828261 0.521181
O O11 0.553861 0.256388 0.698878
O O12 0.484564 0.038072 0.825160
O O13 0.652582 0.001661 0.706440
O O14 0.961822 0.654761 0.648643
O O15 0.129946 0.506349 0.736280
O O16 0.177032 0.372392 0.891518
#
# Coordination Sequence:
#
# PCOD9314037 Si02
#       8
#     4   4   4   4   4   4   4   4
#     4  10  22  42  65  91 128 166 216 258 323 366
#     4   9  20  42  65  90 130 162 216 255 316 378
#     4  10  23  39  65  93 126 175 205 258 315 387
#     4  11  25  41  63  93 130 171 211 258 328 368
#     4  10  20  40  65  91 125 168 208 256 320 372
#     4  10  23  39  68  97 124 163 214 264 308 384
#     4  10  24  43  63  91 128 171 212 270 307 391
#     4  10  21  38  62  96 127 160 210 269 303 372
#
# _framework density 21.267496000000001
#
# number of rings (size 3 to 8) (size 9 to 14) (size 15 to 20)
#    0.000    2.000    0.000    2.250    7.000    4.000 
#    0.000    1.250    0.000    0.000    0.000    0.000 
#    0.000    0.000    0.000    0.000    0.000    0.000 
#
# Total GULP energy -178790.053396 kJ/mol
# GULP energy per Si atom -5587.189169 kJ/mol
# Density = 2.121909 g / cm^3
# Si number density = 21.267496 Si / 1000 Ang^3
#
#
#
# Elastic Constant Matrix: (Units=GPa)
#
#
# Indices 1 2 3 4 5 6 
#
# 1 138.0432 16.3952 42.1296 0.0000 0.0000 0.0000
# 2 16.3952 48.1261 5.0071 0.0000 0.0000 0.0000
# 3 42.1296 5.0071 70.8831 0.0000 0.0000 0.0000
# 4 0.0000 0.0000 0.0000 27.6214 0.0000 0.0000
# 5 0.0000 0.0000 0.0000 0.0000 15.8924 0.0000
# 6 0.0000 0.0000 0.0000 0.0000 0.0000 28.2337
#
#
#
# Elastic Compliance Matrix: (Units=1/GPa)
#
#
# Indices 1 2 3 4 5 6 
#
# 1 0.009155 -0.002572 -0.005259 0.000000 0.000000 0.000000
# 2 -0.002572 0.021655 -0.000001 0.000000 0.000000 0.000000
# 3 -0.005259 -0.000001 0.017234 0.000000 0.000000 0.000000
# 4 0.000000 0.000000 0.000000 0.036204 0.000000 0.000000
# 5 0.000000 0.000000 0.000000 0.000000 0.062923 0.000000
# 6 0.000000 0.000000 0.000000 0.000000 0.000000 0.035419
#
#
# Mechanical properties :
#
#
# Convention : Reuss Voigt Hill
#
# Bulk Modulus (GPa) = 30.88435 42.67957 36.78196
# Shear Modulus (GPa) = 23.91813 27.25088 25.58451
#
# Velocity S-wave (km/s) = 3.35719 3.58346 3.47217
# Velocity P-wave (km/s) = 5.43885 6.10190 5.77989
#
# Compressibility (1/GPa) = 0.03237886
#
# Stress axis : x y z
#
# Youngs Moduli (GPa) = 109.23389 46.17891 58.02548
#
# Poissons Ratio (x) = 0.11875 0.30518
# Poissons Ratio (y) = 0.28090 0.00007
# Poissons Ratio (z) = 0.57451 0.00006
#
# Static dielectric constant tensor:
#      x y z
#    x 1.758730 0.000000 0.000000 
#    y 0.000000 1.796710 0.000000 
#    z 0.000000 0.000000 1.766550 
# 
# From -- ./inp_files/6167.got.cif
#   From: 2010.05.17/outbox.cif.g08.bks.cpg/sg19_4_cif.got.tgz:6167.got - 2010.06.03 22:46:19.
