data_PCOD9314426
_publ_section_title
;
Structure prediction by ZEFSAII (Michael W. Deem and Ramdas Pophale) SiO2 
 PCOD9314426
Probable space group: P 21 21 21
;
_chemical_formula_sum "Si O2"
_cell_formula_units_Z 28
_cell_length_a 7.417271
_cell_length_b 18.190788
_cell_length_c 9.360092
_cell_angle_alpha 90.000000
_cell_angle_beta 90.000000
_cell_angle_gamma 90.000000
_cell_volume 1262.919813
_symmetry_space_group_name_H-M "P 21 21 21"
_symmetry_group_IT_number 19
_symmetry_cell_setting 'orthorhombic'
loop_
_space_group_symop_operation_xyz
x,y,z
1/2-x,-y,1/2+z
1/2+x,1/2-y,-z
-x,1/2+y,1/2-z
loop_
_atom_site_type_symbol
_atom_site_label
_atom_site_fract_x
_atom_site_fract_y
_atom_site_fract_z
Si Si1 0.654097 0.151259 0.136998
Si Si2 0.382637 0.938002 0.915680
Si Si3 0.797629 0.687961 0.608545
Si Si4 0.714523 0.846991 0.324663
Si Si5 0.829946 0.001015 0.236374
Si Si6 0.738077 0.688872 0.269405
Si Si7 0.203839 0.945836 0.210971
O O1 0.753370 0.229780 0.158531
O O2 0.470121 0.161925 0.226204
O O3 0.741403 0.074027 0.176819
O O4 0.654197 0.150494 0.963320
O O5 0.356205 0.861651 0.833417
O O6 0.578188 0.972901 0.886128
O O7 0.248537 0.993094 0.829312
O O8 0.335025 0.936620 0.079620
O O9 0.777826 0.680589 0.438529
O O10 0.690894 0.629249 0.702069
O O11 0.009721 0.672019 0.631527
O O12 0.718116 0.927156 0.255495
O O13 0.763646 0.774831 0.233353
O O14 0.011293 0.975272 0.153360
#
# Coordination Sequence:
#
# PCOD9314426 Si02
#       7
#     4   4   4   4   4   4   4
#     4  10  22  38  62  92 126 162 208 255 303 364
#     4  10  23  40  62  91 122 166 205 248 313 367
#     4  10  21  41  65  90 121 168 208 250 305 369
#     4  10  22  38  62  92 126 162 208 255 303 364
#     4  10  24  36  60  98 120 162 204 260 306 356
#     4  10  21  41  65  90 121 168 208 250 305 369
#     4  10  23  40  62  91 122 166 205 248 313 367
#
# _framework density 22.170845
#
# number of rings (size 3 to 8) (size 9 to 14) (size 15 to 20)
#    0.857    1.143    0.000    2.571    6.000    3.429 
#    0.000    7.143    0.000    0.000    0.000    0.000 
#    0.000    0.000    0.000    0.000    0.000    0.000 
#
# Total GULP energy -156139.130410 kJ/mol
# GULP energy per Si atom -5576.397515 kJ/mol
# Density = 2.212038 g / cm^3
# Si number density = 22.170845 Si / 1000 Ang^3
#
#
#
# Elastic Constant Matrix: (Units=GPa)
#
#
# Indices 1 2 3 4 5 6 
#
# 1 45.3610 39.3007 12.1003 0.0000 0.0000 0.0000
# 2 39.3007 229.2862 46.6586 0.0000 0.0000 0.0000
# 3 12.1003 46.6586 64.5379 0.0000 0.0000 0.0000
# 4 0.0000 0.0000 0.0000 30.7116 0.0000 0.0000
# 5 0.0000 0.0000 0.0000 0.0000 19.0954 0.0000
# 6 0.0000 0.0000 0.0000 0.0000 0.0000 26.0826
#
#
#
# Elastic Compliance Matrix: (Units=1/GPa)
#
#
# Indices 1 2 3 4 5 6 
#
# 1 0.026097 -0.004077 -0.001945 0.000000 0.000000 0.000000
# 2 -0.004077 0.005751 -0.003393 0.000000 0.000000 0.000000
# 3 -0.001945 -0.003393 0.018313 0.000000 0.000000 0.000000
# 4 0.000000 0.000000 0.000000 0.032561 0.000000 0.000000
# 5 0.000000 0.000000 0.000000 0.000000 0.052369 0.000000
# 6 0.000000 0.000000 0.000000 0.000000 0.000000 0.038340
#
#
# Mechanical properties :
#
#
# Convention : Reuss Voigt Hill
#
# Bulk Modulus (GPa) = 31.91938 59.47824 45.69881
# Shear Modulus (GPa) = 24.66658 31.25297 27.95977
#
# Velocity S-wave (km/s) = 3.33914 3.75859 3.55506
# Velocity P-wave (km/s) = 5.41246 6.76177 6.12439
#
# Compressibility (1/GPa) = 0.03132893
#
# Stress axis : x y z
#
# Youngs Moduli (GPa) = 38.31889 173.89187 54.60736
#
# Poissons Ratio (x) = 0.70900 0.10622
# Poissons Ratio (y) = 0.15624 0.18529
# Poissons Ratio (z) = 0.07454 0.59003
#
# Static dielectric constant tensor:
#      x y z
#    x 1.926150 0.000000 0.000000 
#    y 0.000000 1.827630 0.000000 
#    z 0.000000 0.000000 1.779720 
# 
# From -- ./inp_files/3037.got.cif
#   From: 2010.05.17/outbox.cif.g08.bks.cpg/sg19_2_cif.got.tgz:3037.got - 2010.06.03 22:46:19.
