data_PCOD9314987
_publ_section_title
;
Structure prediction by ZEFSAII (Michael W. Deem and Ramdas Pophale) SiO2 
 PCOD9314987
Probable space group: P 21 21 21
;
_chemical_formula_sum "Si O2"
_cell_formula_units_Z 16
_cell_length_a 12.663086
_cell_length_b 7.348622
_cell_length_c 6.812764
_cell_angle_alpha 90.000000
_cell_angle_beta 90.000000
_cell_angle_gamma 90.000000
_cell_volume 633.970150
_symmetry_space_group_name_H-M "P 21 21 21"
_symmetry_group_IT_number 19
_symmetry_cell_setting 'orthorhombic'
loop_
_space_group_symop_operation_xyz
x,y,z
1/2-x,-y,1/2+z
1/2+x,1/2-y,-z
-x,1/2+y,1/2-z
loop_
_atom_site_type_symbol
_atom_site_label
_atom_site_fract_x
_atom_site_fract_y
_atom_site_fract_z
Si Si1 0.958294 0.927222 0.947855
Si Si2 0.391918 0.516164 0.633737
Si Si3 0.406365 0.954371 0.133667
Si Si4 0.803074 0.225526 0.045195
O O1 0.893837 0.760742 0.854905
O O2 0.070313 0.957718 0.845442
O O3 0.895113 0.116354 0.926055
O O4 0.952777 0.893326 0.181175
O O5 0.481339 0.471371 0.478526
O O6 0.304775 0.646880 0.540773
O O7 0.331732 0.345658 0.736322
O O8 0.321710 0.065095 0.007290
#
# Coordination Sequence:
#
# PCOD9314987 Si02
#       4
#     4   4   4   4
#     4  10  23  37  66  90 123 170 203 262 315 376
#     4  10  23  44  63  96 130 171 208 271 318 368
#     4  12  21  45  66  96 127 170 219 254 323 379
#     4  10  23  42  65  92 134 165 208 273 308 383
#
# _framework density 25.237783
#
# number of rings (size 3 to 8) (size 9 to 14) (size 15 to 20)
#    1.500    0.000    2.500    3.000    0.000    0.000 
#    9.000    0.000    0.000    0.000    0.000    0.000 
#    0.000    0.000    0.000    0.000    0.000    0.000 
#
# Total GULP energy -89393.076655 kJ/mol
# GULP energy per Si atom -5587.067291 kJ/mol
# Density = 2.518034 g / cm^3
# Si number density = 25.237783 Si / 1000 Ang^3
#
#
#
# Elastic Constant Matrix: (Units=GPa)
#
#
# Indices 1 2 3 4 5 6 
#
# 1 69.1766 -17.7656 36.4781 0.0000 0.0000 0.0000
# 2 -17.7656 76.4785 -1.5674 0.0000 0.0000 0.0000
# 3 36.4781 -1.5674 107.9933 0.0000 0.0000 0.0000
# 4 0.0000 0.0000 0.0000 24.2376 0.0000 0.0000
# 5 0.0000 0.0000 0.0000 0.0000 1.2968 0.0000
# 6 0.0000 0.0000 0.0000 0.0000 0.0000 32.7957
#
#
#
# Elastic Compliance Matrix: (Units=1/GPa)
#
#
# Indices 1 2 3 4 5 6 
#
# 1 0.018879 0.004256 -0.006315 0.000000 0.000000 0.000000
# 2 0.004256 0.014039 -0.001234 0.000000 0.000000 0.000000
# 3 -0.006315 -0.001234 0.011375 0.000000 0.000000 0.000000
# 4 0.000000 0.000000 0.000000 0.041258 0.000000 0.000000
# 5 0.000000 0.000000 0.000000 0.000000 0.771108 0.000000
# 6 0.000000 0.000000 0.000000 0.000000 0.000000 0.030492
#
#
# Mechanical properties :
#
#
# Convention : Reuss Voigt Hill
#
# Bulk Modulus (GPa) = 26.52029 31.99317 29.25673
# Shear Modulus (GPa) = 5.51690 27.43292 16.47491
#
# Velocity S-wave (km/s) = 1.48011 3.30051 2.55774
# Velocity P-wave (km/s) = 3.66769 5.21811 4.51003
#
# Compressibility (1/GPa) = 0.03770698
#
# Stress axis : x y z
#
# Youngs Moduli (GPa) = 52.96931 71.23037 87.91165
#
# Poissons Ratio (x) = -0.30316 0.55517
# Poissons Ratio (y) = -0.22544 0.10847
# Poissons Ratio (z) = 0.33451 0.08789
#
# Static dielectric constant tensor:
#      x y z
#    x 2.019540 0.000000 0.000000 
#    y 0.000000 1.996610 0.000000 
#    z 0.000000 0.000000 2.008430 
# 
# From -- ./inp_files/287.got.cif
#   From: 2010.05.17/outbox.cif.g08.bks.cpg/sg19_1_cif.got.tgz:287.got - 2010.06.03 22:46:19.
