data_PCOD9314924
_publ_section_title
;
Structure prediction by ZEFSAII (Michael W. Deem and Ramdas Pophale) SiO2 
 PCOD9314924
Probable space group: P 21 21 21
;
_chemical_formula_sum "Si O2"
_cell_formula_units_Z 32
_cell_length_a 20.729844
_cell_length_b 5.290664
_cell_length_c 11.699788
_cell_angle_alpha 90.000000
_cell_angle_beta 90.000000
_cell_angle_gamma 90.000000
_cell_volume 1283.170030
_symmetry_space_group_name_H-M "P 21 21 21"
_symmetry_group_IT_number 19
_symmetry_cell_setting 'orthorhombic'
loop_
_space_group_symop_operation_xyz
x,y,z
1/2-x,-y,1/2+z
1/2+x,1/2-y,-z
-x,1/2+y,1/2-z
loop_
_atom_site_type_symbol
_atom_site_label
_atom_site_fract_x
_atom_site_fract_y
_atom_site_fract_z
Si Si1 0.442066 0.607765 0.437702
Si Si2 0.571224 0.742157 0.518931
Si Si3 0.212021 0.320669 0.620112
Si Si4 0.110022 0.622198 0.735514
Si Si5 0.154462 0.007225 0.910136
Si Si6 0.535234 0.033779 0.719792
Si Si7 0.708654 0.678162 0.527702
Si Si8 0.646204 0.857245 0.885212
O O1 0.504562 0.588331 0.515265
O O2 0.446094 0.442687 0.324348
O O3 0.378474 0.537924 0.511963
O O4 0.417396 0.877256 0.395117
O O5 0.585744 0.776660 0.384904
O O6 0.552666 0.997171 0.586530
O O7 0.636283 0.634732 0.576252
O O8 0.152992 0.377105 0.703553
O O9 0.205950 0.535461 0.520416
O O10 0.282972 0.386241 0.666262
O O11 0.211102 0.040056 0.569768
O O12 0.156759 0.799790 0.809603
O O13 0.149105 0.898540 0.040390
O O14 0.224604 0.141307 0.905305
O O15 0.479852 0.821323 0.745414
O O16 0.594048 0.913751 0.790256
#
# Coordination Sequence:
#
# PCOD9314924 Si02
#       8
#     4   4   4   4   4   4   4   4
#     4  11  22  44  72  99 145 187 242 294 370 438
#     4  11  26  47  67 111 146 187 243 308 361 440
#     4  10  22  44  69 102 142 182 244 289 353 435
#     4  10  26  41  68 109 142 193 233 304 370 440
#     4  10  22  45  74 101 145 193 244 289 371 441
#     4  12  27  49  72 102 142 191 244 299 363 428
#     4  10  23  45  70 102 145 187 235 300 357 424
#     4  10  22  45  72 100 135 192 241 301 353 434
#
# _framework density 24.938238999999999
#
# number of rings (size 3 to 8) (size 9 to 14) (size 15 to 20)
#    0.000    1.500    2.500    0.750    5.250    3.000 
#   18.000    0.000    0.000    0.000    0.000    0.000 
#    0.000    0.000    0.000    0.000    0.000    0.000 
#
# Total GULP energy -178430.846186 kJ/mol
# GULP energy per Si atom -5575.963943 kJ/mol
# Density = 2.488148 g / cm^3
# Si number density = 24.938239 Si / 1000 Ang^3
#
#
#
# Elastic Constant Matrix: (Units=GPa)
#
#
# Indices 1 2 3 4 5 6 
#
# 1 121.6978 8.3173 2.4954 0.0000 0.0000 0.0000
# 2 8.3173 49.8320 6.7207 0.0000 0.0000 0.0000
# 3 2.4954 6.7207 84.4625 0.0000 0.0000 0.0000
# 4 0.0000 0.0000 0.0000 24.2045 0.0000 0.0000
# 5 0.0000 0.0000 0.0000 0.0000 38.6643 0.0000
# 6 0.0000 0.0000 0.0000 0.0000 0.0000 22.1136
#
#
#
# Elastic Compliance Matrix: (Units=1/GPa)
#
#
# Indices 1 2 3 4 5 6 
#
# 1 0.008313 -0.001369 -0.000137 0.000000 0.000000 0.000000
# 2 -0.001369 0.020511 -0.001592 0.000000 0.000000 0.000000
# 3 -0.000137 -0.001592 0.011970 0.000000 0.000000 0.000000
# 4 0.000000 0.000000 0.000000 0.041315 0.000000 0.000000
# 5 0.000000 0.000000 0.000000 0.000000 0.025864 0.000000
# 6 0.000000 0.000000 0.000000 0.000000 0.000000 0.045221
#
#
# Mechanical properties :
#
#
# Convention : Reuss Voigt Hill
#
# Bulk Modulus (GPa) = 28.90214 32.33989 30.62101
# Shear Modulus (GPa) = 29.25319 32.89376 31.07347
#
# Velocity S-wave (km/s) = 3.42866 3.63576 3.53373
# Velocity P-wave (km/s) = 5.22388 5.53363 5.38099
#
# Compressibility (1/GPa) = 0.03459952
#
# Stress axis : x y z
#
# Youngs Moduli (GPa) = 120.28699 48.75528 83.54045
#
# Poissons Ratio (x) = 0.06675 0.01142
# Poissons Ratio (y) = 0.16469 0.13296
# Poissons Ratio (z) = 0.01644 0.07760
#
# Static dielectric constant tensor:
#      x y z
#    x 2.042190 0.000000 0.000000 
#    y 0.000000 2.174270 0.000000 
#    z 0.000000 0.000000 1.982680 
# 
# From -- ./inp_files/5534.got.cif
#   From: 2010.05.17/outbox.cif.g08.bks.cpg/sg19_3_cif.got.tgz:5534.got - 2010.06.03 22:46:19.
