data_PCOD9314370
_publ_section_title
;
Structure prediction by ZEFSAII (Michael W. Deem and Ramdas Pophale) SiO2 
 PCOD9314370
Probable space group: P 21 21 21
;
_chemical_formula_sum "Si O2"
_cell_formula_units_Z 32
_cell_length_a 19.619729
_cell_length_b 5.662065
_cell_length_c 11.492676
_cell_angle_alpha 90.000000
_cell_angle_beta 90.000000
_cell_angle_gamma 90.000000
_cell_volume 1276.700470
_symmetry_space_group_name_H-M "P 21 21 21"
_symmetry_group_IT_number 19
_symmetry_cell_setting 'orthorhombic'
loop_
_space_group_symop_operation_xyz
x,y,z
1/2-x,-y,1/2+z
1/2+x,1/2-y,-z
-x,1/2+y,1/2-z
loop_
_atom_site_type_symbol
_atom_site_label
_atom_site_fract_x
_atom_site_fract_y
_atom_site_fract_z
Si Si1 0.526806 0.635783 0.887065
Si Si2 0.308829 0.108933 0.917522
Si Si3 0.506758 0.893708 0.128841
Si Si4 0.370917 0.618936 0.859234
Si Si5 0.910632 0.731424 0.523844
Si Si6 0.161058 0.566985 0.127271
Si Si7 0.750610 0.515609 0.846458
Si Si8 0.388777 0.075917 0.266608
O O1 0.452309 0.629683 0.832677
O O2 0.561594 0.383413 0.906111
O O3 0.591284 0.786138 0.842162
O O4 0.509330 0.726968 0.017225
O O5 0.352444 0.861075 0.928761
O O6 0.349788 0.362722 0.915754
O O7 0.281953 0.069848 0.784992
O O8 0.254055 0.111294 0.023621
O O9 0.436571 0.897360 0.195018
O O10 0.567389 0.809411 0.212620
O O11 0.524053 0.152320 0.083214
O O12 0.330461 0.611908 0.734801
O O13 0.878270 0.540560 0.607733
O O14 0.860309 0.939039 0.490549
O O15 0.226054 0.727608 0.107594
O O16 0.820656 0.405203 0.802338
#
# Coordination Sequence:
#
# PCOD9314370 Si02
#       8
#     4   4   4   4   4   4   4   4
#     4  10  24  41  72 100 146 191 245 320 383 449
#     4  11  29  52  76 116 152 205 258 319 379 473
#     4  10  21  40  65 108 136 181 251 311 391 442
#     4  11  27  48  77 111 150 196 264 319 380 445
#     4  10  23  40  70  99 144 184 250 316 388 450
#     4  10  26  44  67 107 143 199 251 309 374 479
#     4  11  28  49  75 106 160 201 257 307 395 458
#     4  11  22  42  70 103 141 191 244 323 380 462
#
# _framework density 25.064608
#
# number of rings (size 3 to 8) (size 9 to 14) (size 15 to 20)
#    0.000    1.500    1.250    0.750   15.750    4.000 
#    2.250    0.000    0.000    0.000    0.000    0.000 
#    0.000    0.000    0.000    0.000    0.000    0.000 
#
# Total GULP energy -178179.264903 kJ/mol
# GULP energy per Si atom -5568.102028 kJ/mol
# Density = 2.500756 g / cm^3
# Si number density = 25.064608 Si / 1000 Ang^3
#
#
#
# Elastic Constant Matrix: (Units=GPa)
#
#
# Indices 1 2 3 4 5 6 
#
# 1 38.4510 -9.1900 20.1871 0.0000 0.0000 0.0000
# 2 -9.1900 45.7321 28.4057 0.0000 0.0000 0.0000
# 3 20.1871 28.4057 89.9695 0.0000 0.0000 0.0000
# 4 0.0000 0.0000 0.0000 27.2156 0.0000 0.0000
# 5 0.0000 0.0000 0.0000 0.0000 48.9465 0.0000
# 6 0.0000 0.0000 0.0000 0.0000 0.0000 32.6690
#
#
#
# Elastic Compliance Matrix: (Units=1/GPa)
#
#
# Indices 1 2 3 4 5 6 
#
# 1 0.036586 0.015488 -0.013099 0.000000 0.000000 0.000000
# 2 0.015488 0.033758 -0.014133 0.000000 0.000000 0.000000
# 3 -0.013099 -0.014133 0.018516 0.000000 0.000000 0.000000
# 4 0.000000 0.000000 0.000000 0.036744 0.000000 0.000000
# 5 0.000000 0.000000 0.000000 0.000000 0.020430 0.000000
# 6 0.000000 0.000000 0.000000 0.000000 0.000000 0.030610
#
#
# Mechanical properties :
#
#
# Convention : Reuss Voigt Hill
#
# Bulk Modulus (GPa) = 15.29713 28.10649 21.70181
# Shear Modulus (GPa) = 22.53031 30.74955 26.63993
#
# Velocity S-wave (km/s) = 3.00140 3.50639 3.26368
# Velocity P-wave (km/s) = 4.25764 5.25652 4.78323
#
# Compressibility (1/GPa) = 0.06537175
#
# Stress axis : x y z
#
# Youngs Moduli (GPa) = 27.33272 29.62294 54.00639
#
# Poissons Ratio (x) = -0.45881 0.70744
# Poissons Ratio (y) = -0.42334 0.76329
# Poissons Ratio (z) = 0.35804 0.41867
#
# Static dielectric constant tensor:
#      x y z
#    x 2.018310 0.000000 0.000000 
#    y 0.000000 2.079410 0.000000 
#    z 0.000000 0.000000 2.017680 
# 
# From -- ./inp_files/5526.got.cif
#   From: 2010.05.17/outbox.cif.g08.bks.cpg/sg19_3_cif.got.tgz:5526.got - 2010.06.03 22:46:19.
