data_PCOD9314187
_publ_section_title
;
Structure prediction by ZEFSAII (Michael W. Deem and Ramdas Pophale) SiO2 
 PCOD9314187
Probable space group: P 21 21 21
;
_chemical_formula_sum "Si O2"
_cell_formula_units_Z 28
_cell_length_a 21.689990
_cell_length_b 5.321020
_cell_length_c 10.312089
_cell_angle_alpha 90.000000
_cell_angle_beta 90.000000
_cell_angle_gamma 90.000000
_cell_volume 1190.147793
_symmetry_space_group_name_H-M "P 21 21 21"
_symmetry_group_IT_number 19
_symmetry_cell_setting 'orthorhombic'
loop_
_space_group_symop_operation_xyz
x,y,z
1/2-x,-y,1/2+z
1/2+x,1/2-y,-z
-x,1/2+y,1/2-z
loop_
_atom_site_type_symbol
_atom_site_label
_atom_site_fract_x
_atom_site_fract_y
_atom_site_fract_z
Si Si1 0.433706 0.469073 0.838815
Si Si2 0.787938 0.654294 0.803686
Si Si3 0.581262 0.209880 0.241342
Si Si4 0.298868 0.933150 0.497423
Si Si5 0.449479 0.217251 0.385369
Si Si6 0.477312 0.964479 0.895811
Si Si7 0.829223 0.074834 0.372154
O O1 0.449874 0.236246 0.932491
O O2 0.494352 0.501467 0.747493
O O3 0.376050 0.413744 0.747246
O O4 0.426717 0.745465 0.897264
O O5 0.858791 0.720105 0.822702
O O6 0.783174 0.568277 0.653862
O O7 0.761703 0.465283 0.911666
O O8 0.740422 0.886213 0.819125
O O9 0.517348 0.214650 0.317913
O O10 0.574218 0.433111 0.133573
O O11 0.589618 0.927729 0.189572
O O12 0.331649 0.680720 0.547096
O O13 0.337522 0.180876 0.536836
O O14 0.467179 0.351371 0.520009
#
# Coordination Sequence:
#
# PCOD9314187 Si02
#       7
#     4   4   4   4   4   4   4
#     4  10  21  38  57  93 122 163 203 256 313 377
#     4  10  26  43  68  97 129 176 218 271 329 388
#     4  10  23  39  63  88 125 160 217 259 321 375
#     4  10  25  41  66  94 129 165 222 260 330 380
#     4  10  22  40  60  93 121 166 211 263 314 381
#     4  10  21  36  62  87 127 160 207 253 319 366
#     4  10  24  41  64  94 129 168 220 264 324 391
#
# _framework density 23.526488000000001
#
# number of rings (size 3 to 8) (size 9 to 14) (size 15 to 20)
#    0.857    1.143    0.000    1.714    8.000    1.143 
#    2.571    0.000    0.000    0.000    0.000    0.000 
#    0.000    0.000    0.000    0.000    0.000    0.000 
#
# Total GULP energy -156288.986213 kJ/mol
# GULP energy per Si atom -5581.749508 kJ/mol
# Density = 2.347294 g / cm^3
# Si number density = 23.526488 Si / 1000 Ang^3
#
#
#
# Elastic Constant Matrix: (Units=GPa)
#
#
# Indices 1 2 3 4 5 6 
#
# 1 84.8782 31.3242 9.5050 0.0000 0.0000 0.0000
# 2 31.3242 96.3151 4.3037 0.0000 0.0000 0.0000
# 3 9.5050 4.3037 65.4463 0.0000 0.0000 0.0000
# 4 0.0000 0.0000 0.0000 28.0881 0.0000 0.0000
# 5 0.0000 0.0000 0.0000 0.0000 37.3709 0.0000
# 6 0.0000 0.0000 0.0000 0.0000 0.0000 36.4559
#
#
#
# Elastic Compliance Matrix: (Units=1/GPa)
#
#
# Indices 1 2 3 4 5 6 
#
# 1 0.013571 -0.004338 -0.001686 0.000000 0.000000 0.000000
# 2 -0.004338 0.011800 -0.000146 0.000000 0.000000 0.000000
# 3 -0.001686 -0.000146 0.015534 0.000000 0.000000 0.000000
# 4 0.000000 0.000000 0.000000 0.035602 0.000000 0.000000
# 5 0.000000 0.000000 0.000000 0.000000 0.026759 0.000000
# 6 0.000000 0.000000 0.000000 0.000000 0.000000 0.027430
#
#
# Mechanical properties :
#
#
# Convention : Reuss Voigt Hill
#
# Bulk Modulus (GPa) = 35.00724 37.43392 36.22058
# Shear Modulus (GPa) = 32.77417 33.81676 33.29547
#
# Velocity S-wave (km/s) = 3.73644 3.79541 3.76604
# Velocity P-wave (km/s) = 5.79024 5.92898 5.86002
#
# Compressibility (1/GPa) = 0.02856552
#
# Stress axis : x y z
#
# Youngs Moduli (GPa) = 73.68395 84.74509 64.37441
#
# Poissons Ratio (x) = 0.36766 0.10852
# Poissons Ratio (y) = 0.31968 0.00939
# Poissons Ratio (z) = 0.12421 0.01236
#
# Static dielectric constant tensor:
#      x y z
#    x 1.894560 0.000000 0.000000 
#    y 0.000000 1.910660 0.000000 
#    z 0.000000 0.000000 1.947460 
# 
# From -- ./inp_files/5445.got.cif
#   From: 2010.05.17/outbox.cif.g08.bks.cpg/sg19_3_cif.got.tgz:5445.got - 2010.06.03 22:46:19.
