data_PCOD9314822
_publ_section_title
;
Structure prediction by ZEFSAII (Michael W. Deem and Ramdas Pophale) SiO2 
 PCOD9314822
Probable space group: P 21 21 21
;
_chemical_formula_sum "Si O2"
_cell_formula_units_Z 32
_cell_length_a 6.131117
_cell_length_b 26.861201
_cell_length_c 8.278182
_cell_angle_alpha 90.000000
_cell_angle_beta 90.000000
_cell_angle_gamma 90.000000
_cell_volume 1363.326890
_symmetry_space_group_name_H-M "P 21 21 21"
_symmetry_group_IT_number 19
_symmetry_cell_setting 'orthorhombic'
loop_
_space_group_symop_operation_xyz
x,y,z
1/2-x,-y,1/2+z
1/2+x,1/2-y,-z
-x,1/2+y,1/2-z
loop_
_atom_site_type_symbol
_atom_site_label
_atom_site_fract_x
_atom_site_fract_y
_atom_site_fract_z
Si Si1 0.647269 0.526506 0.115740
Si Si2 0.924090 0.607132 0.951602
Si Si3 0.117948 0.068431 0.066054
Si Si4 0.474911 0.751139 0.263104
Si Si5 0.052274 0.848592 0.567147
Si Si6 0.241694 0.652757 0.729348
Si Si7 0.736380 0.085686 0.277368
Si Si8 0.114795 0.797386 0.072675
O O1 0.759221 0.543068 0.281809
O O2 0.395605 0.542513 0.132835
O O3 0.668515 0.468729 0.078509
O O4 0.765553 0.560338 0.978998
O O5 0.086948 0.609674 0.799238
O O6 0.785187 0.657682 0.952023
O O7 0.082919 0.607805 0.105641
O O8 0.217385 0.123555 0.046755
O O9 0.866840 0.068581 0.118681
O O10 0.533865 0.709374 0.393772
O O11 0.583992 0.802173 0.320475
O O12 0.224042 0.762839 0.212406
O O13 0.577990 0.732758 0.091984
O O14 0.906965 0.860930 0.411678
O O15 0.938841 0.873825 0.722813
O O16 0.394150 0.676330 0.868925
#
# Coordination Sequence:
#
# PCOD9314822 Si02
#       8
#     4   4   4   4   4   4   4   4
#     4  10  22  42  68  99 131 177 224 276 340 414
#     4  10  22  42  67  96 132 170 231 277 330 405
#     4  10  24  44  68  98 136 178 223 286 346 408
#     4  11  23  40  65  92 129 176 229 279 335 412
#     4  11  26  43  63  97 141 176 222 283 353 405
#     4  11  25  41  64  98 130 183 222 282 346 405
#     4  10  22  42  69  96 131 176 219 284 340 400
#     4  11  22  40  64  94 124 176 230 273 330 401
#
# _framework density 23.471995
#
# number of rings (size 3 to 8) (size 9 to 14) (size 15 to 20)
#    0.000    1.500    1.250    3.750    3.500   10.000 
#    0.000    1.250    0.000    0.000    0.000    0.000 
#    0.000    0.000    0.000    0.000    0.000    0.000 
#
# Total GULP energy -178990.657145 kJ/mol
# GULP energy per Si atom -5593.458036 kJ/mol
# Density = 2.341857 g / cm^3
# Si number density = 23.471995 Si / 1000 Ang^3
#
#
#
# Elastic Constant Matrix: (Units=GPa)
#
#
# Indices 1 2 3 4 5 6 
#
# 1 92.0019 28.1435 18.1985 0.0000 0.0000 0.0000
# 2 28.1435 60.5094 19.6276 0.0000 0.0000 0.0000
# 3 18.1985 19.6276 68.6004 0.0000 0.0000 0.0000
# 4 0.0000 0.0000 0.0000 40.1616 0.0000 0.0000
# 5 0.0000 0.0000 0.0000 0.0000 41.9906 0.0000
# 6 0.0000 0.0000 0.0000 0.0000 0.0000 18.9416
#
#
#
# Elastic Compliance Matrix: (Units=1/GPa)
#
#
# Indices 1 2 3 4 5 6 
#
# 1 0.012888 -0.005385 -0.001878 0.000000 0.000000 0.000000
# 2 -0.005385 0.020467 -0.004427 0.000000 0.000000 0.000000
# 3 -0.001878 -0.004427 0.016342 0.000000 0.000000 0.000000
# 4 0.000000 0.000000 0.000000 0.024899 0.000000 0.000000
# 5 0.000000 0.000000 0.000000 0.000000 0.023815 0.000000
# 6 0.000000 0.000000 0.000000 0.000000 0.000000 0.052794
#
#
# Mechanical properties :
#
#
# Convention : Reuss Voigt Hill
#
# Bulk Modulus (GPa) = 37.99971 39.22787 38.61379
# Shear Modulus (GPa) = 27.26887 30.56157 28.91522
#
# Velocity S-wave (km/s) = 3.41216 3.61230 3.51365
# Velocity P-wave (km/s) = 5.63456 5.84356 5.74001
#
# Compressibility (1/GPa) = 0.02631599
#
# Stress axis : x y z
#
# Youngs Moduli (GPa) = 77.59036 48.85875 61.19136
#
# Poissons Ratio (x) = 0.26311 0.11493
# Poissons Ratio (y) = 0.41784 0.27092
# Poissons Ratio (z) = 0.14573 0.21632
#
# Static dielectric constant tensor:
#      x y z
#    x 1.908590 0.000000 0.000000 
#    y 0.000000 1.857540 0.000000 
#    z 0.000000 0.000000 1.931780 
# 
# From -- ./inp_files/2498.got.cif
#   From: 2010.05.17/outbox.cif.g08.bks.cpg/sg19_2_cif.got.tgz:2498.got - 2010.06.03 22:46:19.
