data_PCOD9314136
_publ_section_title
;
Structure prediction by ZEFSAII (Michael W. Deem and Ramdas Pophale) SiO2 
 PCOD9314136
Probable space group: P 21 21 21
;
_chemical_formula_sum "Si O2"
_cell_formula_units_Z 28
_cell_length_a 13.065559
_cell_length_b 11.990289
_cell_length_c 7.900176
_cell_angle_alpha 90.000000
_cell_angle_beta 90.000000
_cell_angle_gamma 90.000000
_cell_volume 1237.640216
_symmetry_space_group_name_H-M "P 21 21 21"
_symmetry_group_IT_number 19
_symmetry_cell_setting 'orthorhombic'
loop_
_space_group_symop_operation_xyz
x,y,z
1/2-x,-y,1/2+z
1/2+x,1/2-y,-z
-x,1/2+y,1/2-z
loop_
_atom_site_type_symbol
_atom_site_label
_atom_site_fract_x
_atom_site_fract_y
_atom_site_fract_z
Si Si1 0.129880 0.705937 0.664028
Si Si2 0.560568 0.672056 0.812490
Si Si3 0.572825 0.354809 0.037660
Si Si4 0.871772 0.423611 0.658382
Si Si5 0.927309 0.105832 0.473986
Si Si6 0.140740 0.045593 0.323774
Si Si7 0.360677 0.641993 0.586286
O O1 0.116852 0.839500 0.685781
O O2 0.246210 0.672332 0.637532
O O3 0.049604 0.657074 0.530687
O O4 0.095799 0.654618 0.842985
O O5 0.601487 0.796444 0.841256
O O6 0.630813 0.587402 0.705819
O O7 0.448130 0.667499 0.728251
O O8 0.560150 0.620062 0.001927
O O9 0.601659 0.446918 0.176167
O O10 0.620714 0.399729 0.861847
O O11 0.612654 0.229469 0.063192
O O12 0.751521 0.419654 0.611415
O O13 0.046894 0.083842 0.438431
O O14 0.871728 0.987881 0.453391
#
# Coordination Sequence:
#
# PCOD9314136 Si02
#       7
#     4   4   4   4   4   4   4
#     4  11  25  43  67  97 136 172 221 272 333 394
#     4   9  20  40  67  96 126 176 218 269 323 390
#     4  11  24  41  66  99 127 169 224 274 318 390
#     4  10  22  42  69  94 132 172 225 271 318 392
#     4  10  22  41  66  96 133 175 215 273 333 394
#     4  10  20  43  68  95 133 174 222 270 320 393
#     4  11  23  44  69  95 139 174 217 275 335 389
#
# _framework density 22.623698999999998
#
# number of rings (size 3 to 8) (size 9 to 14) (size 15 to 20)
#    0.000    1.714    2.857    0.000    2.000    8.000 
#    2.571    2.857    0.000    0.000    0.000    0.000 
#    0.000    0.000    0.000    0.000    0.000    0.000 
#
# Total GULP energy -156424.740172 kJ/mol
# GULP energy per Si atom -5586.597863 kJ/mol
# Density = 2.257221 g / cm^3
# Si number density = 22.623699 Si / 1000 Ang^3
#
#
#
# Elastic Constant Matrix: (Units=GPa)
#
#
# Indices 1 2 3 4 5 6 
#
# 1 98.0650 26.8492 2.9640 0.0000 0.0000 0.0000
# 2 26.8492 172.3632 17.8049 0.0000 0.0000 0.0000
# 3 2.9640 17.8049 51.5249 0.0000 0.0000 0.0000
# 4 0.0000 0.0000 0.0000 7.6895 0.0000 0.0000
# 5 0.0000 0.0000 0.0000 0.0000 24.8728 0.0000
# 6 0.0000 0.0000 0.0000 0.0000 0.0000 27.6816
#
#
#
# Elastic Compliance Matrix: (Units=1/GPa)
#
#
# Indices 1 2 3 4 5 6 
#
# 1 0.010652 -0.001655 -0.000041 0.000000 0.000000 0.000000
# 2 -0.001655 0.006274 -0.002073 0.000000 0.000000 0.000000
# 3 -0.000041 -0.002073 0.020127 0.000000 0.000000 0.000000
# 4 0.000000 0.000000 0.000000 0.130048 0.000000 0.000000
# 5 0.000000 0.000000 0.000000 0.000000 0.040205 0.000000
# 6 0.000000 0.000000 0.000000 0.000000 0.000000 0.036125
#
#
# Mechanical properties :
#
#
# Convention : Reuss Voigt Hill
#
# Bulk Modulus (GPa) = 33.88117 46.35433 40.11775
# Shear Modulus (GPa) = 19.17142 30.33777 24.75460
#
# Velocity S-wave (km/s) = 2.91418 3.66590 3.31144
# Velocity P-wave (km/s) = 5.13145 6.20099 5.69139
#
# Compressibility (1/GPa) = 0.02951492
#
# Stress axis : x y z
#
# Youngs Moduli (GPa) = 93.88189 159.39781 49.68525
#
# Poissons Ratio (x) = 0.26380 0.00203
# Poissons Ratio (y) = 0.15538 0.10298
# Poissons Ratio (z) = 0.00383 0.33038
#
# Static dielectric constant tensor:
#      x y z
#    x 1.792970 0.000000 0.000000 
#    y 0.000000 1.919950 0.000000 
#    z 0.000000 0.000000 1.855810 
# 
# From -- ./inp_files/3448.got.cif
#   From: 2010.05.17/outbox.cif.g08.bks.cpg/sg19_2_cif.got.tgz:3448.got - 2010.06.03 22:46:19.
