data_PCOD9314128
_publ_section_title
;
Structure prediction by ZEFSAII (Michael W. Deem and Ramdas Pophale) SiO2 
 PCOD9314128
Probable space group: P 21 21 21
;
_chemical_formula_sum "Si O2"
_cell_formula_units_Z 24
_cell_length_a 10.068765
_cell_length_b 19.021481
_cell_length_c 6.015938
_cell_angle_alpha 90.000000
_cell_angle_beta 90.000000
_cell_angle_gamma 90.000000
_cell_volume 1152.189424
_symmetry_space_group_name_H-M "P 21 21 21"
_symmetry_group_IT_number 19
_symmetry_cell_setting 'orthorhombic'
loop_
_space_group_symop_operation_xyz
x,y,z
1/2-x,-y,1/2+z
1/2+x,1/2-y,-z
-x,1/2+y,1/2-z
loop_
_atom_site_type_symbol
_atom_site_label
_atom_site_fract_x
_atom_site_fract_y
_atom_site_fract_z
Si Si1 0.531735 0.141633 0.538316
Si Si2 0.857100 0.798632 0.647341
Si Si3 0.320226 0.559916 0.574116
Si Si4 0.725561 0.464389 0.053808
Si Si5 0.859818 0.315797 0.088136
Si Si6 0.959903 0.998872 0.794273
O O1 0.615963 0.199704 0.409505
O O2 0.620999 0.100643 0.716835
O O3 0.407346 0.176461 0.656909
O O4 0.492612 0.077874 0.376376
O O5 0.796881 0.875763 0.595191
O O6 0.756842 0.740137 0.564621
O O7 0.004162 0.795521 0.538966
O O8 0.432425 0.509168 0.468544
O O9 0.185193 0.519261 0.617064
O O10 0.766480 0.498370 0.303599
O O11 0.807226 0.392850 0.027325
O O12 0.570681 0.450066 0.110150
#
# Coordination Sequence:
#
# PCOD9314128 Si02
#       6
#     4   4   4   4   4   4
#     4  10  20  43  65  94 136 172 228 292 350 419
#     4  10  25  44  69  97 137 186 231 293 360 433
#     4  10  21  38  64  98 135 176 233 292 356 430
#     4  12  26  46  74 105 143 189 242 305 367 423
#     4  11  25  47  68  99 141 185 239 297 358 437
#     4  11  21  38  68  99 136 180 237 295 363 420
#
# _framework density 20.829908
#
# number of rings (size 3 to 8) (size 9 to 14) (size 15 to 20)
#    0.000    1.333    3.333    3.000    2.333    2.667 
#    0.000    0.000    0.000    0.000    0.000    0.000 
#    0.000    0.000    0.000    0.000    0.000    0.000 
#
# Total GULP energy -133635.750561 kJ/mol
# GULP energy per Si atom -5568.156273 kJ/mol
# Density = 2.078250 g / cm^3
# Si number density = 20.829908 Si / 1000 Ang^3
#
#
#
# Elastic Constant Matrix: (Units=GPa)
#
#
# Indices 1 2 3 4 5 6 
#
# 1 127.4457 49.4501 46.2749 0.0000 0.0000 0.0000
# 2 49.4501 77.6481 28.2018 0.0000 0.0000 0.0000
# 3 46.2749 28.2018 89.8252 0.0000 0.0000 0.0000
# 4 0.0000 0.0000 0.0000 17.2536 0.0000 0.0000
# 5 0.0000 0.0000 0.0000 0.0000 39.8329 0.0000
# 6 0.0000 0.0000 0.0000 0.0000 0.0000 42.0582
#
#
#
# Elastic Compliance Matrix: (Units=1/GPa)
#
#
# Indices 1 2 3 4 5 6 
#
# 1 0.011644 -0.005911 -0.004143 0.000000 0.000000 0.000000
# 2 -0.005911 0.017537 -0.002461 0.000000 0.000000 0.000000
# 3 -0.004143 -0.002461 0.014040 0.000000 0.000000 0.000000
# 4 0.000000 0.000000 0.000000 0.057959 0.000000 0.000000
# 5 0.000000 0.000000 0.000000 0.000000 0.025105 0.000000
# 6 0.000000 0.000000 0.000000 0.000000 0.000000 0.023777
#
#
# Mechanical properties :
#
#
# Convention : Reuss Voigt Hill
#
# Bulk Modulus (GPa) = 54.97110 60.30806 57.63958
# Shear Modulus (GPa) = 27.60084 31.22843 29.41464
#
# Velocity S-wave (km/s) = 3.64408 3.87617 3.76191
# Velocity P-wave (km/s) = 6.64481 7.00345 6.82649
#
# Compressibility (1/GPa) = 0.01819138
#
# Stress axis : x y z
#
# Youngs Moduli (GPa) = 85.87941 57.02317 71.22704
#
# Poissons Ratio (x) = 0.33706 0.29509
# Poissons Ratio (y) = 0.50763 0.17527
# Poissons Ratio (z) = 0.35579 0.14032
#
# Static dielectric constant tensor:
#      x y z
#    x 1.759470 0.000000 0.000000 
#    y 0.000000 1.735370 0.000000 
#    z 0.000000 0.000000 1.923350 
# 
# From -- ./inp_files/508.got.cif
#   From: 2010.05.17/outbox.cif.g08.bks.cpg/sg19_1_cif.got.tgz:508.got - 2010.06.03 22:46:19.
