data_PCOD9314775
_publ_section_title
;
Structure prediction by ZEFSAII (Michael W. Deem and Ramdas Pophale) SiO2 
 PCOD9314775
Probable space group: P 21 21 21
;
_chemical_formula_sum "Si O2"
_cell_formula_units_Z 24
_cell_length_a 14.728194
_cell_length_b 13.009618
_cell_length_c 5.001379
_cell_angle_alpha 90.000000
_cell_angle_beta 90.000000
_cell_angle_gamma 90.000000
_cell_volume 958.305117
_symmetry_space_group_name_H-M "P 21 21 21"
_symmetry_group_IT_number 19
_symmetry_cell_setting 'orthorhombic'
loop_
_space_group_symop_operation_xyz
x,y,z
1/2-x,-y,1/2+z
1/2+x,1/2-y,-z
-x,1/2+y,1/2-z
loop_
_atom_site_type_symbol
_atom_site_label
_atom_site_fract_x
_atom_site_fract_y
_atom_site_fract_z
Si Si1 0.628959 0.262569 0.755431
Si Si2 0.810637 0.003178 0.985863
Si Si3 0.447672 0.594573 0.361452
Si Si4 0.779384 0.633495 0.758787
Si Si5 0.386669 0.060040 0.422593
Si Si6 0.026350 0.583300 0.247488
O O1 0.695951 0.319999 0.970101
O O2 0.529594 0.314274 0.721845
O O3 0.600610 0.159558 0.910553
O O4 0.675091 0.291426 0.475571
O O5 0.876707 0.089485 0.107625
O O6 0.754502 0.032699 0.723613
O O7 0.877825 0.914766 0.882020
O O8 0.546851 0.628524 0.261559
O O9 0.459013 0.478755 0.474230
O O10 0.677806 0.616514 0.866319
O O11 0.826372 0.519696 0.752549
O O12 0.458094 0.989817 0.584821
#
# Coordination Sequence:
#
# PCOD9314775 Si02
#       6
#     4   4   4   4   4   4
#     4  11  26  43  66 104 146 173 235 285 344 417
#     4  11  23  43  70  93 128 187 237 279 340 416
#     4  11  24  45  70 102 143 190 227 293 350 419
#     4  11  23  42  69 104 135 177 228 295 341 417
#     4  10  22  41  72  98 135 181 230 282 362 408
#     4  10  22  44  71  97 135 186 227 286 353 403
#
# _framework density 25.044215999999999
#
# number of rings (size 3 to 8) (size 9 to 14) (size 15 to 20)
#    0.000    1.333    3.333    2.000    7.000    0.000 
#    6.000    0.000    0.000    0.000    0.000    0.000 
#    0.000    0.000    0.000    0.000    0.000    0.000 
#
# Total GULP energy -134208.277595 kJ/mol
# GULP energy per Si atom -5592.011566 kJ/mol
# Density = 2.498721 g / cm^3
# Si number density = 25.044216 Si / 1000 Ang^3
#
#
#
# Elastic Constant Matrix: (Units=GPa)
#
#
# Indices 1 2 3 4 5 6 
#
# 1 132.0060 7.4356 39.2805 0.0000 0.0000 0.0000
# 2 7.4356 23.5331 0.1280 0.0000 0.0000 0.0000
# 3 39.2805 0.1280 120.5524 0.0000 0.0000 0.0000
# 4 0.0000 0.0000 0.0000 16.3548 0.0000 0.0000
# 5 0.0000 0.0000 0.0000 0.0000 54.4370 0.0000
# 6 0.0000 0.0000 0.0000 0.0000 0.0000 11.3875
#
#
#
# Elastic Compliance Matrix: (Units=1/GPa)
#
#
# Indices 1 2 3 4 5 6 
#
# 1 0.008556 -0.002688 -0.002785 0.000000 0.000000 0.000000
# 2 -0.002688 0.043338 0.000830 0.000000 0.000000 0.000000
# 3 -0.002785 0.000830 0.009202 0.000000 0.000000 0.000000
# 4 0.000000 0.000000 0.000000 0.061144 0.000000 0.000000
# 5 0.000000 0.000000 0.000000 0.000000 0.018370 0.000000
# 6 0.000000 0.000000 0.000000 0.000000 0.000000 0.087816
#
#
# Mechanical properties :
#
#
# Convention : Reuss Voigt Hill
#
# Bulk Modulus (GPa) = 19.30156 41.08663 30.19410
# Shear Modulus (GPa) = 19.60932 31.71902 25.66417
#
# Velocity S-wave (km/s) = 2.80123 3.56268 3.20465
# Velocity P-wave (km/s) = 4.26453 5.77623 5.07696
#
# Compressibility (1/GPa) = 0.05180928
#
# Stress axis : x y z
#
# Youngs Moduli (GPa) = 116.88382 23.07432 108.67580
#
# Poissons Ratio (x) = 0.06203 0.30265
# Poissons Ratio (y) = 0.31419 -0.09019
# Poissons Ratio (z) = 0.32550 -0.01915
#
# Static dielectric constant tensor:
#      x y z
#    x 2.001290 0.000000 0.000000 
#    y 0.000000 1.916810 0.000000 
#    z 0.000000 0.000000 2.033810 
# 
# From -- ./inp_files/1468.got.cif
#   From: 2010.05.17/outbox.cif.g08.bks.cpg/sg19_1_cif.got.tgz:1468.got - 2010.06.03 22:46:19.
