data_PCOD9314276
_publ_section_title
;
Structure prediction by ZEFSAII (Michael W. Deem and Ramdas Pophale) SiO2 
 PCOD9314276
Probable space group: P 21 21 21
;
_chemical_formula_sum "Si O2"
_cell_formula_units_Z 32
_cell_length_a 11.212703
_cell_length_b 6.126887
_cell_length_c 19.404371
_cell_angle_alpha 90.000000
_cell_angle_beta 90.000000
_cell_angle_gamma 90.000000
_cell_volume 1333.060190
_symmetry_space_group_name_H-M "P 21 21 21"
_symmetry_group_IT_number 19
_symmetry_cell_setting 'orthorhombic'
loop_
_space_group_symop_operation_xyz
x,y,z
1/2-x,-y,1/2+z
1/2+x,1/2-y,-z
-x,1/2+y,1/2-z
loop_
_atom_site_type_symbol
_atom_site_label
_atom_site_fract_x
_atom_site_fract_y
_atom_site_fract_z
Si Si1 0.561344 0.804478 0.441204
Si Si2 0.309675 0.124637 0.842815
Si Si3 0.909107 0.903964 0.816285
Si Si4 0.497158 0.445331 0.903053
Si Si5 0.844691 0.304212 0.733164
Si Si6 0.640395 0.015696 0.112022
Si Si7 0.773222 0.542146 0.897964
Si Si8 0.314348 0.768968 0.954681
O O1 0.523068 0.854570 0.518855
O O2 0.479800 0.606239 0.416017
O O3 0.688307 0.701158 0.422726
O O4 0.541223 0.002426 0.388842
O O5 0.430622 0.270042 0.852320
O O6 0.205513 0.302291 0.843210
O O7 0.270452 0.958130 0.781707
O O8 0.290231 0.992042 0.914023
O O9 0.838145 0.679450 0.835692
O O10 0.019408 0.896980 0.761116
O O11 0.828710 0.105680 0.786702
O O12 0.632050 0.512460 0.886686
O O13 0.425079 0.672399 0.911371
O O14 0.864988 0.191002 0.659759
O O15 0.722921 0.932159 0.050914
O O16 0.811436 0.678149 0.965498
#
# Coordination Sequence:
#
# PCOD9314276 Si02
#       8
#     4   4   4   4   4   4   4   4
#     4  12  23  39  65 105 148 193 231 298 382 431
#     4  10  21  42  68 100 139 196 243 283 366 445
#     4  12  26  42  66 112 147 192 245 319 380 427
#     4  11  25  40  66 105 154 195 237 297 375 465
#     4  11  24  42  70 103 147 185 253 312 366 445
#     4  10  21  38  67  99 137 188 235 286 364 440
#     4  12  26  40  65 109 155 188 244 303 370 454
#     4  10  22  39  63 101 141 195 232 290 361 443
#
# _framework density 24.004919000000001
#
# number of rings (size 3 to 8) (size 9 to 14) (size 15 to 20)
#    0.000    1.000    5.000    1.500    5.250    1.000 
#    0.000    0.000    0.000    0.000   55.250    0.000 
#    0.000    0.000    0.000    0.000    0.000    0.000 
#
# Total GULP energy -178312.641761 kJ/mol
# GULP energy per Si atom -5572.270055 kJ/mol
# Density = 2.395028 g / cm^3
# Si number density = 24.004919 Si / 1000 Ang^3
#
#
#
# Elastic Constant Matrix: (Units=GPa)
#
#
# Indices 1 2 3 4 5 6 
#
# 1 113.0188 43.2717 27.3687 0.0000 0.0000 0.0000
# 2 43.2717 80.5319 29.4183 0.0000 0.0000 0.0000
# 3 27.3687 29.4183 80.1902 0.0000 0.0000 0.0000
# 4 0.0000 0.0000 0.0000 61.5899 0.0000 0.0000
# 5 0.0000 0.0000 0.0000 0.0000 14.7422 0.0000
# 6 0.0000 0.0000 0.0000 0.0000 0.0000 19.0453
#
#
#
# Elastic Compliance Matrix: (Units=1/GPa)
#
#
# Indices 1 2 3 4 5 6 
#
# 1 0.011384 -0.005425 -0.001895 0.000000 0.000000 0.000000
# 2 -0.005425 0.016924 -0.004357 0.000000 0.000000 0.000000
# 3 -0.001895 -0.004357 0.014716 0.000000 0.000000 0.000000
# 4 0.000000 0.000000 0.000000 0.016236 0.000000 0.000000
# 5 0.000000 0.000000 0.000000 0.000000 0.067832 0.000000
# 6 0.000000 0.000000 0.000000 0.000000 0.000000 0.052507
#
#
# Mechanical properties :
#
#
# Convention : Reuss Voigt Hill
#
# Bulk Modulus (GPa) = 50.84043 52.65091 51.74567
# Shear Modulus (GPa) = 23.86526 30.65427 27.25976
#
# Velocity S-wave (km/s) = 3.15649 3.57739 3.37351
# Velocity P-wave (km/s) = 5.87449 6.24857 6.06442
#
# Compressibility (1/GPa) = 0.01966939
#
# Stress axis : x y z
#
# Youngs Moduli (GPa) = 87.84301 59.08811 67.95459
#
# Poissons Ratio (x) = 0.32052 0.12879
# Poissons Ratio (y) = 0.47651 0.29610
# Poissons Ratio (z) = 0.16649 0.25746
#
# Static dielectric constant tensor:
#      x y z
#    x 2.082750 0.000000 0.000000 
#    y 0.000000 2.043110 0.000000 
#    z 0.000000 0.000000 1.955690 
# 
# From -- ./inp_files/7164.got.cif
#   From: 2010.05.17/outbox.cif.g08.bks.cpg/sg19_4_cif.got.tgz:7164.got - 2010.06.03 22:46:19.
