data_PCOD9315987
_publ_section_title
;
Structure prediction by ZEFSAII (Michael W. Deem and Ramdas Pophale) SiO2 
 PCOD9315987
Probable space group: P 21 21 21
;
_chemical_formula_sum "Si O2"
_cell_formula_units_Z 20
_cell_length_a 4.773736
_cell_length_b 8.702913
_cell_length_c 14.750499
_cell_angle_alpha 90.000000
_cell_angle_beta 90.000000
_cell_angle_gamma 90.000000
_cell_volume 612.815515
_symmetry_space_group_name_H-M "P 21 21 21"
_symmetry_group_IT_number 19
_symmetry_cell_setting 'orthorhombic'
loop_
_space_group_symop_operation_xyz
x,y,z
1/2-x,-y,1/2+z
1/2+x,1/2-y,-z
-x,1/2+y,1/2-z
loop_
_atom_site_type_symbol
_atom_site_label
_atom_site_fract_x
_atom_site_fract_y
_atom_site_fract_z
Si Si1 0.976015 0.011852 0.993490
Si Si2 0.988902 0.557436 0.140090
Si Si3 0.742849 0.243771 0.087949
Si Si4 0.241374 0.700382 0.735352
Si Si5 0.441878 0.003107 0.136719
O O1 0.970518 0.209215 0.990593
O O2 0.208152 0.953514 0.065171
O O3 0.715716 0.039379 0.073013
O O4 0.757557 0.927391 0.925774
O O5 0.745273 0.450009 0.089215
O O6 0.835859 0.706542 0.173538
O O7 0.540814 0.387295 0.283621
O O8 0.005155 0.242001 0.158992
O O9 0.383525 0.527088 0.725507
O O10 0.025814 0.813180 0.667805
#
# Coordination Sequence:
#
# PCOD9315987 Si02
#       5
#     4   4   4   4   4
#     4  12  22  46  86 128 172 246 296 360 440 556
#     4  12  26  48  85 130 181 232 303 365 460 530
#     4  12  19  46  84 118 171 236 292 356 437 544
#     4  12  27  50  84 134 181 234 294 390 445 538
#     4  12  26  48  85 130 181 232 303 365 460 530
#
# _framework density 32.636249999999997
#
# number of rings (size 3 to 8) (size 9 to 14) (size 15 to 20)
#    0.000    0.000    8.000    2.400    0.000    0.000 
#    0.000    0.000    8.800    9.600    0.000    0.000 
#    0.000    0.000    0.000    0.000    0.000    0.000 
#
# Total GULP energy -111704.267542 kJ/mol
# GULP energy per Si atom -5585.213377 kJ/mol
# Density = 3.256197 g / cm^3
# Si number density = 32.636250 Si / 1000 Ang^3
#
#
#
# Elastic Constant Matrix: (Units=GPa)
#
#
# Indices 1 2 3 4 5 6 
#
# 1 358.3918 54.0529 123.1829 0.0000 0.0000 0.0000
# 2 54.0529 137.8426 130.5331 0.0000 0.0000 0.0000
# 3 123.1829 130.5331 261.9985 0.0000 0.0000 0.0000
# 4 0.0000 0.0000 0.0000 62.8119 0.0000 0.0000
# 5 0.0000 0.0000 0.0000 0.0000 104.0768 0.0000
# 6 0.0000 0.0000 0.0000 0.0000 0.0000 34.5137
#
#
#
# Elastic Compliance Matrix: (Units=1/GPa)
#
#
# Indices 1 2 3 4 5 6 
#
# 1 0.003336 0.000335 -0.001736 0.000000 0.000000 0.000000
# 2 0.000335 0.013768 -0.007017 0.000000 0.000000 0.000000
# 3 -0.001736 -0.007017 0.008129 0.000000 0.000000 0.000000
# 4 0.000000 0.000000 0.000000 0.015921 0.000000 0.000000
# 5 0.000000 0.000000 0.000000 0.000000 0.009608 0.000000
# 6 0.000000 0.000000 0.000000 0.000000 0.000000 0.028974
#
#
# Mechanical properties :
#
#
# Convention : Reuss Voigt Hill
#
# Bulk Modulus (GPa) = 119.07097 152.64121 135.85609
# Shear Modulus (GPa) = 50.31624 70.31138 60.31381
#
# Velocity S-wave (km/s) = 3.93074 4.64658 4.30357
# Velocity P-wave (km/s) = 7.56072 8.69825 8.14936
#
# Compressibility (1/GPa) = 0.00839835
#
# Stress axis : x y z
#
# Youngs Moduli (GPa) = 299.73949 72.62994 123.01493
#
# Poissons Ratio (x) = -0.02436 0.21351
# Poissons Ratio (y) = -0.10053 0.86325
# Poissons Ratio (z) = 0.52025 0.50967
#
# Static dielectric constant tensor:
#      x y z
#    x 2.637180 0.000000 0.000000 
#    y 0.000000 3.219420 0.000000 
#    z 0.000000 0.000000 2.490970 
# 
# From -- ./inp_files/2714.got.cif
#   From: 2010.05.17/outbox.cif.g08.bks.cpg/sg19_2_cif.got.tgz:2714.got - 2010.06.03 22:46:19.
