data_PCOD9315053
_publ_section_title
;
Structure prediction by ZEFSAII (Michael W. Deem and Ramdas Pophale) SiO2 
 PCOD9315053
Probable space group: P 21 21 21
;
_chemical_formula_sum "Si O2"
_cell_formula_units_Z 20
_cell_length_a 11.107214
_cell_length_b 8.033919
_cell_length_c 8.795081
_cell_angle_alpha 90.000000
_cell_angle_beta 90.000000
_cell_angle_gamma 90.000000
_cell_volume 784.824283
_symmetry_space_group_name_H-M "P 21 21 21"
_symmetry_group_IT_number 19
_symmetry_cell_setting 'orthorhombic'
loop_
_space_group_symop_operation_xyz
x,y,z
1/2-x,-y,1/2+z
1/2+x,1/2-y,-z
-x,1/2+y,1/2-z
loop_
_atom_site_type_symbol
_atom_site_label
_atom_site_fract_x
_atom_site_fract_y
_atom_site_fract_z
Si Si1 0.971901 0.789548 0.074078
Si Si2 0.630208 0.420572 0.822767
Si Si3 0.979238 0.274877 0.966810
Si Si4 0.688158 0.752903 0.758355
Si Si5 0.908038 0.970111 0.769957
O O1 0.008638 0.964508 0.157435
O O2 0.098555 0.697138 0.104004
O O3 0.874637 0.691024 0.172595
O O4 0.942572 0.840732 0.905374
O O5 0.729902 0.565679 0.811313
O O6 0.605986 0.301637 0.967212
O O7 0.007741 0.439919 0.874225
O O8 0.921650 0.147506 0.846332
O O9 0.889468 0.287163 0.107642
O O10 0.777132 0.902549 0.728233
#
# Coordination Sequence:
#
# PCOD9315053 Si02
#       5
#     4   4   4   4   4
#     4   8  18  36  61  87 120 159 207 255 304 368
#     4   8  17  38  60  84 124 160 199 252 313 361
#     4  10  23  42  59  98 124 163 208 262 310 366
#     4   9  21  42  62  87 128 165 206 247 325 363
#     4  11  23  40  64  94 128 161 216 256 310 376
#
# _framework density 25.483412000000001
#
# number of rings (size 3 to 8) (size 9 to 14) (size 15 to 20)
#    1.200    1.600    0.000    0.000    2.800    3.200 
#    3.600    2.000    0.000    0.000    0.000    0.000 
#    0.000    0.000    0.000    0.000    0.000    0.000 
#
# Total GULP energy -111484.206168 kJ/mol
# GULP energy per Si atom -5574.210308 kJ/mol
# Density = 2.542541 g / cm^3
# Si number density = 25.483412 Si / 1000 Ang^3
#
#
#
# Elastic Constant Matrix: (Units=GPa)
#
#
# Indices 1 2 3 4 5 6 
#
# 1 35.3785 -7.3494 1.9486 0.0000 0.0000 0.0000
# 2 -7.3494 55.3397 19.5881 0.0000 0.0000 0.0000
# 3 1.9486 19.5881 75.7086 0.0000 0.0000 0.0000
# 4 0.0000 0.0000 0.0000 56.2661 0.0000 0.0000
# 5 0.0000 0.0000 0.0000 0.0000 21.1711 0.0000
# 6 0.0000 0.0000 0.0000 0.0000 0.0000 15.0985
#
#
#
# Elastic Compliance Matrix: (Units=1/GPa)
#
#
# Indices 1 2 3 4 5 6 
#
# 1 0.029324 0.004581 -0.001940 0.000000 0.000000 0.000000
# 2 0.004581 0.020608 -0.005450 0.000000 0.000000 0.000000
# 3 -0.001940 -0.005450 0.014668 0.000000 0.000000 0.000000
# 4 0.000000 0.000000 0.000000 0.017773 0.000000 0.000000
# 5 0.000000 0.000000 0.000000 0.000000 0.047234 0.000000
# 6 0.000000 0.000000 0.000000 0.000000 0.000000 0.066232
#
#
# Mechanical properties :
#
#
# Convention : Reuss Voigt Hill
#
# Bulk Modulus (GPa) = 16.95401 21.64459 19.29930
# Shear Modulus (GPa) = 22.61245 28.65644 25.63445
#
# Velocity S-wave (km/s) = 2.98206 3.35701 3.17508
# Velocity P-wave (km/s) = 4.30398 4.85161 4.58598
#
# Compressibility (1/GPa) = 0.05898310
#
# Stress axis : x y z
#
# Youngs Moduli (GPa) = 34.10146 48.52583 68.17344
#
# Poissons Ratio (x) = -0.22230 0.13226
# Poissons Ratio (y) = -0.15622 0.37153
# Poissons Ratio (z) = 0.06616 0.26445
#
# Static dielectric constant tensor:
#      x y z
#    x 2.148570 0.000000 0.000000 
#    y 0.000000 2.070360 0.000000 
#    z 0.000000 0.000000 1.980220 
# 
# From -- ./inp_files/3807.got.cif
#   From: 2010.05.17/outbox.cif.g08.bks.cpg/sg19_2_cif.got.tgz:3807.got - 2010.06.03 22:46:19.
