data_PCOD9315348
_publ_section_title
;
Structure prediction by ZEFSAII (Michael W. Deem and Ramdas Pophale) SiO2 
 PCOD9315348
Probable space group: P 21 21 21
;
_chemical_formula_sum "Si O2"
_cell_formula_units_Z 20
_cell_length_a 4.848645
_cell_length_b 11.026248
_cell_length_c 15.508834
_cell_angle_alpha 90.000000
_cell_angle_beta 90.000000
_cell_angle_gamma 90.000000
_cell_volume 829.138901
_symmetry_space_group_name_H-M "P 21 21 21"
_symmetry_group_IT_number 19
_symmetry_cell_setting 'orthorhombic'
loop_
_space_group_symop_operation_xyz
x,y,z
1/2-x,-y,1/2+z
1/2+x,1/2-y,-z
-x,1/2+y,1/2-z
loop_
_atom_site_type_symbol
_atom_site_label
_atom_site_fract_x
_atom_site_fract_y
_atom_site_fract_z
Si Si1 0.055373 0.936627 0.055171
Si Si2 0.181634 0.190051 0.125391
Si Si3 0.975407 0.068784 0.440802
Si Si4 0.949358 0.256375 0.298695
Si Si5 0.693559 0.339361 0.131159
O O1 0.951053 0.861429 0.137518
O O2 0.216622 0.057076 0.088107
O O3 0.292434 0.865992 0.000907
O O4 0.789288 0.964822 0.997497
O O5 0.155006 0.194208 0.229662
O O6 0.391100 0.298596 0.106301
O O7 0.884165 0.232792 0.093262
O O8 0.163024 0.961626 0.399745
O O9 0.861073 0.150062 0.362695
O O10 0.732803 0.320682 0.234094
#
# Coordination Sequence:
#
# PCOD9315348 Si02
#       5
#     4   4   4   4   4
#     4  12  26  44  72 107 144 183 237 303 361 416
#     4  10  24  45  73  97 140 189 240 279 353 431
#     4  12  26  44  72 107 144 183 237 303 361 416
#     4  10  26  46  72 104 142 192 238 292 356 442
#     4  10  24  45  73  97 140 189 240 279 353 431
#
# _framework density 24.121411999999999
#
# number of rings (size 3 to 8) (size 9 to 14) (size 15 to 20)
#    1.200    0.000    0.000    4.800    5.600    3.200 
#    7.200    0.000    0.000    0.000    0.000    0.000 
#    0.000    0.000    0.000    0.000    0.000    0.000 
#
# Total GULP energy -111525.840010 kJ/mol
# GULP energy per Si atom -5576.292000 kJ/mol
# Density = 2.406651 g / cm^3
# Si number density = 24.121412 Si / 1000 Ang^3
#
#
#
# Elastic Constant Matrix: (Units=GPa)
#
#
# Indices 1 2 3 4 5 6 
#
# 1 105.9523 6.0582 45.2627 0.0000 0.0000 0.0000
# 2 6.0582 81.7589 61.2247 0.0000 0.0000 0.0000
# 3 45.2627 61.2247 167.0873 0.0000 0.0000 0.0000
# 4 0.0000 0.0000 0.0000 34.6247 0.0000 0.0000
# 5 0.0000 0.0000 0.0000 0.0000 27.5006 0.0000
# 6 0.0000 0.0000 0.0000 0.0000 0.0000 23.5342
#
#
#
# Elastic Compliance Matrix: (Units=1/GPa)
#
#
# Indices 1 2 3 4 5 6 
#
# 1 0.010891 0.001933 -0.003658 0.000000 0.000000 0.000000
# 2 0.001933 0.017199 -0.006826 0.000000 0.000000 0.000000
# 3 -0.003658 -0.006826 0.009477 0.000000 0.000000 0.000000
# 4 0.000000 0.000000 0.000000 0.028881 0.000000 0.000000
# 5 0.000000 0.000000 0.000000 0.000000 0.036363 0.000000
# 6 0.000000 0.000000 0.000000 0.000000 0.000000 0.042491
#
#
# Mechanical properties :
#
#
# Convention : Reuss Voigt Hill
#
# Bulk Modulus (GPa) = 48.86668 64.43217 56.64942
# Shear Modulus (GPa) = 29.54621 33.28209 31.41415
#
# Velocity S-wave (km/s) = 3.50365 3.71856 3.61270
# Velocity P-wave (km/s) = 6.05558 6.72358 6.39830
#
# Compressibility (1/GPa) = 0.02046384
#
# Stress axis : x y z
#
# Youngs Moduli (GPa) = 91.82296 58.14190 105.51866
#
# Poissons Ratio (x) = -0.11236 0.38602
# Poissons Ratio (y) = -0.17745 0.72024
# Poissons Ratio (z) = 0.33591 0.39686
#
# Static dielectric constant tensor:
#      x y z
#    x 1.867300 0.000000 0.000000 
#    y 0.000000 1.927350 0.000000 
#    z 0.000000 0.000000 1.982020 
# 
# From -- ./inp_files/5649.got.cif
#   From: 2010.05.17/outbox.cif.g08.bks.cpg/sg19_3_cif.got.tgz:5649.got - 2010.06.03 22:46:19.
