data_PCOD9315630
_publ_section_title
;
Structure prediction by ZEFSAII (Michael W. Deem and Ramdas Pophale) SiO2 
 PCOD9315630
Probable space group: P 21 21 21
;
_chemical_formula_sum "Si O2"
_cell_formula_units_Z 32
_cell_length_a 15.486595
_cell_length_b 8.239877
_cell_length_c 10.883560
_cell_angle_alpha 90.000000
_cell_angle_beta 90.000000
_cell_angle_gamma 90.000000
_cell_volume 1388.825384
_symmetry_space_group_name_H-M "P 21 21 21"
_symmetry_group_IT_number 19
_symmetry_cell_setting 'orthorhombic'
loop_
_space_group_symop_operation_xyz
x,y,z
1/2-x,-y,1/2+z
1/2+x,1/2-y,-z
-x,1/2+y,1/2-z
loop_
_atom_site_type_symbol
_atom_site_label
_atom_site_fract_x
_atom_site_fract_y
_atom_site_fract_z
Si Si1 0.173085 0.178566 0.952840
Si Si2 0.931402 0.321550 0.832128
Si Si3 0.611935 0.239020 0.563221
Si Si4 0.040235 0.909561 0.397758
Si Si5 0.220812 0.047070 0.598918
Si Si6 0.352420 0.608153 0.691293
Si Si7 0.993777 0.993055 0.899254
Si Si8 0.692143 0.762759 0.730579
O O1 0.177300 0.287030 0.075529
O O2 0.240218 0.033342 0.978089
O O3 0.216774 0.274687 0.841145
O O4 0.080702 0.096061 0.929784
O O5 0.841375 0.418930 0.834486
O O6 0.927040 0.128789 0.849777
O O7 0.982163 0.369925 0.710017
O O8 0.977122 0.386933 0.956772
O O9 0.569299 0.404403 0.613546
O O10 0.665652 0.299069 0.445018
O O11 0.670391 0.171411 0.673148
O O12 0.544609 0.105529 0.513772
O O13 0.113492 0.779674 0.360540
O O14 0.956144 0.881433 0.317983
O O15 0.297966 0.106483 0.683038
O O16 0.325817 0.421112 0.689879
#
# Coordination Sequence:
#
# PCOD9315630 Si02
#       8
#     4   4   4   4   4   4   4   4
#     4  12  27  48  71 110 146 194 243 309 383 428
#     4  11  22  46  70 102 143 187 239 303 356 438
#     4  11  26  45  72 106 140 198 247 299 370 441
#     4  11  23  48  71 108 144 192 250 296 365 441
#     4  11  26  47  71 101 146 191 240 310 373 428
#     4  12  28  43  78 105 149 195 246 300 361 460
#     4  12  26  45  77 105 146 195 251 300 367 451
#     4  12  26  48  74 107 152 186 244 313 367 439
#
# _framework density 23.041053000000002
#
# number of rings (size 3 to 8) (size 9 to 14) (size 15 to 20)
#    0.000    0.500    5.000    3.750    7.000    0.000 
#    0.000    0.000    0.000    0.000    0.000    0.000 
#    0.000    0.000    0.000    0.000    0.000    0.000 
#
# Total GULP energy -178968.489453 kJ/mol
# GULP energy per Si atom -5592.765295 kJ/mol
# Density = 2.298861 g / cm^3
# Si number density = 23.041053 Si / 1000 Ang^3
#
#
#
# Elastic Constant Matrix: (Units=GPa)
#
#
# Indices 1 2 3 4 5 6 
#
# 1 57.7317 22.0033 8.6979 0.0000 0.0000 0.0000
# 2 22.0033 94.7611 15.0352 0.0000 0.0000 0.0000
# 3 8.6979 15.0352 77.0110 0.0000 0.0000 0.0000
# 4 0.0000 0.0000 0.0000 41.3315 0.0000 0.0000
# 5 0.0000 0.0000 0.0000 0.0000 27.9999 0.0000
# 6 0.0000 0.0000 0.0000 0.0000 0.0000 9.7824
#
#
#
# Elastic Compliance Matrix: (Units=1/GPa)
#
#
# Indices 1 2 3 4 5 6 
#
# 1 0.019135 -0.004231 -0.001335 0.000000 0.000000 0.000000
# 2 -0.004231 0.011826 -0.001831 0.000000 0.000000 0.000000
# 3 -0.001335 -0.001831 0.013493 0.000000 0.000000 0.000000
# 4 0.000000 0.000000 0.000000 0.024195 0.000000 0.000000
# 5 0.000000 0.000000 0.000000 0.000000 0.035714 0.000000
# 6 0.000000 0.000000 0.000000 0.000000 0.000000 0.102225
#
#
# Mechanical properties :
#
#
# Convention : Reuss Voigt Hill
#
# Bulk Modulus (GPa) = 33.71556 35.66404 34.68980
# Shear Modulus (GPa) = 21.61976 28.07391 24.84683
#
# Velocity S-wave (km/s) = 3.06652 3.49439 3.28742
# Velocity P-wave (km/s) = 5.21561 5.63854 5.43119
#
# Compressibility (1/GPa) = 0.02965990
#
# Stress axis : x y z
#
# Youngs Moduli (GPa) = 52.25931 84.56044 74.11024
#
# Poissons Ratio (x) = 0.35780 0.09895
# Poissons Ratio (y) = 0.22113 0.13569
# Poissons Ratio (z) = 0.06977 0.15482
#
# Static dielectric constant tensor:
#      x y z
#    x 1.905850 0.000000 0.000000 
#    y 0.000000 1.854200 0.000000 
#    z 0.000000 0.000000 1.829810 
# 
# From -- ./inp_files/5273.got.cif
#   From: 2010.05.17/outbox.cif.g08.bks.cpg/sg19_3_cif.got.tgz:5273.got - 2010.06.03 22:46:19.
