data_PCOD9315844
_publ_section_title
;
Structure prediction by ZEFSAII (Michael W. Deem and Ramdas Pophale) SiO2 
 PCOD9315844
Probable space group: P 21 21 21
;
_chemical_formula_sum "Si O2"
_cell_formula_units_Z 28
_cell_length_a 19.255130
_cell_length_b 5.496764
_cell_length_c 11.013367
_cell_angle_alpha 90.000000
_cell_angle_beta 90.000000
_cell_angle_gamma 90.000000
_cell_volume 1165.664735
_symmetry_space_group_name_H-M "P 21 21 21"
_symmetry_group_IT_number 19
_symmetry_cell_setting 'orthorhombic'
loop_
_space_group_symop_operation_xyz
x,y,z
1/2-x,-y,1/2+z
1/2+x,1/2-y,-z
-x,1/2+y,1/2-z
loop_
_atom_site_type_symbol
_atom_site_label
_atom_site_fract_x
_atom_site_fract_y
_atom_site_fract_z
Si Si1 0.333543 0.658071 0.380479
Si Si2 0.883604 0.577877 0.019046
Si Si3 0.959817 0.686579 0.782965
Si Si4 0.199859 0.369181 0.293563
Si Si5 0.958046 0.413048 0.251154
Si Si6 0.754370 0.540013 0.412683
Si Si7 0.639842 0.833921 0.915029
O O1 0.386605 0.786238 0.289894
O O2 0.267307 0.532885 0.317279
O O3 0.299179 0.823145 0.484868
O O4 0.376974 0.459576 0.458847
O O5 0.841795 0.792018 0.087547
O O6 0.913739 0.417624 0.127715
O O7 0.940791 0.670032 0.925452
O O8 0.825621 0.432874 0.943806
O O9 0.997042 0.433824 0.744493
O O10 0.228186 0.133835 0.221283
O O11 0.145626 0.487233 0.199465
O O12 0.910768 0.377167 0.370429
O O13 0.994196 0.674887 0.253250
O O14 0.782112 0.267268 0.424935
#
# Coordination Sequence:
#
# PCOD9315844 Si02
#       7
#     4   4   4   4   4   4   4
#     4  11  27  46  79 111 159 203 263 328 408 480
#     4  12  27  51  83 113 160 206 267 339 410 481
#     4  12  34  56  78 113 167 228 272 315 399 504
#     4  11  24  47  74 122 145 194 255 340 411 468
#     4  12  29  50  77 115 155 212 272 319 388 477
#     4  11  25  45  81 115 153 190 261 345 417 468
#     4  11  24  47  74 111 151 195 256 332 401 470
#
# _framework density 24.020627999999999
#
# number of rings (size 3 to 8) (size 9 to 14) (size 15 to 20)
#    0.000    0.571    2.857    2.571   12.000    2.286 
#    0.000    0.000    0.000    0.000    0.000    0.000 
#    0.000    0.000    0.000    0.000    0.000    0.000 
#
# Total GULP energy -156785.802697 kJ/mol
# GULP energy per Si atom -5599.492953 kJ/mol
# Density = 2.396596 g / cm^3
# Si number density = 24.020628 Si / 1000 Ang^3
#
#
#
# Elastic Constant Matrix: (Units=GPa)
#
#
# Indices 1 2 3 4 5 6 
#
# 1 78.6787 27.5370 12.1027 0.0000 0.0000 0.0000
# 2 27.5370 84.1403 13.7590 0.0000 0.0000 0.0000
# 3 12.1027 13.7590 63.5708 0.0000 0.0000 0.0000
# 4 0.0000 0.0000 0.0000 38.1720 0.0000 0.0000
# 5 0.0000 0.0000 0.0000 0.0000 51.3166 0.0000
# 6 0.0000 0.0000 0.0000 0.0000 0.0000 41.0202
#
#
#
# Elastic Compliance Matrix: (Units=1/GPa)
#
#
# Indices 1 2 3 4 5 6 
#
# 1 0.014551 -0.004467 -0.001803 0.000000 0.000000 0.000000
# 2 -0.004467 0.013692 -0.002113 0.000000 0.000000 0.000000
# 3 -0.001803 -0.002113 0.016531 0.000000 0.000000 0.000000
# 4 0.000000 0.000000 0.000000 0.026197 0.000000 0.000000
# 5 0.000000 0.000000 0.000000 0.000000 0.019487 0.000000
# 6 0.000000 0.000000 0.000000 0.000000 0.000000 0.024378
#
#
# Mechanical properties :
#
#
# Convention : Reuss Voigt Hill
#
# Bulk Modulus (GPa) = 35.70512 37.02079 36.36296
# Shear Modulus (GPa) = 35.47615 37.63449 36.55532
#
# Velocity S-wave (km/s) = 3.84722 3.96252 3.90530
# Velocity P-wave (km/s) = 5.88485 6.03167 5.95871
#
# Compressibility (1/GPa) = 0.02800719
#
# Stress axis : x y z
#
# Youngs Moduli (GPa) = 68.72471 73.03288 60.49186
#
# Poissons Ratio (x) = 0.32625 0.10909
# Poissons Ratio (y) = 0.30701 0.12782
# Poissons Ratio (z) = 0.12393 0.15432
#
# Static dielectric constant tensor:
#      x y z
#    x 1.946760 0.000000 0.000000 
#    y 0.000000 1.981870 0.000000 
#    z 0.000000 0.000000 1.910900 
# 
# From -- ./inp_files/5352.got.cif
#   From: 2010.05.17/outbox.cif.g08.bks.cpg/sg19_3_cif.got.tgz:5352.got - 2010.06.03 22:46:19.
