data_PCOD9315295
_publ_section_title
;
Structure prediction by ZEFSAII (Michael W. Deem and Ramdas Pophale) SiO2 
 PCOD9315295
Probable space group: P 21 21 21
;
_chemical_formula_sum "Si O2"
_cell_formula_units_Z 20
_cell_length_a 9.454767
_cell_length_b 5.437034
_cell_length_c 15.806523
_cell_angle_alpha 90.000000
_cell_angle_beta 90.000000
_cell_angle_gamma 90.000000
_cell_volume 812.548377
_symmetry_space_group_name_H-M "P 21 21 21"
_symmetry_group_IT_number 19
_symmetry_cell_setting 'orthorhombic'
loop_
_space_group_symop_operation_xyz
x,y,z
1/2-x,-y,1/2+z
1/2+x,1/2-y,-z
-x,1/2+y,1/2-z
loop_
_atom_site_type_symbol
_atom_site_label
_atom_site_fract_x
_atom_site_fract_y
_atom_site_fract_z
Si Si1 0.902521 0.689764 0.432510
Si Si2 0.880932 0.821898 0.087219
Si Si3 0.571558 0.923577 0.054017
Si Si4 0.181174 0.075979 0.678441
Si Si5 0.797092 0.910573 0.267767
O O1 0.797141 0.477021 0.396908
O O2 0.060719 0.590901 0.437303
O O3 0.879774 0.882526 0.356136
O O4 0.875665 0.808604 0.523189
O O5 0.716288 0.781348 0.070060
O O6 0.895678 0.838904 0.188871
O O7 0.974431 0.660639 0.024399
O O8 0.469474 0.904483 0.133797
O O9 0.227570 0.318849 0.730201
O O10 0.187727 0.817974 0.728150
#
# Coordination Sequence:
#
# PCOD9315295 Si02
#       5
#     4   4   4   4   4
#     4  10  24  43  74 106 143 191 240 304 361 453
#     4  12  27  44  77 106 152 197 248 311 371 448
#     4  12  26  47  72 113 150 196 249 310 380 435
#     4  10  25  49  75 107 153 185 258 302 366 454
#     4  10  26  47  76 108 144 199 247 305 370 444
#
# _framework density 24.61392
#
# number of rings (size 3 to 8) (size 9 to 14) (size 15 to 20)
#    1.200    0.000    0.000    4.800   11.200    1.600 
#    0.000    0.000    0.000    0.000    0.000    0.000 
#    0.000    0.000    0.000    0.000    0.000    0.000 
#
# Total GULP energy -111501.497407 kJ/mol
# GULP energy per Si atom -5575.074870 kJ/mol
# Density = 2.455790 g / cm^3
# Si number density = 24.613920 Si / 1000 Ang^3
#
#
#
# Elastic Constant Matrix: (Units=GPa)
#
#
# Indices 1 2 3 4 5 6 
#
# 1 127.3565 22.5771 6.8874 0.0000 0.0000 0.0000
# 2 22.5771 106.7138 33.4780 0.0000 0.0000 0.0000
# 3 6.8874 33.4780 33.3485 0.0000 0.0000 0.0000
# 4 0.0000 0.0000 0.0000 21.9600 0.0000 0.0000
# 5 0.0000 0.0000 0.0000 0.0000 47.1497 0.0000
# 6 0.0000 0.0000 0.0000 0.0000 0.0000 17.8760
#
#
#
# Elastic Compliance Matrix: (Units=1/GPa)
#
#
# Indices 1 2 3 4 5 6 
#
# 1 0.008158 -0.001748 0.000070 0.000000 0.000000 0.000000
# 2 -0.001748 0.014053 -0.013747 0.000000 0.000000 0.000000
# 3 0.000070 -0.013747 0.043772 0.000000 0.000000 0.000000
# 4 0.000000 0.000000 0.000000 0.045537 0.000000 0.000000
# 5 0.000000 0.000000 0.000000 0.000000 0.021209 0.000000
# 6 0.000000 0.000000 0.000000 0.000000 0.000000 0.055941
#
#
# Mechanical properties :
#
#
# Convention : Reuss Voigt Hill
#
# Bulk Modulus (GPa) = 28.46273 43.70041 36.08157
# Shear Modulus (GPa) = 21.62330 31.02890 26.32610
#
# Velocity S-wave (km/s) = 2.96716 3.55438 3.27396
# Velocity P-wave (km/s) = 4.82986 5.88538 5.38355
#
# Compressibility (1/GPa) = 0.03513367
#
# Stress axis : x y z
#
# Youngs Moduli (GPa) = 122.57824 71.15773 22.84551
#
# Poissons Ratio (x) = 0.12437 -0.00159
# Poissons Ratio (y) = 0.21425 0.31405
# Poissons Ratio (z) = -0.00855 0.97820
#
# Static dielectric constant tensor:
#      x y z
#    x 1.967150 0.000000 0.000000 
#    y 0.000000 2.071300 0.000000 
#    z 0.000000 0.000000 2.015210 
# 
# From -- ./inp_files/6519.got.cif
#   From: 2010.05.17/outbox.cif.g08.bks.cpg/sg19_4_cif.got.tgz:6519.got - 2010.06.03 22:46:19.
