data_PCOD9315423
_publ_section_title
;
Structure prediction by ZEFSAII (Michael W. Deem and Ramdas Pophale) SiO2 
 PCOD9315423
Probable space group: P 21 21 21
;
_chemical_formula_sum "Si O2"
_cell_formula_units_Z 32
_cell_length_a 11.328845
_cell_length_b 5.271899
_cell_length_c 19.473746
_cell_angle_alpha 90.000000
_cell_angle_beta 90.000000
_cell_angle_gamma 90.000000
_cell_volume 1163.060261
_symmetry_space_group_name_H-M "P 21 21 21"
_symmetry_group_IT_number 19
_symmetry_cell_setting 'orthorhombic'
loop_
_space_group_symop_operation_xyz
x,y,z
1/2-x,-y,1/2+z
1/2+x,1/2-y,-z
-x,1/2+y,1/2-z
loop_
_atom_site_type_symbol
_atom_site_label
_atom_site_fract_x
_atom_site_fract_y
_atom_site_fract_z
Si Si1 0.490043 0.140535 0.269144
Si Si2 0.267168 0.861281 0.073965
Si Si3 0.193826 0.804381 0.452927
Si Si4 0.841023 0.454362 0.194413
Si Si5 0.717083 0.763007 0.311637
Si Si6 0.561761 0.127530 0.010594
Si Si7 0.915162 0.166211 0.330387
Si Si8 0.002588 0.878907 0.916842
O O1 0.579058 0.386727 0.261073
O O2 0.405099 0.389714 0.217275
O O3 0.442071 0.197099 0.344884
O O4 0.138381 0.829251 0.107181
O O5 0.360994 0.640928 0.089163
O O6 0.313615 0.089698 0.122945
O O7 0.276634 0.937339 0.994867
O O8 0.213974 0.812704 0.371152
O O9 0.294002 0.634484 0.492878
O O10 0.050437 0.776772 0.463179
O O11 0.769295 0.645835 0.241520
O O12 0.894473 0.272899 0.253836
O O13 0.949384 0.609100 0.161428
O O14 0.829120 0.926859 0.334845
O O15 0.543686 0.340489 0.068340
O O16 0.532896 0.840818 0.029930
#
# Coordination Sequence:
#
# PCOD9315423 Si02
#       8
#     4   4   4   4   4   4   4   4
#     4  12  24  39  69 103 143 189 243 311 385 464
#     4  10  25  45  71 105 146 201 260 320 405 476
#     4  11  28  50  75 113 156 209 264 338 401 494
#     4  11  25  48  72 116 149 200 274 332 406 482
#     4  11  24  44  71 104 148 197 258 320 395 484
#     4  11  28  49  76 107 158 203 262 322 407 474
#     4  11  24  44  78 106 151 205 262 328 407 485
#     4  11  24  47  70 110 147 196 255 319 392 483
#
# _framework density 27.51362
#
# number of rings (size 3 to 8) (size 9 to 14) (size 15 to 20)
#    0.000    1.000    2.500    2.250   10.500    4.000 
#    4.500    0.000    0.000    0.000    0.000    0.000 
#    0.000    0.000    0.000    0.000    0.000    0.000 
#
# Total GULP energy -178337.311950 kJ/mol
# GULP energy per Si atom -5573.040998 kJ/mol
# Density = 2.745100 g / cm^3
# Si number density = 27.513620 Si / 1000 Ang^3
#
#
#
# Elastic Constant Matrix: (Units=GPa)
#
#
# Indices 1 2 3 4 5 6 
#
# 1 111.0093 45.8282 -3.7819 0.0000 0.0000 0.0000
# 2 45.8282 97.0614 15.0481 0.0000 0.0000 0.0000
# 3 -3.7819 15.0481 102.4041 0.0000 0.0000 0.0000
# 4 0.0000 0.0000 0.0000 34.7082 0.0000 0.0000
# 5 0.0000 0.0000 0.0000 0.0000 46.9105 0.0000
# 6 0.0000 0.0000 0.0000 0.0000 0.0000 42.9967
#
#
#
# Elastic Compliance Matrix: (Units=1/GPa)
#
#
# Indices 1 2 3 4 5 6 
#
# 1 0.011340 -0.005545 0.001234 0.000000 0.000000 0.000000
# 2 -0.005545 0.013255 -0.002153 0.000000 0.000000 0.000000
# 3 0.001234 -0.002153 0.010127 0.000000 0.000000 0.000000
# 4 0.000000 0.000000 0.000000 0.028812 0.000000 0.000000
# 5 0.000000 0.000000 0.000000 0.000000 0.021317 0.000000
# 6 0.000000 0.000000 0.000000 0.000000 0.000000 0.023258
#
#
# Mechanical properties :
#
#
# Convention : Reuss Voigt Hill
#
# Bulk Modulus (GPa) = 45.88633 47.18486 46.53560
# Shear Modulus (GPa) = 38.97098 41.81511 40.39304
#
# Velocity S-wave (km/s) = 3.76762 3.90269 3.83575
# Velocity P-wave (km/s) = 5.96997 6.12330 6.04712
#
# Compressibility (1/GPa) = 0.02179298
#
# Stress axis : x y z
#
# Youngs Moduli (GPa) = 88.18673 75.44466 98.74490
#
# Poissons Ratio (x) = 0.41837 -0.12182
# Poissons Ratio (y) = 0.48902 0.21255
# Poissons Ratio (z) = -0.10879 0.16240
#
# Static dielectric constant tensor:
#      x y z
#    x 2.289400 0.000000 0.000000 
#    y 0.000000 2.635110 0.000000 
#    z 0.000000 0.000000 2.316410 
# 
# From -- ./inp_files/7144.got.cif
#   From: 2010.05.17/outbox.cif.g08.bks.cpg/sg19_4_cif.got.tgz:7144.got - 2010.06.03 22:46:19.
