data_PCOD9315372
_publ_section_title
;
Structure prediction by ZEFSAII (Michael W. Deem and Ramdas Pophale) SiO2 
 PCOD9315372
Probable space group: P 21 21 21
;
_chemical_formula_sum "Si O2"
_cell_formula_units_Z 28
_cell_length_a 7.765865
_cell_length_b 13.114852
_cell_length_c 12.297829
_cell_angle_alpha 90.000000
_cell_angle_beta 90.000000
_cell_angle_gamma 90.000000
_cell_volume 1252.511380
_symmetry_space_group_name_H-M "P 21 21 21"
_symmetry_group_IT_number 19
_symmetry_cell_setting 'orthorhombic'
loop_
_space_group_symop_operation_xyz
x,y,z
1/2-x,-y,1/2+z
1/2+x,1/2-y,-z
-x,1/2+y,1/2-z
loop_
_atom_site_type_symbol
_atom_site_label
_atom_site_fract_x
_atom_site_fract_y
_atom_site_fract_z
Si Si1 0.173378 0.055362 0.219027
Si Si2 0.872616 0.898542 0.235504
Si Si3 0.473943 0.513330 0.207047
Si Si4 0.817869 0.777858 0.866596
Si Si5 0.416764 0.800275 0.905284
Si Si6 0.417256 0.804738 0.363192
Si Si7 0.197328 0.249448 0.089542
O O1 0.373717 0.028496 0.205763
O O2 0.161964 0.104971 0.339931
O O3 0.119724 0.146237 0.138715
O O4 0.040231 0.963840 0.208370
O O5 0.851084 0.804107 0.152785
O O6 0.893413 0.845802 0.354122
O O7 0.701675 0.968010 0.241301
O O8 0.426575 0.618062 0.147024
O O9 0.549060 0.425472 0.128384
O O10 0.620214 0.805597 0.885858
O O11 0.837904 0.719604 0.753085
O O12 0.878202 0.710560 0.968075
O O13 0.310451 0.757145 0.460926
O O14 0.606954 0.756508 0.370033
#
# Coordination Sequence:
#
# PCOD9315372 Si02
#       7
#     4   4   4   4   4   4   4
#     4  11  22  47  72 107 142 188 241 289 365 427
#     4  10  24  47  71 107 139 192 241 291 359 427
#     4  11  24  45  72 105 143 180 243 293 352 434
#     4  12  25  49  70 109 146 193 239 304 361 432
#     4  11  26  45  76 101 152 188 242 299 366 426
#     4  11  26  47  70 104 146 185 242 296 365 427
#     4  10  25  44  71 105 144 186 234 300 354 433
#
# _framework density 22.355084999999999
#
# number of rings (size 3 to 8) (size 9 to 14) (size 15 to 20)
#    0.000    1.143    2.857    1.714   12.000    0.000 
#    7.714    0.000    0.000    0.000    0.000    0.000 
#    0.000    0.000    0.000    0.000    0.000    0.000 
#
# Total GULP energy -156678.658596 kJ/mol
# GULP energy per Si atom -5595.666378 kJ/mol
# Density = 2.230420 g / cm^3
# Si number density = 22.355085 Si / 1000 Ang^3
#
#
#
# Elastic Constant Matrix: (Units=GPa)
#
#
# Indices 1 2 3 4 5 6 
#
# 1 71.8186 8.2034 6.7637 0.0000 0.0000 0.0000
# 2 8.2034 63.6403 8.9947 0.0000 0.0000 0.0000
# 3 6.7637 8.9947 116.9358 0.0000 0.0000 0.0000
# 4 0.0000 0.0000 0.0000 12.9703 0.0000 0.0000
# 5 0.0000 0.0000 0.0000 0.0000 17.7380 0.0000
# 6 0.0000 0.0000 0.0000 0.0000 0.0000 34.9683
#
#
#
# Elastic Compliance Matrix: (Units=1/GPa)
#
#
# Indices 1 2 3 4 5 6 
#
# 1 0.014186 -0.001732 -0.000687 0.000000 0.000000 0.000000
# 2 -0.001732 0.016097 -0.001138 0.000000 0.000000 0.000000
# 3 -0.000687 -0.001138 0.008679 0.000000 0.000000 0.000000
# 4 0.000000 0.000000 0.000000 0.077100 0.000000 0.000000
# 5 0.000000 0.000000 0.000000 0.000000 0.056376 0.000000
# 6 0.000000 0.000000 0.000000 0.000000 0.000000 0.028597
#
#
# Mechanical properties :
#
#
# Convention : Reuss Voigt Hill
#
# Bulk Modulus (GPa) = 31.39820 33.36869 32.38345
# Shear Modulus (GPa) = 22.85548 28.36418 25.60983
#
# Velocity S-wave (km/s) = 3.20094 3.56589 3.38833
# Velocity P-wave (km/s) = 5.26660 5.64917 5.46124
#
# Compressibility (1/GPa) = 0.03184896
#
# Stress axis : x y z
#
# Youngs Moduli (GPa) = 70.48963 62.12195 115.22067
#
# Poissons Ratio (x) = 0.10757 0.07920
# Poissons Ratio (y) = 0.12205 0.13113
# Poissons Ratio (z) = 0.04845 0.07070
#
# Static dielectric constant tensor:
#      x y z
#    x 1.829840 0.000000 0.000000 
#    y 0.000000 1.853610 0.000000 
#    z 0.000000 0.000000 1.805860 
# 
# From -- ./inp_files/4621.got.cif
#   From: 2010.05.17/outbox.cif.g08.bks.cpg/sg19_3_cif.got.tgz:4621.got - 2010.06.03 22:46:19.
