data_PCOD9315445
_publ_section_title
;
Structure prediction by ZEFSAII (Michael W. Deem and Ramdas Pophale) SiO2 
 PCOD9315445
Probable space group: P 21 21 21
;
_chemical_formula_sum "Si O2"
_cell_formula_units_Z 28
_cell_length_a 12.897216
_cell_length_b 10.615909
_cell_length_c 7.809356
_cell_angle_alpha 90.000000
_cell_angle_beta 90.000000
_cell_angle_gamma 90.000000
_cell_volume 1069.223220
_symmetry_space_group_name_H-M "P 21 21 21"
_symmetry_group_IT_number 19
_symmetry_cell_setting 'orthorhombic'
loop_
_space_group_symop_operation_xyz
x,y,z
1/2-x,-y,1/2+z
1/2+x,1/2-y,-z
-x,1/2+y,1/2-z
loop_
_atom_site_type_symbol
_atom_site_label
_atom_site_fract_x
_atom_site_fract_y
_atom_site_fract_z
Si Si1 0.762483 0.123838 0.215449
Si Si2 0.231244 0.351365 0.395048
Si Si3 0.902429 0.442518 0.829158
Si Si4 0.473090 0.292291 0.365640
Si Si5 0.617438 0.213751 0.915645
Si Si6 0.071174 0.827884 0.221305
Si Si7 0.812660 0.529925 0.482516
O O1 0.710436 0.149948 0.401539
O O2 0.688103 0.146208 0.055062
O O3 0.860883 0.213375 0.210070
O O4 0.800444 0.982701 0.191656
O O5 0.354268 0.339599 0.373217
O O6 0.178054 0.257657 0.263031
O O7 0.959684 0.578651 0.853431
O O8 0.014398 0.359599 0.137759
O O9 0.972365 0.318252 0.781502
O O10 0.835900 0.456595 0.655060
O O11 0.486652 0.220711 0.547941
O O12 0.607302 0.354116 0.986043
O O13 0.148786 0.935786 0.163638
O O14 0.192839 0.929681 0.536795
#
# Coordination Sequence:
#
# PCOD9315445 Si02
#       7
#     4   4   4   4   4   4   4
#     4  11  25  50  76 112 156 197 259 332 391 470
#     4  11  24  48  81 110 151 203 260 326 388 465
#     4  11  25  50  78 116 159 215 265 337 397 486
#     4  10  25  48  77 116 156 209 274 317 402 480
#     4  12  26  47  78 110 154 205 259 328 392 478
#     4  10  27  47  78 114 150 209 262 326 402 483
#     4  11  26  48  76 110 160 206 267 328 404 470
#
# _framework density 26.187235999999999
#
# number of rings (size 3 to 8) (size 9 to 14) (size 15 to 20)
#    0.000    1.143    2.857    0.857    4.000    6.857 
#    5.143    1.429    3.143    0.000    0.000    0.000 
#    0.000    0.000    0.000    0.000    0.000    0.000 
#
# Total GULP energy -156749.109412 kJ/mol
# GULP energy per Si atom -5598.182479 kJ/mol
# Density = 2.612763 g / cm^3
# Si number density = 26.187236 Si / 1000 Ang^3
#
#
#
# Elastic Constant Matrix: (Units=GPa)
#
#
# Indices 1 2 3 4 5 6 
#
# 1 100.4698 16.0308 31.9491 0.0000 0.0000 0.0000
# 2 16.0308 125.3526 14.8128 0.0000 0.0000 0.0000
# 3 31.9491 14.8128 151.2587 0.0000 0.0000 0.0000
# 4 0.0000 0.0000 0.0000 22.6129 0.0000 0.0000
# 5 0.0000 0.0000 0.0000 0.0000 37.9451 0.0000
# 6 0.0000 0.0000 0.0000 0.0000 0.0000 -0.7692
#
#
#
# Elastic Compliance Matrix: (Units=1/GPa)
#
#
# Indices 1 2 3 4 5 6 
#
# 1 0.010825 -0.001127 -0.002176 0.000000 0.000000 0.000000
# 2 -0.001127 0.008188 -0.000564 0.000000 0.000000 0.000000
# 3 -0.002176 -0.000564 0.007126 0.000000 0.000000 0.000000
# 4 0.000000 0.000000 0.000000 0.044223 0.000000 0.000000
# 5 0.000000 0.000000 0.000000 0.000000 0.026354 0.000000
# 6 0.000000 0.000000 0.000000 0.000000 0.000000 -1.300109
#
#
# Mechanical properties :
#
#
# Convention : Reuss Voigt Hill
#
# Bulk Modulus (GPa) = 54.33255 55.85185 55.09220
# Shear Modulus (GPa) = -4.20336 32.91032 14.35348
#
# Velocity S-wave (km/s) = -1.26831 3.54889 2.34371
# Velocity P-wave (km/s) = 4.31833 6.17794 5.32987
#
# Compressibility (1/GPa) = 0.01840517
#
# Stress axis : x y z
#
# Youngs Moduli (GPa) = 92.37800 122.12582 140.33039
#
# Poissons Ratio (x) = 0.13766 0.30537
# Poissons Ratio (y) = 0.10413 0.07912
# Poissons Ratio (z) = 0.20102 0.06885
#
# Static dielectric constant tensor:
#      x y z
#    x 2.039950 0.000000 0.000000 
#    y 0.000000 2.229820 0.000000 
#    z 0.000000 0.000000 2.282690 
# 
# From -- ./inp_files/4218.got.cif
#   From: 2010.05.17/outbox.cif.g08.bks.cpg/sg19_3_cif.got.tgz:4218.got - 2010.06.03 22:46:19.
