data_PCOD9315278
_publ_section_title
;
Structure prediction by ZEFSAII (Michael W. Deem and Ramdas Pophale) SiO2 
 PCOD9315278
Probable space group: P 21 21 21
;
_chemical_formula_sum "Si O2"
_cell_formula_units_Z 20
_cell_length_a 5.112675
_cell_length_b 8.569115
_cell_length_c 16.834207
_cell_angle_alpha 90.000000
_cell_angle_beta 90.000000
_cell_angle_gamma 90.000000
_cell_volume 737.525127
_symmetry_space_group_name_H-M "P 21 21 21"
_symmetry_group_IT_number 19
_symmetry_cell_setting 'orthorhombic'
loop_
_space_group_symop_operation_xyz
x,y,z
1/2-x,-y,1/2+z
1/2+x,1/2-y,-z
-x,1/2+y,1/2-z
loop_
_atom_site_type_symbol
_atom_site_label
_atom_site_fract_x
_atom_site_fract_y
_atom_site_fract_z
Si Si1 0.220248 0.573024 0.173998
Si Si2 0.741246 0.146101 0.496708
Si Si3 0.334469 0.845662 0.709017
Si Si4 0.082535 0.686818 0.454059
Si Si5 0.527209 0.385426 0.277720
O O1 0.146725 0.568814 0.083500
O O2 0.470055 0.462620 0.190704
O O3 0.271698 0.753603 0.196665
O O4 0.009101 0.535023 0.240925
O O5 0.483397 0.248284 0.473972
O O6 0.643900 0.999674 0.547803
O O7 0.487204 0.773690 0.635228
O O8 0.221155 0.729191 0.774764
O O9 0.096226 0.955110 0.676064
O O10 0.838731 0.725655 0.512526
#
# Coordination Sequence:
#
# PCOD9315278 Si02
#       5
#     4   4   4   4   4
#     4  11  25  43  76 106 152 197 264 323 390 470
#     4  12  29  49  77 115 163 212 265 333 413 483
#     4  11  25  46  78 109 156 203 269 329 397 475
#     4  12  29  52  81 116 166 218 268 331 413 487
#     4  10  24  42  72 108 141 192 260 320 383 463
#
# _framework density 27.117725
#
# number of rings (size 3 to 8) (size 9 to 14) (size 15 to 20)
#    0.000    0.800    0.000    4.800   16.800    0.000 
#    0.000    0.000    0.000    0.000    0.000    0.000 
#    0.000    0.000    0.000    0.000    0.000    0.000 
#
# Total GULP energy -111583.646063 kJ/mol
# GULP energy per Si atom -5579.182303 kJ/mol
# Density = 2.705600 g / cm^3
# Si number density = 27.117725 Si / 1000 Ang^3
#
#
#
# Elastic Constant Matrix: (Units=GPa)
#
#
# Indices 1 2 3 4 5 6 
#
# 1 152.5350 50.1433 28.2774 0.0000 0.0000 0.0000
# 2 50.1433 84.7544 -24.8950 0.0000 0.0000 0.0000
# 3 28.2774 -24.8950 88.7196 0.0000 0.0000 0.0000
# 4 0.0000 0.0000 0.0000 27.0412 0.0000 0.0000
# 5 0.0000 0.0000 0.0000 0.0000 41.4450 0.0000
# 6 0.0000 0.0000 0.0000 0.0000 0.0000 48.3783
#
#
#
# Elastic Compliance Matrix: (Units=1/GPa)
#
#
# Indices 1 2 3 4 5 6 
#
# 1 0.009985 -0.007457 -0.005275 0.000000 0.000000 0.000000
# 2 -0.007457 0.018427 0.007548 0.000000 0.000000 0.000000
# 3 -0.005275 0.007548 0.015071 0.000000 0.000000 0.000000
# 4 0.000000 0.000000 0.000000 0.036981 0.000000 0.000000
# 5 0.000000 0.000000 0.000000 0.000000 0.024128 0.000000
# 6 0.000000 0.000000 0.000000 0.000000 0.000000 0.020670
#
#
# Mechanical properties :
#
#
# Convention : Reuss Voigt Hill
#
# Bulk Modulus (GPa) = 30.19822 48.11779 39.15801
# Shear Modulus (GPa) = 34.09027 41.53846 37.81436
#
# Velocity S-wave (km/s) = 3.54944 3.91805 3.73829
# Velocity P-wave (km/s) = 5.28755 6.18471 5.75364
#
# Compressibility (1/GPa) = 0.03311453
#
# Stress axis : x y z
#
# Youngs Moduli (GPa) = 100.14937 54.26676 66.35437
#
# Poissons Ratio (x) = 0.40466 0.35002
# Poissons Ratio (y) = 0.74680 -0.50081
# Poissons Ratio (z) = 0.52828 -0.40958
#
# Static dielectric constant tensor:
#      x y z
#    x 2.237620 0.000000 0.000000 
#    y 0.000000 2.236540 0.000000 
#    z 0.000000 0.000000 2.067930 
# 
# From -- ./inp_files/2376.got.cif
#   From: 2010.05.17/outbox.cif.g08.bks.cpg/sg19_2_cif.got.tgz:2376.got - 2010.06.03 22:46:19.
