data_PCOD9315697
_publ_section_title
;
Structure prediction by ZEFSAII (Michael W. Deem and Ramdas Pophale) SiO2 
 PCOD9315697
Probable space group: P 21 21 21
;
_chemical_formula_sum "Si O2"
_cell_formula_units_Z 32
_cell_length_a 13.881013
_cell_length_b 7.924719
_cell_length_c 12.357316
_cell_angle_alpha 90.000000
_cell_angle_beta 90.000000
_cell_angle_gamma 90.000000
_cell_volume 1359.343407
_symmetry_space_group_name_H-M "P 21 21 21"
_symmetry_group_IT_number 19
_symmetry_cell_setting 'orthorhombic'
loop_
_space_group_symop_operation_xyz
x,y,z
1/2-x,-y,1/2+z
1/2+x,1/2-y,-z
-x,1/2+y,1/2-z
loop_
_atom_site_type_symbol
_atom_site_label
_atom_site_fract_x
_atom_site_fract_y
_atom_site_fract_z
Si Si1 0.657979 0.181637 0.167039
Si Si2 0.043255 0.629414 0.110876
Si Si3 0.127256 0.142750 0.230080
Si Si4 0.746382 0.635867 0.464721
Si Si5 0.209242 0.377571 0.377536
Si Si6 0.243303 0.255769 0.604368
Si Si7 0.021474 0.805673 0.524917
Si Si8 0.996083 0.959990 0.102258
O O1 0.680886 0.244620 0.287067
O O2 0.547736 0.178925 0.128519
O O3 0.702507 0.993375 0.155047
O O4 0.715286 0.297688 0.079713
O O5 0.156240 0.646351 0.125724
O O6 0.976676 0.680340 0.214089
O O7 0.007353 0.456358 0.058429
O O8 0.012606 0.788716 0.035303
O O9 0.184192 0.218326 0.127238
O O10 0.201251 0.191514 0.324611
O O11 0.088929 0.966796 0.182569
O O12 0.751351 0.434620 0.443010
O O13 0.634797 0.684345 0.452182
O O14 0.200484 0.362745 0.505472
O O15 0.108679 0.463207 0.341755
O O16 0.999350 0.627301 0.468554
#
# Coordination Sequence:
#
# PCOD9315697 Si02
#       8
#     4   4   4   4   4   4   4   4
#     4  12  27  47  76 111 157 206 258 323 394 483
#     4  11  25  44  79 112 147 202 266 324 385 459
#     4  11  25  43  77 115 143 205 260 324 377 454
#     4  12  27  49  77 114 156 206 262 326 399 469
#     4  11  26  47  75 110 158 195 262 334 395 456
#     4  12  27  49  75 116 158 206 264 329 401 467
#     4  12  26  49  76 109 159 204 257 318 406 468
#     4  11  23  44  75 111 146 194 265 324 375 466
#
# _framework density 23.540776000000001
#
# number of rings (size 3 to 8) (size 9 to 14) (size 15 to 20)
#    0.000    0.500    5.000    2.250   10.500    0.000 
#    4.500    0.000    0.000    0.000    0.000    0.000 
#    0.000    0.000    0.000    0.000    0.000    0.000 
#
# Total GULP energy -178376.609869 kJ/mol
# GULP energy per Si atom -5574.269058 kJ/mol
# Density = 2.348720 g / cm^3
# Si number density = 23.540776 Si / 1000 Ang^3
#
#
#
# Elastic Constant Matrix: (Units=GPa)
#
#
# Indices 1 2 3 4 5 6 
#
# 1 102.9693 15.8461 16.1025 0.0000 0.0000 0.0000
# 2 15.8461 102.5489 23.9099 0.0000 0.0000 0.0000
# 3 16.1025 23.9099 109.4980 0.0000 0.0000 0.0000
# 4 0.0000 0.0000 0.0000 23.1953 0.0000 0.0000
# 5 0.0000 0.0000 0.0000 0.0000 31.7342 0.0000
# 6 0.0000 0.0000 0.0000 0.0000 0.0000 19.8882
#
#
#
# Elastic Compliance Matrix: (Units=1/GPa)
#
#
# Indices 1 2 3 4 5 6 
#
# 1 0.010097 -0.001279 -0.001206 0.000000 0.000000 0.000000
# 2 -0.001279 0.010437 -0.002091 0.000000 0.000000 0.000000
# 3 -0.001206 -0.002091 0.009766 0.000000 0.000000 0.000000
# 4 0.000000 0.000000 0.000000 0.043112 0.000000 0.000000
# 5 0.000000 0.000000 0.000000 0.000000 0.031512 0.000000
# 6 0.000000 0.000000 0.000000 0.000000 0.000000 0.050281
#
#
# Mechanical properties :
#
#
# Convention : Reuss Voigt Hill
#
# Bulk Modulus (GPa) = 47.28346 47.41480 47.34913
# Shear Modulus (GPa) = 29.17058 32.24073 30.70565
#
# Velocity S-wave (km/s) = 3.52398 3.70478 3.61551
# Velocity P-wave (km/s) = 6.05700 6.20370 6.13079
#
# Compressibility (1/GPa) = 0.02114904
#
# Stress axis : x y z
#
# Youngs Moduli (GPa) = 99.03926 95.81681 102.39172
#
# Poissons Ratio (x) = 0.12256 0.12344
# Poissons Ratio (y) = 0.12668 0.21408
# Poissons Ratio (z) = 0.11940 0.20034
#
# Static dielectric constant tensor:
#      x y z
#    x 1.910810 0.000000 0.000000 
#    y 0.000000 2.051820 0.000000 
#    z 0.000000 0.000000 1.973980 
# 
# From -- ./inp_files/5293.got.cif
#   From: 2010.05.17/outbox.cif.g08.bks.cpg/sg19_3_cif.got.tgz:5293.got - 2010.06.03 22:46:19.
