data_PCOD9315418
_publ_section_title
;
Structure prediction by ZEFSAII (Michael W. Deem and Ramdas Pophale) SiO2 
 PCOD9315418
Probable space group: P 21 21 21
;
_chemical_formula_sum "Si O2"
_cell_formula_units_Z 28
_cell_length_a 15.562045
_cell_length_b 9.614171
_cell_length_c 7.118705
_cell_angle_alpha 90.000000
_cell_angle_beta 90.000000
_cell_angle_gamma 90.000000
_cell_volume 1065.073319
_symmetry_space_group_name_H-M "P 21 21 21"
_symmetry_group_IT_number 19
_symmetry_cell_setting 'orthorhombic'
loop_
_space_group_symop_operation_xyz
x,y,z
1/2-x,-y,1/2+z
1/2+x,1/2-y,-z
-x,1/2+y,1/2-z
loop_
_atom_site_type_symbol
_atom_site_label
_atom_site_fract_x
_atom_site_fract_y
_atom_site_fract_z
Si Si1 0.179169 0.297827 0.877963
Si Si2 0.919111 0.464371 0.367746
Si Si3 0.331655 0.151024 0.966403
Si Si4 0.079272 0.289384 0.221032
Si Si5 0.579765 0.431493 0.289174
Si Si6 0.781425 0.939679 0.040005
Si Si7 0.118600 0.613858 0.756729
O O1 0.133075 0.211233 0.718775
O O2 0.259248 0.405168 0.879687
O O3 0.230625 0.174529 0.992850
O O4 0.101110 0.344294 0.010857
O O5 0.933489 0.623943 0.295396
O O6 0.912526 0.483517 0.592054
O O7 0.001203 0.371125 0.312688
O O8 0.845767 0.378036 0.255916
O O9 0.377938 0.267142 0.097220
O O10 0.373893 0.015744 0.051573
O O11 0.162681 0.342817 0.329703
O O12 0.479157 0.403086 0.315670
O O13 0.685412 0.873350 0.067894
O O14 0.840993 0.981173 0.860375
#
# Coordination Sequence:
#
# PCOD9315418 Si02
#       7
#     4   4   4   4   4   4   4
#     4  10  25  45  68 104 150 191 245 310 360 451
#     4  11  26  45  77 103 153 188 246 314 374 437
#     4  11  25  46  70 106 147 195 244 312 366 439
#     4  11  23  47  70 108 139 196 243 302 374 444
#     4  11  26  44  71 107 147 187 253 304 371 449
#     4  11  22  45  70  97 146 190 236 305 370 435
#     4  11  25  46  70 109 144 193 261 305 369 463
#
# _framework density 26.289268
#
# number of rings (size 3 to 8) (size 9 to 14) (size 15 to 20)
#    0.000    1.143    4.286    1.714   10.000    2.286 
#    5.143    0.000    0.000    0.000    0.000    0.000 
#    0.000    0.000    0.000    0.000    0.000    0.000 
#
# Total GULP energy -156190.445766 kJ/mol
# GULP energy per Si atom -5578.230206 kJ/mol
# Density = 2.622943 g / cm^3
# Si number density = 26.289268 Si / 1000 Ang^3
#
#
#
# Elastic Constant Matrix: (Units=GPa)
#
#
# Indices 1 2 3 4 5 6 
#
# 1 97.7825 9.8084 -0.0617 0.0000 0.0000 0.0000
# 2 9.8084 40.1211 9.9605 0.0000 0.0000 0.0000
# 3 -0.0617 9.9605 33.0094 0.0000 0.0000 0.0000
# 4 0.0000 0.0000 0.0000 64.4756 0.0000 0.0000
# 5 0.0000 0.0000 0.0000 0.0000 19.8395 0.0000
# 6 0.0000 0.0000 0.0000 0.0000 0.0000 -27.8476
#
#
#
# Elastic Compliance Matrix: (Units=1/GPa)
#
#
# Indices 1 2 3 4 5 6 
#
# 1 0.010506 -0.002782 0.000859 0.000000 0.000000 0.000000
# 2 -0.002782 0.027679 -0.008357 0.000000 0.000000 0.000000
# 3 0.000859 -0.008357 0.032818 0.000000 0.000000 0.000000
# 4 0.000000 0.000000 0.000000 0.015510 0.000000 0.000000
# 5 0.000000 0.000000 0.000000 0.000000 0.050404 0.000000
# 6 0.000000 0.000000 0.000000 0.000000 0.000000 -0.035910
#
#
# Mechanical properties :
#
#
# Convention : Reuss Voigt Hill
#
# Bulk Modulus (GPa) = 19.82421 23.36970 21.59696
# Shear Modulus (GPa) = 36.13171 21.37390 28.75280
#
# Velocity S-wave (km/s) = 3.71130 2.85446 3.31071
# Velocity P-wave (km/s) = 5.09138 4.44664 4.77990
#
# Compressibility (1/GPa) = 0.05044336
#
# Stress axis : x y z
#
# Youngs Moduli (GPa) = 95.18049 36.12797 30.47130
#
# Poissons Ratio (x) = 0.10050 -0.02618
# Poissons Ratio (y) = 0.26477 0.25466
# Poissons Ratio (z) = -0.08176 0.30193
#
# Static dielectric constant tensor:
#      x y z
#    x 1.951760 0.000000 0.000000 
#    y 0.000000 2.781760 0.000000 
#    z 0.000000 0.000000 2.459110 
# 
# From -- ./inp_files/4135.got.cif
#   From: 2010.05.17/outbox.cif.g08.bks.cpg/sg19_3_cif.got.tgz:4135.got - 2010.06.03 22:46:19.
