data_PCOD9315452
_publ_section_title
;
Structure prediction by ZEFSAII (Michael W. Deem and Ramdas Pophale) SiO2 
 PCOD9315452
Probable space group: P 21 21 21
;
_chemical_formula_sum "Si O2"
_cell_formula_units_Z 28
_cell_length_a 11.139081
_cell_length_b 11.695391
_cell_length_c 9.068474
_cell_angle_alpha 90.000000
_cell_angle_beta 90.000000
_cell_angle_gamma 90.000000
_cell_volume 1181.403682
_symmetry_space_group_name_H-M "P 21 21 21"
_symmetry_group_IT_number 19
_symmetry_cell_setting 'orthorhombic'
loop_
_space_group_symop_operation_xyz
x,y,z
1/2-x,-y,1/2+z
1/2+x,1/2-y,-z
-x,1/2+y,1/2-z
loop_
_atom_site_type_symbol
_atom_site_label
_atom_site_fract_x
_atom_site_fract_y
_atom_site_fract_z
Si Si1 0.536845 0.642168 0.646287
Si Si2 0.303403 0.589849 0.503390
Si Si3 0.025848 0.236261 0.424456
Si Si4 0.032216 0.494771 0.521160
Si Si5 0.670089 0.715916 0.389599
Si Si6 0.845404 0.564583 0.265487
Si Si7 0.069658 0.588683 0.810957
O O1 0.404102 0.584284 0.634805
O O2 0.553404 0.728549 0.781780
O O3 0.553748 0.701279 0.489643
O O4 0.637364 0.546311 0.666745
O O5 0.171733 0.533357 0.519550
O O6 0.269382 0.723493 0.505640
O O7 0.358039 0.522932 0.365411
O O8 0.983668 0.143422 0.541569
O O9 0.037492 0.357732 0.505222
O O10 0.133624 0.175311 0.337587
O O11 0.987447 0.542805 0.677961
O O12 0.949157 0.544527 0.389869
O O13 0.720452 0.594835 0.339408
O O14 0.644032 0.805757 0.259869
#
# Coordination Sequence:
#
# PCOD9315452 Si02
#       7
#     4   4   4   4   4   4   4
#     4  11  25  45  71 102 135 191 227 286 346 421
#     4  11  23  43  71  97 140 174 238 279 342 406
#     4  11  22  43  71  99 140 182 230 281 356 407
#     4  10  26  41  69 105 138 180 233 289 339 415
#     4  11  26  45  70 100 144 181 231 288 350 411
#     4  11  23  46  69  96 148 182 230 283 357 415
#     4  11  25  41  69 105 133 182 233 288 334 417
#
# _framework density 23.700617999999999
#
# number of rings (size 3 to 8) (size 9 to 14) (size 15 to 20)
#    0.000    1.143    2.857    2.571    8.000    4.571 
#    0.000    2.857    0.000    0.000    0.000    0.000 
#    0.000    0.000    0.000    0.000    0.000    0.000 
#
# Total GULP energy -156114.613994 kJ/mol
# GULP energy per Si atom -5575.521928 kJ/mol
# Density = 2.364667 g / cm^3
# Si number density = 23.700618 Si / 1000 Ang^3
#
#
#
# Elastic Constant Matrix: (Units=GPa)
#
#
# Indices 1 2 3 4 5 6 
#
# 1 45.2298 7.4639 44.0625 0.0000 0.0000 0.0000
# 2 7.4639 65.2746 33.4223 0.0000 0.0000 0.0000
# 3 44.0625 33.4223 118.6542 0.0000 0.0000 0.0000
# 4 0.0000 0.0000 0.0000 60.6563 0.0000 0.0000
# 5 0.0000 0.0000 0.0000 0.0000 26.3423 0.0000
# 6 0.0000 0.0000 0.0000 0.0000 0.0000 27.3792
#
#
#
# Elastic Compliance Matrix: (Units=1/GPa)
#
#
# Indices 1 2 3 4 5 6 
#
# 1 0.035176 0.003116 -0.013940 0.000000 0.000000 0.000000
# 2 0.003116 0.018178 -0.006277 0.000000 0.000000 0.000000
# 3 -0.013940 -0.006277 0.015373 0.000000 0.000000 0.000000
# 4 0.000000 0.000000 0.000000 0.016486 0.000000 0.000000
# 5 0.000000 0.000000 0.000000 0.000000 0.037962 0.000000
# 6 0.000000 0.000000 0.000000 0.000000 0.000000 0.036524
#
#
# Mechanical properties :
#
#
# Convention : Reuss Voigt Hill
#
# Bulk Modulus (GPa) = 28.96672 44.33954 36.65313
# Shear Modulus (GPa) = 24.34163 32.48953 28.41558
#
# Velocity S-wave (km/s) = 3.20823 3.70649 3.46633
# Velocity P-wave (km/s) = 5.09629 6.08820 5.61419
#
# Compressibility (1/GPa) = 0.03452237
#
# Stress axis : x y z
#
# Youngs Moduli (GPa) = 28.42883 55.01233 65.05038
#
# Poissons Ratio (x) = -0.17139 0.90681
# Poissons Ratio (y) = -0.08857 0.40834
# Poissons Ratio (z) = 0.39630 0.34532
#
# Static dielectric constant tensor:
#      x y z
#    x 1.965960 0.000000 0.000000 
#    y 0.000000 1.913710 0.000000 
#    z 0.000000 0.000000 1.976950 
# 
# From -- ./inp_files/3467.got.cif
#   From: 2010.05.17/outbox.cif.g08.bks.cpg/sg19_2_cif.got.tgz:3467.got - 2010.06.03 22:46:19.
