data_PCOD9315080
_publ_section_title
;
Structure prediction by ZEFSAII (Michael W. Deem and Ramdas Pophale) SiO2 
 PCOD9315080
Probable space group: P 21 21 21
;
_chemical_formula_sum "Si O2"
_cell_formula_units_Z 24
_cell_length_a 10.669478
_cell_length_b 6.044576
_cell_length_c 13.027955
_cell_angle_alpha 90.000000
_cell_angle_beta 90.000000
_cell_angle_gamma 90.000000
_cell_volume 840.205005
_symmetry_space_group_name_H-M "P 21 21 21"
_symmetry_group_IT_number 19
_symmetry_cell_setting 'orthorhombic'
loop_
_space_group_symop_operation_xyz
x,y,z
1/2-x,-y,1/2+z
1/2+x,1/2-y,-z
-x,1/2+y,1/2-z
loop_
_atom_site_type_symbol
_atom_site_label
_atom_site_fract_x
_atom_site_fract_y
_atom_site_fract_z
Si Si1 0.636924 0.070386 0.266712
Si Si2 0.250275 0.601175 0.552363
Si Si3 0.352699 0.071797 0.284903
Si Si4 0.584958 0.461571 0.983975
Si Si5 0.483914 0.353158 0.654287
Si Si6 0.882625 0.252068 0.121592
O O1 0.693684 0.317450 0.244241
O O2 0.643382 0.035175 0.389745
O O3 0.492564 0.075973 0.231858
O O4 0.693702 0.824979 0.237472
O O5 0.288427 0.860047 0.568140
O O6 0.367949 0.479250 0.602545
O O7 0.230999 0.614308 0.429197
O O8 0.377603 0.052405 0.406632
O O9 0.519097 0.634079 0.910302
O O10 0.479671 0.269690 0.976051
O O11 0.613920 0.483598 0.640772
O O12 0.448592 0.325374 0.773238
#
# Coordination Sequence:
#
# PCOD9315080 Si02
#       6
#     4   4   4   4   4   4
#     4  10  23  43  67 100 144 188 237 315 381 448
#     4  11  27  42  73 107 146 190 266 308 386 456
#     4  10  23  42  70  98 141 190 244 307 384 446
#     4  11  25  44  70 108 139 202 248 308 384 462
#     4  11  26  46  75 105 152 201 255 310 401 461
#     4  11  24  49  71 106 150 199 248 324 378 479
#
# _framework density 28.564456
#
# number of rings (size 3 to 8) (size 9 to 14) (size 15 to 20)
#    0.000    1.333    3.333    0.000    9.333    2.667 
#    0.000    0.000    0.000    0.000    0.000    0.000 
#    0.000    0.000    0.000    0.000    0.000    0.000 
#
# Total GULP energy -133696.810842 kJ/mol
# GULP energy per Si atom -5570.700452 kJ/mol
# Density = 2.849944 g / cm^3
# Si number density = 28.564456 Si / 1000 Ang^3
#
#
#
# Elastic Constant Matrix: (Units=GPa)
#
#
# Indices 1 2 3 4 5 6 
#
# 1 37.5142 31.1234 -2.0250 0.0000 0.0000 0.0000
# 2 31.1234 197.6258 85.6946 0.0000 0.0000 0.0000
# 3 -2.0250 85.6946 132.8195 0.0000 0.0000 0.0000
# 4 0.0000 0.0000 0.0000 21.3361 0.0000 0.0000
# 5 0.0000 0.0000 0.0000 0.0000 41.1572 0.0000
# 6 0.0000 0.0000 0.0000 0.0000 0.0000 63.2830
#
#
#
# Elastic Compliance Matrix: (Units=1/GPa)
#
#
# Indices 1 2 3 4 5 6 
#
# 1 0.033229 -0.007571 0.005391 0.000000 0.000000 0.000000
# 2 -0.007571 0.008751 -0.005761 0.000000 0.000000 0.000000
# 3 0.005391 -0.005761 0.011328 0.000000 0.000000 0.000000
# 4 0.000000 0.000000 0.000000 0.046869 0.000000 0.000000
# 5 0.000000 0.000000 0.000000 0.000000 0.024297 0.000000
# 6 0.000000 0.000000 0.000000 0.000000 0.000000 0.015802
#
#
# Mechanical properties :
#
#
# Convention : Reuss Voigt Hill
#
# Bulk Modulus (GPa) = 26.71943 66.39393 46.55668
# Shear Modulus (GPa) = 29.65027 42.03302 35.84165
#
# Velocity S-wave (km/s) = 3.22532 3.84019 3.54611
# Velocity P-wave (km/s) = 4.82127 6.55414 5.75332
#
# Compressibility (1/GPa) = 0.03742594
#
# Stress axis : x y z
#
# Youngs Moduli (GPa) = 30.09454 114.27835 88.27410
#
# Poissons Ratio (x) = 0.86518 -0.47591
# Poissons Ratio (y) = 0.22784 0.50857
# Poissons Ratio (z) = -0.16225 0.65839
#
# Static dielectric constant tensor:
#      x y z
#    x 2.687290 0.000000 0.000000 
#    y 0.000000 2.409560 0.000000 
#    z 0.000000 0.000000 2.228560 
# 
# From -- ./inp_files/5156.got.cif
#   From: 2010.05.17/outbox.cif.g08.bks.cpg/sg19_3_cif.got.tgz:5156.got - 2010.06.03 22:46:19.
