data_PCOD9315043
_publ_section_title
;
Structure prediction by ZEFSAII (Michael W. Deem and Ramdas Pophale) SiO2 
 PCOD9315043
Probable space group: P 21 21 21
;
_chemical_formula_sum "Si O2"
_cell_formula_units_Z 24
_cell_length_a 7.699104
_cell_length_b 7.108734
_cell_length_c 18.223457
_cell_angle_alpha 90.000000
_cell_angle_beta 90.000000
_cell_angle_gamma 90.000000
_cell_volume 997.385882
_symmetry_space_group_name_H-M "P 21 21 21"
_symmetry_group_IT_number 19
_symmetry_cell_setting 'orthorhombic'
loop_
_space_group_symop_operation_xyz
x,y,z
1/2-x,-y,1/2+z
1/2+x,1/2-y,-z
-x,1/2+y,1/2-z
loop_
_atom_site_type_symbol
_atom_site_label
_atom_site_fract_x
_atom_site_fract_y
_atom_site_fract_z
Si Si1 0.599051 0.777581 0.200916
Si Si2 0.100866 0.861338 0.159829
Si Si3 0.399134 0.861338 0.340171
Si Si4 0.252868 0.508930 0.413262
Si Si5 0.247132 0.508930 0.086738
Si Si6 0.099051 0.277581 0.200916
O O1 0.447201 0.772325 0.260623
O O2 0.662616 0.571884 0.177121
O O3 0.750000 0.870065 0.250000
O O4 0.590371 0.901233 0.128306
O O5 0.925054 0.905879 0.112616
O O6 0.162615 0.071884 0.177121
O O7 0.052800 0.772326 0.239377
O O8 0.226176 0.721528 0.116336
O O9 0.273825 0.721528 0.383665
O O10 0.574946 0.905879 0.387384
O O11 0.266874 0.500000 0.500000
O O12 0.090371 0.401234 0.128306
#
# Coordination Sequence:
#
# PCOD9315043 Si02
#       6
#     4   4   4   4   4   4
#     4  10  23  41  70 103 135 192 241 298 351 435
#     4  11  24  45  71 101 141 187 247 291 363 429
#     4  11  24  45  71 101 141 187 247 291 363 429
#     4  11  27  44  67 106 146 188 238 303 367 427
#     4  11  27  44  67 106 146 188 238 303 367 427
#     4  10  23  41  70 103 135 192 241 298 351 435
#
# _framework density 24.062902999999999
#
# number of rings (size 3 to 8) (size 9 to 14) (size 15 to 20)
#    0.000    1.333    3.333    0.000    9.333    0.000 
#    0.000    0.000    0.000    0.000    0.000    0.000 
#    0.000    0.000    0.000    0.000    0.000    0.000 
#
# Total GULP energy -134135.769460 kJ/mol
# GULP energy per Si atom -5588.990394 kJ/mol
# Density = 2.400813 g / cm^3
# Si number density = 24.062903 Si / 1000 Ang^3
#
#
#
# Elastic Constant Matrix: (Units=GPa)
#
#
# Indices 1 2 3 4 5 6 
#
# 1 89.6159 23.4642 43.2741 0.0000 0.0000 0.0000
# 2 23.4642 150.6442 63.3735 0.0000 0.0000 0.0000
# 3 43.2741 63.3735 229.6770 0.0000 0.0000 0.0000
# 4 0.0000 0.0000 0.0000 30.3981 0.0000 0.0000
# 5 0.0000 0.0000 0.0000 0.0000 19.7267 0.0000
# 6 0.0000 0.0000 0.0000 0.0000 0.0000 31.2122
#
#
#
# Elastic Compliance Matrix: (Units=1/GPa)
#
#
# Indices 1 2 3 4 5 6 
#
# 1 0.012428 -0.001076 -0.002045 0.000000 0.000000 0.000000
# 2 -0.001076 0.007603 -0.001895 0.000000 0.000000 0.000000
# 3 -0.002045 -0.001895 0.005262 0.000000 0.000000 0.000000
# 4 0.000000 0.000000 0.000000 0.032897 0.000000 0.000000
# 5 0.000000 0.000000 0.000000 0.000000 0.050693 0.000000
# 6 0.000000 0.000000 0.000000 0.000000 0.000000 0.032039
#
#
# Mechanical properties :
#
#
# Convention : Reuss Voigt Hill
#
# Bulk Modulus (GPa) = 65.52300 81.12896 73.32598
# Shear Modulus (GPa) = 32.04318 38.92242 35.48280
#
# Velocity S-wave (km/s) = 3.65313 4.02621 3.84420
# Velocity P-wave (km/s) = 6.71437 7.44328 7.08820
#
# Compressibility (1/GPa) = 0.01526182
#
# Stress axis : x y z
#
# Youngs Moduli (GPa) = 80.46518 131.52776 190.03687
#
# Poissons Ratio (x) = 0.14146 0.38858
# Poissons Ratio (y) = 0.08654 0.36016
# Poissons Ratio (z) = 0.16453 0.24927
#
# Static dielectric constant tensor:
#      x y z
#    x 2.059970 0.000000 0.000000 
#    y 0.000000 1.938040 0.000000 
#    z 0.000000 0.000000 1.886440 
# 
# From -- ./inp_files/6057.got.cif
#   From: 2010.05.17/outbox.cif.g08.bks.cpg/sg19_4_cif.got.tgz:6057.got - 2010.06.03 22:46:19.
