data_PCOD9315408
_publ_section_title
;
Structure prediction by ZEFSAII (Michael W. Deem and Ramdas Pophale) SiO2 
 PCOD9315408
Probable space group: P 21 21 21
;
_chemical_formula_sum "Si O2"
_cell_formula_units_Z 24
_cell_length_a 11.311243
_cell_length_b 4.584340
_cell_length_c 17.584662
_cell_angle_alpha 90.000000
_cell_angle_beta 90.000000
_cell_angle_gamma 90.000000
_cell_volume 911.845328
_symmetry_space_group_name_H-M "P 21 21 21"
_symmetry_group_IT_number 19
_symmetry_cell_setting 'orthorhombic'
loop_
_space_group_symop_operation_xyz
x,y,z
1/2-x,-y,1/2+z
1/2+x,1/2-y,-z
-x,1/2+y,1/2-z
loop_
_atom_site_type_symbol
_atom_site_label
_atom_site_fract_x
_atom_site_fract_y
_atom_site_fract_z
Si Si1 0.633562 0.496221 0.983459
Si Si2 0.165254 0.741916 0.313285
Si Si3 0.957958 0.178167 0.801492
Si Si4 0.374643 0.500426 0.410789
Si Si5 0.523267 0.256312 0.632607
Si Si6 0.731488 0.804894 0.846825
O O1 0.647626 0.167962 0.009667
O O2 0.628258 0.670728 0.062457
O O3 0.509374 0.575432 0.942780
O O4 0.731934 0.603876 0.922294
O O5 0.271746 0.572152 0.352292
O O6 0.061846 0.496835 0.308751
O O7 0.210187 0.864178 0.232824
O O8 0.122655 0.002139 0.366598
O O9 0.837838 0.023172 0.829750
O O10 0.960841 0.413524 0.732023
O O11 0.010236 0.366115 0.871001
O O12 0.401307 0.432974 0.646124
#
# Coordination Sequence:
#
# PCOD9315408 Si02
#       6
#     4   4   4   4   4   4
#     4  10  26  45  69 108 145 188 236 292 373 424
#     4  12  23  44  76 104 139 185 248 299 352 428
#     4  12  27  47  75 105 143 192 244 298 351 432
#     4  12  25  46  72 107 145 191 241 291 359 437
#     4  10  25  43  72 103 142 181 237 296 368 418
#     4  10  26  47  74 105 144 187 242 296 365 423
#
# _framework density 26.320252
#
# number of rings (size 3 to 8) (size 9 to 14) (size 15 to 20)
#    1.000    0.000    1.667    4.000    2.333    8.000 
#    0.000    0.000    0.000    0.000    0.000    0.000 
#    0.000    0.000    0.000    0.000    0.000    0.000 
#
# Total GULP energy -134096.302615 kJ/mol
# GULP energy per Si atom -5587.345942 kJ/mol
# Density = 2.626035 g / cm^3
# Si number density = 26.320252 Si / 1000 Ang^3
#
#
#
# Elastic Constant Matrix: (Units=GPa)
#
#
# Indices 1 2 3 4 5 6 
#
# 1 106.3620 21.2218 17.7700 0.0000 0.0000 0.0000
# 2 21.2218 81.3424 2.8378 0.0000 0.0000 0.0000
# 3 17.7700 2.8378 124.3983 0.0000 0.0000 0.0000
# 4 0.0000 0.0000 0.0000 41.2865 0.0000 0.0000
# 5 0.0000 0.0000 0.0000 0.0000 38.8287 0.0000
# 6 0.0000 0.0000 0.0000 0.0000 0.0000 33.0579
#
#
#
# Elastic Compliance Matrix: (Units=1/GPa)
#
#
# Indices 1 2 3 4 5 6 
#
# 1 0.010153 -0.002600 -0.001391 0.000000 0.000000 0.000000
# 2 -0.002600 0.012969 0.000076 0.000000 0.000000 0.000000
# 3 -0.001391 0.000076 0.008236 0.000000 0.000000 0.000000
# 4 0.000000 0.000000 0.000000 0.024221 0.000000 0.000000
# 5 0.000000 0.000000 0.000000 0.000000 0.025754 0.000000
# 6 0.000000 0.000000 0.000000 0.000000 0.000000 0.030250
#
#
# Mechanical properties :
#
#
# Convention : Reuss Voigt Hill
#
# Bulk Modulus (GPa) = 42.50495 43.97356 43.23925
# Shear Modulus (GPa) = 39.29053 40.65284 39.97169
#
# Velocity S-wave (km/s) = 3.86785 3.93433 3.90123
# Velocity P-wave (km/s) = 6.01093 6.11409 6.06273
#
# Compressibility (1/GPa) = 0.02352667
#
# Stress axis : x y z
#
# Youngs Moduli (GPa) = 98.49218 77.10405 121.42296
#
# Poissons Ratio (x) = 0.20050 0.16890
# Poissons Ratio (y) = 0.25611 -0.00918
# Poissons Ratio (z) = 0.13701 -0.00583
#
# Static dielectric constant tensor:
#      x y z
#    x 2.090130 0.000000 0.000000 
#    y 0.000000 2.027850 0.000000 
#    z 0.000000 0.000000 2.082330 
# 
# From -- ./inp_files/6689.got.cif
#   From: 2010.05.17/outbox.cif.g08.bks.cpg/sg19_4_cif.got.tgz:6689.got - 2010.06.03 22:46:19.
