data_PCOD9315253
_publ_section_title
;
Structure prediction by ZEFSAII (Michael W. Deem and Ramdas Pophale) SiO2 
 PCOD9315253
Probable space group: P 21 21 21
;
_chemical_formula_sum "Si O2"
_cell_formula_units_Z 20
_cell_length_a 21.822597
_cell_length_b 8.005018
_cell_length_c 4.939314
_cell_angle_alpha 90.000000
_cell_angle_beta 90.000000
_cell_angle_gamma 90.000000
_cell_volume 862.850155
_symmetry_space_group_name_H-M "P 21 21 21"
_symmetry_group_IT_number 19
_symmetry_cell_setting 'orthorhombic'
loop_
_space_group_symop_operation_xyz
x,y,z
1/2-x,-y,1/2+z
1/2+x,1/2-y,-z
-x,1/2+y,1/2-z
loop_
_atom_site_type_symbol
_atom_site_label
_atom_site_fract_x
_atom_site_fract_y
_atom_site_fract_z
Si Si1 0.911048 0.413462 0.640063
Si Si2 0.401063 0.421774 0.635219
Si Si3 0.784802 0.557613 0.851429
Si Si4 0.281256 0.567632 0.365201
Si Si5 0.526707 0.896318 0.363549
O O1 0.891160 0.278668 0.409812
O O2 0.851404 0.483660 0.785340
O O3 0.952543 0.295473 0.833718
O O4 0.958151 0.558251 0.551240
O O5 0.342450 0.514104 0.520220
O O6 0.457503 0.458461 0.435996
O O7 0.423629 0.470663 0.929629
O O8 0.764354 0.537699 0.160744
O O9 0.783032 0.748561 0.756601
O O10 0.230914 0.549874 0.604197
#
# Coordination Sequence:
#
# PCOD9315253 Si02
#       5
#     4   4   4   4   4
#     4  10  26  43  72  97 147 176 241 283 352 418
#     4  10  24  41  67  97 136 177 234 283 342 418
#     4  12  28  46  73 105 141 187 236 295 355 419
#     4  12  25  45  70 101 141 189 237 289 354 421
#     4  10  25  41  68  98 137 179 230 286 349 402
#
# _framework density 23.178996000000001
#
# number of rings (size 3 to 8) (size 9 to 14) (size 15 to 20)
#    1.200    0.000    0.000    4.800   11.200    0.000 
#    0.000    0.000    0.000    0.000    0.000    0.000 
#    0.000    0.000    0.000    0.000    0.000    0.000 
#
# Total GULP energy -111667.794355 kJ/mol
# GULP energy per Si atom -5583.389718 kJ/mol
# Density = 2.312624 g / cm^3
# Si number density = 23.178996 Si / 1000 Ang^3
#
#
#
# Elastic Constant Matrix: (Units=GPa)
#
#
# Indices 1 2 3 4 5 6 
#
# 1 76.3638 22.4584 -33.9890 0.0000 0.0000 0.0000
# 2 22.4584 75.3655 -4.1695 0.0000 0.0000 0.0000
# 3 -33.9890 -4.1695 45.3863 0.0000 0.0000 0.0000
# 4 0.0000 0.0000 0.0000 -29.2687 0.0000 0.0000
# 5 0.0000 0.0000 0.0000 0.0000 8.1899 0.0000
# 6 0.0000 0.0000 0.0000 0.0000 0.0000 40.2031
#
#
#
# Elastic Compliance Matrix: (Units=1/GPa)
#
#
# Indices 1 2 3 4 5 6 
#
# 1 0.021775 -0.005615 0.015791 0.000000 0.000000 0.000000
# 2 -0.005615 0.014784 -0.002847 0.000000 0.000000 0.000000
# 3 0.015791 -0.002847 0.033597 0.000000 0.000000 0.000000
# 4 0.000000 0.000000 0.000000 -0.034166 0.000000 0.000000
# 5 0.000000 0.000000 0.000000 0.000000 0.122102 0.000000
# 6 0.000000 0.000000 0.000000 0.000000 0.000000 0.024874
#
#
# Mechanical properties :
#
#
# Convention : Reuss Voigt Hill
#
# Bulk Modulus (GPa) = 11.79037 18.41282 15.10159
# Shear Modulus (GPa) = 25.43500 18.01257 21.72379
#
# Velocity S-wave (km/s) = 3.31619 2.79069 3.06472
# Velocity P-wave (km/s) = 4.44528 4.28310 4.36494
#
# Compressibility (1/GPa) = 0.08481497
#
# Stress axis : x y z
#
# Youngs Moduli (GPa) = 45.92385 67.63854 29.76433
#
# Poissons Ratio (x) = 0.37981 -0.47001
# Poissons Ratio (y) = 0.25787 0.08474
# Poissons Ratio (z) = -0.72519 0.19256
#
# Static dielectric constant tensor:
#      x y z
#    x 1.904800 0.000000 0.000000 
#    y 0.000000 1.968350 0.000000 
#    z 0.000000 0.000000 1.865020 
# 
# From -- ./inp_files/447.got.cif
#   From: 2010.05.17/outbox.cif.g08.bks.cpg/sg19_1_cif.got.tgz:447.got - 2010.06.03 22:46:19.
