data_PCOD9315947
_publ_section_title
;
Structure prediction by ZEFSAII (Michael W. Deem and Ramdas Pophale) SiO2 
 PCOD9315947
Probable space group: P 21 21 21
;
_chemical_formula_sum "Si O2"
_cell_formula_units_Z 24
_cell_length_a 7.516007
_cell_length_b 8.820011
_cell_length_c 14.000492
_cell_angle_alpha 90.000000
_cell_angle_beta 90.000000
_cell_angle_gamma 90.000000
_cell_volume 928.110317
_symmetry_space_group_name_H-M "P 21 21 21"
_symmetry_group_IT_number 19
_symmetry_cell_setting 'orthorhombic'
loop_
_space_group_symop_operation_xyz
x,y,z
1/2-x,-y,1/2+z
1/2+x,1/2-y,-z
-x,1/2+y,1/2-z
loop_
_atom_site_type_symbol
_atom_site_label
_atom_site_fract_x
_atom_site_fract_y
_atom_site_fract_z
Si Si1 0.353162 0.559259 0.073820
Si Si2 0.003909 0.107995 0.534557
Si Si3 0.673994 0.395064 0.989588
Si Si4 0.768266 0.303551 0.194283
Si Si5 0.120040 0.138261 0.230260
Si Si6 0.893480 0.118589 0.731799
O O1 0.453993 0.718099 0.057975
O O2 0.359061 0.488417 0.178666
O O3 0.151003 0.581362 0.041009
O O4 0.473225 0.446143 0.010571
O O5 0.934517 0.034867 0.633243
O O6 0.189050 0.034499 0.505991
O O7 0.681491 0.340306 0.880585
O O8 0.738280 0.298376 0.080329
O O9 0.839309 0.471161 0.229148
O O10 0.574752 0.294536 0.240749
O O11 0.914454 0.185044 0.229444
O O12 0.234450 0.263647 0.285988
#
# Coordination Sequence:
#
# PCOD9315947 Si02
#       6
#     4   4   4   4   4   4
#     4  11  26  47  74 112 148 201 255 318 381 460
#     4  12  24  46  77 106 153 198 255 319 378 459
#     4  11  26  47  72 112 146 205 249 313 387 455
#     4  11  28  50  81 110 156 198 263 312 393 456
#     4  12  28  50  76 115 150 204 256 321 382 464
#     4  11  26  48  74 109 151 200 252 311 387 454
#
# _framework density 25.858995
#
# number of rings (size 3 to 8) (size 9 to 14) (size 15 to 20)
#    0.000    0.667    3.333    3.000    7.000    5.333 
#    0.000    0.000    0.000    0.000    0.000    0.000 
#    0.000    0.000    0.000    0.000    0.000    0.000 
#
# Total GULP energy -134653.199325 kJ/mol
# GULP energy per Si atom -5610.549972 kJ/mol
# Density = 2.580014 g / cm^3
# Si number density = 25.858995 Si / 1000 Ang^3
#
#
#
# Elastic Constant Matrix: (Units=GPa)
#
#
# Indices 1 2 3 4 5 6 
#
# 1 140.3223 34.9130 15.9449 0.0000 0.0000 0.0000
# 2 34.9130 76.3952 16.1360 0.0000 0.0000 0.0000
# 3 15.9449 16.1360 111.5064 0.0000 0.0000 0.0000
# 4 0.0000 0.0000 0.0000 27.0542 0.0000 0.0000
# 5 0.0000 0.0000 0.0000 0.0000 29.6018 0.0000
# 6 0.0000 0.0000 0.0000 0.0000 0.0000 23.6659
#
#
#
# Elastic Compliance Matrix: (Units=1/GPa)
#
#
# Indices 1 2 3 4 5 6 
#
# 1 0.008085 -0.003559 -0.000641 0.000000 0.000000 0.000000
# 2 -0.003559 0.015070 -0.001672 0.000000 0.000000 0.000000
# 3 -0.000641 -0.001672 0.009302 0.000000 0.000000 0.000000
# 4 0.000000 0.000000 0.000000 0.036963 0.000000 0.000000
# 5 0.000000 0.000000 0.000000 0.000000 0.033782 0.000000
# 6 0.000000 0.000000 0.000000 0.000000 0.000000 0.042255
#
#
# Mechanical properties :
#
#
# Convention : Reuss Voigt Hill
#
# Bulk Modulus (GPa) = 48.28165 51.35685 49.81925
# Shear Modulus (GPa) = 30.46848 33.47971 31.97410
#
# Velocity S-wave (km/s) = 3.43630 3.60210 3.52017
# Velocity P-wave (km/s) = 5.86991 6.09948 5.98579
#
# Compressibility (1/GPa) = 0.02071180
#
# Stress axis : x y z
#
# Youngs Moduli (GPa) = 123.68734 66.35872 107.50761
#
# Poissons Ratio (x) = 0.23620 0.06891
# Poissons Ratio (y) = 0.44026 0.17972
# Poissons Ratio (z) = 0.07929 0.11093
#
# Static dielectric constant tensor:
#      x y z
#    x 1.951290 0.000000 0.000000 
#    y 0.000000 2.035980 0.000000 
#    z 0.000000 0.000000 2.029080 
# 
# From -- ./inp_files/5835.got.cif
#   From: 2010.05.17/outbox.cif.g08.bks.cpg/sg19_3_cif.got.tgz:5835.got - 2010.06.03 22:46:19.
