data_PCOD9315912
_publ_section_title
;
Structure prediction by ZEFSAII (Michael W. Deem and Ramdas Pophale) SiO2 
 PCOD9315912
Probable space group: P 21 21 21
;
_chemical_formula_sum "Si O2"
_cell_formula_units_Z 20
_cell_length_a 9.147324
_cell_length_b 9.195650
_cell_length_c 8.882512
_cell_angle_alpha 90.000000
_cell_angle_beta 90.000000
_cell_angle_gamma 90.000000
_cell_volume 747.157737
_symmetry_space_group_name_H-M "P 21 21 21"
_symmetry_group_IT_number 19
_symmetry_cell_setting 'orthorhombic'
loop_
_space_group_symop_operation_xyz
x,y,z
1/2-x,-y,1/2+z
1/2+x,1/2-y,-z
-x,1/2+y,1/2-z
loop_
_atom_site_type_symbol
_atom_site_label
_atom_site_fract_x
_atom_site_fract_y
_atom_site_fract_z
Si Si1 0.422494 0.896679 0.245810
Si Si2 0.283239 0.352617 0.092798
Si Si3 0.924308 0.692131 0.195982
Si Si4 0.241307 0.684182 0.074089
Si Si5 0.335342 0.072523 0.945741
O O1 0.590451 0.879250 0.284221
O O2 0.356236 0.739533 0.199739
O O3 0.332519 0.948111 0.391924
O O4 0.384115 0.002513 0.105443
O O5 0.144699 0.265356 0.158010
O O6 0.240532 0.512979 0.043046
O O7 0.350893 0.245265 0.968219
O O8 0.082208 0.732554 0.130467
O O9 0.804101 0.739006 0.072382
O O10 0.919926 0.516137 0.185235
#
# Coordination Sequence:
#
# PCOD9315912 Si02
#       5
#     4   4   4   4   4
#     4  11  26  48  78 111 152 204 249 327 384 460
#     4  12  27  47  80 108 151 202 263 307 393 462
#     4  11  26  49  68 117 152 200 249 326 372 465
#     4  11  28  45  78 104 158 197 258 313 386 459
#     4  11  25  47  78 106 155 197 253 317 381 450
#
# _framework density 26.76811
#
# number of rings (size 3 to 8) (size 9 to 14) (size 15 to 20)
#    0.000    0.800    2.000    3.600   14.000    0.000 
#    0.000    0.000    0.000    0.000    0.000    0.000 
#    0.000    0.000    0.000    0.000    0.000    0.000 
#
# Total GULP energy -111980.110307 kJ/mol
# GULP energy per Si atom -5599.005515 kJ/mol
# Density = 2.670718 g / cm^3
# Si number density = 26.768110 Si / 1000 Ang^3
#
#
#
# Elastic Constant Matrix: (Units=GPa)
#
#
# Indices 1 2 3 4 5 6 
#
# 1 131.5737 8.2339 13.2537 0.0000 0.0000 0.0000
# 2 8.2339 173.4661 25.6873 0.0000 0.0000 0.0000
# 3 13.2537 25.6873 61.2362 0.0000 0.0000 0.0000
# 4 0.0000 0.0000 0.0000 36.0051 0.0000 0.0000
# 5 0.0000 0.0000 0.0000 0.0000 45.5822 0.0000
# 6 0.0000 0.0000 0.0000 0.0000 0.0000 36.4892
#
#
#
# Elastic Compliance Matrix: (Units=1/GPa)
#
#
# Indices 1 2 3 4 5 6 
#
# 1 0.007772 -0.000128 -0.001629 0.000000 0.000000 0.000000
# 2 -0.000128 0.006149 -0.002552 0.000000 0.000000 0.000000
# 3 -0.001629 -0.002552 0.017753 0.000000 0.000000 0.000000
# 4 0.000000 0.000000 0.000000 0.027774 0.000000 0.000000
# 5 0.000000 0.000000 0.000000 0.000000 0.021938 0.000000
# 6 0.000000 0.000000 0.000000 0.000000 0.000000 0.027405
#
#
# Mechanical properties :
#
#
# Convention : Reuss Voigt Hill
#
# Bulk Modulus (GPa) = 43.36859 51.18062 47.27461
# Shear Modulus (GPa) = 39.97002 44.88871 42.42936
#
# Velocity S-wave (km/s) = 3.86838 4.09950 3.98561
# Velocity P-wave (km/s) = 6.01575 6.44743 6.23533
#
# Compressibility (1/GPa) = 0.02305816
#
# Stress axis : x y z
#
# Youngs Moduli (GPa) = 128.66115 162.63529 56.32834
#
# Poissons Ratio (x) = 0.02078 0.09174
# Poissons Ratio (y) = 0.01644 0.14373
# Poissons Ratio (z) = 0.20954 0.41498
#
# Static dielectric constant tensor:
#      x y z
#    x 2.070850 0.000000 0.000000 
#    y 0.000000 2.166110 0.000000 
#    z 0.000000 0.000000 2.144650 
# 
# From -- ./inp_files/2565.got.cif
#   From: 2010.05.17/outbox.cif.g08.bks.cpg/sg19_2_cif.got.tgz:2565.got - 2010.06.03 22:46:19.
