data_PCOD9315426
_publ_section_title
;
Structure prediction by ZEFSAII (Michael W. Deem and Ramdas Pophale) SiO2 
 PCOD9315426
Probable space group: P 21 21 21
;
_chemical_formula_sum "Si O2"
_cell_formula_units_Z 32
_cell_length_a 18.389377
_cell_length_b 5.328224
_cell_length_c 12.534235
_cell_angle_alpha 90.000000
_cell_angle_beta 90.000000
_cell_angle_gamma 90.000000
_cell_volume 1228.138437
_symmetry_space_group_name_H-M "P 21 21 21"
_symmetry_group_IT_number 19
_symmetry_cell_setting 'orthorhombic'
loop_
_space_group_symop_operation_xyz
x,y,z
1/2-x,-y,1/2+z
1/2+x,1/2-y,-z
-x,1/2+y,1/2-z
loop_
_atom_site_type_symbol
_atom_site_label
_atom_site_fract_x
_atom_site_fract_y
_atom_site_fract_z
Si Si1 0.389058 0.766677 0.710881
Si Si2 0.385834 0.023028 0.289638
Si Si3 0.607090 0.237465 0.556081
Si Si4 0.911747 0.838013 0.524999
Si Si5 0.758329 0.935395 0.562139
Si Si6 0.194223 0.948281 0.595151
Si Si7 0.020757 0.213756 0.626793
Si Si8 0.292905 0.268262 0.716505
O O1 0.427717 0.756103 0.826804
O O2 0.426658 0.743581 0.596187
O O3 0.337868 0.521019 0.707285
O O4 0.345439 0.027250 0.719426
O O5 0.457595 0.188331 0.297770
O O6 0.384456 0.899029 0.405391
O O7 0.326064 0.154760 0.214217
O O8 0.410139 0.813008 0.203703
O O9 0.630895 0.490183 0.491059
O O10 0.550281 0.120502 0.472128
O O11 0.685735 0.105990 0.569427
O O12 0.841445 0.025708 0.543713
O O13 0.981697 0.973486 0.573364
O O14 0.744758 0.744309 0.465848
O O15 0.753420 0.787741 0.675005
O O16 0.238932 0.200884 0.620831
#
# Coordination Sequence:
#
# PCOD9315426 Si02
#       8
#     4   4   4   4   4   4   4   4
#     4  11  25  45  70 106 148 192 250 306 377 454
#     4  11  25  43  71 101 144 193 255 303 383 447
#     4  10  25  46  70 103 144 198 251 309 383 459
#     4  12  25  44  70 108 147 193 252 320 378 455
#     4  11  23  41  72 108 148 198 244 321 387 452
#     4  11  22  39  71 107 145 195 240 312 380 449
#     4  11  26  47  69 103 144 200 252 310 375 468
#     4  11  23  43  67 110 154 191 244 305 381 448
#
# _framework density 26.055695
#
# number of rings (size 3 to 8) (size 9 to 14) (size 15 to 20)
#    0.000    1.000    5.000    0.750    3.500    3.000 
#    2.250    0.000    0.000    0.000    0.000    0.000 
#    0.000    0.000    0.000    0.000    0.000    0.000 
#
# Total GULP energy -178656.474389 kJ/mol
# GULP energy per Si atom -5583.014825 kJ/mol
# Density = 2.599639 g / cm^3
# Si number density = 26.055695 Si / 1000 Ang^3
#
#
#
# Elastic Constant Matrix: (Units=GPa)
#
#
# Indices 1 2 3 4 5 6 
#
# 1 63.5862 15.0593 0.7349 0.0000 0.0000 0.0000
# 2 15.0593 68.6722 18.4418 0.0000 0.0000 0.0000
# 3 0.7349 18.4418 176.9863 0.0000 0.0000 0.0000
# 4 0.0000 0.0000 0.0000 23.0628 0.0000 0.0000
# 5 0.0000 0.0000 0.0000 0.0000 49.2430 0.0000
# 6 0.0000 0.0000 0.0000 0.0000 0.0000 22.8689
#
#
#
# Elastic Compliance Matrix: (Units=1/GPa)
#
#
# Indices 1 2 3 4 5 6 
#
# 1 0.016606 -0.003727 0.000319 0.000000 0.000000 0.000000
# 2 -0.003727 0.015818 -0.001633 0.000000 0.000000 0.000000
# 3 0.000319 -0.001633 0.005819 0.000000 0.000000 0.000000
# 4 0.000000 0.000000 0.000000 0.043360 0.000000 0.000000
# 5 0.000000 0.000000 0.000000 0.000000 0.020307 0.000000
# 6 0.000000 0.000000 0.000000 0.000000 0.000000 0.043728
#
#
# Mechanical properties :
#
#
# Convention : Reuss Voigt Hill
#
# Bulk Modulus (GPa) = 35.50974 41.96853 38.73914
# Shear Modulus (GPa) = 30.28364 37.36885 33.82624
#
# Velocity S-wave (km/s) = 3.41290 3.79118 3.60700
# Velocity P-wave (km/s) = 5.40264 5.94191 5.67868
#
# Compressibility (1/GPa) = 0.02816128
#
# Stress axis : x y z
#
# Youngs Moduli (GPa) = 60.22012 63.22004 171.85210
#
# Poissons Ratio (x) = 0.23564 -0.05489
# Poissons Ratio (y) = 0.22446 0.28059
# Poissons Ratio (z) = -0.01924 0.10322
#
# Static dielectric constant tensor:
#      x y z
#    x 2.196260 0.000000 0.000000 
#    y 0.000000 2.126720 0.000000 
#    z 0.000000 0.000000 2.102160 
# 
# From -- ./inp_files/5509.got.cif
#   From: 2010.05.17/outbox.cif.g08.bks.cpg/sg19_3_cif.got.tgz:5509.got - 2010.06.03 22:46:19.
