data_PCOD9315609
_publ_section_title
;
Structure prediction by ZEFSAII (Michael W. Deem and Ramdas Pophale) SiO2 
 PCOD9315609
Probable space group: P 21 21 21
;
_chemical_formula_sum "Si O2"
_cell_formula_units_Z 20
_cell_length_a 6.343901
_cell_length_b 23.089120
_cell_length_c 5.331728
_cell_angle_alpha 90.000000
_cell_angle_beta 90.000000
_cell_angle_gamma 90.000000
_cell_volume 780.965346
_symmetry_space_group_name_H-M "P 21 21 21"
_symmetry_group_IT_number 19
_symmetry_cell_setting 'orthorhombic'
loop_
_space_group_symop_operation_xyz
x,y,z
1/2-x,-y,1/2+z
1/2+x,1/2-y,-z
-x,1/2+y,1/2-z
loop_
_atom_site_type_symbol
_atom_site_label
_atom_site_fract_x
_atom_site_fract_y
_atom_site_fract_z
Si Si1 0.901602 0.998269 0.942949
Si Si2 0.428887 0.336927 0.636054
Si Si3 0.797488 0.686297 0.515304
Si Si4 0.231073 0.082519 0.662296
Si Si5 0.458402 0.718037 0.141633
O O1 0.081165 0.043910 0.843606
O O2 0.750647 0.988005 0.690510
O O3 0.068378 0.949424 0.042356
O O4 0.475455 0.337513 0.931178
O O5 0.561225 0.389458 0.527635
O O6 0.187757 0.334278 0.557610
O O7 0.491795 0.271905 0.536873
O O8 0.691383 0.639723 0.690820
O O9 0.662625 0.692235 0.267252
O O10 0.837005 0.747936 0.636060
#
# Coordination Sequence:
#
# PCOD9315609 Si02
#       5
#     4   4   4   4   4
#     4  12  30  58  90 118 166 224 280 368 432 494
#     4  11  24  43  74 110 159 209 258 331 400 498
#     4  11  24  43  74 110 159 209 258 331 400 498
#     4  11  30  54  78 120 160 208 288 349 416 506
#     4  11  22  44  68 108 156 206 254 315 400 486
#
# _framework density 25.609328999999999
#
# number of rings (size 3 to 8) (size 9 to 14) (size 15 to 20)
#    0.000    0.800    4.000    1.200    8.400    3.200 
#    0.000    0.000    0.000    0.000    0.000    0.000 
#    0.000    0.000    0.000    0.000    0.000    0.000 
#
# Total GULP energy -111529.546346 kJ/mol
# GULP energy per Si atom -5576.477317 kJ/mol
# Density = 2.555104 g / cm^3
# Si number density = 25.609329 Si / 1000 Ang^3
#
#
#
# Elastic Constant Matrix: (Units=GPa)
#
#
# Indices 1 2 3 4 5 6 
#
# 1 124.2374 37.3699 48.9106 0.0000 0.0000 0.0000
# 2 37.3699 88.5482 19.0991 0.0000 0.0000 0.0000
# 3 48.9106 19.0991 96.0751 0.0000 0.0000 0.0000
# 4 0.0000 0.0000 0.0000 49.7220 0.0000 0.0000
# 5 0.0000 0.0000 0.0000 0.0000 59.8249 0.0000
# 6 0.0000 0.0000 0.0000 0.0000 0.0000 52.3390
#
#
#
# Elastic Compliance Matrix: (Units=1/GPa)
#
#
# Indices 1 2 3 4 5 6 
#
# 1 0.011072 -0.003612 -0.004919 0.000000 0.000000 0.000000
# 2 -0.003612 0.012977 -0.000741 0.000000 0.000000 0.000000
# 3 -0.004919 -0.000741 0.013060 0.000000 0.000000 0.000000
# 4 0.000000 0.000000 0.000000 0.020112 0.000000 0.000000
# 5 0.000000 0.000000 0.000000 0.000000 0.016715 0.000000
# 6 0.000000 0.000000 0.000000 0.000000 0.000000 0.019106
#
#
# Mechanical properties :
#
#
# Convention : Reuss Voigt Hill
#
# Bulk Modulus (GPa) = 53.86123 57.73556 55.79839
# Shear Modulus (GPa) = 42.45411 45.94258 44.19834
#
# Velocity S-wave (km/s) = 4.07598 4.24013 4.15886
# Velocity P-wave (km/s) = 6.57488 6.82388 6.70053
#
# Compressibility (1/GPa) = 0.01856623
#
# Stress axis : x y z
#
# Youngs Moduli (GPa) = 90.31887 77.05701 76.57069
#
# Poissons Ratio (x) = 0.27831 0.37662
# Poissons Ratio (y) = 0.32621 0.05675
# Poissons Ratio (z) = 0.44424 0.05711
#
# Static dielectric constant tensor:
#      x y z
#    x 2.146710 0.000000 0.000000 
#    y 0.000000 1.980780 0.000000 
#    z 0.000000 0.000000 2.076450 
# 
# From -- ./inp_files/154.got.cif
#   From: 2010.05.17/outbox.cif.g08.bks.cpg/sg19_1_cif.got.tgz:154.got - 2010.06.03 22:46:19.
