data_PCOD9315720
_publ_section_title
;
Structure prediction by ZEFSAII (Michael W. Deem and Ramdas Pophale) SiO2 
 PCOD9315720
Probable space group: P 21 21 21
;
_chemical_formula_sum "Si O2"
_cell_formula_units_Z 24
_cell_length_a 14.027985
_cell_length_b 8.873936
_cell_length_c 8.700437
_cell_angle_alpha 90.000000
_cell_angle_beta 90.000000
_cell_angle_gamma 90.000000
_cell_volume 1083.060337
_symmetry_space_group_name_H-M "P 21 21 21"
_symmetry_group_IT_number 19
_symmetry_cell_setting 'orthorhombic'
loop_
_space_group_symop_operation_xyz
x,y,z
1/2-x,-y,1/2+z
1/2+x,1/2-y,-z
-x,1/2+y,1/2-z
loop_
_atom_site_type_symbol
_atom_site_label
_atom_site_fract_x
_atom_site_fract_y
_atom_site_fract_z
Si Si1 0.189882 0.485973 0.910314
Si Si2 0.686604 0.331154 0.248695
Si Si3 0.867254 0.950913 0.243187
Si Si4 0.845113 0.432021 0.484505
Si Si5 0.988242 0.164411 0.583085
Si Si6 0.033717 0.138442 0.241092
O O1 0.209500 0.321275 0.843384
O O2 0.280228 0.587027 0.866949
O O3 0.090396 0.551304 0.847693
O O4 0.177724 0.482849 0.091986
O O5 0.759316 0.356785 0.388990
O O6 0.578372 0.312949 0.309254
O O7 0.689428 0.472279 0.131351
O O8 0.939079 0.812560 0.263156
O O9 0.928316 0.092757 0.185199
O O10 0.925181 0.311050 0.537747
O O11 0.893881 0.547093 0.364088
O O12 0.029349 0.098848 0.422139
#
# Coordination Sequence:
#
# PCOD9315720 Si02
#       6
#     4   4   4   4   4   4
#     4  11  26  45  70 106 141 193 239 298 368 425
#     4  12  26  47  70 106 147 189 243 305 360 441
#     4  11  25  46  71 104 147 190 245 297 368 433
#     4  12  26  45  74 106 144 195 241 300 370 430
#     4  11  26  45  72 103 143 189 248 302 361 428
#     4  11  23  46  71 103 144 194 240 298 365 435
#
# _framework density 22.15943
#
# number of rings (size 3 to 8) (size 9 to 14) (size 15 to 20)
#    0.000    0.667    3.333    4.000    7.000    1.333 
#    0.000    0.000    0.000    0.000    0.000    0.000 
#    0.000    0.000    0.000    0.000    0.000    0.000 
#
# Total GULP energy -134266.781636 kJ/mol
# GULP energy per Si atom -5594.449235 kJ/mol
# Density = 2.210899 g / cm^3
# Si number density = 22.159430 Si / 1000 Ang^3
#
#
#
# Elastic Constant Matrix: (Units=GPa)
#
#
# Indices 1 2 3 4 5 6 
#
# 1 121.8141 50.3273 54.7424 0.0000 0.0000 0.0000
# 2 50.3273 99.8166 50.7765 0.0000 0.0000 0.0000
# 3 54.7424 50.7765 64.8238 0.0000 0.0000 0.0000
# 4 0.0000 0.0000 0.0000 35.0459 0.0000 0.0000
# 5 0.0000 0.0000 0.0000 0.0000 50.9225 0.0000
# 6 0.0000 0.0000 0.0000 0.0000 0.0000 29.5503
#
#
#
# Elastic Compliance Matrix: (Units=1/GPa)
#
#
# Indices 1 2 3 4 5 6 
#
# 1 0.013394 -0.001661 -0.010009 0.000000 0.000000 0.000000
# 2 -0.001661 0.016861 -0.011804 0.000000 0.000000 0.000000
# 3 -0.010009 -0.011804 0.033125 0.000000 0.000000 0.000000
# 4 0.000000 0.000000 0.000000 0.028534 0.000000 0.000000
# 5 0.000000 0.000000 0.000000 0.000000 0.019638 0.000000
# 6 0.000000 0.000000 0.000000 0.000000 0.000000 0.033841
#
#
# Mechanical properties :
#
#
# Convention : Reuss Voigt Hill
#
# Bulk Modulus (GPa) = 60.86369 66.46078 63.66224
# Shear Modulus (GPa) = 25.27569 31.81095 28.54332
#
# Velocity S-wave (km/s) = 3.38098 3.79297 3.59289
# Velocity P-wave (km/s) = 6.53967 7.01708 6.78258
#
# Compressibility (1/GPa) = 0.01643016
#
# Stress axis : x y z
#
# Youngs Moduli (GPa) = 74.66148 59.30949 30.18839
#
# Poissons Ratio (x) = 0.09853 0.30217
# Poissons Ratio (y) = 0.12404 0.35634
# Poissons Ratio (z) = 0.74732 0.70009
#
# Static dielectric constant tensor:
#      x y z
#    x 1.818340 0.000000 0.000000 
#    y 0.000000 1.852410 0.000000 
#    z 0.000000 0.000000 1.797580 
# 
# From -- ./inp_files/3842.got.cif
#   From: 2010.05.17/outbox.cif.g08.bks.cpg/sg19_2_cif.got.tgz:3842.got - 2010.06.03 22:46:19.
