data_PCOD9315498
_publ_section_title
;
Structure prediction by ZEFSAII (Michael W. Deem and Ramdas Pophale) SiO2 
 PCOD9315498
Probable space group: P 21 21 21
;
_chemical_formula_sum "Si O2"
_cell_formula_units_Z 28
_cell_length_a 20.572906
_cell_length_b 5.748595
_cell_length_c 10.680249
_cell_angle_alpha 90.000000
_cell_angle_beta 90.000000
_cell_angle_gamma 90.000000
_cell_volume 1263.102901
_symmetry_space_group_name_H-M "P 21 21 21"
_symmetry_group_IT_number 19
_symmetry_cell_setting 'orthorhombic'
loop_
_space_group_symop_operation_xyz
x,y,z
1/2-x,-y,1/2+z
1/2+x,1/2-y,-z
-x,1/2+y,1/2-z
loop_
_atom_site_type_symbol
_atom_site_label
_atom_site_fract_x
_atom_site_fract_y
_atom_site_fract_z
Si Si1 0.657014 0.054740 0.172422
Si Si2 0.524279 0.251988 0.196776
Si Si3 0.904679 0.264938 0.480714
Si Si4 0.257232 0.786828 0.749709
Si Si5 0.496823 0.382561 0.918759
Si Si6 0.099524 0.410708 0.239999
Si Si7 0.786071 0.577563 0.509773
O O1 0.602961 0.238418 0.215812
O O2 0.701988 0.166746 0.064580
O O3 0.707909 0.930713 0.262087
O O4 0.611247 0.859283 0.110053
O O5 0.502754 0.511173 0.242289
O O6 0.503962 0.242963 0.048885
O O7 0.975241 0.364527 0.456546
O O8 0.857387 0.484115 0.476060
O O9 0.887583 0.089348 0.371760
O O10 0.332310 0.713820 0.763447
O O11 0.248587 0.927832 0.620683
O O12 0.239854 0.926335 0.875267
O O13 0.428028 0.438377 0.855818
O O14 0.542679 0.260107 0.813581
#
# Coordination Sequence:
#
# PCOD9315498 Si02
#       7
#     4   4   4   4   4   4   4
#     4  11  24  45  75 100 145 203 247 292 390 464
#     4  12  27  49  75 108 156 207 250 307 377 470
#     4  11  19  42  73  98 139 187 243 294 379 458
#     4  11  26  45  74 111 144 197 248 316 380 460
#     4  12  24  43  77 108 138 194 250 313 380 443
#     4  12  24  44  75 109 140 179 255 324 370 435
#     4  11  24  46  75  98 146 193 245 302 382 462
#
# _framework density 22.167629000000002
#
# number of rings (size 3 to 8) (size 9 to 14) (size 15 to 20)
#    0.000    0.571    7.143    0.857    4.000    0.000 
#    5.143    1.429    0.000    0.000    0.000    0.000 
#    0.000    0.000    0.000    0.000    0.000    0.000 
#
# Total GULP energy -156290.964902 kJ/mol
# GULP energy per Si atom -5581.820175 kJ/mol
# Density = 2.211717 g / cm^3
# Si number density = 22.167629 Si / 1000 Ang^3
#
#
#
# Elastic Constant Matrix: (Units=GPa)
#
#
# Indices 1 2 3 4 5 6 
#
# 1 72.1092 26.5891 61.5231 0.0000 0.0000 0.0000
# 2 26.5891 69.2365 31.4589 0.0000 0.0000 0.0000
# 3 61.5231 31.4589 98.8074 0.0000 0.0000 0.0000
# 4 0.0000 0.0000 0.0000 42.6839 0.0000 0.0000
# 5 0.0000 0.0000 0.0000 0.0000 32.6855 0.0000
# 6 0.0000 0.0000 0.0000 0.0000 0.0000 34.8599
#
#
#
# Elastic Compliance Matrix: (Units=1/GPa)
#
#
# Indices 1 2 3 4 5 6 
#
# 1 0.030327 -0.003585 -0.017742 0.000000 0.000000 0.000000
# 2 -0.003585 0.017310 -0.003279 0.000000 0.000000 0.000000
# 3 -0.017742 -0.003279 0.022212 0.000000 0.000000 0.000000
# 4 0.000000 0.000000 0.000000 0.023428 0.000000 0.000000
# 5 0.000000 0.000000 0.000000 0.000000 0.030595 0.000000
# 6 0.000000 0.000000 0.000000 0.000000 0.000000 0.028686
#
#
# Mechanical properties :
#
#
# Convention : Reuss Voigt Hill
#
# Bulk Modulus (GPa) = 48.45717 53.25504 50.85611
# Shear Modulus (GPa) = 23.96372 30.08464 27.02418
#
# Velocity S-wave (km/s) = 3.29146 3.68794 3.49532
# Velocity P-wave (km/s) = 6.02925 6.49696 6.26747
#
# Compressibility (1/GPa) = 0.02063678
#
# Stress axis : x y z
#
# Youngs Moduli (GPa) = 32.97378 57.77031 45.02121
#
# Poissons Ratio (x) = 0.20712 0.79876
# Poissons Ratio (y) = 0.11822 0.14762
# Poissons Ratio (z) = 0.58502 0.18942
#
# Static dielectric constant tensor:
#      x y z
#    x 1.814010 0.000000 0.000000 
#    y 0.000000 1.857920 0.000000 
#    z 0.000000 0.000000 1.845080 
# 
# From -- ./inp_files/5349.got.cif
#   From: 2010.05.17/outbox.cif.g08.bks.cpg/sg19_3_cif.got.tgz:5349.got - 2010.06.03 22:46:19.
