data_PCOD9315009
_publ_section_title
;
Structure prediction by ZEFSAII (Michael W. Deem and Ramdas Pophale) SiO2 
 PCOD9315009
Probable space group: P 21 21 21
;
_chemical_formula_sum "Si O2"
_cell_formula_units_Z 24
_cell_length_a 11.318203
_cell_length_b 9.008858
_cell_length_c 11.026354
_cell_angle_alpha 90.000000
_cell_angle_beta 90.000000
_cell_angle_gamma 90.000000
_cell_volume 1124.292082
_symmetry_space_group_name_H-M "P 21 21 21"
_symmetry_group_IT_number 19
_symmetry_cell_setting 'orthorhombic'
loop_
_space_group_symop_operation_xyz
x,y,z
1/2-x,-y,1/2+z
1/2+x,1/2-y,-z
-x,1/2+y,1/2-z
loop_
_atom_site_type_symbol
_atom_site_label
_atom_site_fract_x
_atom_site_fract_y
_atom_site_fract_z
Si Si1 0.023175 0.040480 0.345422
Si Si2 0.391954 0.398248 0.218131
Si Si3 0.947560 0.406748 0.898461
Si Si4 0.748138 0.450298 0.260546
Si Si5 0.742605 0.291571 0.600642
Si Si6 0.731809 0.851215 0.846047
O O1 0.101700 0.181537 0.391567
O O2 0.893537 0.084383 0.305679
O O3 0.017080 0.933530 0.462834
O O4 0.110069 0.970971 0.244810
O O5 0.476378 0.486831 0.310276
O O6 0.450186 0.263175 0.144771
O O7 0.290413 0.322253 0.300055
O O8 0.327138 0.520457 0.137046
O O9 0.815286 0.470672 0.873643
O O10 0.707773 0.548307 0.144952
O O11 0.722231 0.276850 0.256343
O O12 0.784485 0.235029 0.472074
#
# Coordination Sequence:
#
# PCOD9315009 Si02
#       6
#     4   4   4   4   4   4
#     4  10  23  40  67  94 136 170 218 279 334 399
#     4  11  25  39  68  96 129 176 228 273 336 397
#     4  11  21  44  63  94 131 175 221 273 328 406
#     4   9  21  38  67  90 128 174 215 271 332 387
#     4   9  22  41  62  98 128 172 226 266 329 403
#     4  12  22  42  69  98 136 175 222 282 337 398
#
# _framework density 21.346765000000001
#
# number of rings (size 3 to 8) (size 9 to 14) (size 15 to 20)
#    1.000    0.667    3.333    1.000    2.333    1.333 
#    3.000    0.000   14.667    0.000    0.000    0.000 
#    0.000    0.000    0.000    0.000    0.000    0.000 
#
# Total GULP energy -133782.169137 kJ/mol
# GULP energy per Si atom -5574.257047 kJ/mol
# Density = 2.129818 g / cm^3
# Si number density = 21.346765 Si / 1000 Ang^3
#
#
#
# Elastic Constant Matrix: (Units=GPa)
#
#
# Indices 1 2 3 4 5 6 
#
# 1 41.2972 31.1706 3.2483 0.0000 0.0000 0.0000
# 2 31.1706 147.1541 27.6939 0.0000 0.0000 0.0000
# 3 3.2483 27.6939 34.9592 0.0000 0.0000 0.0000
# 4 0.0000 0.0000 0.0000 22.2703 0.0000 0.0000
# 5 0.0000 0.0000 0.0000 0.0000 24.7730 0.0000
# 6 0.0000 0.0000 0.0000 0.0000 0.0000 35.4997
#
#
#
# Elastic Compliance Matrix: (Units=1/GPa)
#
#
# Indices 1 2 3 4 5 6 
#
# 1 0.029016 -0.006627 0.002553 0.000000 0.000000 0.000000
# 2 -0.006627 0.009500 -0.006910 0.000000 0.000000 0.000000
# 3 0.002553 -0.006910 0.033841 0.000000 0.000000 0.000000
# 4 0.000000 0.000000 0.000000 0.044903 0.000000 0.000000
# 5 0.000000 0.000000 0.000000 0.000000 0.040367 0.000000
# 6 0.000000 0.000000 0.000000 0.000000 0.000000 0.028169
#
#
# Mechanical properties :
#
#
# Convention : Reuss Voigt Hill
#
# Bulk Modulus (GPa) = 19.84493 38.62622 29.23557
# Shear Modulus (GPa) = 22.26597 27.26179 24.76388
#
# Velocity S-wave (km/s) = 3.23315 3.57752 3.40968
# Velocity P-wave (km/s) = 4.82227 5.93286 5.40616
#
# Compressibility (1/GPa) = 0.05039071
#
# Stress axis : x y z
#
# Youngs Moduli (GPa) = 34.46416 105.26684 29.54973
#
# Poissons Ratio (x) = 0.69757 -0.07545
# Poissons Ratio (y) = 0.22838 0.20418
# Poissons Ratio (z) = -0.08800 0.72736
#
# Static dielectric constant tensor:
#      x y z
#    x 1.804290 0.000000 0.000000 
#    y 0.000000 1.791370 0.000000 
#    z 0.000000 0.000000 1.774250 
# 
# From -- ./inp_files/4929.got.cif
#   From: 2010.05.17/outbox.cif.g08.bks.cpg/sg19_3_cif.got.tgz:4929.got - 2010.06.03 22:46:19.
