data_PCOD9315649
_publ_section_title
;
Structure prediction by ZEFSAII (Michael W. Deem and Ramdas Pophale) SiO2 
 PCOD9315649
Probable space group: P 21 21 21
;
_chemical_formula_sum "Si O2"
_cell_formula_units_Z 32
_cell_length_a 9.130342
_cell_length_b 19.084280
_cell_length_c 7.858941
_cell_angle_alpha 90.000000
_cell_angle_beta 90.000000
_cell_angle_gamma 90.000000
_cell_volume 1369.389059
_symmetry_space_group_name_H-M "P 21 21 21"
_symmetry_group_IT_number 19
_symmetry_cell_setting 'orthorhombic'
loop_
_space_group_symop_operation_xyz
x,y,z
1/2-x,-y,1/2+z
1/2+x,1/2-y,-z
-x,1/2+y,1/2-z
loop_
_atom_site_type_symbol
_atom_site_label
_atom_site_fract_x
_atom_site_fract_y
_atom_site_fract_z
Si Si1 0.893228 0.868476 0.115687
Si Si2 0.066944 0.534290 0.385890
Si Si3 0.803374 0.865010 0.728319
Si Si4 0.526651 0.537223 0.415424
Si Si5 0.365852 0.832922 0.035331
Si Si6 0.206679 0.035237 0.323357
Si Si7 0.607989 0.750993 0.824355
Si Si8 0.911414 0.096163 0.741147
O O1 0.733873 0.861028 0.199306
O O2 0.009036 0.817568 0.206868
O O3 0.927015 0.950881 0.126590
O O4 0.878470 0.854176 0.912555
O O5 0.187119 0.571103 0.266028
O O6 0.097449 0.562803 0.573652
O O7 0.905497 0.555450 0.325655
O O8 0.702185 0.797111 0.689782
O O9 0.928715 0.893703 0.602244
O O10 0.630375 0.529252 0.578663
O O11 0.425967 0.467790 0.395839
O O12 0.634224 0.528286 0.253993
O O13 0.295231 0.902607 0.958732
O O14 0.236083 0.778489 0.055286
O O15 0.446804 0.855506 0.209111
O O16 0.495173 0.803708 0.916090
#
# Coordination Sequence:
#
# PCOD9315649 Si02
#       8
#     4   4   4   4   4   4   4   4
#     4  12  23  43  71 103 141 190 237 295 359 438
#     4  12  24  42  71 108 143 179 243 306 369 427
#     4  12  23  43  71 103 137 190 243 302 359 436
#     4  11  23  41  67 105 142 177 239 297 363 431
#     4  11  23  43  69  97 139 192 244 298 355 440
#     4  11  25  42  69 106 139 185 232 301 364 430
#     4  12  24  44  73  98 141 195 253 287 366 450
#     4  11  23  40  67 104 140 180 237 300 359 428
#
# _framework density 23.368086999999999
#
# number of rings (size 3 to 8) (size 9 to 14) (size 15 to 20)
#    0.000    0.500    6.250    2.250    5.250    0.000 
#    0.000    1.250    0.000    0.000    0.000    0.000 
#    0.000    0.000    0.000    0.000    0.000    0.000 
#
# Total GULP energy -178897.812375 kJ/mol
# GULP energy per Si atom -5590.556637 kJ/mol
# Density = 2.331490 g / cm^3
# Si number density = 23.368087 Si / 1000 Ang^3
#
#
#
# Elastic Constant Matrix: (Units=GPa)
#
#
# Indices 1 2 3 4 5 6 
#
# 1 116.6014 31.0236 28.1438 0.0000 0.0000 0.0000
# 2 31.0236 92.1067 15.2110 0.0000 0.0000 0.0000
# 3 28.1438 15.2110 61.8395 0.0000 0.0000 0.0000
# 4 0.0000 0.0000 0.0000 23.6939 0.0000 0.0000
# 5 0.0000 0.0000 0.0000 0.0000 33.8166 0.0000
# 6 0.0000 0.0000 0.0000 0.0000 0.0000 53.9825
#
#
#
# Elastic Compliance Matrix: (Units=1/GPa)
#
#
# Indices 1 2 3 4 5 6 
#
# 1 0.010286 -0.002805 -0.003991 0.000000 0.000000 0.000000
# 2 -0.002805 0.012082 -0.001695 0.000000 0.000000 0.000000
# 3 -0.003991 -0.001695 0.018404 0.000000 0.000000 0.000000
# 4 0.000000 0.000000 0.000000 0.042205 0.000000 0.000000
# 5 0.000000 0.000000 0.000000 0.000000 0.029571 0.000000
# 6 0.000000 0.000000 0.000000 0.000000 0.000000 0.018525
#
#
# Mechanical properties :
#
#
# Convention : Reuss Voigt Hill
#
# Bulk Modulus (GPa) = 42.03668 46.58937 44.31302
# Shear Modulus (GPa) = 32.05419 35.37654 33.71536
#
# Velocity S-wave (km/s) = 3.70768 3.89509 3.80254
# Velocity P-wave (km/s) = 6.02969 6.34109 6.18735
#
# Compressibility (1/GPa) = 0.02378875
#
# Stress axis : x y z
#
# Youngs Moduli (GPa) = 97.21952 82.76884 54.33518
#
# Poissons Ratio (x) = 0.23220 0.21686
# Poissons Ratio (y) = 0.27274 0.09210
# Poissons Ratio (z) = 0.38802 0.14030
#
# Static dielectric constant tensor:
#      x y z
#    x 1.904720 0.000000 0.000000 
#    y 0.000000 1.911500 0.000000 
#    z 0.000000 0.000000 1.888090 
# 
# From -- ./inp_files/3183.got.cif
#   From: 2010.05.17/outbox.cif.g08.bks.cpg/sg19_2_cif.got.tgz:3183.got - 2010.06.03 22:46:19.
