data_PCOD9315078
_publ_section_title
;
Structure prediction by ZEFSAII (Michael W. Deem and Ramdas Pophale) SiO2 
 PCOD9315078
Probable space group: P 21 21 21
;
_chemical_formula_sum "Si O2"
_cell_formula_units_Z 32
_cell_length_a 11.388920
_cell_length_b 7.876847
_cell_length_c 16.416898
_cell_angle_alpha 90.000000
_cell_angle_beta 90.000000
_cell_angle_gamma 90.000000
_cell_volume 1472.739896
_symmetry_space_group_name_H-M "P 21 21 21"
_symmetry_group_IT_number 19
_symmetry_cell_setting 'orthorhombic'
loop_
_space_group_symop_operation_xyz
x,y,z
1/2-x,-y,1/2+z
1/2+x,1/2-y,-z
-x,1/2+y,1/2-z
loop_
_atom_site_type_symbol
_atom_site_label
_atom_site_fract_x
_atom_site_fract_y
_atom_site_fract_z
Si Si1 0.178398 0.092495 0.396018
Si Si2 0.505875 0.087807 0.778658
Si Si3 0.924744 0.102598 0.011101
Si Si4 0.867770 0.468072 0.935110
Si Si5 0.457181 0.591555 0.305013
Si Si6 0.056542 0.018450 0.860353
Si Si7 0.880876 0.575685 0.355017
Si Si8 0.201807 0.472553 0.334403
O O1 0.074288 0.987504 0.351056
O O2 0.153125 0.099640 0.492256
O O3 0.309317 0.016724 0.386306
O O4 0.182114 0.275553 0.354352
O O5 0.575739 0.253376 0.809134
O O6 0.608984 0.976717 0.735701
O O7 0.415685 0.083885 0.701995
O O8 0.899300 0.292279 0.980963
O O9 0.957214 0.996098 0.930247
O O10 0.043095 0.080291 0.063277
O O11 0.825435 0.058786 0.078026
O O12 0.753613 0.432636 0.880160
O O13 0.971420 0.510994 0.873612
O O14 0.448936 0.784301 0.335049
O O15 0.523391 0.585531 0.219657
O O16 0.328772 0.513501 0.301350
#
# Coordination Sequence:
#
# PCOD9315078 Si02
#       8
#     4   4   4   4   4   4   4   4
#     4  12  23  42  70  99 137 180 227 291 346 416
#     4  11  24  41  69  99 133 175 229 283 343 410
#     4  10  23  42  70  95 134 176 224 281 341 412
#     4  11  24  44  69  97 136 184 226 285 348 417
#     4  11  26  44  67 100 135 182 231 282 349 411
#     4  11  24  44  70  96 137 181 228 281 348 409
#     4  11  22  44  68 102 134 176 232 282 343 412
#     4  11  26  43  65 102 138 174 235 289 344 417
#
# _framework density 21.728210000000001
#
# number of rings (size 3 to 8) (size 9 to 14) (size 15 to 20)
#    0.000    1.000    3.750    2.250    7.000    2.000 
#    0.000    1.250    0.000    0.000    0.000    0.000 
#    0.000    0.000    0.000    0.000    0.000    0.000 
#
# Total GULP energy -178677.310099 kJ/mol
# GULP energy per Si atom -5583.665941 kJ/mol
# Density = 2.167876 g / cm^3
# Si number density = 21.728210 Si / 1000 Ang^3
#
#
#
# Elastic Constant Matrix: (Units=GPa)
#
#
# Indices 1 2 3 4 5 6 
#
# 1 74.1008 -1.7423 40.4419 0.0000 0.0000 0.0000
# 2 -1.7423 37.7803 10.0449 0.0000 0.0000 0.0000
# 3 40.4419 10.0449 110.8412 0.0000 0.0000 0.0000
# 4 0.0000 0.0000 0.0000 28.0369 0.0000 0.0000
# 5 0.0000 0.0000 0.0000 0.0000 35.4998 0.0000
# 6 0.0000 0.0000 0.0000 0.0000 0.0000 17.4914
#
#
#
# Elastic Compliance Matrix: (Units=1/GPa)
#
#
# Indices 1 2 3 4 5 6 
#
# 1 0.017079 0.002505 -0.006458 0.000000 0.000000 0.000000
# 2 0.002505 0.027490 -0.003405 0.000000 0.000000 0.000000
# 3 -0.006458 -0.003405 0.011687 0.000000 0.000000 0.000000
# 4 0.000000 0.000000 0.000000 0.035667 0.000000 0.000000
# 5 0.000000 0.000000 0.000000 0.000000 0.028169 0.000000
# 6 0.000000 0.000000 0.000000 0.000000 0.000000 0.057171
#
#
# Mechanical properties :
#
#
# Convention : Reuss Voigt Hill
#
# Bulk Modulus (GPa) = 24.07441 35.57903 29.82672
# Shear Modulus (GPa) = 24.29233 27.80415 26.04824
#
# Velocity S-wave (km/s) = 3.34729 3.58108 3.46616
# Velocity P-wave (km/s) = 5.10323 5.78869 5.45674
#
# Compressibility (1/GPa) = 0.04153788
#
# Stress axis : x y z
#
# Youngs Moduli (GPa) = 58.55204 36.37726 85.56552
#
# Poissons Ratio (x) = -0.09112 0.55262
# Poissons Ratio (y) = -0.14666 0.29136
# Poissons Ratio (z) = 0.37815 0.12387
#
# Static dielectric constant tensor:
#      x y z
#    x 1.764590 0.000000 0.000000 
#    y 0.000000 1.842570 0.000000 
#    z 0.000000 0.000000 1.812750 
# 
# From -- ./inp_files/6106.got.cif
#   From: 2010.05.17/outbox.cif.g08.bks.cpg/sg19_4_cif.got.tgz:6106.got - 2010.06.03 22:46:19.
