data_PCOD9315901
_publ_section_title
;
Structure prediction by ZEFSAII (Michael W. Deem and Ramdas Pophale) SiO2 
 PCOD9315901
Probable space group: P 21 21 21
;
_chemical_formula_sum "Si O2"
_cell_formula_units_Z 28
_cell_length_a 11.239345
_cell_length_b 10.959875
_cell_length_c 9.060446
_cell_angle_alpha 90.000000
_cell_angle_beta 90.000000
_cell_angle_gamma 90.000000
_cell_volume 1116.082195
_symmetry_space_group_name_H-M "P 21 21 21"
_symmetry_group_IT_number 19
_symmetry_cell_setting 'orthorhombic'
loop_
_space_group_symop_operation_xyz
x,y,z
1/2-x,-y,1/2+z
1/2+x,1/2-y,-z
-x,1/2+y,1/2-z
loop_
_atom_site_type_symbol
_atom_site_label
_atom_site_fract_x
_atom_site_fract_y
_atom_site_fract_z
Si Si1 0.540132 0.979968 0.665542
Si Si2 0.886006 0.179578 0.443618
Si Si3 0.631696 0.222715 0.551013
Si Si4 0.626849 0.616529 0.354142
Si Si5 0.186113 0.008729 0.336140
Si Si6 0.362869 0.549484 0.348542
Si Si7 0.666749 0.883742 0.419674
O O1 0.545619 0.907723 0.511765
O O2 0.412945 0.030562 0.716886
O O3 0.584574 0.883432 0.787475
O O4 0.626876 0.097398 0.645303
O O5 0.749115 0.223076 0.448231
O O6 0.896247 0.071058 0.560326
O O7 0.992248 0.269738 0.495287
O O8 0.829425 0.244686 0.838602
O O9 0.650220 0.351282 0.631091
O O10 0.667398 0.569467 0.516652
O O11 0.685776 0.522519 0.238706
O O12 0.485617 0.621228 0.338574
O O13 0.267474 0.614704 0.453463
O O14 0.324962 0.498354 0.189510
#
# Coordination Sequence:
#
# PCOD9315901 Si02
#       7
#     4   4   4   4   4   4   4
#     4  11  26  47  79 106 155 212 260 320 403 474
#     4  11  25  47  78 112 154 210 265 326 395 483
#     4  11  25  46  79 109 158 203 268 324 400 473
#     4  12  30  51  80 119 165 205 274 330 407 474
#     4  11  29  49  74 116 161 204 264 334 404 467
#     4  12  27  54  76 120 154 209 273 321 404 483
#     4  12  30  50  82 112 159 209 270 327 393 484
#
# _framework density 25.087758000000001
#
# number of rings (size 3 to 8) (size 9 to 14) (size 15 to 20)
#    0.000    0.571    4.286    1.714   12.000    1.143 
#    0.000    0.000    0.000    0.000    0.000    0.000 
#    0.000    0.000    0.000    0.000    0.000    0.000 
#
# Total GULP energy -156542.568697 kJ/mol
# GULP energy per Si atom -5590.806025 kJ/mol
# Density = 2.503066 g / cm^3
# Si number density = 25.087758 Si / 1000 Ang^3
#
#
#
# Elastic Constant Matrix: (Units=GPa)
#
#
# Indices 1 2 3 4 5 6 
#
# 1 135.8195 38.6877 22.8746 0.0000 0.0000 0.0000
# 2 38.6877 66.1610 5.4305 0.0000 0.0000 0.0000
# 3 22.8746 5.4305 67.5284 0.0000 0.0000 0.0000
# 4 0.0000 0.0000 0.0000 38.7388 0.0000 0.0000
# 5 0.0000 0.0000 0.0000 0.0000 34.6418 0.0000
# 6 0.0000 0.0000 0.0000 0.0000 0.0000 38.7623
#
#
#
# Elastic Compliance Matrix: (Units=1/GPa)
#
#
# Indices 1 2 3 4 5 6 
#
# 1 0.009310 -0.005220 -0.002734 0.000000 0.000000 0.000000
# 2 -0.005220 0.018141 0.000309 0.000000 0.000000 0.000000
# 3 -0.002734 0.000309 0.015710 0.000000 0.000000 0.000000
# 4 0.000000 0.000000 0.000000 0.025814 0.000000 0.000000
# 5 0.000000 0.000000 0.000000 0.000000 0.028867 0.000000
# 6 0.000000 0.000000 0.000000 0.000000 0.000000 0.025798
#
#
# Mechanical properties :
#
#
# Convention : Reuss Voigt Hill
#
# Bulk Modulus (GPa) = 35.87758 44.83272 40.35515
# Shear Modulus (GPa) = 33.73371 35.92966 34.83169
#
# Velocity S-wave (km/s) = 3.67090 3.78849 3.73016
# Velocity P-wave (km/s) = 5.68324 6.08655 5.88835
#
# Compressibility (1/GPa) = 0.02787256
#
# Stress axis : x y z
#
# Youngs Moduli (GPa) = 107.41214 55.12241 63.65456
#
# Poissons Ratio (x) = 0.28772 0.17402
# Poissons Ratio (y) = 0.56065 -0.01968
# Poissons Ratio (z) = 0.29365 -0.01704
#
# Static dielectric constant tensor:
#      x y z
#    x 2.108200 0.000000 0.000000 
#    y 0.000000 1.932870 0.000000 
#    z 0.000000 0.000000 2.034760 
# 
# From -- ./inp_files/3552.got.cif
#   From: 2010.05.17/outbox.cif.g08.bks.cpg/sg19_2_cif.got.tgz:3552.got - 2010.06.03 22:46:19.
