data_PCOD9315971
_publ_section_title
;
Structure prediction by ZEFSAII (Michael W. Deem and Ramdas Pophale) SiO2 
 PCOD9315971
Probable space group: P 21 21 21
;
_chemical_formula_sum "Si O2"
_cell_formula_units_Z 24
_cell_length_a 11.015653
_cell_length_b 10.160242
_cell_length_c 9.420625
_cell_angle_alpha 90.000000
_cell_angle_beta 90.000000
_cell_angle_gamma 90.000000
_cell_volume 1054.372368
_symmetry_space_group_name_H-M "P 21 21 21"
_symmetry_group_IT_number 19
_symmetry_cell_setting 'orthorhombic'
loop_
_space_group_symop_operation_xyz
x,y,z
1/2-x,-y,1/2+z
1/2+x,1/2-y,-z
-x,1/2+y,1/2-z
loop_
_atom_site_type_symbol
_atom_site_label
_atom_site_fract_x
_atom_site_fract_y
_atom_site_fract_z
Si Si1 0.474427 0.974857 0.849293
Si Si2 0.551496 0.238410 0.444212
Si Si3 0.252499 0.403897 0.719043
Si Si4 0.694580 0.683764 0.544820
Si Si5 0.099096 0.649555 0.687957
Si Si6 0.083277 0.014795 0.027146
O O1 0.618509 0.958156 0.831922
O O2 0.418681 0.957279 0.693487
O O3 0.431305 0.115060 0.909904
O O4 0.430677 0.860750 0.953699
O O5 0.677045 0.166562 0.406345
O O6 0.493039 0.286473 0.297325
O O7 0.453889 0.137112 0.509437
O O8 0.270506 0.298215 0.844425
O O9 0.171439 0.530188 0.760781
O O10 0.684965 0.744990 0.388071
O O11 0.793724 0.567598 0.542212
O O12 0.022927 0.590403 0.556678
#
# Coordination Sequence:
#
# PCOD9315971 Si02
#       6
#     4   4   4   4   4   4
#     4  12  29  47  81 111 157 205 259 328 388 476
#     4  11  28  50  79 115 154 206 263 326 397 463
#     4  11  27  51  76 116 156 202 266 327 392 469
#     4  12  28  48  80 113 158 203 262 325 393 471
#     4  11  27  47  82 110 154 205 258 328 397 461
#     4  11  27  49  72 115 151 203 262 318 397 466
#
# _framework density 22.762357000000002
#
# number of rings (size 3 to 8) (size 9 to 14) (size 15 to 20)
#    0.000    0.667    3.333    1.000   16.333    0.000 
#    0.000    0.000    0.000    0.000    0.000    0.000 
#    0.000    0.000    0.000    0.000    0.000    0.000 
#
# Total GULP energy -134425.617731 kJ/mol
# GULP energy per Si atom -5601.067405 kJ/mol
# Density = 2.271055 g / cm^3
# Si number density = 22.762357 Si / 1000 Ang^3
#
#
#
# Elastic Constant Matrix: (Units=GPa)
#
#
# Indices 1 2 3 4 5 6 
#
# 1 80.8722 48.3019 10.5061 0.0000 0.0000 0.0000
# 2 48.3019 104.6220 43.8924 0.0000 0.0000 0.0000
# 3 10.5061 43.8924 98.1484 0.0000 0.0000 0.0000
# 4 0.0000 0.0000 0.0000 39.2163 0.0000 0.0000
# 5 0.0000 0.0000 0.0000 0.0000 5.7329 0.0000
# 6 0.0000 0.0000 0.0000 0.0000 0.0000 44.9986
#
#
#
# Elastic Compliance Matrix: (Units=1/GPa)
#
#
# Indices 1 2 3 4 5 6 
#
# 1 0.017428 -0.008941 0.002133 0.000000 0.000000 0.000000
# 2 -0.008941 0.016353 -0.006356 0.000000 0.000000 0.000000
# 3 0.002133 -0.006356 0.012803 0.000000 0.000000 0.000000
# 4 0.000000 0.000000 0.000000 0.025500 0.000000 0.000000
# 5 0.000000 0.000000 0.000000 0.000000 0.174433 0.000000
# 6 0.000000 0.000000 0.000000 0.000000 0.000000 0.022223
#
#
# Mechanical properties :
#
#
# Convention : Reuss Voigt Hill
#
# Bulk Modulus (GPa) = 49.36934 54.33816 51.85375
# Shear Modulus (GPa) = 16.56621 30.05235 23.30928
#
# Velocity S-wave (km/s) = 2.70068 3.63749 3.20351
# Velocity P-wave (km/s) = 5.60901 6.44713 6.04262
#
# Compressibility (1/GPa) = 0.02025549
#
# Stress axis : x y z
#
# Youngs Moduli (GPa) = 57.37799 61.15211 78.10843
#
# Poissons Ratio (x) = 0.54677 -0.16660
# Poissons Ratio (y) = 0.51302 0.49645
# Poissons Ratio (z) = -0.12238 0.38868
#
# Static dielectric constant tensor:
#      x y z
#    x 1.859810 0.000000 0.000000 
#    y 0.000000 1.841730 0.000000 
#    z 0.000000 0.000000 1.797570 
# 
# From -- ./inp_files/3319.got.cif
#   From: 2010.05.17/outbox.cif.g08.bks.cpg/sg19_2_cif.got.tgz:3319.got - 2010.06.03 22:46:19.
