data_PCOD9315730
_publ_section_title
;
Structure prediction by ZEFSAII (Michael W. Deem and Ramdas Pophale) SiO2 
 PCOD9315730
Probable space group: P 21 21 21
;
_chemical_formula_sum "Si O2"
_cell_formula_units_Z 24
_cell_length_a 19.102368
_cell_length_b 10.025475
_cell_length_c 4.952360
_cell_angle_alpha 90.000000
_cell_angle_beta 90.000000
_cell_angle_gamma 90.000000
_cell_volume 948.428013
_symmetry_space_group_name_H-M "P 21 21 21"
_symmetry_group_IT_number 19
_symmetry_cell_setting 'orthorhombic'
loop_
_space_group_symop_operation_xyz
x,y,z
1/2-x,-y,1/2+z
1/2+x,1/2-y,-z
-x,1/2+y,1/2-z
loop_
_atom_site_type_symbol
_atom_site_label
_atom_site_fract_x
_atom_site_fract_y
_atom_site_fract_z
Si Si1 0.988518 0.941319 0.219212
Si Si2 0.143333 0.526697 0.494772
Si Si3 0.110872 0.285243 0.908848
Si Si4 0.742106 0.181812 0.756311
Si Si5 0.421299 0.004708 0.225694
Si Si6 0.723692 0.568014 0.989976
O O1 0.050881 0.970145 0.426202
O O2 0.942643 0.823721 0.351065
O O3 0.022318 0.928297 0.926755
O O4 0.926805 0.052280 0.176069
O O5 0.123218 0.414046 0.717852
O O6 0.203698 0.456158 0.317532
O O7 0.181964 0.650924 0.624895
O O8 0.082408 0.155120 0.762189
O O9 0.185438 0.252345 0.045921
O O10 0.751706 0.279342 0.505140
O O11 0.348349 0.055422 0.346440
O O12 0.776310 0.486945 0.188546
#
# Coordination Sequence:
#
# PCOD9315730 Si02
#       6
#     4   4   4   4   4   4
#     4  11  27  47  70 108 140 197 241 288 365 440
#     4  11  23  47  73 112 142 193 246 303 365 421
#     4  11  24  49  75 103 152 189 242 308 363 432
#     4  11  24  43  78 108 148 185 248 308 357 432
#     4  12  26  48  75 105 149 191 242 297 375 436
#     4  12  26  48  75 112 141 193 241 298 369 433
#
# _framework density 25.305033000000002
#
# number of rings (size 3 to 8) (size 9 to 14) (size 15 to 20)
#    0.000    0.667    5.000    2.000    4.667    1.333 
#    3.000    0.000    0.000    0.000    0.000    0.000 
#    0.000    0.000    0.000    0.000    0.000    0.000 
#
# Total GULP energy -134348.830217 kJ/mol
# GULP energy per Si atom -5597.867926 kJ/mol
# Density = 2.524744 g / cm^3
# Si number density = 25.305033 Si / 1000 Ang^3
#
#
#
# Elastic Constant Matrix: (Units=GPa)
#
#
# Indices 1 2 3 4 5 6 
#
# 1 117.9265 -0.1808 8.6069 0.0000 0.0000 0.0000
# 2 -0.1808 46.0007 -7.1306 0.0000 0.0000 0.0000
# 3 8.6069 -7.1306 77.6631 0.0000 0.0000 0.0000
# 4 0.0000 0.0000 0.0000 21.3693 0.0000 0.0000
# 5 0.0000 0.0000 0.0000 0.0000 50.1451 0.0000
# 6 0.0000 0.0000 0.0000 0.0000 0.0000 26.4658
#
#
#
# Elastic Compliance Matrix: (Units=1/GPa)
#
#
# Indices 1 2 3 4 5 6 
#
# 1 0.008550 -0.000115 -0.000958 0.000000 0.000000 0.000000
# 2 -0.000115 0.022054 0.002038 0.000000 0.000000 0.000000
# 3 -0.000958 0.002038 0.013169 0.000000 0.000000 0.000000
# 4 0.000000 0.000000 0.000000 0.046796 0.000000 0.000000
# 5 0.000000 0.000000 0.000000 0.000000 0.019942 0.000000
# 6 0.000000 0.000000 0.000000 0.000000 0.000000 0.037785
#
#
# Mechanical properties :
#
#
# Convention : Reuss Voigt Hill
#
# Bulk Modulus (GPa) = 21.88064 27.13127 24.50596
# Shear Modulus (GPa) = 30.94041 35.61568 33.27805
#
# Velocity S-wave (km/s) = 3.50050 3.75568 3.63033
# Velocity P-wave (km/s) = 5.00036 5.43615 5.22280
#
# Compressibility (1/GPa) = 0.04570250
#
# Stress axis : x y z
#
# Youngs Moduli (GPa) = 116.96449 45.34288 75.93369
#
# Poissons Ratio (x) = 0.00521 0.07275
# Poissons Ratio (y) = 0.01344 -0.15472
# Poissons Ratio (z) = 0.11206 -0.09239
#
# Static dielectric constant tensor:
#      x y z
#    x 2.040890 0.000000 0.000000 
#    y 0.000000 1.978190 0.000000 
#    z 0.000000 0.000000 1.990450 
# 
# From -- ./inp_files/1723.got.cif
#   From: 2010.05.17/outbox.cif.g08.bks.cpg/sg19_1_cif.got.tgz:1723.got - 2010.06.03 22:46:19.
