data_PCOD9315436
_publ_section_title
;
Structure prediction by ZEFSAII (Michael W. Deem and Ramdas Pophale) SiO2 
 PCOD9315436
Probable space group: P 21 21 21
;
_chemical_formula_sum "Si O2"
_cell_formula_units_Z 28
_cell_length_a 8.814349
_cell_length_b 5.505715
_cell_length_c 23.713280
_cell_angle_alpha 90.000000
_cell_angle_beta 90.000000
_cell_angle_gamma 90.000000
_cell_volume 1150.788725
_symmetry_space_group_name_H-M "P 21 21 21"
_symmetry_group_IT_number 19
_symmetry_cell_setting 'orthorhombic'
loop_
_space_group_symop_operation_xyz
x,y,z
1/2-x,-y,1/2+z
1/2+x,1/2-y,-z
-x,1/2+y,1/2-z
loop_
_atom_site_type_symbol
_atom_site_label
_atom_site_fract_x
_atom_site_fract_y
_atom_site_fract_z
Si Si1 0.900230 0.009008 0.407029
Si Si2 0.331838 0.710949 0.960401
Si Si3 0.303946 0.838695 0.153908
Si Si4 0.420517 0.784210 0.700019
Si Si5 0.783324 0.714224 0.505570
Si Si6 0.109072 0.440835 0.885025
Si Si7 0.748718 0.917653 0.736905
O O1 0.964358 0.906705 0.348655
O O2 0.879368 0.795012 0.451841
O O3 0.741907 0.124474 0.388114
O O4 0.010212 0.207564 0.433990
O O5 0.331771 0.447373 0.989782
O O6 0.203959 0.665178 0.912329
O O7 0.283195 0.945056 0.997062
O O8 0.436494 0.995828 0.127685
O O9 0.341624 0.722175 0.214874
O O10 0.152259 0.992492 0.166298
O O11 0.283636 0.688339 0.739632
O O12 0.573446 0.830281 0.733734
O O13 0.869119 0.741877 0.565867
O O14 0.183463 0.387705 0.824664
#
# Coordination Sequence:
#
# PCOD9315436 Si02
#       7
#     4   4   4   4   4   4   4
#     4  11  26  44  75 104 143 192 246 301 362 433
#     4  10  25  47  74 106 142 195 233 299 354 431
#     4  11  26  44  68 104 143 186 241 303 358 439
#     4  11  24  41  71  98 137 184 249 295 361 431
#     4  10  26  44  76 106 149 186 242 294 362 430
#     4  10  26  42  69 105 147 185 240 294 374 424
#     4  11  23  44  65 101 133 192 233 306 355 436
#
# _framework density 24.331140000000001
#
# number of rings (size 3 to 8) (size 9 to 14) (size 15 to 20)
#    0.857    0.571    1.429    1.714   10.000    4.571 
#    0.000    0.000    0.000    0.000    0.000    0.000 
#    0.000    0.000    0.000    0.000    0.000    0.000 
#
# Total GULP energy -156489.443862 kJ/mol
# GULP energy per Si atom -5588.908709 kJ/mol
# Density = 2.427576 g / cm^3
# Si number density = 24.331140 Si / 1000 Ang^3
#
#
#
# Elastic Constant Matrix: (Units=GPa)
#
#
# Indices 1 2 3 4 5 6 
#
# 1 48.9007 14.3850 24.0785 0.0000 0.0000 0.0000
# 2 14.3850 81.2044 31.1673 0.0000 0.0000 0.0000
# 3 24.0785 31.1673 133.9826 0.0000 0.0000 0.0000
# 4 0.0000 0.0000 0.0000 40.8975 0.0000 0.0000
# 5 0.0000 0.0000 0.0000 0.0000 24.8429 0.0000
# 6 0.0000 0.0000 0.0000 0.0000 0.0000 27.1840
#
#
#
# Elastic Compliance Matrix: (Units=1/GPa)
#
#
# Indices 1 2 3 4 5 6 
#
# 1 0.022973 -0.002729 -0.003494 0.000000 0.000000 0.000000
# 2 -0.002729 0.013846 -0.002731 0.000000 0.000000 0.000000
# 3 -0.003494 -0.002731 0.008727 0.000000 0.000000 0.000000
# 4 0.000000 0.000000 0.000000 0.024451 0.000000 0.000000
# 5 0.000000 0.000000 0.000000 0.000000 0.040253 0.000000
# 6 0.000000 0.000000 0.000000 0.000000 0.000000 0.036786
#
#
# Mechanical properties :
#
#
# Convention : Reuss Voigt Hill
#
# Bulk Modulus (GPa) = 36.17998 44.81658 40.49828
# Shear Modulus (GPa) = 28.71011 31.54868 30.12939
#
# Velocity S-wave (km/s) = 3.43880 3.60479 3.52277
# Velocity P-wave (km/s) = 5.53798 5.98209 5.76432
#
# Compressibility (1/GPa) = 0.02763959
#
# Stress axis : x y z
#
# Youngs Moduli (GPa) = 43.53018 72.22324 114.59074
#
# Poissons Ratio (x) = 0.19706 0.40035
# Poissons Ratio (y) = 0.11877 0.31289
# Poissons Ratio (z) = 0.15208 0.19721
#
# Static dielectric constant tensor:
#      x y z
#    x 1.940630 0.000000 0.000000 
#    y 0.000000 2.015460 0.000000 
#    z 0.000000 0.000000 1.916140 
# 
# From -- ./inp_files/7327.got.cif
#   From: 2010.05.17/outbox.cif.g08.bks.cpg/sg19_4_cif.got.tgz:7327.got - 2010.06.03 22:46:19.
