data_PCOD9315228
_publ_section_title
;
Structure prediction by ZEFSAII (Michael W. Deem and Ramdas Pophale) SiO2 
 PCOD9315228
Probable space group: P 21 21 21
;
_chemical_formula_sum "Si O2"
_cell_formula_units_Z 16
_cell_length_a 4.757371
_cell_length_b 9.039612
_cell_length_c 11.132691
_cell_angle_alpha 90.000000
_cell_angle_beta 90.000000
_cell_angle_gamma 90.000000
_cell_volume 478.759016
_symmetry_space_group_name_H-M "P 21 21 21"
_symmetry_group_IT_number 19
_symmetry_cell_setting 'orthorhombic'
loop_
_space_group_symop_operation_xyz
x,y,z
1/2-x,-y,1/2+z
1/2+x,1/2-y,-z
-x,1/2+y,1/2-z
loop_
_atom_site_type_symbol
_atom_site_label
_atom_site_fract_x
_atom_site_fract_y
_atom_site_fract_z
Si Si1 0.514048 0.920350 0.496826
Si Si2 0.827955 0.959752 0.245823
Si Si3 0.759868 0.330460 0.636744
Si Si4 0.331123 0.749086 0.329944
O O1 0.610545 0.883818 0.355423
O O2 0.267456 0.799956 0.474056
O O3 0.635032 0.908721 0.631064
O O4 0.389199 0.082792 0.475450
O O5 0.690831 0.843673 0.139837
O O6 0.112123 0.851969 0.259362
O O7 0.464374 0.412058 0.656926
O O8 0.960164 0.362685 0.755665
#
# Coordination Sequence:
#
# PCOD9315228 Si02
#       4
#     4   4   4   4
#     4  10  24  48  73 106 152 193 258 307 380 442
#     4  10  26  46  81 109 143 210 245 319 377 445
#     4  12  23  52  75 113 154 193 260 308 383 460
#     4  10  23  48  75 106 147 210 239 320 372 453
#
# _framework density 33.419741999999999
#
# number of rings (size 3 to 8) (size 9 to 14) (size 15 to 20)
#    1.500    0.000    0.000    4.500    0.000    0.000 
#   31.500    0.000    0.000    0.000    0.000    0.000 
#    0.000    0.000    0.000    0.000    0.000    0.000 
#
# Total GULP energy -89080.097797 kJ/mol
# GULP energy per Si atom -5567.506112 kJ/mol
# Density = 3.334368 g / cm^3
# Si number density = 33.419742 Si / 1000 Ang^3
#
#
#
# Elastic Constant Matrix: (Units=GPa)
#
#
# Indices 1 2 3 4 5 6 
#
# 1 151.9465 -30.5108 96.5807 0.0000 0.0000 0.0000
# 2 -30.5108 190.2706 125.2969 0.0000 0.0000 0.0000
# 3 96.5807 125.2969 238.4983 0.0000 0.0000 0.0000
# 4 0.0000 0.0000 0.0000********** 0.0000 0.0000
# 5 0.0000 0.0000 0.0000 0.0000 87.5190 0.0000
# 6 0.0000 0.0000 0.0000 0.0000 0.0000 49.5733
#
#
#
# Elastic Compliance Matrix: (Units=1/GPa)
#
#
# Indices 1 2 3 4 5 6 
#
# 1 0.016726 0.010920 -0.012510 0.000000 0.000000 0.000000
# 2 0.010920 0.015166 -0.012390 0.000000 0.000000 0.000000
# 3 -0.012510 -0.012390 0.015768 0.000000 0.000000 0.000000
# 4 0.000000 0.000000 0.000000 -0.000017 0.000000 0.000000
# 5 0.000000 0.000000 0.000000 0.000000 0.011426 0.000000
# 6 0.000000 0.000000 0.000000 0.000000 0.000000 0.020172
#
#
# Mechanical properties :
#
#
# Convention : Reuss Voigt Hill
#
# Bulk Modulus (GPa) = 50.76033 107.04989 78.90511
# Shear Modulus (GPa) = 43.94943 -11922.46179 -5939.25618
#
# Velocity S-wave (km/s) = 3.63033 -59.79327 -42.20223
# Velocity P-wave (km/s) = 5.72661 68.81046 48.48755
#
# Compressibility (1/GPa) = 0.01970042
#
# Stress axis : x y z
#
# Youngs Moduli (GPa) = 59.78730 65.93856 63.41956
#
# Poissons Ratio (x) = -0.72008 0.79340
# Poissons Ratio (y) = -0.65290 0.78575
# Poissons Ratio (z) = 0.74796 0.81695
#
# Static dielectric constant tensor:
#      x y z
#    x 59.340370 0.000000 0.000000 
#    y 0.000000 3.391610 0.000000 
#    z 0.000000 0.000000 2.446380 
# 
# From -- ./inp_files/4403.got.cif
#   From: 2010.05.17/outbox.cif.g08.bks.cpg/sg19_3_cif.got.tgz:4403.got - 2010.06.03 22:46:19.
