data_PCOD9315805
_publ_section_title
;
Structure prediction by ZEFSAII (Michael W. Deem and Ramdas Pophale) SiO2 
 PCOD9315805
Probable space group: P 21 21 21
;
_chemical_formula_sum "Si O2"
_cell_formula_units_Z 32
_cell_length_a 11.722684
_cell_length_b 5.266927
_cell_length_c 22.491569
_cell_angle_alpha 90.000000
_cell_angle_beta 90.000000
_cell_angle_gamma 90.000000
_cell_volume 1388.686168
_symmetry_space_group_name_H-M "P 21 21 21"
_symmetry_group_IT_number 19
_symmetry_cell_setting 'orthorhombic'
loop_
_space_group_symop_operation_xyz
x,y,z
1/2-x,-y,1/2+z
1/2+x,1/2-y,-z
-x,1/2+y,1/2-z
loop_
_atom_site_type_symbol
_atom_site_label
_atom_site_fract_x
_atom_site_fract_y
_atom_site_fract_z
Si Si1 0.600149 0.694151 0.092160
Si Si2 0.738161 0.581829 0.851838
Si Si3 0.848563 0.938745 0.113428
Si Si4 0.529134 0.306684 0.286213
Si Si5 0.695897 0.070706 0.926521
Si Si6 0.028854 0.128173 0.477071
Si Si7 0.256326 0.180256 0.955910
Si Si8 0.006254 0.782845 0.216261
O O1 0.726136 0.809341 0.102216
O O2 0.536292 0.713228 0.154364
O O3 0.633664 0.423576 0.063302
O O4 0.527655 0.824604 0.040413
O O5 0.846044 0.602716 0.808013
O O6 0.726121 0.313706 0.886045
O O7 0.622861 0.635978 0.815583
O O8 0.745042 0.814974 0.898200
O O9 0.942067 0.873274 0.062952
O O10 0.900683 0.850466 0.174289
O O11 0.817280 0.230252 0.104496
O O12 0.471448 0.558103 0.256674
O O13 0.560763 0.031115 0.937334
O O14 0.742792 0.112458 0.992858
O O15 0.152500 0.007125 0.484570
O O16 0.006651 0.483978 0.230017
#
# Coordination Sequence:
#
# PCOD9315805 Si02
#       8
#     4   4   4   4   4   4   4   4
#     4  11  27  47  74 112 153 202 256 317 390 463
#     4  12  27  49  75 109 152 201 254 319 380 458
#     4  11  26  46  74 109 151 196 251 314 380 459
#     4  12  31  52  78 108 153 210 268 325 381 462
#     4  12  24  45  74 112 154 192 244 305 392 461
#     4  11  24  45  72 116 150 198 240 316 387 471
#     4  11  26  41  77 109 156 197 244 319 386 478
#     4  12  29  47  78 105 145 200 255 315 370 442
#
# _framework density 23.043361999999998
#
# number of rings (size 3 to 8) (size 9 to 14) (size 15 to 20)
#    0.000    0.500    2.500    3.750   14.000    0.000 
#    0.000    0.000    0.000    0.000    0.000    0.000 
#    0.000    0.000    0.000    0.000    0.000    0.000 
#
# Total GULP energy -178899.770311 kJ/mol
# GULP energy per Si atom -5590.617822 kJ/mol
# Density = 2.299091 g / cm^3
# Si number density = 23.043362 Si / 1000 Ang^3
#
#
#
# Elastic Constant Matrix: (Units=GPa)
#
#
# Indices 1 2 3 4 5 6 
#
# 1 56.0887 1.8202 3.6969 0.0000 0.0000 0.0000
# 2 1.8202 95.5043 12.1391 0.0000 0.0000 0.0000
# 3 3.6969 12.1391 61.5922 0.0000 0.0000 0.0000
# 4 0.0000 0.0000 0.0000 46.6092 0.0000 0.0000
# 5 0.0000 0.0000 0.0000 0.0000 39.7101 0.0000
# 6 0.0000 0.0000 0.0000 0.0000 0.0000 25.9229
#
#
#
# Elastic Compliance Matrix: (Units=1/GPa)
#
#
# Indices 1 2 3 4 5 6 
#
# 1 0.017904 -0.000210 -0.001033 0.000000 0.000000 0.000000
# 2 -0.000210 0.010742 -0.002105 0.000000 0.000000 0.000000
# 3 -0.001033 -0.002105 0.016713 0.000000 0.000000 0.000000
# 4 0.000000 0.000000 0.000000 0.021455 0.000000 0.000000
# 5 0.000000 0.000000 0.000000 0.000000 0.025182 0.000000
# 6 0.000000 0.000000 0.000000 0.000000 0.000000 0.038576
#
#
# Mechanical properties :
#
#
# Convention : Reuss Voigt Hill
#
# Bulk Modulus (GPa) = 25.86437 27.61085 26.73761
# Shear Modulus (GPa) = 33.29887 35.48371 34.39129
#
# Velocity S-wave (km/s) = 3.80551 3.92837 3.86743
# Velocity P-wave (km/s) = 5.52791 5.70826 5.61881
#
# Compressibility (1/GPa) = 0.03866323
#
# Stress axis : x y z
#
# Youngs Moduli (GPa) = 55.85402 93.09048 59.83505
#
# Poissons Ratio (x) = 0.01954 0.06182
# Poissons Ratio (y) = 0.01172 0.12593
# Poissons Ratio (z) = 0.05771 0.19591
#
# Static dielectric constant tensor:
#      x y z
#    x 1.832890 0.000000 0.000000 
#    y 0.000000 1.995430 0.000000 
#    z 0.000000 0.000000 1.861300 
# 
# From -- ./inp_files/2019.got.cif
#   From: 2010.05.17/outbox.cif.g08.bks.cpg/sg19_2_cif.got.tgz:2019.got - 2010.06.03 22:46:19.
