data_PCOD9315568
_publ_section_title
;
Structure prediction by ZEFSAII (Michael W. Deem and Ramdas Pophale) SiO2 
 PCOD9315568
Probable space group: P 21 21 21
;
_chemical_formula_sum "Si O2"
_cell_formula_units_Z 28
_cell_length_a 7.324410
_cell_length_b 17.385035
_cell_length_c 9.638251
_cell_angle_alpha 90.000000
_cell_angle_beta 90.000000
_cell_angle_gamma 90.000000
_cell_volume 1227.287888
_symmetry_space_group_name_H-M "P 21 21 21"
_symmetry_group_IT_number 19
_symmetry_cell_setting 'orthorhombic'
loop_
_space_group_symop_operation_xyz
x,y,z
1/2-x,-y,1/2+z
1/2+x,1/2-y,-z
-x,1/2+y,1/2-z
loop_
_atom_site_type_symbol
_atom_site_label
_atom_site_fract_x
_atom_site_fract_y
_atom_site_fract_z
Si Si1 0.097324 0.361175 0.123932
Si Si2 0.672096 0.652077 0.370052
Si Si3 0.782996 0.762353 0.148734
Si Si4 0.363022 0.476077 0.754810
Si Si5 0.010991 0.632051 0.011988
Si Si6 0.002307 0.603731 0.522609
Si Si7 0.933277 0.511524 0.782553
O O1 0.070621 0.301236 0.248150
O O2 0.063024 0.445881 0.186243
O O3 0.312712 0.359924 0.083057
O O4 0.981592 0.346866 0.986993
O O5 0.649950 0.713112 0.248323
O O6 0.865780 0.662024 0.447457
O O7 0.676590 0.566608 0.303757
O O8 0.875345 0.701244 0.047800
O O9 0.678256 0.830388 0.071924
O O10 0.416899 0.407042 0.652467
O O11 0.144992 0.485909 0.766089
O O12 0.433505 0.458171 0.908331
O O13 0.921956 0.566839 0.915382
O O14 0.894703 0.560970 0.645618
#
# Coordination Sequence:
#
# PCOD9315568 Si02
#       7
#     4   4   4   4   4   4   4
#     4  11  26  49  72 108 148 201 243 309 385 451
#     4  12  27  45  75 110 145 197 246 316 374 446
#     4  12  30  46  72 114 157 191 248 322 397 441
#     4  11  21  48  77 101 143 199 252 301 366 461
#     4  12  26  50  71 113 149 196 253 310 386 460
#     4  11  24  43  74 107 142 184 257 304 360 449
#     4  11  24  45  75 105 142 198 251 304 366 460
#
# _framework density 22.814533000000001
#
# number of rings (size 3 to 8) (size 9 to 14) (size 15 to 20)
#    0.000    0.571    7.143    0.857    8.000    1.143 
#    0.000    0.000    0.000    0.000    0.000    0.000 
#    0.000    0.000    0.000    0.000    0.000    0.000 
#
# Total GULP energy -156832.450877 kJ/mol
# GULP energy per Si atom -5601.158960 kJ/mol
# Density = 2.276261 g / cm^3
# Si number density = 22.814533 Si / 1000 Ang^3
#
#
#
# Elastic Constant Matrix: (Units=GPa)
#
#
# Indices 1 2 3 4 5 6 
#
# 1 41.9313 -0.4067 1.8489 0.0000 0.0000 0.0000
# 2 -0.4067 65.3449 7.7270 0.0000 0.0000 0.0000
# 3 1.8489 7.7270 91.3501 0.0000 0.0000 0.0000
# 4 0.0000 0.0000 0.0000 42.5316 0.0000 0.0000
# 5 0.0000 0.0000 0.0000 0.0000 37.0805 0.0000
# 6 0.0000 0.0000 0.0000 0.0000 0.0000 25.2465
#
#
#
# Elastic Compliance Matrix: (Units=1/GPa)
#
#
# Indices 1 2 3 4 5 6 
#
# 1 0.023873 0.000208 -0.000501 0.000000 0.000000 0.000000
# 2 0.000208 0.015460 -0.001312 0.000000 0.000000 0.000000
# 3 -0.000501 -0.001312 0.011068 0.000000 0.000000 0.000000
# 4 0.000000 0.000000 0.000000 0.023512 0.000000 0.000000
# 5 0.000000 0.000000 0.000000 0.000000 0.026968 0.000000
# 6 0.000000 0.000000 0.000000 0.000000 0.000000 0.039609
#
#
# Mechanical properties :
#
#
# Convention : Reuss Voigt Hill
#
# Bulk Modulus (GPa) = 21.19062 24.10720 22.64891
# Shear Modulus (GPa) = 31.36170 33.60220 32.48195
#
# Velocity S-wave (km/s) = 3.71163 3.84193 3.77734
# Velocity P-wave (km/s) = 5.26086 5.50182 5.38269
#
# Compressibility (1/GPa) = 0.04719069
#
# Stress axis : x y z
#
# Youngs Moduli (GPa) = 41.88903 64.68377 90.35056
#
# Poissons Ratio (x) = -0.01344 0.04524
# Poissons Ratio (y) = -0.00870 0.11853
# Poissons Ratio (z) = 0.02098 0.08486
#
# Static dielectric constant tensor:
#      x y z
#    x 1.853400 0.000000 0.000000 
#    y 0.000000 1.845510 0.000000 
#    z 0.000000 0.000000 1.831240 
# 
# From -- ./inp_files/3016.got.cif
#   From: 2010.05.17/outbox.cif.g08.bks.cpg/sg19_2_cif.got.tgz:3016.got - 2010.06.03 22:46:19.
