data_PCOD9315474
_publ_section_title
;
Structure prediction by ZEFSAII (Michael W. Deem and Ramdas Pophale) SiO2 
 PCOD9315474
Probable space group: P 21 21 21
;
_chemical_formula_sum "Si O2"
_cell_formula_units_Z 12
_cell_length_a 5.581840
_cell_length_b 9.080162
_cell_length_c 8.980117
_cell_angle_alpha 90.000000
_cell_angle_beta 90.000000
_cell_angle_gamma 90.000000
_cell_volume 455.148353
_symmetry_space_group_name_H-M "P 21 21 21"
_symmetry_group_IT_number 19
_symmetry_cell_setting 'orthorhombic'
loop_
_space_group_symop_operation_xyz
x,y,z
1/2-x,-y,1/2+z
1/2+x,1/2-y,-z
-x,1/2+y,1/2-z
loop_
_atom_site_type_symbol
_atom_site_label
_atom_site_fract_x
_atom_site_fract_y
_atom_site_fract_z
Si Si1 0.391976 0.363895 0.335738
Si Si2 0.533667 0.058874 0.444506
Si Si3 0.675403 0.301473 0.923943
O O1 0.536695 0.230755 0.407037
O O2 0.280198 0.459568 0.466715
O O3 0.488820 0.472158 0.209676
O O4 0.192897 0.268242 0.240524
O O5 0.346394 0.978532 0.554251
O O6 0.424250 0.245970 0.996260
#
# Coordination Sequence:
#
# PCOD9315474 Si02
#       3
#     4   4   4
#     4  11  29  48  82 116 165 212 279 331 412 477
#     4  11  29  48  82 116 165 212 279 331 412 477
#     4  10  26  50  80 114 160 208 268 332 400 476
#
# _framework density 26.365029
#
# number of rings (size 3 to 8) (size 9 to 14) (size 15 to 20)
#    0.000    1.333    0.000    0.000   32.667    0.000 
#    0.000    0.000    0.000    0.000    0.000    0.000 
#    0.000    0.000    0.000    0.000    0.000    0.000 
#
# Total GULP energy -67035.420778 kJ/mol
# GULP energy per Si atom -5586.285065 kJ/mol
# Density = 2.630502 g / cm^3
# Si number density = 26.365029 Si / 1000 Ang^3
#
#
#
# Elastic Constant Matrix: (Units=GPa)
#
#
# Indices 1 2 3 4 5 6 
#
# 1 80.0411 29.9842 12.5994 0.0000 0.0000 0.0000
# 2 29.9842 133.4569 25.8317 0.0000 0.0000 0.0000
# 3 12.5994 25.8317 72.5507 0.0000 0.0000 0.0000
# 4 0.0000 0.0000 0.0000 51.9969 0.0000 0.0000
# 5 0.0000 0.0000 0.0000 0.0000 90.0215 0.0000
# 6 0.0000 0.0000 0.0000 0.0000 0.0000 46.0113
#
#
#
# Elastic Compliance Matrix: (Units=1/GPa)
#
#
# Indices 1 2 3 4 5 6 
#
# 1 0.013770 -0.002826 -0.001385 0.000000 0.000000 0.000000
# 2 -0.002826 0.008627 -0.002581 0.000000 0.000000 0.000000
# 3 -0.001385 -0.002581 0.014943 0.000000 0.000000 0.000000
# 4 0.000000 0.000000 0.000000 0.019232 0.000000 0.000000
# 5 0.000000 0.000000 0.000000 0.000000 0.011108 0.000000
# 6 0.000000 0.000000 0.000000 0.000000 0.000000 0.021734
#
#
# Mechanical properties :
#
#
# Convention : Reuss Voigt Hill
#
# Bulk Modulus (GPa) = 42.09359 46.98658 44.54008
# Shear Modulus (GPa) = 45.07840 52.11482 48.59661
#
# Velocity S-wave (km/s) = 4.13943 4.45079 4.29793
# Velocity P-wave (km/s) = 6.23273 6.65379 6.44670
#
# Compressibility (1/GPa) = 0.02375659
#
# Stress axis : x y z
#
# Youngs Moduli (GPa) = 72.62080 115.90848 66.92073
#
# Poissons Ratio (x) = 0.32752 0.09271
# Poissons Ratio (y) = 0.20520 0.17273
# Poissons Ratio (z) = 0.10060 0.29917
#
# Static dielectric constant tensor:
#      x y z
#    x 2.119430 0.000000 0.000000 
#    y 0.000000 2.120440 0.000000 
#    z 0.000000 0.000000 2.002090 
# 
# From -- ./inp_files/243.got.cif
#   From: 2010.05.17/outbox.cif.g08.bks.cpg/sg19_1_cif.got.tgz:243.got - 2010.06.03 22:46:19.
