data_PCOD9315191
_publ_section_title
;
Structure prediction by ZEFSAII (Michael W. Deem and Ramdas Pophale) SiO2 
 PCOD9315191
Probable space group: P 21 21 21
;
_chemical_formula_sum "Si O2"
_cell_formula_units_Z 28
_cell_length_a 10.180751
_cell_length_b 8.893197
_cell_length_c 11.430390
_cell_angle_alpha 90.000000
_cell_angle_beta 90.000000
_cell_angle_gamma 90.000000
_cell_volume 1034.900930
_symmetry_space_group_name_H-M "P 21 21 21"
_symmetry_group_IT_number 19
_symmetry_cell_setting 'orthorhombic'
loop_
_space_group_symop_operation_xyz
x,y,z
1/2-x,-y,1/2+z
1/2+x,1/2-y,-z
-x,1/2+y,1/2-z
loop_
_atom_site_type_symbol
_atom_site_label
_atom_site_fract_x
_atom_site_fract_y
_atom_site_fract_z
Si Si1 0.811033 0.154073 0.967602
Si Si2 0.919866 0.129609 0.319601
Si Si3 0.507476 0.052435 0.598167
Si Si4 0.678853 0.275126 0.190870
Si Si5 0.894832 0.160587 0.712151
Si Si6 0.230001 0.927812 0.927591
Si Si7 0.492683 0.050399 0.025596
O O1 0.923918 0.286556 0.984857
O O2 0.806653 0.142973 0.827674
O O3 0.699309 0.212051 0.057570
O O4 0.869456 0.000824 0.020993
O O5 0.990756 0.053037 0.210676
O O6 0.913870 0.004669 0.420266
O O7 0.998990 0.276184 0.361268
O O8 0.780865 0.190074 0.273674
O O9 0.382158 0.025846 0.518315
O O10 0.533815 0.273845 0.243130
O O11 0.724736 0.448827 0.176126
O O12 0.941609 0.012285 0.643981
O O13 0.817929 0.270416 0.625003
O O14 0.364833 0.943211 0.997792
#
# Coordination Sequence:
#
# PCOD9315191 Si02
#       7
#     4   4   4   4   4   4   4
#     4  10  24  43  73 108 146 206 247 316 377 455
#     4  11  23  44  75 111 147 195 254 320 369 459
#     4  11  21  43  71 104 149 191 254 306 377 450
#     4  10  23  45  73 103 151 194 250 312 381 452
#     4  12  23  44  74 112 151 193 261 320 367 467
#     4  11  23  45  76 109 144 212 248 302 396 459
#     4  11  25  44  76 111 150 201 260 306 393 456
#
# _framework density 27.055728999999999
#
# number of rings (size 3 to 8) (size 9 to 14) (size 15 to 20)
#    0.000    1.143    2.857    4.286    0.000    3.429 
#    0.000    8.571   12.571    0.000    0.000    0.000 
#    0.000    0.000    0.000    0.000    0.000    0.000 
#
# Total GULP energy -157089.087134 kJ/mol
# GULP energy per Si atom -5610.324541 kJ/mol
# Density = 2.699415 g / cm^3
# Si number density = 27.055729 Si / 1000 Ang^3
#
#
#
# Elastic Constant Matrix: (Units=GPa)
#
#
# Indices 1 2 3 4 5 6 
#
# 1 112.3570 16.9552 30.2073 0.0000 0.0000 0.0000
# 2 16.9552 143.5354 46.7934 0.0000 0.0000 0.0000
# 3 30.2073 46.7934 129.4467 0.0000 0.0000 0.0000
# 4 0.0000 0.0000 0.0000 45.4343 0.0000 0.0000
# 5 0.0000 0.0000 0.0000 0.0000 45.9575 0.0000
# 6 0.0000 0.0000 0.0000 0.0000 0.0000 48.6817
#
#
#
# Elastic Compliance Matrix: (Units=1/GPa)
#
#
# Indices 1 2 3 4 5 6 
#
# 1 0.009522 -0.000454 -0.002058 0.000000 0.000000 0.000000
# 2 -0.000454 0.007919 -0.002757 0.000000 0.000000 0.000000
# 3 -0.002058 -0.002757 0.009202 0.000000 0.000000 0.000000
# 4 0.000000 0.000000 0.000000 0.022010 0.000000 0.000000
# 5 0.000000 0.000000 0.000000 0.000000 0.021759 0.000000
# 6 0.000000 0.000000 0.000000 0.000000 0.000000 0.020542
#
#
# Mechanical properties :
#
#
# Convention : Reuss Voigt Hill
#
# Bulk Modulus (GPa) = 62.08883 63.69453 62.89168
# Shear Modulus (GPa) = 46.79028 47.44023 47.11525
#
# Velocity S-wave (km/s) = 4.16312 4.19194 4.17755
# Velocity P-wave (km/s) = 6.79022 6.85732 6.82385
#
# Compressibility (1/GPa) = 0.01610596
#
# Stress axis : x y z
#
# Youngs Moduli (GPa) = 105.02019 126.27421 108.67231
#
# Poissons Ratio (x) = 0.05731 0.22364
# Poissons Ratio (y) = 0.04767 0.29959
# Poissons Ratio (z) = 0.21613 0.34811
#
# Static dielectric constant tensor:
#      x y z
#    x 2.241360 0.000000 0.000000 
#    y 0.000000 2.139030 0.000000 
#    z 0.000000 0.000000 2.070950 
# 
# From -- ./inp_files/4943.got.cif
#   From: 2010.05.17/outbox.cif.g08.bks.cpg/sg19_3_cif.got.tgz:4943.got - 2010.06.03 22:46:19.
