data_PCOD9315785
_publ_section_title
;
Structure prediction by ZEFSAII (Michael W. Deem and Ramdas Pophale) SiO2 
 PCOD9315785
Probable space group: P 21 21 21
;
_chemical_formula_sum "Si O2"
_cell_formula_units_Z 32
_cell_length_a 21.061499
_cell_length_b 12.857770
_cell_length_c 4.995212
_cell_angle_alpha 90.000000
_cell_angle_beta 90.000000
_cell_angle_gamma 90.000000
_cell_volume 1352.722941
_symmetry_space_group_name_H-M "P 21 21 21"
_symmetry_group_IT_number 19
_symmetry_cell_setting 'orthorhombic'
loop_
_space_group_symop_operation_xyz
x,y,z
1/2-x,-y,1/2+z
1/2+x,1/2-y,-z
-x,1/2+y,1/2-z
loop_
_atom_site_type_symbol
_atom_site_label
_atom_site_fract_x
_atom_site_fract_y
_atom_site_fract_z
Si Si1 0.435257 0.768355 0.568125
Si Si2 0.368588 0.073304 0.920351
Si Si3 0.195939 0.129499 0.209116
Si Si4 0.263827 0.205963 0.715132
Si Si5 0.516029 0.826405 0.069996
Si Si6 0.721595 0.056168 0.229685
Si Si7 0.554635 0.602212 0.072076
Si Si8 0.925313 0.955029 0.672026
O O1 0.368791 0.805344 0.690270
O O2 0.458619 0.821835 0.289738
O O3 0.429868 0.644926 0.522382
O O4 0.487354 0.801078 0.782218
O O5 0.333308 0.179004 0.828293
O O6 0.428968 0.069907 0.726405
O O7 0.322869 0.981580 0.824193
O O8 0.393601 0.058068 0.219194
O O9 0.248642 0.177037 0.408747
O O10 0.220588 0.134378 0.907438
O O11 0.242903 0.324201 0.757236
O O12 0.557831 0.725099 0.134037
O O13 0.556066 0.931494 0.064955
O O14 0.646246 0.046293 0.282808
O O15 0.761969 0.990233 0.441066
O O16 0.482979 0.568090 0.126283
#
# Coordination Sequence:
#
# PCOD9315785 Si02
#       8
#     4   4   4   4   4   4   4   4
#     4  11  24  44  70 107 142 186 242 303 358 443
#     4  12  25  44  72 105 151 178 243 296 369 429
#     4  12  23  44  72 104 136 193 234 293 368 426
#     4  12  26  46  72 105 144 190 241 301 346 440
#     4  11  25  42  70 102 141 186 237 296 369 417
#     4  12  30  49  75 107 144 199 245 296 365 427
#     4  11  25  44  69 107 140 189 227 305 357 428
#     4  11  26  49  76 103 148 189 247 298 360 440
#
# _framework density 23.655991
#
# number of rings (size 3 to 8) (size 9 to 14) (size 15 to 20)
#    0.000    0.500    1.250    6.750    5.250    4.000 
#    0.000    0.000    0.000    0.000    0.000    0.000 
#    0.000    0.000    0.000    0.000    0.000    0.000 
#
# Total GULP energy -179181.749311 kJ/mol
# GULP energy per Si atom -5599.429666 kJ/mol
# Density = 2.360215 g / cm^3
# Si number density = 23.655991 Si / 1000 Ang^3
#
#
#
# Elastic Constant Matrix: (Units=GPa)
#
#
# Indices 1 2 3 4 5 6 
#
# 1 65.7070 27.2045 -1.4456 0.0000 0.0000 0.0000
# 2 27.2045 107.0621 -9.1083 0.0000 0.0000 0.0000
# 3 -1.4456 -9.1083 41.7071 0.0000 0.0000 0.0000
# 4 0.0000 0.0000 0.0000 22.6203 0.0000 0.0000
# 5 0.0000 0.0000 0.0000 0.0000 31.5807 0.0000
# 6 0.0000 0.0000 0.0000 0.0000 0.0000 31.5215
#
#
#
# Elastic Compliance Matrix: (Units=1/GPa)
#
#
# Indices 1 2 3 4 5 6 
#
# 1 0.017014 -0.004354 -0.000361 0.000000 0.000000 0.000000
# 2 -0.004354 0.010631 0.002171 0.000000 0.000000 0.000000
# 3 -0.000361 0.002171 0.024438 0.000000 0.000000 0.000000
# 4 0.000000 0.000000 0.000000 0.044208 0.000000 0.000000
# 5 0.000000 0.000000 0.000000 0.000000 0.031665 0.000000
# 6 0.000000 0.000000 0.000000 0.000000 0.000000 0.031724
#
#
# Mechanical properties :
#
#
# Convention : Reuss Voigt Hill
#
# Bulk Modulus (GPa) = 21.27885 27.53084 24.40485
# Shear Modulus (GPa) = 27.71093 30.33287 29.02190
#
# Velocity S-wave (km/s) = 3.42630 3.58474 3.50641
# Velocity P-wave (km/s) = 4.96663 5.36629 5.17032
#
# Compressibility (1/GPa) = 0.04699502
#
# Stress axis : x y z
#
# Youngs Moduli (GPa) = 58.77590 94.06103 40.91939
#
# Poissons Ratio (x) = 0.40954 0.01478
# Poissons Ratio (y) = 0.25591 -0.08883
# Poissons Ratio (z) = 0.02123 -0.20419
#
# Static dielectric constant tensor:
#      x y z
#    x 1.930680 0.000000 0.000000 
#    y 0.000000 1.919350 0.000000 
#    z 0.000000 0.000000 2.056540 
# 
# From -- ./inp_files/1965.got.cif
#   From: 2010.05.17/outbox.cif.g08.bks.cpg/sg19_1_cif.got.tgz:1965.got - 2010.06.03 22:46:19.
