data_PCOD9315087
_publ_section_title
;
Structure prediction by ZEFSAII (Michael W. Deem and Ramdas Pophale) SiO2 
 PCOD9315087
Probable space group: P 21 21 21
;
_chemical_formula_sum "Si O2"
_cell_formula_units_Z 28
_cell_length_a 5.186418
_cell_length_b 11.425221
_cell_length_c 20.281835
_cell_angle_alpha 90.000000
_cell_angle_beta 90.000000
_cell_angle_gamma 90.000000
_cell_volume 1201.819844
_symmetry_space_group_name_H-M "P 21 21 21"
_symmetry_group_IT_number 19
_symmetry_cell_setting 'orthorhombic'
loop_
_space_group_symop_operation_xyz
x,y,z
1/2-x,-y,1/2+z
1/2+x,1/2-y,-z
-x,1/2+y,1/2-z
loop_
_atom_site_type_symbol
_atom_site_label
_atom_site_fract_x
_atom_site_fract_y
_atom_site_fract_z
Si Si1 0.391979 0.474521 0.716759
Si Si2 0.206012 0.940277 0.527856
Si Si3 0.901340 0.349245 0.663988
Si Si4 0.647317 0.789424 0.286275
Si Si5 0.135724 0.225064 0.915180
Si Si6 0.020403 0.109244 0.146699
Si Si7 0.351596 0.810269 0.976866
O O1 0.663930 0.427370 0.691565
O O2 0.368514 0.613839 0.716279
O O3 0.345973 0.436621 0.793599
O O4 0.167318 0.419829 0.671465
O O5 0.356275 0.877222 0.468350
O O6 0.381935 0.976796 0.590373
O O7 0.021997 0.836000 0.554939
O O8 0.082693 0.057244 0.499387
O O9 0.944063 0.237874 0.712807
O O10 0.798977 0.312382 0.592818
O O11 0.461023 0.824583 0.345441
O O12 0.745032 0.665705 0.313831
O O13 0.405174 0.284016 0.895800
O O14 0.624098 0.742737 0.976706
#
# Coordination Sequence:
#
# PCOD9315087 Si02
#       7
#     4   4   4   4   4   4   4
#     4  11  24  42  72  99 139 181 224 293 350 426
#     4  11  25  40  73 100 144 188 233 306 350 428
#     4  11  25  47  66 103 134 180 238 279 348 422
#     4  10  24  40  69  97 135 178 224 290 353 418
#     4  11  21  42  68 106 135 175 240 296 363 409
#     4  10  23  43  63 107 134 174 235 287 360 416
#     4  12  30  50  71 104 147 200 244 287 356 443
#
# _framework density 23.298000999999999
#
# number of rings (size 3 to 8) (size 9 to 14) (size 15 to 20)
#    0.000    1.143    2.857    1.714    8.000    0.000 
#    0.000    0.000    0.000    0.000    0.000    0.000 
#    0.000    0.000    0.000    0.000    0.000    0.000 
#
# Total GULP energy -156252.837092 kJ/mol
# GULP energy per Si atom -5580.458468 kJ/mol
# Density = 2.324497 g / cm^3
# Si number density = 23.298001 Si / 1000 Ang^3
#
#
#
# Elastic Constant Matrix: (Units=GPa)
#
#
# Indices 1 2 3 4 5 6 
#
# 1 66.0867 7.2867 -7.7945 0.0000 0.0000 0.0000
# 2 7.2867 77.4556 15.8022 0.0000 0.0000 0.0000
# 3 -7.7945 15.8022 75.9367 0.0000 0.0000 0.0000
# 4 0.0000 0.0000 0.0000 10.5600 0.0000 0.0000
# 5 0.0000 0.0000 0.0000 0.0000 29.7708 0.0000
# 6 0.0000 0.0000 0.0000 0.0000 0.0000 24.2480
#
#
#
# Elastic Compliance Matrix: (Units=1/GPa)
#
#
# Indices 1 2 3 4 5 6 
#
# 1 0.015572 -0.001870 0.001988 0.000000 0.000000 0.000000
# 2 -0.001870 0.013708 -0.003045 0.000000 0.000000 0.000000
# 3 0.001988 -0.003045 0.014006 0.000000 0.000000 0.000000
# 4 0.000000 0.000000 0.000000 0.094697 0.000000 0.000000
# 5 0.000000 0.000000 0.000000 0.000000 0.033590 0.000000
# 6 0.000000 0.000000 0.000000 0.000000 0.000000 0.041241
#
#
# Mechanical properties :
#
#
# Convention : Reuss Voigt Hill
#
# Bulk Modulus (GPa) = 26.71530 27.78533 27.25031
# Shear Modulus (GPa) = 21.63134 26.52807 24.07971
#
# Velocity S-wave (km/s) = 3.05038 3.37804 3.21838
# Velocity P-wave (km/s) = 4.88856 5.21218 5.05296
#
# Compressibility (1/GPa) = 0.03743173
#
# Stress axis : x y z
#
# Youngs Moduli (GPa) = 64.21657 72.95158 71.39573
#
# Poissons Ratio (x) = 0.13646 -0.14191
# Poissons Ratio (y) = 0.12012 0.21737
# Poissons Ratio (z) = -0.12764 0.22210
#
# Static dielectric constant tensor:
#      x y z
#    x 1.908710 0.000000 0.000000 
#    y 0.000000 1.876650 0.000000 
#    z 0.000000 0.000000 1.966490 
# 
# From -- ./inp_files/1074.got.cif
#   From: 2010.05.17/outbox.cif.g08.bks.cpg/sg19_1_cif.got.tgz:1074.got - 2010.06.03 22:46:19.
