data_PCOD9315627
_publ_section_title
;
Structure prediction by ZEFSAII (Michael W. Deem and Ramdas Pophale) SiO2 
 PCOD9315627
Probable space group: P 21 21 21
;
_chemical_formula_sum "Si O2"
_cell_formula_units_Z 32
_cell_length_a 13.270160
_cell_length_b 10.645391
_cell_length_c 9.065155
_cell_angle_alpha 90.000000
_cell_angle_beta 90.000000
_cell_angle_gamma 90.000000
_cell_volume 1280.598565
_symmetry_space_group_name_H-M "P 21 21 21"
_symmetry_group_IT_number 19
_symmetry_cell_setting 'orthorhombic'
loop_
_space_group_symop_operation_xyz
x,y,z
1/2-x,-y,1/2+z
1/2+x,1/2-y,-z
-x,1/2+y,1/2-z
loop_
_atom_site_type_symbol
_atom_site_label
_atom_site_fract_x
_atom_site_fract_y
_atom_site_fract_z
Si Si1 0.492784 0.316321 0.850587
Si Si2 0.338134 0.223128 0.486513
Si Si3 0.620303 0.583187 0.572748
Si Si4 0.408047 0.483355 0.624844
Si Si5 0.547479 0.125000 0.389205
Si Si6 0.667750 0.178048 0.681787
Si Si7 0.261719 0.981079 0.185486
Si Si8 0.541469 0.373395 0.179010
O O1 0.454210 0.444295 0.783028
O O2 0.571878 0.256934 0.737871
O O3 0.398533 0.222212 0.867357
O O4 0.539324 0.331094 0.010290
O O5 0.368015 0.359234 0.548660
O O6 0.439709 0.144119 0.468801
O O7 0.272461 0.249801 0.340855
O O8 0.267935 0.141147 0.591123
O O9 0.506370 0.535550 0.538998
O O10 0.669797 0.500652 0.702684
O O11 0.694549 0.577366 0.434286
O O12 0.324391 0.580036 0.681679
O O13 0.633965 0.135152 0.515201
O O14 0.542923 0.247167 0.279907
O O15 0.542385 0.986577 0.312510
O O16 0.355621 0.943045 0.284331
#
# Coordination Sequence:
#
# PCOD9315627 Si02
#       8
#     4   4   4   4   4   4   4   4
#     4  11  23  45  70 104 143 196 244 304 376 446
#     4  12  24  47  73 105 143 195 253 306 380 446
#     4  11  25  44  71 106 145 191 246 310 383 433
#     4  11  22  45  73  99 148 198 241 309 379 451
#     4  12  25  49  74 108 153 198 248 316 374 446
#     4  11  24  47  75 104 147 201 248 303 383 453
#     4  12  24  43  70 107 141 189 251 311 360 454
#     4  12  27  46  74 109 152 194 253 309 375 445
#
# _framework density 24.988316000000001
#
# number of rings (size 3 to 8) (size 9 to 14) (size 15 to 20)
#    0.000    0.500    5.000    3.750    1.750    2.000 
#    6.750    0.000    0.000    0.000    0.000    0.000 
#    0.000    0.000    0.000    0.000    0.000    0.000 
#
# Total GULP energy -178938.115888 kJ/mol
# GULP energy per Si atom -5591.816122 kJ/mol
# Density = 2.493144 g / cm^3
# Si number density = 24.988316 Si / 1000 Ang^3
#
#
#
# Elastic Constant Matrix: (Units=GPa)
#
#
# Indices 1 2 3 4 5 6 
#
# 1 61.9438 -0.0913 15.7109 0.0000 0.0000 0.0000
# 2 -0.0913 66.9831 22.5524 0.0000 0.0000 0.0000
# 3 15.7109 22.5524 95.0803 0.0000 0.0000 0.0000
# 4 0.0000 0.0000 0.0000 54.6180 0.0000 0.0000
# 5 0.0000 0.0000 0.0000 0.0000 43.4962 0.0000
# 6 0.0000 0.0000 0.0000 0.0000 0.0000 24.7474
#
#
#
# Elastic Compliance Matrix: (Units=1/GPa)
#
#
# Indices 1 2 3 4 5 6 
#
# 1 0.016917 0.001048 -0.003044 0.000000 0.000000 0.000000
# 2 0.001048 0.016290 -0.004037 0.000000 0.000000 0.000000
# 3 -0.003044 -0.004037 0.011978 0.000000 0.000000 0.000000
# 4 0.000000 0.000000 0.000000 0.018309 0.000000 0.000000
# 5 0.000000 0.000000 0.000000 0.000000 0.022991 0.000000
# 6 0.000000 0.000000 0.000000 0.000000 0.000000 0.040408
#
#
# Mechanical properties :
#
#
# Convention : Reuss Voigt Hill
#
# Bulk Modulus (GPa) = 30.19421 33.37238 31.78329
# Shear Modulus (GPa) = 33.33368 36.96132 35.14750
#
# Velocity S-wave (km/s) = 3.65632 3.85014 3.75448
# Velocity P-wave (km/s) = 5.47124 5.75751 5.61620
#
# Compressibility (1/GPa) = 0.03311894
#
# Stress axis : x y z
#
# Youngs Moduli (GPa) = 59.11129 61.38819 83.48674
#
# Poissons Ratio (x) = -0.06433 0.25413
# Poissons Ratio (y) = -0.06194 0.33703
# Poissons Ratio (z) = 0.17993 0.24782
#
# Static dielectric constant tensor:
#      x y z
#    x 1.947650 0.000000 0.000000 
#    y 0.000000 2.066890 0.000000 
#    z 0.000000 0.000000 1.999380 
# 
# From -- ./inp_files/3943.got.cif
#   From: 2010.05.17/outbox.cif.g08.bks.cpg/sg19_2_cif.got.tgz:3943.got - 2010.06.03 22:46:19.
