data_PCOD9315885
_publ_section_title
;
Structure prediction by ZEFSAII (Michael W. Deem and Ramdas Pophale) SiO2 
 PCOD9315885
Probable space group: P 21 21 21
;
_chemical_formula_sum "Si O2"
_cell_formula_units_Z 32
_cell_length_a 13.155494
_cell_length_b 18.612601
_cell_length_c 5.529601
_cell_angle_alpha 90.000000
_cell_angle_beta 90.000000
_cell_angle_gamma 90.000000
_cell_volume 1353.966825
_symmetry_space_group_name_H-M "P 21 21 21"
_symmetry_group_IT_number 19
_symmetry_cell_setting 'orthorhombic'
loop_
_space_group_symop_operation_xyz
x,y,z
1/2-x,-y,1/2+z
1/2+x,1/2-y,-z
-x,1/2+y,1/2-z
loop_
_atom_site_type_symbol
_atom_site_label
_atom_site_fract_x
_atom_site_fract_y
_atom_site_fract_z
Si Si1 0.072237 0.399036 0.414649
Si Si2 0.622995 0.582562 0.583093
Si Si3 0.432004 0.924031 0.930570
Si Si4 0.371648 0.225343 0.221599
Si Si5 0.752122 0.868134 0.404010
Si Si6 0.047186 0.552529 0.577477
Si Si7 0.760711 0.665178 0.900825
Si Si8 0.097168 0.282061 0.782220
O O1 0.186018 0.404966 0.313151
O O2 0.048283 0.465449 0.592416
O O3 0.069922 0.319925 0.528179
O O4 0.985544 0.404295 0.211594
O O5 0.620712 0.500297 0.510154
O O6 0.641102 0.645393 0.389700
O O7 0.711953 0.597084 0.773534
O O8 0.484809 0.929406 0.668004
O O9 0.505388 0.914966 0.167691
O O10 0.346634 0.862668 0.916542
O O11 0.301507 0.292082 0.151658
O O12 0.333394 0.210584 0.494490
O O13 0.486119 0.243683 0.139909
O O14 0.660731 0.919751 0.475182
O O15 0.842415 0.845501 0.584071
O O16 0.825529 0.716772 0.730076
#
# Coordination Sequence:
#
# PCOD9315885 Si02
#       8
#     4   4   4   4   4   4   4   4
#     4  11  25  45  72 104 145 191 247 303 375 443
#     4  11  25  45  72 104 145 191 247 303 375 443
#     4  11  29  50  75 112 153 198 249 312 375 444
#     4  12  25  45  70 105 146 191 249 304 375 441
#     4  12  27  44  75 109 145 200 248 307 374 451
#     4  11  29  50  75 112 153 198 249 312 375 444
#     4  12  27  44  75 109 145 200 248 307 374 451
#     4  12  25  45  70 105 146 191 249 304 375 441
#
# _framework density 23.634257999999999
#
# number of rings (size 3 to 8) (size 9 to 14) (size 15 to 20)
#    0.000    0.500    5.000    1.500   10.500    3.000 
#    0.000    0.000    0.000    0.000    0.000    0.000 
#    0.000    0.000    0.000    0.000    0.000    0.000 
#
# Total GULP energy -178641.498810 kJ/mol
# GULP energy per Si atom -5582.546838 kJ/mol
# Density = 2.358047 g / cm^3
# Si number density = 23.634258 Si / 1000 Ang^3
#
#
#
# Elastic Constant Matrix: (Units=GPa)
#
#
# Indices 1 2 3 4 5 6 
#
# 1 119.7047 15.0132 27.5086 0.0000 0.0000 0.0000
# 2 15.0132 52.6112 1.3822 0.0000 0.0000 0.0000
# 3 27.5086 1.3822 44.8666 0.0000 0.0000 0.0000
# 4 0.0000 0.0000 0.0000 29.0855 0.0000 0.0000
# 5 0.0000 0.0000 0.0000 0.0000 33.4869 0.0000
# 6 0.0000 0.0000 0.0000 0.0000 0.0000 40.7153
#
#
#
# Elastic Compliance Matrix: (Units=1/GPa)
#
#
# Indices 1 2 3 4 5 6 
#
# 1 0.010099 -0.002721 -0.006108 0.000000 0.000000 0.000000
# 2 -0.002721 0.019756 0.001060 0.000000 0.000000 0.000000
# 3 -0.006108 0.001060 0.026001 0.000000 0.000000 0.000000
# 4 0.000000 0.000000 0.000000 0.034381 0.000000 0.000000
# 5 0.000000 0.000000 0.000000 0.000000 0.029862 0.000000
# 6 0.000000 0.000000 0.000000 0.000000 0.000000 0.024561
#
#
# Mechanical properties :
#
#
# Convention : Reuss Voigt Hill
#
# Bulk Modulus (GPa) = 24.80366 33.88783 29.34575
# Shear Modulus (GPa) = 28.79557 32.20944 30.50251
#
# Velocity S-wave (km/s) = 3.49432 3.69566 3.59640
# Velocity P-wave (km/s) = 5.17667 5.70789 5.44876
#
# Compressibility (1/GPa) = 0.04031662
#
# Stress axis : x y z
#
# Youngs Moduli (GPa) = 99.02138 50.61731 38.46074
#
# Poissons Ratio (x) = 0.13775 0.23492
# Poissons Ratio (y) = 0.26947 -0.04076
# Poissons Ratio (z) = 0.60482 -0.05365
#
# Static dielectric constant tensor:
#      x y z
#    x 1.927310 0.000000 0.000000 
#    y 0.000000 1.878340 0.000000 
#    z 0.000000 0.000000 2.019670 
# 
# From -- ./inp_files/1188.got.cif
#   From: 2010.05.17/outbox.cif.g08.bks.cpg/sg19_1_cif.got.tgz:1188.got - 2010.06.03 22:46:19.
