data_PCOD9315247
_publ_section_title
;
Structure prediction by ZEFSAII (Michael W. Deem and Ramdas Pophale) SiO2 
 PCOD9315247
Probable space group: P 21 21 21
;
_chemical_formula_sum "Si O2"
_cell_formula_units_Z 20
_cell_length_a 11.968858
_cell_length_b 8.222028
_cell_length_c 7.765413
_cell_angle_alpha 90.000000
_cell_angle_beta 90.000000
_cell_angle_gamma 90.000000
_cell_volume 764.180980
_symmetry_space_group_name_H-M "P 21 21 21"
_symmetry_group_IT_number 19
_symmetry_cell_setting 'orthorhombic'
loop_
_space_group_symop_operation_xyz
x,y,z
1/2-x,-y,1/2+z
1/2+x,1/2-y,-z
-x,1/2+y,1/2-z
loop_
_atom_site_type_symbol
_atom_site_label
_atom_site_fract_x
_atom_site_fract_y
_atom_site_fract_z
Si Si1 0.275707 0.101114 0.648730
Si Si2 0.965591 0.611587 0.305335
Si Si3 0.343083 0.571445 0.685134
Si Si4 0.087443 0.276960 0.852840
Si Si5 0.156071 0.789257 0.769702
O O1 0.388699 0.042059 0.744803
O O2 0.193398 0.221763 0.746035
O O3 0.407325 0.727729 0.771048
O O4 0.194437 0.829525 0.962777
O O5 0.879362 0.919802 0.514711
O O6 0.946379 0.636903 0.508624
O O7 0.093762 0.582020 0.261978
O O8 0.215018 0.621910 0.706536
O O9 0.976586 0.298655 0.743628
O O10 0.206753 0.930162 0.645610
#
# Coordination Sequence:
#
# PCOD9315247 Si02
#       5
#     4   4   4   4   4
#     4  11  22  43  67 101 136 191 231 283 356 431
#     4   9  21  41  71  96 143 179 235 281 359 417
#     4   9  22  40  71  98 139 183 226 295 347 420
#     4  10  24  40  70 105 137 178 241 291 338 430
#     4  11  23  40  71  96 141 187 233 292 354 422
#
# _framework density 26.171811999999999
#
# number of rings (size 3 to 8) (size 9 to 14) (size 15 to 20)
#    1.200    0.800    2.000    0.000   11.200    0.000 
#    0.000    6.000    0.000    0.000    0.000    0.000 
#    0.000    0.000    0.000    0.000    0.000    0.000 
#
# Total GULP energy -111878.362464 kJ/mol
# GULP energy per Si atom -5593.918123 kJ/mol
# Density = 2.611224 g / cm^3
# Si number density = 26.171812 Si / 1000 Ang^3
#
#
#
# Elastic Constant Matrix: (Units=GPa)
#
#
# Indices 1 2 3 4 5 6 
#
# 1 158.5760 22.4981 53.5714 0.0000 0.0000 0.0000
# 2 22.4981 61.9770 9.8568 0.0000 0.0000 0.0000
# 3 53.5714 9.8568 120.2273 0.0000 0.0000 0.0000
# 4 0.0000 0.0000 0.0000 28.8754 0.0000 0.0000
# 5 0.0000 0.0000 0.0000 0.0000 48.7856 0.0000
# 6 0.0000 0.0000 0.0000 0.0000 0.0000 45.8301
#
#
#
# Elastic Compliance Matrix: (Units=1/GPa)
#
#
# Indices 1 2 3 4 5 6 
#
# 1 0.007731 -0.002288 -0.003257 0.000000 0.000000 0.000000
# 2 -0.002288 0.017026 -0.000376 0.000000 0.000000 0.000000
# 3 -0.003257 -0.000376 0.009800 0.000000 0.000000 0.000000
# 4 0.000000 0.000000 0.000000 0.034632 0.000000 0.000000
# 5 0.000000 0.000000 0.000000 0.000000 0.020498 0.000000
# 6 0.000000 0.000000 0.000000 0.000000 0.000000 0.021820
#
#
# Mechanical properties :
#
#
# Convention : Reuss Voigt Hill
#
# Bulk Modulus (GPa) = 44.02798 56.95921 50.49359
# Shear Modulus (GPa) = 38.19116 41.68850 39.93983
#
# Velocity S-wave (km/s) = 3.82415 3.99542 3.91072
# Velocity P-wave (km/s) = 6.02977 6.56470 6.30291
#
# Compressibility (1/GPa) = 0.02271283
#
# Stress axis : x y z
#
# Youngs Moduli (GPa) = 129.34599 58.73525 102.04274
#
# Poissons Ratio (x) = 0.13441 0.33238
# Poissons Ratio (y) = 0.29600 0.03838
# Poissons Ratio (z) = 0.42132 0.02209
#
# Static dielectric constant tensor:
#      x y z
#    x 2.079260 0.000000 0.000000 
#    y 0.000000 2.218530 0.000000 
#    z 0.000000 0.000000 2.011380 
# 
# From -- ./inp_files/4882.got.cif
#   From: 2010.05.17/outbox.cif.g08.bks.cpg/sg19_3_cif.got.tgz:4882.got - 2010.06.03 22:46:19.
