data_PCOD9315804
_publ_section_title
;
Structure prediction by ZEFSAII (Michael W. Deem and Ramdas Pophale) SiO2 
 PCOD9315804
Probable space group: P 21 21 21
;
_chemical_formula_sum "Si O2"
_cell_formula_units_Z 28
_cell_length_a 5.109255
_cell_length_b 11.638511
_cell_length_c 18.543156
_cell_angle_alpha 90.000000
_cell_angle_beta 90.000000
_cell_angle_gamma 90.000000
_cell_volume 1102.652463
_symmetry_space_group_name_H-M "P 21 21 21"
_symmetry_group_IT_number 19
_symmetry_cell_setting 'orthorhombic'
loop_
_space_group_symop_operation_xyz
x,y,z
1/2-x,-y,1/2+z
1/2+x,1/2-y,-z
-x,1/2+y,1/2-z
loop_
_atom_site_type_symbol
_atom_site_label
_atom_site_fract_x
_atom_site_fract_y
_atom_site_fract_z
Si Si1 0.357572 0.803581 0.794641
Si Si2 0.380753 0.325921 0.492399
Si Si3 0.285354 0.163972 0.786926
Si Si4 0.927197 0.082459 0.661157
Si Si5 0.833908 0.673782 0.490221
Si Si6 0.433418 0.001393 0.902470
Si Si7 0.961451 0.342186 0.846347
O O1 0.633821 0.778927 0.757193
O O2 0.290340 0.673010 0.815638
O O3 0.320139 0.893664 0.857710
O O4 0.179633 0.841631 0.729611
O O5 0.098202 0.267028 0.482119
O O6 0.503706 0.370867 0.417381
O O7 0.357878 0.433445 0.547818
O O8 0.138278 0.091057 0.725810
O O9 0.095746 0.218113 0.847607
O O10 0.489557 0.091416 0.836338
O O11 0.849622 0.951452 0.649873
O O12 0.629379 0.779227 0.506962
O O13 0.751509 0.567681 0.541143
O O14 0.750020 0.643171 0.409050
#
# Coordination Sequence:
#
# PCOD9315804 Si02
#       7
#     4   4   4   4   4   4   4
#     4  11  25  47  72 106 146 197 260 306 387 451
#     4  12  27  50  74 112 154 196 251 309 384 456
#     4  11  25  47  72 106 146 197 260 306 387 451
#     4  11  24  45  72 105 144 194 248 321 370 454
#     4  12  27  50  74 112 154 196 251 309 384 456
#     4  12  24  48  76 110 152 208 246 324 382 458
#     4  11  24  45  72 105 144 194 248 321 370 454
#
# _framework density 25.393311000000001
#
# number of rings (size 3 to 8) (size 9 to 14) (size 15 to 20)
#    0.000    0.571    5.714    1.714    2.000    1.143 
#   10.286    0.000    0.000    0.000    0.000    0.000 
#    0.000    0.000    0.000    0.000    0.000    0.000 
#
# Total GULP energy -156317.976437 kJ/mol
# GULP energy per Si atom -5582.784873 kJ/mol
# Density = 2.533551 g / cm^3
# Si number density = 25.393311 Si / 1000 Ang^3
#
#
#
# Elastic Constant Matrix: (Units=GPa)
#
#
# Indices 1 2 3 4 5 6 
#
# 1 40.3461 17.2844 4.5028 0.0000 0.0000 0.0000
# 2 17.2844 83.7593 24.8257 0.0000 0.0000 0.0000
# 3 4.5028 24.8257 126.0642 0.0000 0.0000 0.0000
# 4 0.0000 0.0000 0.0000 64.9258 0.0000 0.0000
# 5 0.0000 0.0000 0.0000 0.0000 22.3936 0.0000
# 6 0.0000 0.0000 0.0000 0.0000 0.0000 6.0572
#
#
#
# Elastic Compliance Matrix: (Units=1/GPa)
#
#
# Indices 1 2 3 4 5 6 
#
# 1 0.027192 -0.005653 0.000142 0.000000 0.000000 0.000000
# 2 -0.005653 0.013854 -0.002526 0.000000 0.000000 0.000000
# 3 0.000142 -0.002526 0.008425 0.000000 0.000000 0.000000
# 4 0.000000 0.000000 0.000000 0.015402 0.000000 0.000000
# 5 0.000000 0.000000 0.000000 0.000000 0.044656 0.000000
# 6 0.000000 0.000000 0.000000 0.000000 0.000000 0.165093
#
#
# Mechanical properties :
#
#
# Convention : Reuss Voigt Hill
#
# Bulk Modulus (GPa) = 29.94405 38.15502 34.04954
# Shear Modulus (GPa) = 16.56566 32.24574 24.40570
#
# Velocity S-wave (km/s) = 2.55691 3.56736 3.10354
# Velocity P-wave (km/s) = 4.53153 5.65918 5.12646
#
# Compressibility (1/GPa) = 0.03339561
#
# Stress axis : x y z
#
# Youngs Moduli (GPa) = 36.77603 72.17923 118.69554
#
# Poissons Ratio (x) = 0.40805 -0.01686
# Poissons Ratio (y) = 0.20791 0.29987
# Poissons Ratio (z) = -0.00522 0.18235
#
# Static dielectric constant tensor:
#      x y z
#    x 2.100360 0.000000 0.000000 
#    y 0.000000 2.079180 0.000000 
#    z 0.000000 0.000000 2.126270 
# 
# From -- ./inp_files/1044.got.cif
#   From: 2010.05.17/outbox.cif.g08.bks.cpg/sg19_1_cif.got.tgz:1044.got - 2010.06.03 22:46:19.
