data_PCOD9315154
_publ_section_title
;
Structure prediction by ZEFSAII (Michael W. Deem and Ramdas Pophale) SiO2 
 PCOD9315154
Probable space group: P 21 21 21
;
_chemical_formula_sum "Si O2"
_cell_formula_units_Z 32
_cell_length_a 12.180815
_cell_length_b 14.193295
_cell_length_c 8.000312
_cell_angle_alpha 90.000000
_cell_angle_beta 90.000000
_cell_angle_gamma 90.000000
_cell_volume 1383.141145
_symmetry_space_group_name_H-M "P 21 21 21"
_symmetry_group_IT_number 19
_symmetry_cell_setting 'orthorhombic'
loop_
_space_group_symop_operation_xyz
x,y,z
1/2-x,-y,1/2+z
1/2+x,1/2-y,-z
-x,1/2+y,1/2-z
loop_
_atom_site_type_symbol
_atom_site_label
_atom_site_fract_x
_atom_site_fract_y
_atom_site_fract_z
Si Si1 0.553734 0.314214 0.009533
Si Si2 0.965817 0.373397 0.958244
Si Si3 0.604698 0.325024 0.637655
Si Si4 0.020965 0.488866 0.490664
Si Si5 0.198551 0.340108 0.578829
Si Si6 0.267674 0.166701 0.817694
Si Si7 0.417903 0.459876 0.603572
Si Si8 0.311987 0.039675 0.319103
O O1 0.543557 0.304767 0.811663
O O2 0.487190 0.405806 0.066720
O O3 0.512029 0.224449 0.107487
O O4 0.684438 0.319297 0.028131
O O5 0.885063 0.419686 0.828133
O O6 0.890420 0.348297 0.118961
O O7 0.062893 0.443783 0.004295
O O8 0.652397 0.228178 0.567094
O O9 0.511464 0.385618 0.543685
O O10 0.705593 0.397102 0.654692
O O11 0.098224 0.415826 0.588309
O O12 0.059840 0.508019 0.298772
O O13 0.893439 0.458911 0.519146
O O14 0.241778 0.257738 0.705514
O O15 0.303070 0.409495 0.569026
O O16 0.224032 0.064536 0.761855
#
# Coordination Sequence:
#
# PCOD9315154 Si02
#       8
#     4   4   4   4   4   4   4   4
#     4  10  23  44  68  99 138 186 240 296 373 432
#     4  12  23  43  71 100 139 190 244 304 369 443
#     4  11  23  45  70 104 139 186 247 297 374 445
#     4  10  25  47  69 103 147 188 241 307 371 442
#     4  12  27  44  72 108 150 189 245 307 382 451
#     4  11  23  41  68 100 140 184 241 301 359 442
#     4  11  26  45  72 103 145 194 242 306 382 436
#     4  11  24  43  74 101 136 191 250 306 356 453
#
# _framework density 23.135745
#
# number of rings (size 3 to 8) (size 9 to 14) (size 15 to 20)
#    0.000    1.000    2.500    3.750    3.500    3.000 
#    6.750    0.000    0.000    0.000    0.000    0.000 
#    0.000    0.000    0.000    0.000    0.000    0.000 
#
# Total GULP energy -178546.130492 kJ/mol
# GULP energy per Si atom -5579.566578 kJ/mol
# Density = 2.308309 g / cm^3
# Si number density = 23.135745 Si / 1000 Ang^3
#
#
#
# Elastic Constant Matrix: (Units=GPa)
#
#
# Indices 1 2 3 4 5 6 
#
# 1 115.8556 70.2578 11.0519 0.0000 0.0000 0.0000
# 2 70.2578 161.1849 23.9929 0.0000 0.0000 0.0000
# 3 11.0519 23.9929 39.3645 0.0000 0.0000 0.0000
# 4 0.0000 0.0000 0.0000 29.5395 0.0000 0.0000
# 5 0.0000 0.0000 0.0000 0.0000 13.9302 0.0000
# 6 0.0000 0.0000 0.0000 0.0000 0.0000 58.1504
#
#
#
# Elastic Compliance Matrix: (Units=1/GPa)
#
#
# Indices 1 2 3 4 5 6 
#
# 1 0.011734 -0.005086 -0.000195 0.000000 0.000000 0.000000
# 2 -0.005086 0.009027 -0.004074 0.000000 0.000000 0.000000
# 3 -0.000195 -0.004074 0.027942 0.000000 0.000000 0.000000
# 4 0.000000 0.000000 0.000000 0.033853 0.000000 0.000000
# 5 0.000000 0.000000 0.000000 0.000000 0.071786 0.000000
# 6 0.000000 0.000000 0.000000 0.000000 0.000000 0.017197
#
#
# Mechanical properties :
#
#
# Convention : Reuss Voigt Hill
#
# Bulk Modulus (GPa) = 33.34050 58.55668 45.94859
# Shear Modulus (GPa) = 24.96922 34.39752 29.68337
#
# Velocity S-wave (km/s) = 3.28876 3.86005 3.58580
# Velocity P-wave (km/s) = 5.37246 6.72545 6.08666
#
# Compressibility (1/GPa) = 0.02999355
#
# Stress axis : x y z
#
# Youngs Moduli (GPa) = 85.22154 110.77490 35.78894
#
# Poissons Ratio (x) = 0.56337 0.00697
# Poissons Ratio (y) = 0.43341 0.14582
# Poissons Ratio (z) = 0.01659 0.45133
#
# Static dielectric constant tensor:
#      x y z
#    x 1.876270 0.000000 0.000000 
#    y 0.000000 1.889160 0.000000 
#    z 0.000000 0.000000 1.961470 
# 
# From -- ./inp_files/3625.got.cif
#   From: 2010.05.17/outbox.cif.g08.bks.cpg/sg19_2_cif.got.tgz:3625.got - 2010.06.03 22:46:19.
