data_PCOD9315041
_publ_section_title
;
Structure prediction by ZEFSAII (Michael W. Deem and Ramdas Pophale) SiO2 
 PCOD9315041
Probable space group: P 21 21 21
;
_chemical_formula_sum "Si O2"
_cell_formula_units_Z 28
_cell_length_a 11.364603
_cell_length_b 16.631080
_cell_length_c 6.947274
_cell_angle_alpha 90.000000
_cell_angle_beta 90.000000
_cell_angle_gamma 90.000000
_cell_volume 1313.073841
_symmetry_space_group_name_H-M "P 21 21 21"
_symmetry_group_IT_number 19
_symmetry_cell_setting 'orthorhombic'
loop_
_space_group_symop_operation_xyz
x,y,z
1/2-x,-y,1/2+z
1/2+x,1/2-y,-z
-x,1/2+y,1/2-z
loop_
_atom_site_type_symbol
_atom_site_label
_atom_site_fract_x
_atom_site_fract_y
_atom_site_fract_z
Si Si1 0.725490 0.223412 0.374545
Si Si2 0.745190 0.589332 0.946127
Si Si3 0.000522 0.482682 0.403913
Si Si4 0.691878 0.135854 0.768981
Si Si5 0.390502 0.355335 0.942902
Si Si6 0.474023 0.703011 0.420490
Si Si7 0.602239 0.550757 0.298429
O O1 0.736787 0.319523 0.383815
O O2 0.736002 0.183959 0.583445
O O3 0.822237 0.184790 0.234557
O O4 0.599790 0.203999 0.276948
O O5 0.626775 0.552948 0.846864
O O6 0.851677 0.529536 0.899074
O O7 0.710018 0.585357 0.170475
O O8 0.105776 0.433978 0.306119
O O9 0.020424 0.576658 0.371389
O O10 0.994729 0.471067 0.636222
O O11 0.795262 0.106344 0.910035
O O12 0.616066 0.195680 0.902763
O O13 0.453285 0.283778 0.056513
O O14 0.553161 0.623125 0.423891
#
# Coordination Sequence:
#
# PCOD9315041 Si02
#       7
#     4   4   4   4   4   4   4
#     4  11  23  47  68 102 134 186 230 285 341 421
#     4  10  23  41  70  98 141 173 236 281 342 405
#     4  10  24  44  62 102 136 181 224 287 341 408
#     4  11  25  42  70  93 139 181 230 284 346 410
#     4  11  26  40  71  95 139 180 234 275 352 415
#     4  11  24  45  69 101 138 180 227 292 346 411
#     4  10  23  41  70 101 139 177 225 286 342 408
#
# _framework density 21.324010999999999
#
# number of rings (size 3 to 8) (size 9 to 14) (size 15 to 20)
#    0.857    0.571    1.429    2.571    6.000    3.429 
#    0.000    0.000    0.000    0.000    0.000    0.000 
#    0.000    0.000    0.000    0.000    0.000    0.000 
#
# Total GULP energy -156397.441880 kJ/mol
# GULP energy per Si atom -5585.622924 kJ/mol
# Density = 2.127548 g / cm^3
# Si number density = 21.324011 Si / 1000 Ang^3
#
#
#
# Elastic Constant Matrix: (Units=GPa)
#
#
# Indices 1 2 3 4 5 6 
#
# 1 32.6990 16.7421 8.8635 0.0000 0.0000 0.0000
# 2 16.7421 121.3844 10.2049 0.0000 0.0000 0.0000
# 3 8.8635 10.2049 75.3562 0.0000 0.0000 0.0000
# 4 0.0000 0.0000 0.0000 26.2224 0.0000 0.0000
# 5 0.0000 0.0000 0.0000 0.0000 12.1978 0.0000
# 6 0.0000 0.0000 0.0000 0.0000 0.0000 38.1182
#
#
#
# Elastic Compliance Matrix: (Units=1/GPa)
#
#
# Indices 1 2 3 4 5 6 
#
# 1 0.033734 -0.004369 -0.003376 0.000000 0.000000 0.000000
# 2 -0.004369 0.008899 -0.000691 0.000000 0.000000 0.000000
# 3 -0.003376 -0.000691 0.013761 0.000000 0.000000 0.000000
# 4 0.000000 0.000000 0.000000 0.038135 0.000000 0.000000
# 5 0.000000 0.000000 0.000000 0.000000 0.081982 0.000000
# 6 0.000000 0.000000 0.000000 0.000000 0.000000 0.026234
#
#
# Mechanical properties :
#
#
# Convention : Reuss Voigt Hill
#
# Bulk Modulus (GPa) = 25.30280 33.45116 29.37698
# Shear Modulus (GPa) = 21.47839 28.21630 24.84735
#
# Velocity S-wave (km/s) = 3.17715 3.64155 3.41725
# Velocity P-wave (km/s) = 5.03494 5.77948 5.42001
#
# Compressibility (1/GPa) = 0.03952131
#
# Stress axis : x y z
#
# Youngs Moduli (GPa) = 29.64364 112.37216 72.66898
#
# Poissons Ratio (x) = 0.49095 0.24534
# Poissons Ratio (y) = 0.12951 0.05023
# Poissons Ratio (z) = 0.10008 0.07768
#
# Static dielectric constant tensor:
#      x y z
#    x 1.781600 0.000000 0.000000 
#    y 0.000000 1.717660 0.000000 
#    z 0.000000 0.000000 1.771440 
# 
# From -- ./inp_files/1035.got.cif
#   From: 2010.05.17/outbox.cif.g08.bks.cpg/sg19_1_cif.got.tgz:1035.got - 2010.06.03 22:46:19.
