data_PCOD9315477
_publ_section_title
;
Structure prediction by ZEFSAII (Michael W. Deem and Ramdas Pophale) SiO2 
 PCOD9315477
Probable space group: P 21 21 21
;
_chemical_formula_sum "Si O2"
_cell_formula_units_Z 16
_cell_length_a 5.360178
_cell_length_b 15.200085
_cell_length_c 7.764628
_cell_angle_alpha 90.000000
_cell_angle_beta 90.000000
_cell_angle_gamma 90.000000
_cell_volume 632.624318
_symmetry_space_group_name_H-M "P 21 21 21"
_symmetry_group_IT_number 19
_symmetry_cell_setting 'orthorhombic'
loop_
_space_group_symop_operation_xyz
x,y,z
1/2-x,-y,1/2+z
1/2+x,1/2-y,-z
-x,1/2+y,1/2-z
loop_
_atom_site_type_symbol
_atom_site_label
_atom_site_fract_x
_atom_site_fract_y
_atom_site_fract_z
Si Si1 0.315443 0.893761 0.055627
Si Si2 0.402464 0.838628 0.689565
Si Si3 0.441346 0.146295 0.891864
Si Si4 0.673013 0.014875 0.638121
O O1 0.270552 0.850409 0.241548
O O2 0.563864 0.950524 0.074246
O O3 0.062406 0.950186 0.023730
O O4 0.345558 0.831155 0.891834
O O5 0.174322 0.874254 0.575797
O O6 0.448554 0.743331 0.611610
O O7 0.618861 0.912069 0.669415
O O8 0.623088 0.072298 0.813137
#
# Coordination Sequence:
#
# PCOD9315477 Si02
#       4
#     4   4   4   4
#     4  10  27  49  73 109 154 199 254 315 377 459
#     4  12  26  48  81 108 162 197 253 327 371 454
#     4  10  29  44  75 118 147 196 269 293 399 442
#     4  10  26  51  75 111 153 200 256 305 391 443
#
# _framework density 25.291471999999999
#
# number of rings (size 3 to 8) (size 9 to 14) (size 15 to 20)
#    1.500    0.000    0.000    1.500   10.500    4.000 
#    0.000    0.000    0.000    0.000    0.000    0.000 
#    0.000    0.000    0.000    0.000    0.000    0.000 
#
# Total GULP energy -89475.887061 kJ/mol
# GULP energy per Si atom -5592.242941 kJ/mol
# Density = 2.523391 g / cm^3
# Si number density = 25.291472 Si / 1000 Ang^3
#
#
#
# Elastic Constant Matrix: (Units=GPa)
#
#
# Indices 1 2 3 4 5 6 
#
# 1 131.0634 10.0153 29.1799 0.0000 0.0000 0.0000
# 2 10.0153 83.9895 -4.1801 0.0000 0.0000 0.0000
# 3 29.1799 -4.1801 84.3352 0.0000 0.0000 0.0000
# 4 0.0000 0.0000 0.0000 35.4600 0.0000 0.0000
# 5 0.0000 0.0000 0.0000 0.0000 24.7330 0.0000
# 6 0.0000 0.0000 0.0000 0.0000 0.0000 37.2052
#
#
#
# Elastic Compliance Matrix: (Units=1/GPa)
#
#
# Indices 1 2 3 4 5 6 
#
# 1 0.008375 -0.001146 -0.002955 0.000000 0.000000 0.000000
# 2 -0.001146 0.012092 0.000996 0.000000 0.000000 0.000000
# 3 -0.002955 0.000996 0.012929 0.000000 0.000000 0.000000
# 4 0.000000 0.000000 0.000000 0.028201 0.000000 0.000000
# 5 0.000000 0.000000 0.000000 0.000000 0.040432 0.000000
# 6 0.000000 0.000000 0.000000 0.000000 0.000000 0.026878
#
#
# Mechanical properties :
#
#
# Convention : Reuss Voigt Hill
#
# Bulk Modulus (GPa) = 36.78142 41.04646 38.91394
# Shear Modulus (GPa) = 34.67912 37.10453 35.89183
#
# Velocity S-wave (km/s) = 3.70696 3.83440 3.77122
# Velocity P-wave (km/s) = 5.73556 5.98900 5.86365
#
# Compressibility (1/GPa) = 0.02718764
#
# Stress axis : x y z
#
# Youngs Moduli (GPa) = 119.39922 82.69637 77.34492
#
# Poissons Ratio (x) = 0.09475 0.22852
# Poissons Ratio (y) = 0.13680 -0.07702
# Poissons Ratio (z) = 0.35278 -0.08235
#
# Static dielectric constant tensor:
#      x y z
#    x 2.034600 0.000000 0.000000 
#    y 0.000000 1.989780 0.000000 
#    z 0.000000 0.000000 2.062710 
# 
# From -- ./inp_files/1666.got.cif
#   From: 2010.05.17/outbox.cif.g08.bks.cpg/sg19_1_cif.got.tgz:1666.got - 2010.06.03 22:46:19.
