data_PCOD9315830
_publ_section_title
;
Structure prediction by ZEFSAII (Michael W. Deem and Ramdas Pophale) SiO2 
 PCOD9315830
Probable space group: P 21 21 21
;
_chemical_formula_sum "Si O2"
_cell_formula_units_Z 24
_cell_length_a 5.364421
_cell_length_b 15.715738
_cell_length_c 11.050611
_cell_angle_alpha 90.000000
_cell_angle_beta 90.000000
_cell_angle_gamma 90.000000
_cell_volume 931.630987
_symmetry_space_group_name_H-M "P 21 21 21"
_symmetry_group_IT_number 19
_symmetry_cell_setting 'orthorhombic'
loop_
_space_group_symop_operation_xyz
x,y,z
1/2-x,-y,1/2+z
1/2+x,1/2-y,-z
-x,1/2+y,1/2-z
loop_
_atom_site_type_symbol
_atom_site_label
_atom_site_fract_x
_atom_site_fract_y
_atom_site_fract_z
Si Si1 0.694882 0.552063 0.404308
Si Si2 0.665962 0.004277 0.888856
Si Si3 0.429575 0.796185 0.454323
Si Si4 0.690853 0.351316 0.683010
Si Si5 0.734136 0.829979 0.234959
Si Si6 0.516076 0.600330 0.971885
O O1 0.459403 0.532997 0.486181
O O2 0.872466 0.614308 0.481716
O O3 0.636082 0.606384 0.286123
O O4 0.818779 0.459482 0.384609
O O5 0.673446 0.088360 0.809229
O O6 0.514323 0.924596 0.834132
O O7 0.927740 0.965016 0.925268
O O8 0.687258 0.759127 0.509950
O O9 0.482639 0.807134 0.309926
O O10 0.615322 0.259202 0.733941
O O11 0.819852 0.336276 0.552529
O O12 0.780026 0.861291 0.097659
#
# Coordination Sequence:
#
# PCOD9315830 Si02
#       6
#     4   4   4   4   4   4
#     4  11  24  46  78 110 153 206 275 345 417 492
#     4  11  26  49  76 111 156 211 277 341 422 498
#     4  12  26  48  78 127 157 204 278 345 413 490
#     4  11  27  47  72 116 157 210 275 342 413 510
#     4  12  26  48  78 113 160 217 267 351 415 507
#     4  11  27  48  70 111 159 216 272 336 424 501
#
# _framework density 25.761274
#
# number of rings (size 3 to 8) (size 9 to 14) (size 15 to 20)
#    0.000    0.667    5.000    1.000    4.667    1.333 
#    6.000    0.000    0.000    0.000    0.000    0.000 
#    0.000    0.000    0.000    0.000    0.000    0.000 
#
# Total GULP energy -134063.298277 kJ/mol
# GULP energy per Si atom -5585.970762 kJ/mol
# Density = 2.570264 g / cm^3
# Si number density = 25.761274 Si / 1000 Ang^3
#
#
#
# Elastic Constant Matrix: (Units=GPa)
#
#
# Indices 1 2 3 4 5 6 
#
# 1 70.1995 26.4626 11.4061 0.0000 0.0000 0.0000
# 2 26.4626 151.7375 45.3909 0.0000 0.0000 0.0000
# 3 11.4061 45.3909 83.1318 0.0000 0.0000 0.0000
# 4 0.0000 0.0000 0.0000 43.8641 0.0000 0.0000
# 5 0.0000 0.0000 0.0000 0.0000 -1.8027 0.0000
# 6 0.0000 0.0000 0.0000 0.0000 0.0000 29.5839
#
#
#
# Elastic Compliance Matrix: (Units=1/GPa)
#
#
# Indices 1 2 3 4 5 6 
#
# 1 0.015288 -0.002437 -0.000767 0.000000 0.000000 0.000000
# 2 -0.002437 0.008265 -0.004179 0.000000 0.000000 0.000000
# 3 -0.000767 -0.004179 0.014416 0.000000 0.000000 0.000000
# 4 0.000000 0.000000 0.000000 0.022798 0.000000 0.000000
# 5 0.000000 0.000000 0.000000 0.000000 -0.554739 0.000000
# 6 0.000000 0.000000 0.000000 0.000000 0.000000 0.033802
#
#
# Mechanical properties :
#
#
# Convention : Reuss Voigt Hill
#
# Bulk Modulus (GPa) = 43.09503 52.39866 47.74684
# Shear Modulus (GPa) = -11.42414 29.11636 8.84611
#
# Velocity S-wave (km/s) = -2.10814 3.36555 1.85508
# Velocity P-wave (km/s) = 3.29230 5.95708 4.81280
#
# Compressibility (1/GPa) = 0.02320453
#
# Stress axis : x y z
#
# Youngs Moduli (GPa) = 65.40935 120.98801 69.36778
#
# Poissons Ratio (x) = 0.29482 0.05321
# Poissons Ratio (y) = 0.15939 0.28986
# Poissons Ratio (z) = 0.05018 0.50556
#
# Static dielectric constant tensor:
#      x y z
#    x 2.041160 0.000000 0.000000 
#    y 0.000000 2.248220 0.000000 
#    z 0.000000 0.000000 2.135790 
# 
# From -- ./inp_files/4445.got.cif
#   From: 2010.05.17/outbox.cif.g08.bks.cpg/sg19_3_cif.got.tgz:4445.got - 2010.06.03 22:46:19.
