data_PCOD9315650
_publ_section_title
;
Structure prediction by ZEFSAII (Michael W. Deem and Ramdas Pophale) SiO2 
 PCOD9315650
Probable space group: P 21 21 21
;
_chemical_formula_sum "Si O2"
_cell_formula_units_Z 32
_cell_length_a 8.039888
_cell_length_b 8.489353
_cell_length_c 18.133400
_cell_angle_alpha 90.000000
_cell_angle_beta 90.000000
_cell_angle_gamma 90.000000
_cell_volume 1237.667061
_symmetry_space_group_name_H-M "P 21 21 21"
_symmetry_group_IT_number 19
_symmetry_cell_setting 'orthorhombic'
loop_
_space_group_symop_operation_xyz
x,y,z
1/2-x,-y,1/2+z
1/2+x,1/2-y,-z
-x,1/2+y,1/2-z
loop_
_atom_site_type_symbol
_atom_site_label
_atom_site_fract_x
_atom_site_fract_y
_atom_site_fract_z
Si Si1 0.331421 0.788844 0.563770
Si Si2 0.670264 0.384544 0.421640
Si Si3 0.658282 0.097294 0.085716
Si Si4 0.838186 0.793313 0.069671
Si Si5 0.341322 0.100788 0.314755
Si Si6 0.049579 0.699212 0.677572
Si Si7 0.373618 0.301704 0.676308
Si Si8 0.485695 0.116707 0.814770
O O1 0.306169 0.976783 0.564285
O O2 0.334107 0.716189 0.482820
O O3 0.169780 0.724225 0.607663
O O4 0.483763 0.718710 0.611874
O O5 0.499334 0.480591 0.424161
O O6 0.669562 0.253809 0.484889
O O7 0.710509 0.298365 0.344360
O O8 0.616037 0.197029 0.158333
O O9 0.810899 0.976833 0.085596
O O10 0.690585 0.699605 0.111587
O O11 0.007836 0.728158 0.105298
O O12 0.362102 0.219550 0.246825
O O13 0.177558 0.991315 0.311400
O O14 0.491455 0.978445 0.314504
O O15 0.366483 0.487651 0.688868
O O16 0.470499 0.227309 0.744716
#
# Coordination Sequence:
#
# PCOD9315650 Si02
#       8
#     4   4   4   4   4   4   4   4
#     4  11  24  43  66  94 131 173 220 271 328 391
#     4  11  23  42  63  93 130 170 216 271 328 387
#     4  11  24  42  63  94 130 170 217 269 324 391
#     4  11  23  41  63  93 128 170 218 268 326 390
#     4  11  24  44  66  96 134 171 217 275 328 394
#     4  11  25  44  67  97 132 174 217 269 332 391
#     4  11  24  41  67  95 130 172 216 270 325 387
#     4  11  23  43  65  96 129 168 219 271 323 387
#
# _framework density 25.855096
#
# number of rings (size 3 to 8) (size 9 to 14) (size 15 to 20)
#    0.000    1.000    0.000    8.250    0.000    9.000 
#    0.000    0.000    0.000    0.000    0.000    0.000 
#    0.000    0.000    0.000    0.000    0.000    0.000 
#
# Total GULP energy -179482.767205 kJ/mol
# GULP energy per Si atom -5608.836475 kJ/mol
# Density = 2.579625 g / cm^3
# Si number density = 25.855096 Si / 1000 Ang^3
#
#
#
# Elastic Constant Matrix: (Units=GPa)
#
#
# Indices 1 2 3 4 5 6 
#
# 1 90.6874 15.6446 0.1664 0.0000 0.0000 0.0000
# 2 15.6446 133.5120 12.2068 0.0000 0.0000 0.0000
# 3 0.1664 12.2068 53.7422 0.0000 0.0000 0.0000
# 4 0.0000 0.0000 0.0000 57.2578 0.0000 0.0000
# 5 0.0000 0.0000 0.0000 0.0000 35.8401 0.0000
# 6 0.0000 0.0000 0.0000 0.0000 0.0000 49.1572
#
#
#
# Elastic Compliance Matrix: (Units=1/GPa)
#
#
# Indices 1 2 3 4 5 6 
#
# 1 0.011258 -0.001344 0.000270 0.000000 0.000000 0.000000
# 2 -0.001344 0.007809 -0.001770 0.000000 0.000000 0.000000
# 3 0.000270 -0.001770 0.019008 0.000000 0.000000 0.000000
# 4 0.000000 0.000000 0.000000 0.017465 0.000000 0.000000
# 5 0.000000 0.000000 0.000000 0.000000 0.027902 0.000000
# 6 0.000000 0.000000 0.000000 0.000000 0.000000 0.020343
#
#
# Mechanical properties :
#
#
# Convention : Reuss Voigt Hill
#
# Bulk Modulus (GPa) = 30.87405 37.10857 33.99131
# Shear Modulus (GPa) = 41.57374 45.11261 43.34318
#
# Velocity S-wave (km/s) = 4.01428 4.18164 4.09881
# Velocity P-wave (km/s) = 5.78386 6.13991 5.96454
#
# Compressibility (1/GPa) = 0.03238966
#
# Stress axis : x y z
#
# Youngs Moduli (GPa) = 88.82382 128.05360 52.60820
#
# Poissons Ratio (x) = 0.17210 -0.01423
# Poissons Ratio (y) = 0.11937 0.09310
# Poissons Ratio (z) = -0.02402 0.22660
#
# Static dielectric constant tensor:
#      x y z
#    x 2.192900 0.000000 0.000000 
#    y 0.000000 2.004130 0.000000 
#    z 0.000000 0.000000 1.921150 
# 
# From -- ./inp_files/7028.got.cif
#   From: 2010.05.17/outbox.cif.g08.bks.cpg/sg19_4_cif.got.tgz:7028.got - 2010.06.03 22:46:19.
