data_PCOD9315740
_publ_section_title
;
Structure prediction by ZEFSAII (Michael W. Deem and Ramdas Pophale) SiO2 
 PCOD9315740
Probable space group: P 21 21 21
;
_chemical_formula_sum "Si O2"
_cell_formula_units_Z 28
_cell_length_a 7.447851
_cell_length_b 7.264057
_cell_length_c 19.820832
_cell_angle_alpha 90.000000
_cell_angle_beta 90.000000
_cell_angle_gamma 90.000000
_cell_volume 1072.339006
_symmetry_space_group_name_H-M "P 21 21 21"
_symmetry_group_IT_number 19
_symmetry_cell_setting 'orthorhombic'
loop_
_space_group_symop_operation_xyz
x,y,z
1/2-x,-y,1/2+z
1/2+x,1/2-y,-z
-x,1/2+y,1/2-z
loop_
_atom_site_type_symbol
_atom_site_label
_atom_site_fract_x
_atom_site_fract_y
_atom_site_fract_z
Si Si1 0.120467 0.382897 0.573648
Si Si2 0.843560 0.498470 0.964480
Si Si3 0.714296 0.628429 0.170494
Si Si4 0.380902 0.172552 0.180631
Si Si5 0.452145 0.349604 0.968450
Si Si6 0.612269 0.973833 0.822224
Si Si7 0.223404 0.572737 0.325726
O O1 0.100791 0.206924 0.526085
O O2 0.165492 0.554283 0.526638
O O3 0.280365 0.344493 0.626311
O O4 0.942974 0.415381 0.618144
O O5 0.861839 0.450420 0.885546
O O6 0.638420 0.453166 0.978949
O O7 0.957118 0.360372 0.009497
O O8 0.734371 0.852850 0.168899
O O9 0.657343 0.582984 0.247071
O O10 0.597017 0.196097 0.180444
O O11 0.238821 0.342072 0.175046
O O12 0.404291 0.969709 0.842493
O O13 0.380340 0.377048 0.893613
O O14 0.618200 0.905682 0.744685
#
# Coordination Sequence:
#
# PCOD9315740 Si02
#       7
#     4   4   4   4   4   4   4
#     4  12  27  51  82 118 161 218 285 346 415 501
#     4  12  27  49  75 116 162 215 275 338 414 501
#     4  11  25  47  83 116 160 216 275 352 417 492
#     4  11  23  49  78 116 163 212 276 343 417 498
#     4  12  29  49  79 115 167 222 273 346 421 506
#     4  11  25  50  82 123 159 214 286 344 419 496
#     4  11  24  51  79 116 170 221 272 351 421 500
#
# _framework density 26.111142999999998
#
# number of rings (size 3 to 8) (size 9 to 14) (size 15 to 20)
#    0.000    0.571    4.286    2.571    2.000    2.286 
#    7.714    0.000    0.000    0.000    0.000    0.000 
#    0.000    0.000    0.000    0.000    0.000    0.000 
#
# Total GULP energy -157036.142739 kJ/mol
# GULP energy per Si atom -5608.433669 kJ/mol
# Density = 2.605171 g / cm^3
# Si number density = 26.111143 Si / 1000 Ang^3
#
#
#
# Elastic Constant Matrix: (Units=GPa)
#
#
# Indices 1 2 3 4 5 6 
#
# 1 189.8990 28.3434 48.1572 0.0000 0.0000 0.0000
# 2 28.3434 68.6309 14.7994 0.0000 0.0000 0.0000
# 3 48.1572 14.7994 123.6940 0.0000 0.0000 0.0000
# 4 0.0000 0.0000 0.0000 24.8798 0.0000 0.0000
# 5 0.0000 0.0000 0.0000 0.0000 30.6933 0.0000
# 6 0.0000 0.0000 0.0000 0.0000 0.0000 33.5992
#
#
#
# Elastic Compliance Matrix: (Units=1/GPa)
#
#
# Indices 1 2 3 4 5 6 
#
# 1 0.006115 -0.002065 -0.002134 0.000000 0.000000 0.000000
# 2 -0.002065 0.015654 -0.001069 0.000000 0.000000 0.000000
# 3 -0.002134 -0.001069 0.009043 0.000000 0.000000 0.000000
# 4 0.000000 0.000000 0.000000 0.040193 0.000000 0.000000
# 5 0.000000 0.000000 0.000000 0.000000 0.032580 0.000000
# 6 0.000000 0.000000 0.000000 0.000000 0.000000 0.029763
#
#
# Mechanical properties :
#
#
# Convention : Reuss Voigt Hill
#
# Bulk Modulus (GPa) = 49.31793 62.75820 56.03806
# Shear Modulus (GPa) = 33.19093 37.22940 35.21017
#
# Velocity S-wave (km/s) = 3.56917 3.78008 3.67614
# Velocity P-wave (km/s) = 5.99283 6.56804 6.28702
#
# Compressibility (1/GPa) = 0.02027660
#
# Stress axis : x y z
#
# Youngs Moduli (GPa) = 163.52340 63.88079 110.58199
#
# Poissons Ratio (x) = 0.13194 0.23595
# Poissons Ratio (y) = 0.33774 0.11819
# Poissons Ratio (z) = 0.34892 0.06828
#
# Static dielectric constant tensor:
#      x y z
#    x 2.091960 0.000000 0.000000 
#    y 0.000000 2.056910 0.000000 
#    z 0.000000 0.000000 2.009440 
# 
# From -- ./inp_files/2988.got.cif
#   From: 2010.05.17/outbox.cif.g08.bks.cpg/sg19_2_cif.got.tgz:2988.got - 2010.06.03 22:46:19.
