data_PCOD9315432
_publ_section_title
;
Structure prediction by ZEFSAII (Michael W. Deem and Ramdas Pophale) SiO2 
 PCOD9315432
Probable space group: P 21 21 21
;
_chemical_formula_sum "Si O2"
_cell_formula_units_Z 20
_cell_length_a 10.983770
_cell_length_b 14.760480
_cell_length_c 4.933438
_cell_angle_alpha 90.000000
_cell_angle_beta 90.000000
_cell_angle_gamma 90.000000
_cell_volume 799.837175
_symmetry_space_group_name_H-M "P 21 21 21"
_symmetry_group_IT_number 19
_symmetry_cell_setting 'orthorhombic'
loop_
_space_group_symop_operation_xyz
x,y,z
1/2-x,-y,1/2+z
1/2+x,1/2-y,-z
-x,1/2+y,1/2-z
loop_
_atom_site_type_symbol
_atom_site_label
_atom_site_fract_x
_atom_site_fract_y
_atom_site_fract_z
Si Si1 0.496214 0.631051 0.808781
Si Si2 0.417513 0.809551 0.060154
Si Si3 0.784717 0.445675 0.601928
Si Si4 0.781851 0.944172 0.520359
Si Si5 0.926496 0.191640 0.080452
O O1 0.579031 0.571603 0.003076
O O2 0.411781 0.575993 0.608262
O O3 0.579503 0.700855 0.633256
O O4 0.417410 0.703067 0.985680
O O5 0.294395 0.857684 0.974572
O O6 0.467537 0.823341 0.360090
O O7 0.523236 0.848130 0.862295
O O8 0.770428 0.475526 0.910271
O O9 0.699399 0.854088 0.507591
O O10 0.782590 0.983507 0.821305
#
# Coordination Sequence:
#
# PCOD9315432 Si02
#       5
#     4   4   4   4   4
#     4  10  30  46  80 102 148 202 242 294 368 440
#     4  10  25  46  76 100 147 192 251 285 362 438
#     4  12  29  46  75 111 152 186 246 307 370 422
#     4  12  29  46  75 111 152 186 246 307 370 422
#     4  10  25  46  76 100 147 192 251 285 362 438
#
# _framework density 25.005089000000002
#
# number of rings (size 3 to 8) (size 9 to 14) (size 15 to 20)
#    1.200    0.000    0.000    2.400   19.600    0.000 
#    0.000    0.000    0.000    0.000    0.000    0.000 
#    0.000    0.000    0.000    0.000    0.000    0.000 
#
# Total GULP energy -112072.157704 kJ/mol
# GULP energy per Si atom -5603.607885 kJ/mol
# Density = 2.494818 g / cm^3
# Si number density = 25.005089 Si / 1000 Ang^3
#
#
#
# Elastic Constant Matrix: (Units=GPa)
#
#
# Indices 1 2 3 4 5 6 
#
# 1 79.7927 28.2399 -6.7531 0.0000 0.0000 0.0000
# 2 28.2399 82.4400 8.4355 0.0000 0.0000 0.0000
# 3 -6.7531 8.4355 74.1398 0.0000 0.0000 0.0000
# 4 0.0000 0.0000 0.0000 36.0479 0.0000 0.0000
# 5 0.0000 0.0000 0.0000 0.0000 37.3716 0.0000
# 6 0.0000 0.0000 0.0000 0.0000 0.0000 49.8960
#
#
#
# Elastic Compliance Matrix: (Units=1/GPa)
#
#
# Indices 1 2 3 4 5 6 
#
# 1 0.014524 -0.005171 0.001911 0.000000 0.000000 0.000000
# 2 -0.005171 0.014114 -0.002077 0.000000 0.000000 0.000000
# 3 0.001911 -0.002077 0.013898 0.000000 0.000000 0.000000
# 4 0.000000 0.000000 0.000000 0.027741 0.000000 0.000000
# 5 0.000000 0.000000 0.000000 0.000000 0.026758 0.000000
# 6 0.000000 0.000000 0.000000 0.000000 0.000000 0.020042
#
#
# Mechanical properties :
#
#
# Convention : Reuss Voigt Hill
#
# Bulk Modulus (GPa) = 31.38368 32.91301 32.14834
# Shear Modulus (GPa) = 36.13463 38.42647 37.28055
#
# Velocity S-wave (km/s) = 3.80556 3.92439 3.86543
# Velocity P-wave (km/s) = 5.64693 5.80737 5.72771
#
# Compressibility (1/GPa) = 0.03186370
#
# Stress axis : x y z
#
# Youngs Moduli (GPa) = 68.85017 70.85253 71.95062
#
# Poissons Ratio (x) = 0.36637 -0.13752
# Poissons Ratio (y) = 0.35602 0.14943
# Poissons Ratio (z) = -0.13159 0.14715
#
# Static dielectric constant tensor:
#      x y z
#    x 1.960970 0.000000 0.000000 
#    y 0.000000 1.980400 0.000000 
#    z 0.000000 0.000000 1.930680 
# 
# From -- ./inp_files/861.got.cif
#   From: 2010.05.17/outbox.cif.g08.bks.cpg/sg19_1_cif.got.tgz:861.got - 2010.06.03 22:46:19.
