data_PCOD9315666
_publ_section_title
;
Structure prediction by ZEFSAII (Michael W. Deem and Ramdas Pophale) SiO2 
 PCOD9315666
Probable space group: P 21 21 21
;
_chemical_formula_sum "Si O2"
_cell_formula_units_Z 20
_cell_length_a 15.872875
_cell_length_b 5.517154
_cell_length_c 8.843253
_cell_angle_alpha 90.000000
_cell_angle_beta 90.000000
_cell_angle_gamma 90.000000
_cell_volume 774.431042
_symmetry_space_group_name_H-M "P 21 21 21"
_symmetry_group_IT_number 19
_symmetry_cell_setting 'orthorhombic'
loop_
_space_group_symop_operation_xyz
x,y,z
1/2-x,-y,1/2+z
1/2+x,1/2-y,-z
-x,1/2+y,1/2-z
loop_
_atom_site_type_symbol
_atom_site_label
_atom_site_fract_x
_atom_site_fract_y
_atom_site_fract_z
Si Si1 0.421480 0.969256 0.102599
Si Si2 0.106725 0.650063 0.812355
Si Si3 0.272645 0.734391 0.293786
Si Si4 0.451077 0.773969 0.772830
Si Si5 0.665792 0.510668 0.944194
O O1 0.391563 0.240052 0.143999
O O2 0.518487 0.980644 0.158598
O O3 0.358728 0.809274 0.204630
O O4 0.420105 0.860357 0.936557
O O5 0.198422 0.531745 0.840284
O O6 0.102699 0.858248 0.941220
O O7 0.199765 0.800217 0.178674
O O8 0.265415 0.895933 0.443893
O O9 0.512768 0.001384 0.728077
O O10 0.378577 0.796124 0.647249
#
# Coordination Sequence:
#
# PCOD9315666 Si02
#       5
#     4   4   4   4   4
#     4  11  23  42  70 104 136 188 243 300 361 437
#     4  11  23  43  73  99 138 188 242 300 367 442
#     4  11  25  46  71  98 147 184 247 303 371 437
#     4  12  27  45  73 107 148 193 244 304 363 439
#     4  11  26  46  67 108 141 193 240 307 370 437
#
# _framework density 25.825412
#
# number of rings (size 3 to 8) (size 9 to 14) (size 15 to 20)
#    0.000    0.800    4.000    2.400    5.600    4.800 
#    0.000    0.000    0.000    0.000    0.000    0.000 
#    0.000    0.000    0.000    0.000    0.000    0.000 
#
# Total GULP energy -111788.278084 kJ/mol
# GULP energy per Si atom -5589.413904 kJ/mol
# Density = 2.576663 g / cm^3
# Si number density = 25.825412 Si / 1000 Ang^3
#
#
#
# Elastic Constant Matrix: (Units=GPa)
#
#
# Indices 1 2 3 4 5 6 
#
# 1 58.5941 4.9018 16.6386 0.0000 0.0000 0.0000
# 2 4.9018 50.6164 5.1024 0.0000 0.0000 0.0000
# 3 16.6386 5.1024 116.3616 0.0000 0.0000 0.0000
# 4 0.0000 0.0000 0.0000 24.1449 0.0000 0.0000
# 5 0.0000 0.0000 0.0000 0.0000 47.1520 0.0000
# 6 0.0000 0.0000 0.0000 0.0000 0.0000 33.7404
#
#
#
# Elastic Compliance Matrix: (Units=1/GPa)
#
#
# Indices 1 2 3 4 5 6 
#
# 1 0.017899 -0.001482 -0.002494 0.000000 0.000000 0.000000
# 2 -0.001482 0.019967 -0.000664 0.000000 0.000000 0.000000
# 3 -0.002494 -0.000664 0.008980 0.000000 0.000000 0.000000
# 4 0.000000 0.000000 0.000000 0.041417 0.000000 0.000000
# 5 0.000000 0.000000 0.000000 0.000000 0.021208 0.000000
# 6 0.000000 0.000000 0.000000 0.000000 0.000000 0.029638
#
#
# Mechanical properties :
#
#
# Convention : Reuss Voigt Hill
#
# Bulk Modulus (GPa) = 26.62018 30.98420 28.80219
# Shear Modulus (GPa) = 31.07331 34.26941 32.67136
#
# Velocity S-wave (km/s) = 3.47249 3.64670 3.56066
# Velocity P-wave (km/s) = 5.13884 5.45480 5.29918
#
# Compressibility (1/GPa) = 0.03756549
#
# Stress axis : x y z
#
# Youngs Moduli (GPa) = 55.86953 50.08297 111.36259
#
# Poissons Ratio (x) = 0.07422 0.27778
# Poissons Ratio (y) = 0.08279 0.07390
# Poissons Ratio (z) = 0.13936 0.03324
#
# Static dielectric constant tensor:
#      x y z
#    x 2.063680 0.000000 0.000000 
#    y 0.000000 2.348850 0.000000 
#    z 0.000000 0.000000 1.969040 
# 
# From -- ./inp_files/310.got.cif
#   From: 2010.05.17/outbox.cif.g08.bks.cpg/sg19_1_cif.got.tgz:310.got - 2010.06.03 22:46:19.
