data_PCOD9315422
_publ_section_title
;
Structure prediction by ZEFSAII (Michael W. Deem and Ramdas Pophale) SiO2 
 PCOD9315422
Probable space group: P 21 21 21
;
_chemical_formula_sum "Si O2"
_cell_formula_units_Z 28
_cell_length_a 15.154079
_cell_length_b 8.149581
_cell_length_c 9.037826
_cell_angle_alpha 90.000000
_cell_angle_beta 90.000000
_cell_angle_gamma 90.000000
_cell_volume 1116.166037
_symmetry_space_group_name_H-M "P 21 21 21"
_symmetry_group_IT_number 19
_symmetry_cell_setting 'orthorhombic'
loop_
_space_group_symop_operation_xyz
x,y,z
1/2-x,-y,1/2+z
1/2+x,1/2-y,-z
-x,1/2+y,1/2-z
loop_
_atom_site_type_symbol
_atom_site_label
_atom_site_fract_x
_atom_site_fract_y
_atom_site_fract_z
Si Si1 0.077297 0.286364 0.430347
Si Si2 0.357755 0.257255 0.957478
Si Si3 0.551569 0.967356 0.311467
Si Si4 0.676995 0.067213 0.056166
Si Si5 0.143286 0.081669 0.838533
Si Si6 0.267614 0.912828 0.032001
Si Si7 0.929236 0.079649 0.302144
O O1 0.055457 0.371118 0.585986
O O2 0.177363 0.223372 0.443898
O O3 0.061694 0.426223 0.308140
O O4 0.015323 0.132266 0.392448
O O5 0.280555 0.395448 0.945805
O O6 0.404083 0.266223 0.799892
O O7 0.313775 0.087827 0.999731
O O8 0.425209 0.315868 0.082064
O O9 0.628985 0.978686 0.192176
O O10 0.450351 0.953536 0.263127
O O11 0.636547 0.251576 0.066297
O O12 0.648518 0.968766 0.912493
O O13 0.215714 0.109725 0.707614
O O14 0.173339 0.940097 0.953613
#
# Coordination Sequence:
#
# PCOD9315422 Si02
#       7
#     4   4   4   4   4   4   4
#     4  11  25  44  69 101 138 185 235 297 351 432
#     4  10  25  45  71 100 138 183 235 296 349 427
#     4  11  25  46  71 105 139 186 242 287 361 418
#     4  11  24  45  69 102 141 181 237 288 356 417
#     4  11  27  43  73 104 142 192 233 300 349 437
#     4  11  25  47  69 103 141 187 238 292 361 418
#     4  11  25  42  70 101 137 182 232 294 355 415
#
# _framework density 25.085874
#
# number of rings (size 3 to 8) (size 9 to 14) (size 15 to 20)
#    0.000    1.143    1.429    2.571   12.000    2.286 
#    5.143    0.000    0.000    0.000    0.000    0.000 
#    0.000    0.000    0.000    0.000    0.000    0.000 
#
# Total GULP energy -156829.716064 kJ/mol
# GULP energy per Si atom -5601.061288 kJ/mol
# Density = 2.502878 g / cm^3
# Si number density = 25.085874 Si / 1000 Ang^3
#
#
#
# Elastic Constant Matrix: (Units=GPa)
#
#
# Indices 1 2 3 4 5 6 
#
# 1 85.1324 -1.6919 8.2021 0.0000 0.0000 0.0000
# 2 -1.6919 84.5198 8.8859 0.0000 0.0000 0.0000
# 3 8.2021 8.8859 84.8402 0.0000 0.0000 0.0000
# 4 0.0000 0.0000 0.0000 20.4788 0.0000 0.0000
# 5 0.0000 0.0000 0.0000 0.0000 34.0373 0.0000
# 6 0.0000 0.0000 0.0000 0.0000 0.0000 39.1940
#
#
#
# Elastic Compliance Matrix: (Units=1/GPa)
#
#
# Indices 1 2 3 4 5 6 
#
# 1 0.011868 0.000362 -0.001185 0.000000 0.000000 0.000000
# 2 0.000362 0.011974 -0.001289 0.000000 0.000000 0.000000
# 3 -0.001185 -0.001289 0.012036 0.000000 0.000000 0.000000
# 4 0.000000 0.000000 0.000000 0.048831 0.000000 0.000000
# 5 0.000000 0.000000 0.000000 0.000000 0.029379 0.000000
# 6 0.000000 0.000000 0.000000 0.000000 0.000000 0.025514
#
#
# Mechanical properties :
#
#
# Convention : Reuss Voigt Hill
#
# Bulk Modulus (GPa) = 31.59150 31.69829 31.64490
# Shear Modulus (GPa) = 32.38779 34.68178 33.53479
#
# Velocity S-wave (km/s) = 3.59705 3.72226 3.66019
# Velocity P-wave (km/s) = 5.46557 5.58005 5.52311
#
# Compressibility (1/GPa) = 0.03165408
#
# Stress axis : x y z
#
# Youngs Moduli (GPa) = 84.26160 83.51195 83.08077
#
# Poissons Ratio (x) = -0.03025 0.09847
# Poissons Ratio (y) = -0.03052 0.10711
# Poissons Ratio (z) = 0.09987 0.10766
#
# Static dielectric constant tensor:
#      x y z
#    x 1.986760 0.000000 0.000000 
#    y 0.000000 1.987490 0.000000 
#    z 0.000000 0.000000 2.025430 
# 
# From -- ./inp_files/2850.got.cif
#   From: 2010.05.17/outbox.cif.g08.bks.cpg/sg19_2_cif.got.tgz:2850.got - 2010.06.03 22:46:19.
