data_PCOD9315779
_publ_section_title
;
Structure prediction by ZEFSAII (Michael W. Deem and Ramdas Pophale) SiO2 
 PCOD9315779
Probable space group: P 21 21 21
;
_chemical_formula_sum "Si O2"
_cell_formula_units_Z 20
_cell_length_a 7.926048
_cell_length_b 5.269538
_cell_length_c 17.175919
_cell_angle_alpha 90.000000
_cell_angle_beta 90.000000
_cell_angle_gamma 90.000000
_cell_volume 717.379930
_symmetry_space_group_name_H-M "P 21 21 21"
_symmetry_group_IT_number 19
_symmetry_cell_setting 'orthorhombic'
loop_
_space_group_symop_operation_xyz
x,y,z
1/2-x,-y,1/2+z
1/2+x,1/2-y,-z
-x,1/2+y,1/2-z
loop_
_atom_site_type_symbol
_atom_site_label
_atom_site_fract_x
_atom_site_fract_y
_atom_site_fract_z
Si Si1 0.139372 0.938556 0.799921
Si Si2 0.912474 0.256644 0.877033
Si Si3 0.111807 0.964403 0.064139
Si Si4 0.726920 0.920762 0.068924
Si Si5 0.596959 0.770161 0.767412
O O1 0.103345 0.863331 0.711575
O O2 0.246037 0.196607 0.787955
O O3 0.975203 0.978107 0.853739
O O4 0.240771 0.737944 0.850531
O O5 0.738168 0.301165 0.920932
O O6 0.067273 0.391440 0.921978
O O7 0.127693 0.805631 0.143932
O O8 0.914514 0.030235 0.053716
O O9 0.181822 0.788140 0.996016
O O10 0.464017 0.557010 0.737508
#
# Coordination Sequence:
#
# PCOD9315779 Si02
#       5
#     4   4   4   4   4
#     4  11  24  43  78 104 150 200 260 325 390 474
#     4  11  24  46  72 107 142 197 258 322 387 474
#     4  11  25  46  74 107 151 205 254 328 390 470
#     4  12  23  50  68 108 155 199 259 324 401 467
#     4  11  24  47  78 116 154 203 267 321 398 471
#
# _framework density 27.879232999999999
#
# number of rings (size 3 to 8) (size 9 to 14) (size 15 to 20)
#    0.000    0.800    6.000    1.200    0.000    0.000 
#   10.800    0.000    0.000    0.000    0.000    0.000 
#    0.000    0.000    0.000    0.000    0.000    0.000 
#
# Total GULP energy -112211.812017 kJ/mol
# GULP energy per Si atom -5610.590601 kJ/mol
# Density = 2.781578 g / cm^3
# Si number density = 27.879233 Si / 1000 Ang^3
#
#
#
# Elastic Constant Matrix: (Units=GPa)
#
#
# Indices 1 2 3 4 5 6 
#
# 1 221.4177 51.0097 63.8708 0.0000 0.0000 0.0000
# 2 51.0097 41.3721 28.2556 0.0000 0.0000 0.0000
# 3 63.8708 28.2556 141.8991 0.0000 0.0000 0.0000
# 4 0.0000 0.0000 0.0000 46.4740 0.0000 0.0000
# 5 0.0000 0.0000 0.0000 0.0000 54.6503 0.0000
# 6 0.0000 0.0000 0.0000 0.0000 0.0000 68.0073
#
#
#
# Elastic Compliance Matrix: (Units=1/GPa)
#
#
# Indices 1 2 3 4 5 6 
#
# 1 0.006594 -0.007064 -0.001562 0.000000 0.000000 0.000000
# 2 -0.007064 0.035542 -0.003898 0.000000 0.000000 0.000000
# 3 -0.001562 -0.003898 0.008526 0.000000 0.000000 0.000000
# 4 0.000000 0.000000 0.000000 0.021517 0.000000 0.000000
# 5 0.000000 0.000000 0.000000 0.000000 0.018298 0.000000
# 6 0.000000 0.000000 0.000000 0.000000 0.000000 0.014704
#
#
# Mechanical properties :
#
#
# Convention : Reuss Voigt Hill
#
# Bulk Modulus (GPa) = 39.03751 76.77347 57.90549
# Shear Modulus (GPa) = 36.03145 51.26318 43.64731
#
# Velocity S-wave (km/s) = 3.59891 4.29273 3.96104
# Velocity P-wave (km/s) = 5.59485 7.22272 6.46026
#
# Compressibility (1/GPa) = 0.02561639
#
# Stress axis : x y z
#
# Youngs Moduli (GPa) = 151.64986 28.13552 117.28433
#
# Poissons Ratio (x) = 0.19874 0.18314
# Poissons Ratio (y) = 1.07122 0.45716
# Poissons Ratio (z) = 0.23681 0.10967
#
# Static dielectric constant tensor:
#      x y z
#    x 2.353980 0.000000 0.000000 
#    y 0.000000 2.161710 0.000000 
#    z 0.000000 0.000000 2.104720 
# 
# From -- ./inp_files/391.got.cif
#   From: 2010.05.17/outbox.cif.g08.bks.cpg/sg19_1_cif.got.tgz:391.got - 2010.06.03 22:46:19.
