data_PCOD9315415
_publ_section_title
;
Structure prediction by ZEFSAII (Michael W. Deem and Ramdas Pophale) SiO2 
 PCOD9315415
Probable space group: P 21 21 21
;
_chemical_formula_sum "Si O2"
_cell_formula_units_Z 24
_cell_length_a 4.946570
_cell_length_b 13.781407
_cell_length_c 13.902865
_cell_angle_alpha 90.000000
_cell_angle_beta 90.000000
_cell_angle_gamma 90.000000
_cell_volume 947.767962
_symmetry_space_group_name_H-M "P 21 21 21"
_symmetry_group_IT_number 19
_symmetry_cell_setting 'orthorhombic'
loop_
_space_group_symop_operation_xyz
x,y,z
1/2-x,-y,1/2+z
1/2+x,1/2-y,-z
-x,1/2+y,1/2-z
loop_
_atom_site_type_symbol
_atom_site_label
_atom_site_fract_x
_atom_site_fract_y
_atom_site_fract_z
Si Si1 0.810145 0.777243 0.838960
Si Si2 0.792889 0.808031 0.251241
Si Si3 0.376069 0.476895 0.718551
Si Si4 0.591438 0.912282 0.985983
Si Si5 0.375084 0.998231 0.579943
Si Si6 0.654968 0.710504 0.452198
O O1 0.598269 0.709798 0.782565
O O2 0.807891 0.880707 0.780427
O O3 0.700938 0.811615 0.942338
O O4 0.106010 0.734352 0.832463
O O5 0.726650 0.749356 0.347060
O O6 0.841855 0.969601 0.033058
O O7 0.732019 0.919984 0.272174
O O8 0.504178 0.466512 0.612780
O O9 0.576613 0.477267 0.808107
O O10 0.339819 0.917774 0.056780
O O11 0.249758 0.899795 0.537834
O O12 0.341407 0.726626 0.475442
#
# Coordination Sequence:
#
# PCOD9315415 Si02
#       6
#     4   4   4   4   4   4
#     4  10  25  45  68  97 145 180 235 291 345 421
#     4  12  23  45  70 101 139 193 232 286 365 418
#     4  10  26  45  74 105 145 191 234 297 358 425
#     4  10  25  44  68 103 142 180 233 298 348 421
#     4  12  23  43  70 101 139 190 236 286 362 426
#     4  12  24  38  64 107 142 174 234 302 358 431
#
# _framework density 25.322655000000001
#
# number of rings (size 3 to 8) (size 9 to 14) (size 15 to 20)
#    1.000    0.000    1.667    5.000    2.333    5.333 
#    0.000    3.333    0.000    0.000    0.000    0.000 
#    0.000    0.000    0.000    0.000    0.000    0.000 
#
# Total GULP energy -134464.249787 kJ/mol
# GULP energy per Si atom -5602.677074 kJ/mol
# Density = 2.526502 g / cm^3
# Si number density = 25.322655 Si / 1000 Ang^3
#
#
#
# Elastic Constant Matrix: (Units=GPa)
#
#
# Indices 1 2 3 4 5 6 
#
# 1 40.2984 -4.1214 -0.1362 0.0000 0.0000 0.0000
# 2 -4.1214 87.0220 8.4166 0.0000 0.0000 0.0000
# 3 -0.1362 8.4166 105.4557 0.0000 0.0000 0.0000
# 4 0.0000 0.0000 0.0000 40.2463 0.0000 0.0000
# 5 0.0000 0.0000 0.0000 0.0000 35.9772 0.0000
# 6 0.0000 0.0000 0.0000 0.0000 0.0000 28.2407
#
#
#
# Elastic Compliance Matrix: (Units=1/GPa)
#
#
# Indices 1 2 3 4 5 6 
#
# 1 0.024936 0.001187 -0.000063 0.000000 0.000000 0.000000
# 2 0.001187 0.011637 -0.000927 0.000000 0.000000 0.000000
# 3 -0.000063 -0.000927 0.009557 0.000000 0.000000 0.000000
# 4 0.000000 0.000000 0.000000 0.024847 0.000000 0.000000
# 5 0.000000 0.000000 0.000000 0.000000 0.027795 0.000000
# 6 0.000000 0.000000 0.000000 0.000000 0.000000 0.035410
#
#
# Mechanical properties :
#
#
# Convention : Reuss Voigt Hill
#
# Bulk Modulus (GPa) = 21.49412 26.78826 24.14119
# Shear Modulus (GPa) = 33.49053 36.13396 34.81225
#
# Velocity S-wave (km/s) = 3.64064 3.78159 3.71178
# Velocity P-wave (km/s) = 5.11653 5.44692 5.28431
#
# Compressibility (1/GPa) = 0.04652436
#
# Stress axis : x y z
#
# Youngs Moduli (GPa) = 40.10252 85.93100 104.63997
#
# Poissons Ratio (x) = -0.10200 0.00654
# Poissons Ratio (y) = -0.04760 0.09703
# Poissons Ratio (z) = 0.00251 0.07968
#
# Static dielectric constant tensor:
#      x y z
#    x 1.924040 0.000000 0.000000 
#    y 0.000000 2.037320 0.000000 
#    z 0.000000 0.000000 1.992030 
# 
# From -- ./inp_files/5676.got.cif
#   From: 2010.05.17/outbox.cif.g08.bks.cpg/sg19_3_cif.got.tgz:5676.got - 2010.06.03 22:46:19.
