data_PCOD9315431
_publ_section_title
;
Structure prediction by ZEFSAII (Michael W. Deem and Ramdas Pophale) SiO2 
 PCOD9315431
Probable space group: P 21 21 21
;
_chemical_formula_sum "Si O2"
_cell_formula_units_Z 28
_cell_length_a 13.099172
_cell_length_b 13.881077
_cell_length_c 5.464072
_cell_angle_alpha 90.000000
_cell_angle_beta 90.000000
_cell_angle_gamma 90.000000
_cell_volume 993.535573
_symmetry_space_group_name_H-M "P 21 21 21"
_symmetry_group_IT_number 19
_symmetry_cell_setting 'orthorhombic'
loop_
_space_group_symop_operation_xyz
x,y,z
1/2-x,-y,1/2+z
1/2+x,1/2-y,-z
-x,1/2+y,1/2-z
loop_
_atom_site_type_symbol
_atom_site_label
_atom_site_fract_x
_atom_site_fract_y
_atom_site_fract_z
Si Si1 0.419015 0.844026 0.568604
Si Si2 0.492264 0.387267 0.440139
Si Si3 0.209834 0.758645 0.400701
Si Si4 0.944447 0.390558 0.853070
Si Si5 0.783906 0.082132 0.772751
Si Si6 0.191537 0.976174 0.995636
Si Si7 0.658690 0.134927 0.402319
O O1 0.474123 0.834471 0.309545
O O2 0.304407 0.804132 0.554100
O O3 0.403117 0.958933 0.572159
O O4 0.471989 0.826304 0.826375
O O5 0.537790 0.497000 0.430447
O O6 0.371188 0.396354 0.427560
O O7 0.111025 0.826586 0.437863
O O8 0.185837 0.653647 0.510625
O O9 0.271757 0.728020 0.156712
O O10 0.861137 0.385426 0.631352
O O11 0.052190 0.360576 0.737496
O O12 0.670383 0.114848 0.691672
O O13 0.796404 0.969911 0.821389
O O14 0.255419 0.974132 0.249906
#
# Coordination Sequence:
#
# PCOD9315431 Si02
#       7
#     4   4   4   4   4   4   4
#     4  11  25  43  75 114 152 195 249 316 388 451
#     4  10  26  48  77 109 159 202 249 313 396 464
#     4  12  27  43  78 108 153 192 267 318 376 455
#     4  10  25  46  73 116 148 202 258 318 389 464
#     4  11  26  49  76 101 149 214 254 311 387 465
#     4  11  21  42  72 109 158 195 237 309 397 455
#     4  11  26  51  73 103 153 206 260 317 391 460
#
# _framework density 28.182179000000001
#
# number of rings (size 3 to 8) (size 9 to 14) (size 15 to 20)
#    0.000    1.143    2.857    1.714    6.000    1.143 
#    5.143    0.000    0.000    0.000    0.000    0.000 
#    0.000    0.000    0.000    0.000    0.000    0.000 
#
# Total GULP energy -156319.035160 kJ/mol
# GULP energy per Si atom -5582.822684 kJ/mol
# Density = 2.811804 g / cm^3
# Si number density = 28.182179 Si / 1000 Ang^3
#
#
#
# Elastic Constant Matrix: (Units=GPa)
#
#
# Indices 1 2 3 4 5 6 
#
# 1 125.5983 39.8010 57.6962 0.0000 0.0000 0.0000
# 2 39.8010 109.8499 27.8987 0.0000 0.0000 0.0000
# 3 57.6962 27.8987 159.9715 0.0000 0.0000 0.0000
# 4 0.0000 0.0000 0.0000 44.7510 0.0000 0.0000
# 5 0.0000 0.0000 0.0000 0.0000 46.8628 0.0000
# 6 0.0000 0.0000 0.0000 0.0000 0.0000 48.2237
#
#
#
# Elastic Compliance Matrix: (Units=1/GPa)
#
#
# Indices 1 2 3 4 5 6 
#
# 1 0.010377 -0.002940 -0.003230 0.000000 0.000000 0.000000
# 2 -0.002940 0.010358 -0.000746 0.000000 0.000000 0.000000
# 3 -0.003230 -0.000746 0.007546 0.000000 0.000000 0.000000
# 4 0.000000 0.000000 0.000000 0.022346 0.000000 0.000000
# 5 0.000000 0.000000 0.000000 0.000000 0.021339 0.000000
# 6 0.000000 0.000000 0.000000 0.000000 0.000000 0.020737
#
#
# Mechanical properties :
#
#
# Convention : Reuss Voigt Hill
#
# Bulk Modulus (GPa) = 69.20544 71.80126 70.50335
# Shear Modulus (GPa) = 44.90308 45.96908 45.43608
#
# Velocity S-wave (km/s) = 3.99596 4.04312 4.01961
# Velocity P-wave (km/s) = 6.77496 6.87958 6.82747
#
# Compressibility (1/GPa) = 0.01444973
#
# Stress axis : x y z
#
# Youngs Moduli (GPa) = 96.36523 96.54460 132.51677
#
# Poissons Ratio (x) = 0.28380 0.42803
# Poissons Ratio (y) = 0.28327 0.09889
# Poissons Ratio (z) = 0.31126 0.07204
#
# Static dielectric constant tensor:
#      x y z
#    x 2.277460 0.000000 0.000000 
#    y 0.000000 2.251710 0.000000 
#    z 0.000000 0.000000 2.407340 
# 
# From -- ./inp_files/1491.got.cif
#   From: 2010.05.17/outbox.cif.g08.bks.cpg/sg19_1_cif.got.tgz:1491.got - 2010.06.03 22:46:19.
