data_PCOD9315231
_publ_section_title
;
Structure prediction by ZEFSAII (Michael W. Deem and Ramdas Pophale) SiO2 
 PCOD9315231
Probable space group: P 21 21 21
;
_chemical_formula_sum "Si O2"
_cell_formula_units_Z 20
_cell_length_a 15.756755
_cell_length_b 4.983091
_cell_length_c 9.789893
_cell_angle_alpha 90.000000
_cell_angle_beta 90.000000
_cell_angle_gamma 90.000000
_cell_volume 768.676397
_symmetry_space_group_name_H-M "P 21 21 21"
_symmetry_group_IT_number 19
_symmetry_cell_setting 'orthorhombic'
loop_
_space_group_symop_operation_xyz
x,y,z
1/2-x,-y,1/2+z
1/2+x,1/2-y,-z
-x,1/2+y,1/2-z
loop_
_atom_site_type_symbol
_atom_site_label
_atom_site_fract_x
_atom_site_fract_y
_atom_site_fract_z
Si Si1 0.391290 0.952277 0.126937
Si Si2 0.319226 0.224636 0.879201
Si Si3 0.547636 0.413747 0.799725
Si Si4 0.759178 0.231070 0.523018
Si Si5 0.934931 0.348137 0.572280
O O1 0.305125 0.771605 0.105508
O O2 0.474442 0.795631 0.078203
O O3 0.411884 0.062187 0.275401
O O4 0.374419 0.189541 0.018162
O O5 0.372358 0.069272 0.765319
O O6 0.286426 0.524447 0.874900
O O7 0.241414 0.028186 0.913321
O O8 0.528343 0.121766 0.739759
O O9 0.557121 0.416842 0.961378
O O10 0.857803 0.164292 0.513343
#
# Coordination Sequence:
#
# PCOD9315231 Si02
#       5
#     4   4   4   4   4
#     4  10  27  48  73 120 152 203 262 318 391 471
#     4  10  23  49  70 105 158 187 260 312 372 471
#     4  12  25  46  75 109 145 204 253 312 386 459
#     4  10  26  48  76 111 151 201 250 325 382 460
#     4  12  27  47  84 113 160 209 255 333 389 463
#
# _framework density 26.018751000000002
#
# number of rings (size 3 to 8) (size 9 to 14) (size 15 to 20)
#    1.200    0.000    2.000    2.400    8.400    4.800 
#    0.000    0.000    0.000    0.000    0.000    0.000 
#    0.000    0.000    0.000    0.000    0.000    0.000 
#
# Total GULP energy -111781.658138 kJ/mol
# GULP energy per Si atom -5589.082907 kJ/mol
# Density = 2.595953 g / cm^3
# Si number density = 26.018751 Si / 1000 Ang^3
#
#
#
# Elastic Constant Matrix: (Units=GPa)
#
#
# Indices 1 2 3 4 5 6 
#
# 1 159.1885 31.1487 21.6311 0.0000 0.0000 0.0000
# 2 31.1487 90.9726 -3.4974 0.0000 0.0000 0.0000
# 3 21.6311 -3.4974 84.0208 0.0000 0.0000 0.0000
# 4 0.0000 0.0000 0.0000 5.5694 0.0000 0.0000
# 5 0.0000 0.0000 0.0000 0.0000 31.8694 0.0000
# 6 0.0000 0.0000 0.0000 0.0000 0.0000 39.8983
#
#
#
# Elastic Compliance Matrix: (Units=1/GPa)
#
#
# Indices 1 2 3 4 5 6 
#
# 1 0.007027 -0.002479 -0.001912 0.000000 0.000000 0.000000
# 2 -0.002479 0.011885 0.001133 0.000000 0.000000 0.000000
# 3 -0.001912 0.001133 0.012441 0.000000 0.000000 0.000000
# 4 0.000000 0.000000 0.000000 0.179554 0.000000 0.000000
# 5 0.000000 0.000000 0.000000 0.000000 0.031378 0.000000
# 6 0.000000 0.000000 0.000000 0.000000 0.000000 0.025064
#
#
# Mechanical properties :
#
#
# Convention : Reuss Voigt Hill
#
# Bulk Modulus (GPa) = 40.26479 48.08297 44.17388
# Shear Modulus (GPa) = 17.72140 34.46070 26.09105
#
# Velocity S-wave (km/s) = 2.61262 3.64326 3.17010
# Velocity P-wave (km/s) = 4.96084 6.01814 5.51489
#
# Compressibility (1/GPa) = 0.02483559
#
# Stress axis : x y z
#
# Youngs Moduli (GPa) = 142.31070 84.14070 80.37747
#
# Poissons Ratio (x) = 0.20863 0.15370
# Poissons Ratio (y) = 0.35286 -0.09107
# Poissons Ratio (z) = 0.27214 -0.09534
#
# Static dielectric constant tensor:
#      x y z
#    x 2.132520 0.000000 0.000000 
#    y 0.000000 1.971650 0.000000 
#    z 0.000000 0.000000 2.075210 
# 
# From -- ./inp_files/4091.got.cif
#   From: 2010.05.17/outbox.cif.g08.bks.cpg/sg19_3_cif.got.tgz:4091.got - 2010.06.03 22:46:19.
