data_PCOD9315335
_publ_section_title
;
Structure prediction by ZEFSAII (Michael W. Deem and Ramdas Pophale) SiO2 
 PCOD9315335
Probable space group: P 21 21 21
;
_chemical_formula_sum "Si O2"
_cell_formula_units_Z 28
_cell_length_a 7.925805
_cell_length_b 11.101592
_cell_length_c 13.404059
_cell_angle_alpha 90.000000
_cell_angle_beta 90.000000
_cell_angle_gamma 90.000000
_cell_volume 1179.410463
_symmetry_space_group_name_H-M "P 21 21 21"
_symmetry_group_IT_number 19
_symmetry_cell_setting 'orthorhombic'
loop_
_space_group_symop_operation_xyz
x,y,z
1/2-x,-y,1/2+z
1/2+x,1/2-y,-z
-x,1/2+y,1/2-z
loop_
_atom_site_type_symbol
_atom_site_label
_atom_site_fract_x
_atom_site_fract_y
_atom_site_fract_z
Si Si1 0.421933 0.723197 0.226377
Si Si2 0.754152 0.642537 0.940981
Si Si3 0.901257 0.259595 0.933343
Si Si4 0.169257 0.513360 0.240488
Si Si5 0.767212 0.173034 0.615432
Si Si6 0.549535 0.410808 0.917232
Si Si7 0.568524 0.013178 0.987557
O O1 0.284159 0.808153 0.171308
O O2 0.496320 0.764956 0.331868
O O3 0.343878 0.590389 0.238844
O O4 0.581763 0.741863 0.154552
O O5 0.597421 0.550545 0.942172
O O6 0.776382 0.754996 0.015165
O O7 0.902631 0.559833 0.981437
O O8 0.723590 0.330335 0.916630
O O9 0.017939 0.351521 0.994367
O O10 0.917620 0.141554 0.001599
O O11 0.176367 0.376922 0.284975
O O12 0.036140 0.586313 0.308522
O O13 0.115560 0.508920 0.125808
O O14 0.808377 0.042467 0.569328
#
# Coordination Sequence:
#
# PCOD9315335 Si02
#       7
#     4   4   4   4   4   4   4
#     4  11  25  45  74 105 157 194 257 311 379 453
#     4  10  25  48  72 108 152 199 252 308 388 457
#     4  11  25  50  70 112 153 200 253 324 377 451
#     4  12  26  45  78 112 145 203 258 313 388 451
#     4  11  25  44  75 107 149 200 248 309 382 458
#     4  11  28  47  77 110 156 200 256 321 387 456
#     4  10  24  45  68 108 150 188 254 310 371 458
#
# _framework density 23.740673999999999
#
# number of rings (size 3 to 8) (size 9 to 14) (size 15 to 20)
#    0.000    1.143    2.857    0.857    8.000    4.571 
#    0.000    0.000    0.000    0.000    0.000    0.000 
#    0.000    0.000    0.000    0.000    0.000    0.000 
#
# Total GULP energy -156185.322418 kJ/mol
# GULP energy per Si atom -5578.047229 kJ/mol
# Density = 2.368664 g / cm^3
# Si number density = 23.740674 Si / 1000 Ang^3
#
#
#
# Elastic Constant Matrix: (Units=GPa)
#
#
# Indices 1 2 3 4 5 6 
#
# 1 105.2710 -18.6055 49.0187 0.0000 0.0000 0.0000
# 2 -18.6055 159.7311 14.6835 0.0000 0.0000 0.0000
# 3 49.0187 14.6835 161.6735 0.0000 0.0000 0.0000
# 4 0.0000 0.0000 0.0000 51.3372 0.0000 0.0000
# 5 0.0000 0.0000 0.0000 0.0000 25.8062 0.0000
# 6 0.0000 0.0000 0.0000 0.0000 0.0000 -9.0822
#
#
#
# Elastic Compliance Matrix: (Units=1/GPa)
#
#
# Indices 1 2 3 4 5 6 
#
# 1 0.011487 0.001672 -0.003635 0.000000 0.000000 0.000000
# 2 0.001672 0.006557 -0.001102 0.000000 0.000000 0.000000
# 3 -0.003635 -0.001102 0.007387 0.000000 0.000000 0.000000
# 4 0.000000 0.000000 0.000000 0.019479 0.000000 0.000000
# 5 0.000000 0.000000 0.000000 0.000000 0.038750 0.000000
# 6 0.000000 0.000000 0.000000 0.000000 0.000000 -0.110106
#
#
# Mechanical properties :
#
#
# Convention : Reuss Voigt Hill
#
# Bulk Modulus (GPa) = 51.80997 57.42988 54.61992
# Shear Modulus (GPa) = -360.20274 39.05085 -160.57595
#
# Velocity S-wave (km/s) = -12.33099 4.06013 -8.23312
# Velocity P-wave (km/s) = 13.44868 6.79871 8.20501
#
# Compressibility (1/GPa) = 0.01930131
#
# Stress axis : x y z
#
# Youngs Moduli (GPa) = 87.05232 152.51704 135.36411
#
# Poissons Ratio (x) = -0.25504 0.49202
# Poissons Ratio (y) = -0.14557 0.14924
# Poissons Ratio (z) = 0.31642 0.16815
#
# Static dielectric constant tensor:
#      x y z
#    x 2.038130 0.000000 0.000000 
#    y 0.000000 2.117960 0.000000 
#    z 0.000000 0.000000 1.980170 
# 
# From -- ./inp_files/4620.got.cif
#   From: 2010.05.17/outbox.cif.g08.bks.cpg/sg19_3_cif.got.tgz:4620.got - 2010.06.03 22:46:19.
