data_PCOD9315592
_publ_section_title
;
Structure prediction by ZEFSAII (Michael W. Deem and Ramdas Pophale) SiO2 
 PCOD9315592
Probable space group: P 21 21 21
;
_chemical_formula_sum "Si O2"
_cell_formula_units_Z 28
_cell_length_a 6.897774
_cell_length_b 7.830309
_cell_length_c 23.102136
_cell_angle_alpha 90.000000
_cell_angle_beta 90.000000
_cell_angle_gamma 90.000000
_cell_volume 1247.785681
_symmetry_space_group_name_H-M "P 21 21 21"
_symmetry_group_IT_number 19
_symmetry_cell_setting 'orthorhombic'
loop_
_space_group_symop_operation_xyz
x,y,z
1/2-x,-y,1/2+z
1/2+x,1/2-y,-z
-x,1/2+y,1/2-z
loop_
_atom_site_type_symbol
_atom_site_label
_atom_site_fract_x
_atom_site_fract_y
_atom_site_fract_z
Si Si1 0.093421 0.787931 0.699329
Si Si2 0.438953 0.587870 0.941368
Si Si3 0.044375 0.667459 0.584601
Si Si4 0.077627 0.939589 0.183876
Si Si5 0.740840 0.917193 0.771969
Si Si6 0.389926 0.609637 0.513298
Si Si7 0.223347 0.910890 0.952008
O O1 0.004899 0.799986 0.634754
O O2 0.182232 0.594750 0.698995
O O3 0.926078 0.819895 0.745280
O O4 0.249466 0.937193 0.704948
O O5 0.539330 0.519035 0.883853
O O6 0.267092 0.486265 0.973471
O O7 0.323738 0.753722 0.921294
O O8 0.598475 0.634465 0.990466
O O9 0.270553 0.648329 0.571212
O O10 0.949375 0.728144 0.524189
O O11 0.926484 0.494541 0.592771
O O12 0.129456 0.737381 0.193807
O O13 0.896226 0.004582 0.221737
O O14 0.591108 0.519527 0.527427
#
# Coordination Sequence:
#
# PCOD9315592 Si02
#       7
#     4   4   4   4   4   4   4
#     4  12  27  49  74 107 142 189 243 309 364 434
#     4  11  25  42  70  98 143 187 232 286 359 423
#     4  11  25  40  70  98 141 183 229 284 363 425
#     4  12  27  48  76 106 140 195 242 308 367 431
#     4  12  27  50  76 105 144 184 254 309 364 424
#     4  11  22  43  63 101 141 180 225 283 343 436
#     4  11  23  42  63 101 143 180 229 283 338 443
#
# _framework density 22.439751999999999
#
# number of rings (size 3 to 8) (size 9 to 14) (size 15 to 20)
#    0.000    0.571    5.714    1.714    4.000    3.429 
#    2.571    0.000    0.000    0.000    0.000    0.000 
#    0.000    0.000    0.000    0.000    0.000    0.000 
#
# Total GULP energy -156252.505677 kJ/mol
# GULP energy per Si atom -5580.446631 kJ/mol
# Density = 2.238868 g / cm^3
# Si number density = 22.439752 Si / 1000 Ang^3
#
#
#
# Elastic Constant Matrix: (Units=GPa)
#
#
# Indices 1 2 3 4 5 6 
#
# 1 101.2384 24.9491 16.1011 0.0000 0.0000 0.0000
# 2 24.9491 99.8668 -3.8431 0.0000 0.0000 0.0000
# 3 16.1011 -3.8431 40.6273 0.0000 0.0000 0.0000
# 4 0.0000 0.0000 0.0000 18.6199 0.0000 0.0000
# 5 0.0000 0.0000 0.0000 0.0000 7.8755 0.0000
# 6 0.0000 0.0000 0.0000 0.0000 0.0000 31.1548
#
#
#
# Elastic Compliance Matrix: (Units=1/GPa)
#
#
# Indices 1 2 3 4 5 6 
#
# 1 0.011388 -0.003030 -0.004800 0.000000 0.000000 0.000000
# 2 -0.003030 0.010856 0.002228 0.000000 0.000000 0.000000
# 3 -0.004800 0.002228 0.026727 0.000000 0.000000 0.000000
# 4 0.000000 0.000000 0.000000 0.053706 0.000000 0.000000
# 5 0.000000 0.000000 0.000000 0.000000 0.126977 0.000000
# 6 0.000000 0.000000 0.000000 0.000000 0.000000 0.032098
#
#
# Mechanical properties :
#
#
# Convention : Reuss Voigt Hill
#
# Bulk Modulus (GPa) = 26.47811 35.12743 30.80277
# Shear Modulus (GPa) = 17.51048 25.16506 21.33777
#
# Velocity S-wave (km/s) = 2.79647 3.35244 3.08700
# Velocity P-wave (km/s) = 4.71723 5.53834 5.14420
#
# Compressibility (1/GPa) = 0.03776704
#
# Stress axis : x y z
#
# Youngs Moduli (GPa) = 87.81464 92.11563 37.41557
#
# Poissons Ratio (x) = 0.27907 0.17958
# Poissons Ratio (y) = 0.26604 -0.08335
# Poissons Ratio (z) = 0.42148 -0.20519
#
# Static dielectric constant tensor:
#      x y z
#    x 1.822600 0.000000 0.000000 
#    y 0.000000 2.152630 0.000000 
#    z 0.000000 0.000000 2.029290 
# 
# From -- ./inp_files/520.got.cif
#   From: 2010.05.17/outbox.cif.g08.bks.cpg/sg19_1_cif.got.tgz:520.got - 2010.06.03 22:46:19.
