data_PCOD9315165
_publ_section_title
;
Structure prediction by ZEFSAII (Michael W. Deem and Ramdas Pophale) SiO2 
 PCOD9315165
Probable space group: P 21 21 21
;
_chemical_formula_sum "Si O2"
_cell_formula_units_Z 28
_cell_length_a 17.901148
_cell_length_b 7.605132
_cell_length_c 8.010405
_cell_angle_alpha 90.000000
_cell_angle_beta 90.000000
_cell_angle_gamma 90.000000
_cell_volume 1090.541291
_symmetry_space_group_name_H-M "P 21 21 21"
_symmetry_group_IT_number 19
_symmetry_cell_setting 'orthorhombic'
loop_
_space_group_symop_operation_xyz
x,y,z
1/2-x,-y,1/2+z
1/2+x,1/2-y,-z
-x,1/2+y,1/2-z
loop_
_atom_site_type_symbol
_atom_site_label
_atom_site_fract_x
_atom_site_fract_y
_atom_site_fract_z
Si Si1 0.752802 0.788296 0.633665
Si Si2 0.038969 0.502543 0.894926
Si Si3 0.647199 0.690703 0.093218
Si Si4 0.946905 0.923554 0.219341
Si Si5 0.100990 0.152901 0.743309
Si Si6 0.793222 0.817195 0.249472
Si Si7 0.892821 0.283609 0.225326
O O1 0.813999 0.719440 0.765874
O O2 0.789691 0.801921 0.450173
O O3 0.678084 0.669111 0.611992
O O4 0.728494 0.985051 0.689135
O O5 0.093890 0.656718 0.832598
O O6 0.055310 0.325827 0.795701
O O7 0.952911 0.562973 0.891860
O O8 0.059471 0.464841 0.084749
O O9 0.609268 0.502586 0.121035
O O10 0.728275 0.696656 0.175942
O O11 0.652730 0.734954 0.898757
O O12 0.878597 0.790688 0.185881
O O13 0.032478 0.873622 0.204896
O O14 0.927383 0.109853 0.137087
#
# Coordination Sequence:
#
# PCOD9315165 Si02
#       7
#     4   4   4   4   4   4   4
#     4  11  24  44  74 101 147 193 245 307 376 436
#     4  11  23  46  67 106 144 186 245 303 369 443
#     4  11  25  45  72 104 144 186 249 301 364 450
#     4  10  23  44  71  98 149 188 239 302 370 437
#     4  12  24  43  75 103 144 190 241 304 369 448
#     4  11  22  48  72 105 147 197 242 309 370 443
#     4  10  25  46  67 105 143 194 243 302 370 441
#
# _framework density 25.675322999999999
#
# number of rings (size 3 to 8) (size 9 to 14) (size 15 to 20)
#    0.000    1.143    4.286    1.714    4.000    2.286 
#   18.000    0.000    0.000    0.000    0.000    0.000 
#    0.000    0.000    0.000    0.000    0.000    0.000 
#
# Total GULP energy -156331.706332 kJ/mol
# GULP energy per Si atom -5583.275226 kJ/mol
# Density = 2.561688 g / cm^3
# Si number density = 25.675323 Si / 1000 Ang^3
#
#
#
# Elastic Constant Matrix: (Units=GPa)
#
#
# Indices 1 2 3 4 5 6 
#
# 1 224.2445 48.7363 29.6404 0.0000 0.0000 0.0000
# 2 48.7363 94.3189 3.1831 0.0000 0.0000 0.0000
# 3 29.6404 3.1831 20.3603 0.0000 0.0000 0.0000
# 4 0.0000 0.0000 0.0000 17.1250 0.0000 0.0000
# 5 0.0000 0.0000 0.0000 0.0000 38.0835 0.0000
# 6 0.0000 0.0000 0.0000 0.0000 0.0000 49.0866
#
#
#
# Elastic Compliance Matrix: (Units=1/GPa)
#
#
# Indices 1 2 3 4 5 6 
#
# 1 0.006236 -0.002931 -0.008620 0.000000 0.000000 0.000000
# 2 -0.002931 0.012036 0.002386 0.000000 0.000000 0.000000
# 3 -0.008620 0.002386 0.061291 0.000000 0.000000 0.000000
# 4 0.000000 0.000000 0.000000 0.058394 0.000000 0.000000
# 5 0.000000 0.000000 0.000000 0.000000 0.026258 0.000000
# 6 0.000000 0.000000 0.000000 0.000000 0.000000 0.020372
#
#
# Mechanical properties :
#
#
# Convention : Reuss Voigt Hill
#
# Bulk Modulus (GPa) = 16.33126 55.78259 36.05692
# Shear Modulus (GPa) = 22.38841 38.01659 30.20250
#
# Velocity S-wave (km/s) = 2.95614 3.85212 3.43348
# Velocity P-wave (km/s) = 4.24572 6.44658 5.45823
#
# Compressibility (1/GPa) = 0.06123227
#
# Stress axis : x y z
#
# Youngs Moduli (GPa) = 160.36303 83.08088 16.31558
#
# Poissons Ratio (x) = 0.24353 0.14064
# Poissons Ratio (y) = 0.47007 -0.03892
# Poissons Ratio (z) = 1.38231 -0.19819
#
# Static dielectric constant tensor:
#      x y z
#    x 2.145560 0.000000 0.000000 
#    y 0.000000 2.164080 0.000000 
#    z 0.000000 0.000000 1.970650 
# 
# From -- ./inp_files/4140.got.cif
#   From: 2010.05.17/outbox.cif.g08.bks.cpg/sg19_3_cif.got.tgz:4140.got - 2010.06.03 22:46:19.
