data_PCOD9315190
_publ_section_title
;
Structure prediction by ZEFSAII (Michael W. Deem and Ramdas Pophale) SiO2 
 PCOD9315190
Probable space group: P 21 21 21
;
_chemical_formula_sum "Si O2"
_cell_formula_units_Z 28
_cell_length_a 8.916308
_cell_length_b 15.058880
_cell_length_c 8.460589
_cell_angle_alpha 90.000000
_cell_angle_beta 90.000000
_cell_angle_gamma 90.000000
_cell_volume 1136.000004
_symmetry_space_group_name_H-M "P 21 21 21"
_symmetry_group_IT_number 19
_symmetry_cell_setting 'orthorhombic'
loop_
_space_group_symop_operation_xyz
x,y,z
1/2-x,-y,1/2+z
1/2+x,1/2-y,-z
-x,1/2+y,1/2-z
loop_
_atom_site_type_symbol
_atom_site_label
_atom_site_fract_x
_atom_site_fract_y
_atom_site_fract_z
Si Si1 0.847052 0.654126 0.890214
Si Si2 0.355026 0.588067 0.767186
Si Si3 0.677345 0.788632 0.452216
Si Si4 0.156722 0.125750 0.961188
Si Si5 0.663159 0.152137 0.276214
Si Si6 0.081819 0.921385 0.963982
Si Si7 0.377591 0.456246 0.502869
O O1 0.787050 0.623002 0.719684
O O2 0.886872 0.755552 0.858201
O O3 0.729537 0.637662 0.029531
O O4 0.985149 0.591726 0.925471
O O5 0.249861 0.665294 0.700688
O O6 0.480837 0.613809 0.890463
O O7 0.417381 0.537745 0.614781
O O8 0.246880 0.523214 0.869916
O O9 0.504393 0.820783 0.468349
O O10 0.718483 0.684187 0.448455
O O11 0.770808 0.823750 0.605316
O O12 0.123012 0.023712 0.003480
O O13 0.520792 0.087922 0.308114
O O14 0.797309 0.113830 0.381420
#
# Coordination Sequence:
#
# PCOD9315190 Si02
#       7
#     4   4   4   4   4   4   4
#     4  11  25  43  67 103 142 176 236 291 354 412
#     4  11  24  41  71  97 135 188 230 294 347 435
#     4  11  24  46  72 102 140 191 242 290 361 417
#     4  11  26  46  69 106 144 187 238 297 351 429
#     4  10  23  45  72  96 139 182 236 290 348 432
#     4  11  26  47  69 109 143 182 243 292 357 421
#     4  11  22  42  68  97 131 182 235 282 356 414
#
# _framework density 24.64789
#
# number of rings (size 3 to 8) (size 9 to 14) (size 15 to 20)
#    0.000    1.143    1.429    4.286    8.000    0.000 
#    7.714    0.000    0.000    0.000    0.000    0.000 
#    0.000    0.000    0.000    0.000    0.000    0.000 
#
# Total GULP energy -156650.337573 kJ/mol
# GULP energy per Si atom -5594.654913 kJ/mol
# Density = 2.459179 g / cm^3
# Si number density = 24.647890 Si / 1000 Ang^3
#
#
#
# Elastic Constant Matrix: (Units=GPa)
#
#
# Indices 1 2 3 4 5 6 
#
# 1 53.6674 19.4091 9.6834 0.0000 0.0000 0.0000
# 2 19.4091 64.7225 17.2220 0.0000 0.0000 0.0000
# 3 9.6834 17.2220 80.9758 0.0000 0.0000 0.0000
# 4 0.0000 0.0000 0.0000 31.0376 0.0000 0.0000
# 5 0.0000 0.0000 0.0000 0.0000 33.8370 0.0000
# 6 0.0000 0.0000 0.0000 0.0000 0.0000 37.7538
#
#
#
# Elastic Compliance Matrix: (Units=1/GPa)
#
#
# Indices 1 2 3 4 5 6 
#
# 1 0.021017 -0.005972 -0.001243 0.000000 0.000000 0.000000
# 2 -0.005972 0.018074 -0.003130 0.000000 0.000000 0.000000
# 3 -0.001243 -0.003130 0.013164 0.000000 0.000000 0.000000
# 4 0.000000 0.000000 0.000000 0.032219 0.000000 0.000000
# 5 0.000000 0.000000 0.000000 0.000000 0.029553 0.000000
# 6 0.000000 0.000000 0.000000 0.000000 0.000000 0.026487
#
#
# Mechanical properties :
#
#
# Convention : Reuss Voigt Hill
#
# Bulk Modulus (GPa) = 31.68039 32.44386 32.06212
# Shear Modulus (GPa) = 29.11594 30.72907 29.92251
#
# Velocity S-wave (km/s) = 3.44070 3.53473 3.48803
# Velocity P-wave (km/s) = 5.35403 5.46357 5.40907
#
# Compressibility (1/GPa) = 0.03156527
#
# Stress axis : x y z
#
# Youngs Moduli (GPa) = 47.57960 55.32717 75.96641
#
# Poissons Ratio (x) = 0.33041 0.09444
# Poissons Ratio (y) = 0.28414 0.23777
# Poissons Ratio (z) = 0.05915 0.17317
#
# Static dielectric constant tensor:
#      x y z
#    x 1.929360 0.000000 0.000000 
#    y 0.000000 2.004480 0.000000 
#    z 0.000000 0.000000 1.929320 
# 
# From -- ./inp_files/2932.got.cif
#   From: 2010.05.17/outbox.cif.g08.bks.cpg/sg19_2_cif.got.tgz:2932.got - 2010.06.03 22:46:19.
