data_PCOD9315303
_publ_section_title
;
Structure prediction by ZEFSAII (Michael W. Deem and Ramdas Pophale) SiO2 
 PCOD9315303
Probable space group: P 21 21 21
;
_chemical_formula_sum "Si O2"
_cell_formula_units_Z 32
_cell_length_a 20.747534
_cell_length_b 11.589020
_cell_length_c 5.388323
_cell_angle_alpha 90.000000
_cell_angle_beta 90.000000
_cell_angle_gamma 90.000000
_cell_volume 1295.587707
_symmetry_space_group_name_H-M "P 21 21 21"
_symmetry_group_IT_number 19
_symmetry_cell_setting 'orthorhombic'
loop_
_space_group_symop_operation_xyz
x,y,z
1/2-x,-y,1/2+z
1/2+x,1/2-y,-z
-x,1/2+y,1/2-z
loop_
_atom_site_type_symbol
_atom_site_label
_atom_site_fract_x
_atom_site_fract_y
_atom_site_fract_z
Si Si1 0.902856 0.675320 0.936387
Si Si2 0.506227 0.795125 0.707724
Si Si3 0.890312 0.894751 0.738628
Si Si4 0.130919 0.629305 0.987398
Si Si5 0.973001 0.494946 0.624378
Si Si6 0.760014 0.932916 0.977798
Si Si7 0.793010 0.501015 0.046042
Si Si8 0.897621 0.320612 0.868404
O O1 0.894528 0.758004 0.696155
O O2 0.949842 0.571813 0.855945
O O3 0.838189 0.615369 0.030913
O O4 0.946673 0.746945 0.127763
O O5 0.570702 0.830111 0.855507
O O6 0.536025 0.701580 0.518510
O O7 0.479063 0.913192 0.591613
O O8 0.832781 0.894683 0.939627
O O9 0.957116 0.944852 0.832780
O O10 0.871458 0.990458 0.536398
O O11 0.202665 0.657156 0.082603
O O12 0.123948 0.694762 0.724375
O O13 0.919322 0.395120 0.625632
O O14 0.751020 0.027894 0.759956
O O15 0.745600 0.502705 0.805515
O O16 0.842407 0.392830 0.006789
#
# Coordination Sequence:
#
# PCOD9315303 Si02
#       8
#     4   4   4   4   4   4   4   4
#     4  11  27  46  75 115 148 208 266 333 399 488
#     4  12  23  46  78 112 148 209 265 334 410 486
#     4  11  22  46  67 104 154 185 248 325 382 471
#     4  11  24  46  72 109 148 200 257 324 402 487
#     4  11  23  46  66 108 151 193 258 323 402 465
#     4  10  24  44  67 101 142 192 241 300 383 461
#     4  11  30  57  82 116 163 219 272 339 408 499
#     4  11  27  47  79 107 156 206 269 336 402 491
#
# _framework density 24.699217000000001
#
# number of rings (size 3 to 8) (size 9 to 14) (size 15 to 20)
#    0.000    1.000    2.500    2.250    8.750    3.000 
#   18.000    0.000    0.000    0.000    0.000    0.000 
#    0.000    0.000    0.000    0.000    0.000    0.000 
#
# Total GULP energy -178731.168032 kJ/mol
# GULP energy per Si atom -5585.349001 kJ/mol
# Density = 2.464300 g / cm^3
# Si number density = 24.699217 Si / 1000 Ang^3
#
#
#
# Elastic Constant Matrix: (Units=GPa)
#
#
# Indices 1 2 3 4 5 6 
#
# 1 137.5384 43.2422 35.0803 0.0000 0.0000 0.0000
# 2 43.2422 103.1120 27.8736 0.0000 0.0000 0.0000
# 3 35.0803 27.8736 76.9582 0.0000 0.0000 0.0000
# 4 0.0000 0.0000 0.0000 22.6061 0.0000 0.0000
# 5 0.0000 0.0000 0.0000 0.0000 42.4777 0.0000
# 6 0.0000 0.0000 0.0000 0.0000 0.0000 19.2324
#
#
#
# Elastic Compliance Matrix: (Units=1/GPa)
#
#
# Indices 1 2 3 4 5 6 
#
# 1 0.008967 -0.002944 -0.003021 0.000000 0.000000 0.000000
# 2 -0.002944 0.011717 -0.002902 0.000000 0.000000 0.000000
# 3 -0.003021 -0.002902 0.015422 0.000000 0.000000 0.000000
# 4 0.000000 0.000000 0.000000 0.044236 0.000000 0.000000
# 5 0.000000 0.000000 0.000000 0.000000 0.023542 0.000000
# 6 0.000000 0.000000 0.000000 0.000000 0.000000 0.051996
#
#
# Mechanical properties :
#
#
# Convention : Reuss Voigt Hill
#
# Bulk Modulus (GPa) = 54.42932 58.88898 56.65915
# Shear Modulus (GPa) = 27.81833 30.95740 29.38786
#
# Velocity S-wave (km/s) = 3.35966 3.54415 3.45313
# Velocity P-wave (km/s) = 6.09380 6.37512 6.23605
#
# Compressibility (1/GPa) = 0.01837245
#
# Stress axis : x y z
#
# Youngs Moduli (GPa) = 111.52271 85.34472 64.84109
#
# Poissons Ratio (x) = 0.25123 0.19590
# Poissons Ratio (y) = 0.32829 0.18817
# Poissons Ratio (z) = 0.33693 0.24767
#
# Static dielectric constant tensor:
#      x y z
#    x 1.967680 0.000000 0.000000 
#    y 0.000000 2.027400 0.000000 
#    z 0.000000 0.000000 2.010960 
# 
# From -- ./inp_files/1982.got.cif
#   From: 2010.05.17/outbox.cif.g08.bks.cpg/sg19_1_cif.got.tgz:1982.got - 2010.06.03 22:46:19.
