data_PCOD9315557
_publ_section_title
;
Structure prediction by ZEFSAII (Michael W. Deem and Ramdas Pophale) SiO2 
 PCOD9315557
Probable space group: P 21 21 21
;
_chemical_formula_sum "Si O2"
_cell_formula_units_Z 20
_cell_length_a 8.787278
_cell_length_b 5.485298
_cell_length_c 15.898823
_cell_angle_alpha 90.000000
_cell_angle_beta 90.000000
_cell_angle_gamma 90.000000
_cell_volume 766.336599
_symmetry_space_group_name_H-M "P 21 21 21"
_symmetry_group_IT_number 19
_symmetry_cell_setting 'orthorhombic'
loop_
_space_group_symop_operation_xyz
x,y,z
1/2-x,-y,1/2+z
1/2+x,1/2-y,-z
-x,1/2+y,1/2-z
loop_
_atom_site_type_symbol
_atom_site_label
_atom_site_fract_x
_atom_site_fract_y
_atom_site_fract_z
Si Si1 0.130995 0.893690 0.834162
Si Si2 0.828680 0.593456 0.840468
Si Si3 0.483030 0.233272 0.046177
Si Si4 0.594441 0.867621 0.751756
Si Si5 0.783451 0.984267 0.074582
O O1 0.198558 0.933307 0.742602
O O2 0.257065 0.796090 0.899574
O O3 0.999530 0.691622 0.828415
O O4 0.040048 0.118600 0.872544
O O5 0.842947 0.437666 0.924630
O O6 0.704632 0.805014 0.830506
O O7 0.631278 0.072155 0.026407
O O8 0.426731 0.430056 0.979197
O O9 0.489939 0.626605 0.740813
O O10 0.692932 0.891279 0.666135
#
# Coordination Sequence:
#
# PCOD9315557 Si02
#       5
#     4   4   4   4   4
#     4  11  21  44  77 102 143 200 262 312 376 466
#     4  11  22  44  75 104 140 202 252 316 375 461
#     4  11  26  46  74 104 156 193 263 311 400 450
#     4  12  28  48  79 112 158 201 260 320 381 456
#     4  11  27  48  69 112 151 202 255 323 384 461
#
# _framework density 26.098189999999999
#
# number of rings (size 3 to 8) (size 9 to 14) (size 15 to 20)
#    0.000    0.800    4.000    2.400    5.600    3.200 
#    0.000    0.000    0.000    0.000    0.000    0.000 
#    0.000    0.000    0.000    0.000    0.000    0.000 
#
# Total GULP energy -111912.709818 kJ/mol
# GULP energy per Si atom -5595.635491 kJ/mol
# Density = 2.603879 g / cm^3
# Si number density = 26.098190 Si / 1000 Ang^3
#
#
#
# Elastic Constant Matrix: (Units=GPa)
#
#
# Indices 1 2 3 4 5 6 
#
# 1 85.2562 35.1566 21.3731 0.0000 0.0000 0.0000
# 2 35.1566 88.6357 23.5188 0.0000 0.0000 0.0000
# 3 21.3731 23.5188 64.5210 0.0000 0.0000 0.0000
# 4 0.0000 0.0000 0.0000 41.6225 0.0000 0.0000
# 5 0.0000 0.0000 0.0000 0.0000 45.8433 0.0000
# 6 0.0000 0.0000 0.0000 0.0000 0.0000 35.7351
#
#
#
# Elastic Compliance Matrix: (Units=1/GPa)
#
#
# Indices 1 2 3 4 5 6 
#
# 1 0.014530 -0.004966 -0.003003 0.000000 0.000000 0.000000
# 2 -0.004966 0.014188 -0.003526 0.000000 0.000000 0.000000
# 3 -0.003003 -0.003526 0.017779 0.000000 0.000000 0.000000
# 4 0.000000 0.000000 0.000000 0.024025 0.000000 0.000000
# 5 0.000000 0.000000 0.000000 0.000000 0.021813 0.000000
# 6 0.000000 0.000000 0.000000 0.000000 0.000000 0.027984
#
#
# Mechanical properties :
#
#
# Convention : Reuss Voigt Hill
#
# Bulk Modulus (GPa) = 42.54361 44.27889 43.41125
# Shear Modulus (GPa) = 33.08054 35.19779 34.13916
#
# Velocity S-wave (km/s) = 3.56412 3.67641 3.62070
# Velocity P-wave (km/s) = 5.76836 5.91814 5.84373
#
# Compressibility (1/GPa) = 0.02350530
#
# Stress axis : x y z
#
# Youngs Moduli (GPa) = 68.82241 70.48326 56.24611
#
# Poissons Ratio (x) = 0.35005 0.16890
# Poissons Ratio (y) = 0.34180 0.19835
# Poissons Ratio (z) = 0.20667 0.24856
#
# Static dielectric constant tensor:
#      x y z
#    x 2.064550 0.000000 0.000000 
#    y 0.000000 2.136170 0.000000 
#    z 0.000000 0.000000 2.028050 
# 
# From -- ./inp_files/330.got.cif
#   From: 2010.05.17/outbox.cif.g08.bks.cpg/sg19_1_cif.got.tgz:330.got - 2010.06.03 22:46:19.
