data_PCOD9315532
_publ_section_title
;
Structure prediction by ZEFSAII (Michael W. Deem and Ramdas Pophale) SiO2 
 PCOD9315532
Probable space group: P 21 21 21
;
_chemical_formula_sum "Si O2"
_cell_formula_units_Z 28
_cell_length_a 8.406548
_cell_length_b 7.739458
_cell_length_c 15.982476
_cell_angle_alpha 90.000000
_cell_angle_beta 90.000000
_cell_angle_gamma 90.000000
_cell_volume 1039.853854
_symmetry_space_group_name_H-M "P 21 21 21"
_symmetry_group_IT_number 19
_symmetry_cell_setting 'orthorhombic'
loop_
_space_group_symop_operation_xyz
x,y,z
1/2-x,-y,1/2+z
1/2+x,1/2-y,-z
-x,1/2+y,1/2-z
loop_
_atom_site_type_symbol
_atom_site_label
_atom_site_fract_x
_atom_site_fract_y
_atom_site_fract_z
Si Si1 0.014803 0.735417 0.313705
Si Si2 0.448502 0.104672 0.096440
Si Si3 0.409285 0.597535 0.929029
Si Si4 0.199227 0.409477 0.055732
Si Si5 0.220304 0.794922 0.152133
Si Si6 0.271436 0.184531 0.305899
Si Si7 0.572743 0.028676 0.265358
O O1 0.935515 0.884724 0.370451
O O2 0.871046 0.659043 0.258379
O O3 0.080271 0.576609 0.370308
O O4 0.132576 0.806701 0.242697
O O5 0.311107 0.241317 0.073721
O O6 0.548736 0.139604 0.180725
O O7 0.355289 0.929802 0.124143
O O8 0.575523 0.095544 0.022829
O O9 0.583818 0.682191 0.917865
O O10 0.296965 0.746535 0.891923
O O11 0.333041 0.538165 0.015048
O O12 0.303797 0.611334 0.170110
O O13 0.401369 0.035884 0.309391
O O14 0.361205 0.350874 0.267872
#
# Coordination Sequence:
#
# PCOD9315532 Si02
#       7
#     4   4   4   4   4   4   4
#     4  11  22  37  63  98 131 166 221 279 338 397
#     4  12  22  37  64  98 129 170 218 288 334 391
#     4  11  21  40  62  97 128 170 215 284 340 392
#     4  12  21  38  64 100 131 163 226 289 340 383
#     4  11  22  38  60  93 133 168 215 269 338 397
#     4  11  23  37  62  97 132 173 224 271 334 400
#     4  12  21  39  61  97 126 170 221 272 326 398
#
# _framework density 26.926860000000001
#
# number of rings (size 3 to 8) (size 9 to 14) (size 15 to 20)
#    0.000    0.571    8.571    0.000    0.000    0.000 
#    0.000    0.000    0.000    3.429    0.000    0.000 
#    0.000    0.000    0.000    0.000    0.000    0.000 
#
# Total GULP energy -156546.111756 kJ/mol
# GULP energy per Si atom -5590.932563 kJ/mol
# Density = 2.686557 g / cm^3
# Si number density = 26.926860 Si / 1000 Ang^3
#
#
#
# Elastic Constant Matrix: (Units=GPa)
#
#
# Indices 1 2 3 4 5 6 
#
# 1 119.5715 17.5800 24.2643 0.0000 0.0000 0.0000
# 2 17.5800 54.3517 -8.5864 0.0000 0.0000 0.0000
# 3 24.2643 -8.5864 121.8791 0.0000 0.0000 0.0000
# 4 0.0000 0.0000 0.0000 34.4605 0.0000 0.0000
# 5 0.0000 0.0000 0.0000 0.0000 6.4094 0.0000
# 6 0.0000 0.0000 0.0000 0.0000 0.0000 45.2900
#
#
#
# Elastic Compliance Matrix: (Units=1/GPa)
#
#
# Indices 1 2 3 4 5 6 
#
# 1 0.009275 -0.003329 -0.002081 0.000000 0.000000 0.000000
# 2 -0.003329 0.019800 0.002058 0.000000 0.000000 0.000000
# 3 -0.002081 0.002058 0.008764 0.000000 0.000000 0.000000
# 4 0.000000 0.000000 0.000000 0.029019 0.000000 0.000000
# 5 0.000000 0.000000 0.000000 0.000000 0.156020 0.000000
# 6 0.000000 0.000000 0.000000 0.000000 0.000000 0.022080
#
#
# Mechanical properties :
#
#
# Convention : Reuss Voigt Hill
#
# Bulk Modulus (GPa) = 32.11790 40.25756 36.18773
# Shear Modulus (GPa) = 19.08099 34.73495 26.90797
#
# Velocity S-wave (km/s) = 2.66489 3.59552 3.16460
# Velocity P-wave (km/s) = 4.62845 5.67628 5.17893
#
# Compressibility (1/GPa) = 0.03113529
#
# Stress axis : x y z
#
# Youngs Moduli (GPa) = 107.81796 50.50395 114.10177
#
# Poissons Ratio (x) = 0.16811 0.23745
# Poissons Ratio (y) = 0.35889 -0.23478
# Poissons Ratio (z) = 0.22437 -0.10392
#
# Static dielectric constant tensor:
#      x y z
#    x 2.116820 0.000000 0.000000 
#    y 0.000000 2.389870 0.000000 
#    z 0.000000 0.000000 2.174970 
# 
# From -- ./inp_files/6643.got.cif
#   From: 2010.05.17/outbox.cif.g08.bks.cpg/sg19_4_cif.got.tgz:6643.got - 2010.06.03 22:46:19.
