data_PCOD9315755
_publ_section_title
;
Structure prediction by ZEFSAII (Michael W. Deem and Ramdas Pophale) SiO2 
 PCOD9315755
Probable space group: P 21 21 21
;
_chemical_formula_sum "Si O2"
_cell_formula_units_Z 32
_cell_length_a 31.162201
_cell_length_b 6.958732
_cell_length_c 6.610484
_cell_angle_alpha 90.000000
_cell_angle_beta 90.000000
_cell_angle_gamma 90.000000
_cell_volume 1433.479524
_symmetry_space_group_name_H-M "P 21 21 21"
_symmetry_group_IT_number 19
_symmetry_cell_setting 'orthorhombic'
loop_
_space_group_symop_operation_xyz
x,y,z
1/2-x,-y,1/2+z
1/2+x,1/2-y,-z
-x,1/2+y,1/2-z
loop_
_atom_site_type_symbol
_atom_site_label
_atom_site_fract_x
_atom_site_fract_y
_atom_site_fract_z
Si Si1 0.049551 0.007392 0.276931
Si Si2 0.856058 0.385230 0.822679
Si Si3 0.256409 0.710440 0.175799
Si Si4 0.681217 0.952876 0.595439
Si Si5 0.362640 0.820406 0.827175
Si Si6 0.512652 0.157414 0.443883
Si Si7 0.793870 0.548405 0.488551
Si Si8 0.943897 0.212666 0.874073
O O1 0.094806 0.102551 0.217386
O O2 0.028190 0.158197 0.431917
O O3 0.057210 0.813443 0.406158
O O4 0.018874 0.962526 0.090811
O O5 0.825453 0.433063 0.637533
O O6 0.901527 0.291639 0.763603
O O7 0.789157 0.111523 0.281319
O O8 0.863531 0.578928 0.952963
O O9 0.288186 0.580630 0.048206
O O10 0.277016 0.767395 0.390182
O O11 0.245710 0.912005 0.068170
O O12 0.642388 0.091965 0.657719
O O13 0.834554 0.232089 0.974212
O O14 0.320946 0.892194 0.706268
O O15 0.551683 0.016038 0.389502
O O16 0.485744 0.219148 0.248654
#
# Coordination Sequence:
#
# PCOD9315755 Si02
#       8
#     4   4   4   4   4   4   4   4
#     4  11  24  41  68  96 135 169 214 268 322 384
#     4  11  24  45  65  96 134 171 212 269 326 383
#     4  12  24  40  70  96 128 168 220 270 316 390
#     4  12  23  44  64  99 124 170 218 265 318 382
#     4  11  24  45  65  96 134 171 212 269 326 383
#     4  12  22  44  64 104 126 174 216 264 322 378
#     4  12  23  46  66  97 130 176 212 267 334 374
#     4  11  24  41  68  96 135 169 214 268 322 384
#
# _framework density 22.323302999999999
#
# number of rings (size 3 to 8) (size 9 to 14) (size 15 to 20)
#    0.000    0.500    5.000    4.500    0.000    0.000 
#    0.000    2.500    0.000    0.000    0.000    0.000 
#    0.000    0.000    0.000    0.000    0.000    0.000 
#
# Total GULP energy -179206.038791 kJ/mol
# GULP energy per Si atom -5600.188712 kJ/mol
# Density = 2.227249 g / cm^3
# Si number density = 22.323303 Si / 1000 Ang^3
#
#
#
# Elastic Constant Matrix: (Units=GPa)
#
#
# Indices 1 2 3 4 5 6 
#
# 1 59.8290 -5.9041 -3.8709 0.0000 0.0000 0.0000
# 2 -5.9041 53.9356 2.7384 0.0000 0.0000 0.0000
# 3 -3.8709 2.7384 32.2234 0.0000 0.0000 0.0000
# 4 0.0000 0.0000 0.0000 37.0494 0.0000 0.0000
# 5 0.0000 0.0000 0.0000 0.0000 28.6762 0.0000
# 6 0.0000 0.0000 0.0000 0.0000 0.0000 37.9134
#
#
#
# Elastic Compliance Matrix: (Units=1/GPa)
#
#
# Indices 1 2 3 4 5 6 
#
# 1 0.017011 0.001766 0.001893 0.000000 0.000000 0.000000
# 2 0.001766 0.018804 -0.001386 0.000000 0.000000 0.000000
# 3 0.001893 -0.001386 0.031379 0.000000 0.000000 0.000000
# 4 0.000000 0.000000 0.000000 0.026991 0.000000 0.000000
# 5 0.000000 0.000000 0.000000 0.000000 0.034872 0.000000
# 6 0.000000 0.000000 0.000000 0.000000 0.000000 0.026376
#
#
# Mechanical properties :
#
#
# Convention : Reuss Voigt Hill
#
# Bulk Modulus (GPa) = 13.93903 14.65721 14.29812
# Shear Modulus (GPa) = 28.60417 30.92943 29.76680
#
# Velocity S-wave (km/s) = 3.58349 3.72630 3.65559
# Velocity P-wave (km/s) = 4.83525 5.00938 4.92308
#
# Compressibility (1/GPa) = 0.07174101
#
# Stress axis : x y z
#
# Youngs Moduli (GPa) = 58.78524 53.17930 31.86885
#
# Poissons Ratio (x) = -0.09391 -0.06034
# Poissons Ratio (y) = -0.10381 0.04417
# Poissons Ratio (z) = -0.11130 0.07370
#
# Static dielectric constant tensor:
#      x y z
#    x 1.825440 0.000000 0.000000 
#    y 0.000000 1.811360 0.000000 
#    z 0.000000 0.000000 1.767600 
# 
# From -- ./inp_files/2345.got.cif
#   From: 2010.05.17/outbox.cif.g08.bks.cpg/sg19_2_cif.got.tgz:2345.got - 2010.06.03 22:46:19.
