data_PCOD9315364
_publ_section_title
;
Structure prediction by ZEFSAII (Michael W. Deem and Ramdas Pophale) SiO2 
 PCOD9315364
Probable space group: P 21 21 21
;
_chemical_formula_sum "Si O2"
_cell_formula_units_Z 28
_cell_length_a 20.275769
_cell_length_b 11.125230
_cell_length_c 4.959305
_cell_angle_alpha 90.000000
_cell_angle_beta 90.000000
_cell_angle_gamma 90.000000
_cell_volume 1118.683291
_symmetry_space_group_name_H-M "P 21 21 21"
_symmetry_group_IT_number 19
_symmetry_cell_setting 'orthorhombic'
loop_
_space_group_symop_operation_xyz
x,y,z
1/2-x,-y,1/2+z
1/2+x,1/2-y,-z
-x,1/2+y,1/2-z
loop_
_atom_site_type_symbol
_atom_site_label
_atom_site_fract_x
_atom_site_fract_y
_atom_site_fract_z
Si Si1 0.755700 0.084758 0.464490
Si Si2 0.680689 0.259015 0.812782
Si Si3 0.674432 0.643640 0.418302
Si Si4 0.105988 0.657981 0.931501
Si Si5 0.997475 0.335706 0.352555
Si Si6 0.376965 0.007322 0.574069
Si Si7 0.079538 0.385317 0.840923
O O1 0.704075 0.188001 0.545787
O O2 0.827230 0.138069 0.395196
O O3 0.735477 0.990194 0.240503
O O4 0.750715 0.311249 0.915340
O O5 0.633387 0.374521 0.812835
O O6 0.643872 0.167273 0.011057
O O7 0.628817 0.750161 0.301472
O O8 0.654762 0.597006 0.708604
O O9 0.660281 0.534602 0.206555
O O10 0.085038 0.528564 0.824936
O O11 0.047349 0.719813 0.094862
O O12 0.059860 0.333308 0.551847
O O13 0.952430 0.449575 0.441795
O O14 0.020796 0.351954 0.048516
#
# Coordination Sequence:
#
# PCOD9315364 Si02
#       7
#     4   4   4   4   4   4   4
#     4  11  25  45  71 109 144 185 240 300 379 433
#     4  11  26  44  75 110 145 185 244 309 364 440
#     4  10  24  46  76 106 143 186 234 304 379 435
#     4  10  25  49  73  99 148 187 240 300 363 431
#     4  11  28  46  69 101 142 197 241 291 357 427
#     4  11  24  47  74 106 142 192 242 299 369 434
#     4  12  28  45  70 107 140 194 243 297 353 430
#
# _framework density 25.029426999999998
#
# number of rings (size 3 to 8) (size 9 to 14) (size 15 to 20)
#    0.000    1.143    1.429    2.571    6.000   13.714 
#    0.000    0.000    0.000    0.000    0.000    0.000 
#    0.000    0.000    0.000    0.000    0.000    0.000 
#
# Total GULP energy -157006.088613 kJ/mol
# GULP energy per Si atom -5607.360308 kJ/mol
# Density = 2.497246 g / cm^3
# Si number density = 25.029427 Si / 1000 Ang^3
#
#
#
# Elastic Constant Matrix: (Units=GPa)
#
#
# Indices 1 2 3 4 5 6 
#
# 1 104.5460 10.4847 2.2548 0.0000 0.0000 0.0000
# 2 10.4847 119.6296 1.0896 0.0000 0.0000 0.0000
# 3 2.2548 1.0896 75.7960 0.0000 0.0000 0.0000
# 4 0.0000 0.0000 0.0000 21.3009 0.0000 0.0000
# 5 0.0000 0.0000 0.0000 0.0000 34.1732 0.0000
# 6 0.0000 0.0000 0.0000 0.0000 0.0000 37.0245
#
#
#
# Elastic Compliance Matrix: (Units=1/GPa)
#
#
# Indices 1 2 3 4 5 6 
#
# 1 0.009656 -0.000844 -0.000275 0.000000 0.000000 0.000000
# 2 -0.000844 0.008434 -0.000096 0.000000 0.000000 0.000000
# 3 -0.000275 -0.000096 0.013203 0.000000 0.000000 0.000000
# 4 0.000000 0.000000 0.000000 0.046946 0.000000 0.000000
# 5 0.000000 0.000000 0.000000 0.000000 0.029263 0.000000
# 6 0.000000 0.000000 0.000000 0.000000 0.000000 0.027009
#
#
# Mechanical properties :
#
#
# Convention : Reuss Voigt Hill
#
# Bulk Modulus (GPa) = 34.64698 36.40331 35.52514
# Shear Modulus (GPa) = 34.11537 37.57590 35.84564
#
# Velocity S-wave (km/s) = 3.69590 3.87882 3.78847
# Velocity P-wave (km/s) = 5.66440 5.88525 5.77588
#
# Compressibility (1/GPa) = 0.02886254
#
# Stress axis : x y z
#
# Youngs Moduli (GPa) = 103.56553 118.56830 75.74110
#
# Poissons Ratio (x) = 0.10004 0.02084
# Poissons Ratio (y) = 0.08738 0.00728
# Poissons Ratio (z) = 0.02849 0.01140
#
# Static dielectric constant tensor:
#      x y z
#    x 2.013950 0.000000 0.000000 
#    y 0.000000 1.973530 0.000000 
#    z 0.000000 0.000000 1.922550 
# 
# From -- ./inp_files/1953.got.cif
#   From: 2010.05.17/outbox.cif.g08.bks.cpg/sg19_1_cif.got.tgz:1953.got - 2010.06.03 22:46:19.
