data_PCOD9315832
_publ_section_title
;
Structure prediction by ZEFSAII (Michael W. Deem and Ramdas Pophale) SiO2 
 PCOD9315832
Probable space group: P 21 21 21
;
_chemical_formula_sum "Si O2"
_cell_formula_units_Z 24
_cell_length_a 7.252989
_cell_length_b 12.283042
_cell_length_c 9.646918
_cell_angle_alpha 90.000000
_cell_angle_beta 90.000000
_cell_angle_gamma 90.000000
_cell_volume 859.432045
_symmetry_space_group_name_H-M "P 21 21 21"
_symmetry_group_IT_number 19
_symmetry_cell_setting 'orthorhombic'
loop_
_space_group_symop_operation_xyz
x,y,z
1/2-x,-y,1/2+z
1/2+x,1/2-y,-z
-x,1/2+y,1/2-z
loop_
_atom_site_type_symbol
_atom_site_label
_atom_site_fract_x
_atom_site_fract_y
_atom_site_fract_z
Si Si1 0.506532 0.487726 0.446521
Si Si2 0.712496 0.312337 0.150302
Si Si3 0.020886 0.269980 0.597070
Si Si4 0.326650 0.370201 0.050081
Si Si5 0.924364 0.797719 0.207817
Si Si6 0.221062 0.074689 0.294786
O O1 0.489896 0.358464 0.425183
O O2 0.306575 0.546172 0.466274
O O3 0.614874 0.499436 0.592935
O O4 0.646868 0.530528 0.327236
O O5 0.611614 0.225188 0.251819
O O6 0.111042 0.308690 0.454738
O O7 0.808344 0.246751 0.025836
O O8 0.543068 0.384783 0.088230
O O9 0.723592 0.143222 0.803091
O O10 0.353072 0.148973 0.388010
O O11 0.373544 0.157618 0.740513
O O12 0.922301 0.669187 0.253116
#
# Coordination Sequence:
#
# PCOD9315832 Si02
#       6
#     4   4   4   4   4   4
#     4  11  27  47  82 127 161 223 283 341 423 502
#     4  12  25  46  82 113 160 216 264 344 409 476
#     4  11  25  51  80 117 166 218 268 345 423 489
#     4  12  24  46  77 120 154 212 283 327 412 491
#     4  11  24  46  81 111 165 216 264 341 415 486
#     4  11  25  52  82 120 166 217 282 346 424 502
#
# _framework density 27.925419999999999
#
# number of rings (size 3 to 8) (size 9 to 14) (size 15 to 20)
#    0.000    0.667    5.000    2.000    4.667    0.000 
#    6.000    0.000    3.667    0.000    0.000    0.000 
#    0.000    0.000    0.000    0.000    0.000    0.000 
#
# Total GULP energy -134183.551916 kJ/mol
# GULP energy per Si atom -5590.981330 kJ/mol
# Density = 2.786186 g / cm^3
# Si number density = 27.925420 Si / 1000 Ang^3
#
#
#
# Elastic Constant Matrix: (Units=GPa)
#
#
# Indices 1 2 3 4 5 6 
#
# 1 174.0386 40.5179 39.8132 0.0000 0.0000 0.0000
# 2 40.5179 86.2488 48.3789 0.0000 0.0000 0.0000
# 3 39.8132 48.3789 148.8805 0.0000 0.0000 0.0000
# 4 0.0000 0.0000 0.0000 49.1458 0.0000 0.0000
# 5 0.0000 0.0000 0.0000 0.0000 32.8536 0.0000
# 6 0.0000 0.0000 0.0000 0.0000 0.0000 34.7282
#
#
#
# Elastic Compliance Matrix: (Units=1/GPa)
#
#
# Indices 1 2 3 4 5 6 
#
# 1 0.006553 -0.002563 -0.000920 0.000000 0.000000 0.000000
# 2 -0.002563 0.015181 -0.004248 0.000000 0.000000 0.000000
# 3 -0.000920 -0.004248 0.008343 0.000000 0.000000 0.000000
# 4 0.000000 0.000000 0.000000 0.020348 0.000000 0.000000
# 5 0.000000 0.000000 0.000000 0.000000 0.030438 0.000000
# 6 0.000000 0.000000 0.000000 0.000000 0.000000 0.028795
#
#
# Mechanical properties :
#
#
# Convention : Reuss Voigt Hill
#
# Bulk Modulus (GPa) = 68.41430 74.06533 71.23982
# Shear Modulus (GPa) = 38.46462 42.04272 40.25367
#
# Velocity S-wave (km/s) = 3.71537 3.88433 3.80079
# Velocity P-wave (km/s) = 6.55419 6.83356 6.69533
#
# Compressibility (1/GPa) = 0.01461683
#
# Stress axis : x y z
#
# Youngs Moduli (GPa) = 152.60627 65.87245 119.86034
#
# Poissons Ratio (x) = 0.16880 0.11023
# Poissons Ratio (y) = 0.39106 0.50914
# Poissons Ratio (z) = 0.14034 0.27981
#
# Static dielectric constant tensor:
#      x y z
#    x 2.292140 0.000000 0.000000 
#    y 0.000000 2.273810 0.000000 
#    z 0.000000 0.000000 2.122990 
# 
# From -- ./inp_files/2916.got.cif
#   From: 2010.05.17/outbox.cif.g08.bks.cpg/sg19_2_cif.got.tgz:2916.got - 2010.06.03 22:46:19.
