data_PCOD9315875
_publ_section_title
;
Structure prediction by ZEFSAII (Michael W. Deem and Ramdas Pophale) SiO2 
 PCOD9315875
Probable space group: P 21 21 21
;
_chemical_formula_sum "Si O2"
_cell_formula_units_Z 28
_cell_length_a 5.044765
_cell_length_b 22.595277
_cell_length_c 9.155451
_cell_angle_alpha 90.000000
_cell_angle_beta 90.000000
_cell_angle_gamma 90.000000
_cell_volume 1043.610290
_symmetry_space_group_name_H-M "P 21 21 21"
_symmetry_group_IT_number 19
_symmetry_cell_setting 'orthorhombic'
loop_
_space_group_symop_operation_xyz
x,y,z
1/2-x,-y,1/2+z
1/2+x,1/2-y,-z
-x,1/2+y,1/2-z
loop_
_atom_site_type_symbol
_atom_site_label
_atom_site_fract_x
_atom_site_fract_y
_atom_site_fract_z
Si Si1 0.938761 0.368873 0.289003
Si Si2 0.346457 0.338239 0.550515
Si Si3 0.817427 0.725232 0.422003
Si Si4 0.053625 0.236341 0.680223
Si Si5 0.425067 0.100006 0.028821
Si Si6 0.906527 0.481989 0.440588
Si Si7 0.773384 0.055327 0.287507
O O1 0.734132 0.316160 0.256475
O O2 0.782727 0.423272 0.367181
O O3 0.160913 0.355118 0.411416
O O4 0.049391 0.386321 0.129865
O O5 0.539086 0.289778 0.483486
O O6 0.454978 0.396573 0.628594
O O7 0.180615 0.300506 0.666089
O O8 0.611643 0.758497 0.530826
O O9 0.715606 0.752612 0.269358
O O10 0.763138 0.655357 0.431526
O O11 0.279901 0.036642 0.019406
O O12 0.622652 0.091000 0.161646
O O13 0.078283 0.467514 0.584950
O O14 0.082945 0.505222 0.304523
#
# Coordination Sequence:
#
# PCOD9315875 Si02
#       7
#     4   4   4   4   4   4   4
#     4  11  25  47  70 108 143 205 249 321 384 472
#     4  11  25  43  72 105 147 201 251 315 389 463
#     4  12  28  49  79 120 161 210 267 327 401 474
#     4  12  24  44  75 106 156 196 262 318 397 468
#     4  12  25  45  77 106 153 195 264 320 397 461
#     4  11  27  47  75 106 151 199 262 322 400 472
#     4  11  26  47  72 109 147 204 257 329 392 480
#
# _framework density 26.829937000000001
#
# number of rings (size 3 to 8) (size 9 to 14) (size 15 to 20)
#    0.000    0.571    4.286    2.571    2.000   10.286 
#    0.000    0.000    0.000    0.000    0.000    0.000 
#    0.000    0.000    0.000    0.000    0.000    0.000 
#
# Total GULP energy -156890.316909 kJ/mol
# GULP energy per Si atom -5603.225604 kJ/mol
# Density = 2.676887 g / cm^3
# Si number density = 26.829937 Si / 1000 Ang^3
#
#
#
# Elastic Constant Matrix: (Units=GPa)
#
#
# Indices 1 2 3 4 5 6 
#
# 1 21.7550 18.2418 38.9089 0.0000 0.0000 0.0000
# 2 18.2418 124.2056 72.2006 0.0000 0.0000 0.0000
# 3 38.9089 72.2006 197.0346 0.0000 0.0000 0.0000
# 4 0.0000 0.0000 0.0000 59.1426 0.0000 0.0000
# 5 0.0000 0.0000 0.0000 0.0000 56.3579 0.0000
# 6 0.0000 0.0000 0.0000 0.0000 0.0000 30.3773
#
#
#
# Elastic Compliance Matrix: (Units=1/GPa)
#
#
# Indices 1 2 3 4 5 6 
#
# 1 0.071895 -0.002930 -0.013123 0.000000 0.000000 0.000000
# 2 -0.002930 0.010350 -0.003214 0.000000 0.000000 0.000000
# 3 -0.013123 -0.003214 0.008844 0.000000 0.000000 0.000000
# 4 0.000000 0.000000 0.000000 0.016908 0.000000 0.000000
# 5 0.000000 0.000000 0.000000 0.000000 0.017744 0.000000
# 6 0.000000 0.000000 0.000000 0.000000 0.000000 0.032919
#
#
# Mechanical properties :
#
#
# Convention : Reuss Voigt Hill
#
# Bulk Modulus (GPa) = 19.02817 66.85531 42.94174
# Shear Modulus (GPa) = 23.28682 43.41848 33.35265
#
# Velocity S-wave (km/s) = 2.94928 4.02716 3.52961
# Velocity P-wave (km/s) = 4.32495 6.82614 5.71408
#
# Compressibility (1/GPa) = 0.05255367
#
# Stress axis : x y z
#
# Youngs Moduli (GPa) = 13.90919 96.62061 113.06542
#
# Poissons Ratio (x) = 0.28314 1.48381
# Poissons Ratio (y) = 0.04076 0.36337
# Poissons Ratio (z) = 0.18254 0.31052
#
# Static dielectric constant tensor:
#      x y z
#    x 2.169920 0.000000 0.000000 
#    y 0.000000 2.093920 0.000000 
#    z 0.000000 0.000000 2.146230 
# 
# From -- ./inp_files/2132.got.cif
#   From: 2010.05.17/outbox.cif.g08.bks.cpg/sg19_2_cif.got.tgz:2132.got - 2010.06.03 22:46:19.
