data_PCOD9315138
_publ_section_title
;
Structure prediction by ZEFSAII (Michael W. Deem and Ramdas Pophale) SiO2 
 PCOD9315138
Probable space group: P 21 21 21
;
_chemical_formula_sum "Si O2"
_cell_formula_units_Z 28
_cell_length_a 8.335700
_cell_length_b 12.536747
_cell_length_c 13.511046
_cell_angle_alpha 90.000000
_cell_angle_beta 90.000000
_cell_angle_gamma 90.000000
_cell_volume 1411.938922
_symmetry_space_group_name_H-M "P 21 21 21"
_symmetry_group_IT_number 19
_symmetry_cell_setting 'orthorhombic'
loop_
_space_group_symop_operation_xyz
x,y,z
1/2-x,-y,1/2+z
1/2+x,1/2-y,-z
-x,1/2+y,1/2-z
loop_
_atom_site_type_symbol
_atom_site_label
_atom_site_fract_x
_atom_site_fract_y
_atom_site_fract_z
Si Si1 0.057560 0.000619 0.287732
Si Si2 0.251628 0.201826 0.857141
Si Si3 0.209105 0.519747 0.044381
Si Si4 0.400982 0.296258 0.044764
Si Si5 0.244368 0.432890 0.321980
Si Si6 0.775306 0.302662 0.760498
Si Si7 0.379191 0.625196 0.205882
O O1 0.185024 0.906787 0.308255
O O2 0.936606 0.972861 0.198049
O O3 0.139524 0.111925 0.261600
O O4 0.947809 0.008041 0.386879
O O5 0.217266 0.290329 0.773145
O O6 0.083047 0.189511 0.916642
O O7 0.381384 0.245329 0.936270
O O8 0.305862 0.408042 0.045061
O O9 0.311510 0.612802 0.096511
O O10 0.188262 0.550709 0.931064
O O11 0.315584 0.218040 0.124244
O O12 0.243359 0.312480 0.285624
O O13 0.351948 0.508475 0.252777
O O14 0.937310 0.344995 0.710878
#
# Coordination Sequence:
#
# PCOD9315138 Si02
#       7
#     4   4   4   4   4   4   4
#     4  11  26  43  68  98 140 171 233 272 345 393
#     4  11  24  40  69 102 131 179 225 285 331 399
#     4  11  23  42  66  97 132 177 222 277 336 399
#     4  11  22  40  72  99 131 173 238 273 331 394
#     4  11  25  43  68  96 136 174 226 280 332 400
#     4  11  25  44  65  99 135 178 219 277 337 401
#     4  10  23  44  66  91 139 170 221 282 332 392
#
# _framework density 19.830884999999999
#
# number of rings (size 3 to 8) (size 9 to 14) (size 15 to 20)
#    0.000    1.143    4.286    1.714   10.000    1.143 
#    0.000    0.000    0.000    0.000    0.000    0.000 
#    0.000    0.000    0.000    0.000    0.000    0.000 
#
# Total GULP energy -156498.685794 kJ/mol
# GULP energy per Si atom -5589.238778 kJ/mol
# Density = 1.978575 g / cm^3
# Si number density = 19.830885 Si / 1000 Ang^3
#
#
#
# Elastic Constant Matrix: (Units=GPa)
#
#
# Indices 1 2 3 4 5 6 
#
# 1 66.0021 34.8176 -11.9999 0.0000 0.0000 0.0000
# 2 34.8176 112.4305 -14.2757 0.0000 0.0000 0.0000
# 3 -11.9999 -14.2757 39.5529 0.0000 0.0000 0.0000
# 4 0.0000 0.0000 0.0000 25.2487 0.0000 0.0000
# 5 0.0000 0.0000 0.0000 0.0000 24.4001 0.0000
# 6 0.0000 0.0000 0.0000 0.0000 0.0000 38.0024
#
#
#
# Elastic Compliance Matrix: (Units=1/GPa)
#
#
# Indices 1 2 3 4 5 6 
#
# 1 0.018623 -0.005292 0.003740 0.000000 0.000000 0.000000
# 2 -0.005292 0.010826 0.002302 0.000000 0.000000 0.000000
# 3 0.003740 0.002302 0.027248 0.000000 0.000000 0.000000
# 4 0.000000 0.000000 0.000000 0.039606 0.000000 0.000000
# 5 0.000000 0.000000 0.000000 0.000000 0.040983 0.000000
# 6 0.000000 0.000000 0.000000 0.000000 0.000000 0.026314
#
#
# Mechanical properties :
#
#
# Convention : Reuss Voigt Hill
#
# Bulk Modulus (GPa) = 17.18374 26.11884 21.65129
# Shear Modulus (GPa) = 27.54825 31.49313 29.52069
#
# Velocity S-wave (km/s) = 3.73119 3.98940 3.86245
# Velocity P-wave (km/s) = 5.21980 5.86684 5.55275
#
# Compressibility (1/GPa) = 0.05819456
#
# Stress axis : x y z
#
# Youngs Moduli (GPa) = 53.69775 92.37408 36.70006
#
# Poissons Ratio (x) = 0.48887 -0.13725
# Poissons Ratio (y) = 0.28418 -0.08447
# Poissons Ratio (z) = -0.20082 -0.21261
#
# Static dielectric constant tensor:
#      x y z
#    x 1.714800 0.000000 0.000000 
#    y 0.000000 1.677580 0.000000 
#    z 0.000000 0.000000 1.683910 
# 
# From -- ./inp_files/5878.got.cif
#   From: 2010.05.17/outbox.cif.g08.bks.cpg/sg19_3_cif.got.tgz:5878.got - 2010.06.03 22:46:19.
