data_PCOD9315877
_publ_section_title
;
Structure prediction by ZEFSAII (Michael W. Deem and Ramdas Pophale) SiO2 
 PCOD9315877
Probable space group: P 21 21 21
;
_chemical_formula_sum "Si O2"
_cell_formula_units_Z 28
_cell_length_a 5.136428
_cell_length_b 21.064139
_cell_length_c 9.344044
_cell_angle_alpha 90.000000
_cell_angle_beta 90.000000
_cell_angle_gamma 90.000000
_cell_volume 1010.973546
_symmetry_space_group_name_H-M "P 21 21 21"
_symmetry_group_IT_number 19
_symmetry_cell_setting 'orthorhombic'
loop_
_space_group_symop_operation_xyz
x,y,z
1/2-x,-y,1/2+z
1/2+x,1/2-y,-z
-x,1/2+y,1/2-z
loop_
_atom_site_type_symbol
_atom_site_label
_atom_site_fract_x
_atom_site_fract_y
_atom_site_fract_z
Si Si1 0.021447 0.489657 0.355626
Si Si2 0.459837 0.272866 0.828386
Si Si3 0.686460 0.625188 0.660319
Si Si4 0.475624 0.151222 0.131000
Si Si5 0.088627 0.601197 0.874901
Si Si6 0.281231 0.068555 0.374263
Si Si7 0.717097 0.214019 0.475770
O O1 0.937254 0.427922 0.261894
O O2 0.923777 0.482932 0.520861
O O3 0.917562 0.543654 0.249717
O O4 0.327354 0.472603 0.366177
O O5 0.408825 0.197946 0.832586
O O6 0.749765 0.295470 0.858938
O O7 0.373023 0.292169 0.670239
O O8 0.246706 0.315533 0.911428
O O9 0.622021 0.607282 0.498391
O O10 0.977986 0.624335 0.723833
O O11 0.473168 0.111868 0.279124
O O12 0.301234 0.650370 0.933450
O O13 0.879888 0.605266 0.003611
O O14 0.433853 0.242484 0.444028
#
# Coordination Sequence:
#
# PCOD9315877 Si02
#       7
#     4   4   4   4   4   4   4
#     4  11  26  49  75 102 145 186 250 305 372 435
#     4  12  25  44  73 107 156 193 246 296 366 437
#     4  11  26  45  70 109 145 196 243 299 368 436
#     4  12  27  46  73 109 151 200 242 302 364 436
#     4  11  25  43  73 104 139 190 245 299 369 436
#     4  11  26  48  71 106 138 187 249 302 369 436
#     4  12  23  41  73 109 150 190 241 301 364 436
#
# _framework density 27.696076999999999
#
# number of rings (size 3 to 8) (size 9 to 14) (size 15 to 20)
#    0.000    0.571    2.857    4.286    6.000    3.429 
#    0.000    0.000    0.000    0.000    0.000    0.000 
#    0.000    0.000    0.000    0.000    0.000    0.000 
#
# Total GULP energy -156615.437103 kJ/mol
# GULP energy per Si atom -5593.408468 kJ/mol
# Density = 2.763304 g / cm^3
# Si number density = 27.696077 Si / 1000 Ang^3
#
#
#
# Elastic Constant Matrix: (Units=GPa)
#
#
# Indices 1 2 3 4 5 6 
#
# 1 73.9627 18.9841 21.9414 0.0000 0.0000 0.0000
# 2 18.9841 72.1710 13.2599 0.0000 0.0000 0.0000
# 3 21.9414 13.2599 166.5052 0.0000 0.0000 0.0000
# 4 0.0000 0.0000 0.0000 48.8124 0.0000 0.0000
# 5 0.0000 0.0000 0.0000 0.0000 34.1621 0.0000
# 6 0.0000 0.0000 0.0000 0.0000 0.0000 43.0958
#
#
#
# Elastic Compliance Matrix: (Units=1/GPa)
#
#
# Indices 1 2 3 4 5 6 
#
# 1 0.014949 -0.003623 -0.001681 0.000000 0.000000 0.000000
# 2 -0.003623 0.014940 -0.000712 0.000000 0.000000 0.000000
# 3 -0.001681 -0.000712 0.006284 0.000000 0.000000 0.000000
# 4 0.000000 0.000000 0.000000 0.020487 0.000000 0.000000
# 5 0.000000 0.000000 0.000000 0.000000 0.029272 0.000000
# 6 0.000000 0.000000 0.000000 0.000000 0.000000 0.023204
#
#
# Mechanical properties :
#
#
# Convention : Reuss Voigt Hill
#
# Bulk Modulus (GPa) = 41.42651 46.77884 44.10267
# Shear Modulus (GPa) = 38.69474 42.44430 40.56952
#
# Velocity S-wave (km/s) = 3.74186 3.91897 3.83144
# Velocity P-wave (km/s) = 5.80161 6.11592 5.96084
#
# Compressibility (1/GPa) = 0.02413913
#
# Stress axis : x y z
#
# Youngs Moduli (GPa) = 66.89353 66.93465 159.13153
#
# Poissons Ratio (x) = 0.24253 0.26756
# Poissons Ratio (y) = 0.24238 0.11335
# Poissons Ratio (z) = 0.11247 0.04768
#
# Static dielectric constant tensor:
#      x y z
#    x 2.597430 0.000000 0.000000 
#    y 0.000000 2.210860 0.000000 
#    z 0.000000 0.000000 2.188500 
# 
# From -- ./inp_files/2473.got.cif
#   From: 2010.05.17/outbox.cif.g08.bks.cpg/sg19_2_cif.got.tgz:2473.got - 2010.06.03 22:46:19.
