data_PCOD9315792
_publ_section_title
;
Structure prediction by ZEFSAII (Michael W. Deem and Ramdas Pophale) SiO2 
 PCOD9315792
Probable space group: P 21 21 21
;
_chemical_formula_sum "Si O2"
_cell_formula_units_Z 32
_cell_length_a 14.794195
_cell_length_b 8.719348
_cell_length_c 10.594934
_cell_angle_alpha 90.000000
_cell_angle_beta 90.000000
_cell_angle_gamma 90.000000
_cell_volume 1366.701294
_symmetry_space_group_name_H-M "P 21 21 21"
_symmetry_group_IT_number 19
_symmetry_cell_setting 'orthorhombic'
loop_
_space_group_symop_operation_xyz
x,y,z
1/2-x,-y,1/2+z
1/2+x,1/2-y,-z
-x,1/2+y,1/2-z
loop_
_atom_site_type_symbol
_atom_site_label
_atom_site_fract_x
_atom_site_fract_y
_atom_site_fract_z
Si Si1 0.206899 0.312906 0.116576
Si Si2 0.889135 0.230338 0.225316
Si Si3 0.749433 0.575387 0.573528
Si Si4 0.400107 0.320860 0.226789
Si Si5 0.918574 0.525291 0.747960
Si Si6 0.054826 0.396235 0.314235
Si Si7 0.361568 0.787440 0.012592
Si Si8 0.325965 0.384557 0.501238
O O1 0.306506 0.363258 0.159891
O O2 0.138609 0.330925 0.231981
O O3 0.171630 0.431480 0.011760
O O4 0.217467 0.144339 0.059639
O O5 0.803399 0.292580 0.149706
O O6 0.863844 0.182063 0.367718
O O7 0.964667 0.361182 0.236552
O O8 0.929415 0.075787 0.164179
O O9 0.837398 0.522613 0.648401
O O10 0.679465 0.438391 0.553830
O O11 0.484357 0.427532 0.194064
O O12 0.378014 0.333421 0.376258
O O13 0.423055 0.144757 0.193918
O O14 0.892143 0.653721 0.851131
O O15 0.057381 0.294545 0.439716
O O16 0.277594 0.671012 0.003577
#
# Coordination Sequence:
#
# PCOD9315792 Si02
#       8
#     4   4   4   4   4   4   4   4
#     4  11  26  45  71 100 139 186 231 287 351 421
#     4  11  25  44  70 106 136 182 234 288 356 416
#     4  12  25  45  71  99 141 184 233 289 348 422
#     4  12  27  49  70 106 146 184 240 293 358 426
#     4  12  28  46  72 105 142 191 236 296 358 428
#     4  11  24  45  71 102 139 179 231 292 347 422
#     4  12  23  46  73  97 137 185 235 288 354 414
#     4  11  24  44  74  97 136 185 232 287 352 419
#
# _framework density 23.41404
#
# number of rings (size 3 to 8) (size 9 to 14) (size 15 to 20)
#    0.000    0.500    5.000    2.250    5.250    3.000 
#    4.500    0.000    0.000    0.000    0.000    0.000 
#    0.000    0.000    0.000    0.000    0.000    0.000 
#
# Total GULP energy -179254.560086 kJ/mol
# GULP energy per Si atom -5601.705003 kJ/mol
# Density = 2.336075 g / cm^3
# Si number density = 23.414040 Si / 1000 Ang^3
#
#
#
# Elastic Constant Matrix: (Units=GPa)
#
#
# Indices 1 2 3 4 5 6 
#
# 1 84.0888 -22.8499 -4.8454 0.0000 0.0000 0.0000
# 2 -22.8499 45.0143 3.4551 0.0000 0.0000 0.0000
# 3 -4.8454 3.4551 38.4765 0.0000 0.0000 0.0000
# 4 0.0000 0.0000 0.0000 32.0267 0.0000 0.0000
# 5 0.0000 0.0000 0.0000 0.0000 10.5563 0.0000
# 6 0.0000 0.0000 0.0000 0.0000 0.0000 24.1917
#
#
#
# Elastic Compliance Matrix: (Units=1/GPa)
#
#
# Indices 1 2 3 4 5 6 
#
# 1 0.013843 0.006941 0.001120 0.000000 0.000000 0.000000
# 2 0.006941 0.025850 -0.001447 0.000000 0.000000 0.000000
# 3 0.001120 -0.001447 0.026261 0.000000 0.000000 0.000000
# 4 0.000000 0.000000 0.000000 0.031224 0.000000 0.000000
# 5 0.000000 0.000000 0.000000 0.000000 0.094730 0.000000
# 6 0.000000 0.000000 0.000000 0.000000 0.000000 0.041336
#
#
# Mechanical properties :
#
#
# Convention : Reuss Voigt Hill
#
# Bulk Modulus (GPa) = 12.62939 13.23326 12.93132
# Shear Modulus (GPa) = 20.29141 26.14294 23.21717
#
# Velocity S-wave (km/s) = 2.94706 3.34511 3.15237
# Velocity P-wave (km/s) = 4.12139 4.53693 4.33414
#
# Compressibility (1/GPa) = 0.07918040
#
# Stress axis : x y z
#
# Youngs Moduli (GPa) = 72.23978 38.68544 38.07950
#
# Poissons Ratio (x) = -0.26851 -0.04265
# Poissons Ratio (y) = -0.50140 0.05511
# Poissons Ratio (z) = -0.08091 0.05598
#
# Static dielectric constant tensor:
#      x y z
#    x 1.875880 0.000000 0.000000 
#    y 0.000000 1.870120 0.000000 
#    z 0.000000 0.000000 1.878650 
# 
# From -- ./inp_files/3979.got.cif
#   From: 2010.05.17/outbox.cif.g08.bks.cpg/sg19_2_cif.got.tgz:3979.got - 2010.06.03 22:46:19.
