data_PCOD9315261
_publ_section_title
;
Structure prediction by ZEFSAII (Michael W. Deem and Ramdas Pophale) SiO2 
 PCOD9315261
Probable space group: P 21 21 21
;
_chemical_formula_sum "Si O2"
_cell_formula_units_Z 32
_cell_length_a 7.933944
_cell_length_b 11.234069
_cell_length_c 15.934989
_cell_angle_alpha 90.000000
_cell_angle_beta 90.000000
_cell_angle_gamma 90.000000
_cell_volume 1420.293128
_symmetry_space_group_name_H-M "P 21 21 21"
_symmetry_group_IT_number 19
_symmetry_cell_setting 'orthorhombic'
loop_
_space_group_symop_operation_xyz
x,y,z
1/2-x,-y,1/2+z
1/2+x,1/2-y,-z
-x,1/2+y,1/2-z
loop_
_atom_site_type_symbol
_atom_site_label
_atom_site_fract_x
_atom_site_fract_y
_atom_site_fract_z
Si Si1 0.765199 0.379569 0.253888
Si Si2 0.834866 0.118693 0.510795
Si Si3 0.448986 0.029782 0.131262
Si Si4 0.582700 0.049107 0.858738
Si Si5 0.156464 0.377642 0.714367
Si Si6 0.431128 0.216737 0.982762
Si Si7 0.614842 0.384414 0.087176
Si Si8 0.964614 0.371675 0.540769
O O1 0.711758 0.459620 0.332419
O O2 0.775216 0.239081 0.274273
O O3 0.609897 0.390827 0.186958
O O4 0.925421 0.433320 0.204388
O O5 0.922123 0.065763 0.592725
O O6 0.634288 0.099860 0.510739
O O7 0.870370 0.258346 0.505815
O O8 0.919544 0.052649 0.431046
O O9 0.541296 0.101873 0.204965
O O10 0.411825 0.120964 0.056766
O O11 0.571620 0.169462 0.916054
O O12 0.739641 0.998834 0.805691
O O13 0.040359 0.349715 0.633875
O O14 0.259005 0.211990 0.931474
O O15 0.463226 0.338463 0.030776
O O16 0.654495 0.514732 0.052387
#
# Coordination Sequence:
#
# PCOD9315261 Si02
#       8
#     4   4   4   4   4   4   4   4
#     4  11  22  43  66  96 132 170 215 270 331 386
#     4  10  24  42  65  95 130 169 221 265 322 392
#     4  11  22  42  64  93 126 168 214 269 320 392
#     4   9  24  44  64  91 136 164 212 271 320 380
#     4  11  22  43  66  96 132 170 215 270 331 386
#     4  10  24  42  65  95 130 169 221 265 322 392
#     4  11  24  41  68  95 132 173 217 270 329 385
#     4  11  24  41  68  95 132 173 217 270 329 385
#
# _framework density 22.530560999999999
#
# number of rings (size 3 to 8) (size 9 to 14) (size 15 to 20)
#    0.000    1.500    3.750    0.000   10.500    0.000 
#   11.250    0.000    0.000    0.000    0.000    0.000 
#    0.000    0.000    0.000    0.000    0.000    0.000 
#
# Total GULP energy -178624.876201 kJ/mol
# GULP energy per Si atom -5582.027381 kJ/mol
# Density = 2.247928 g / cm^3
# Si number density = 22.530561 Si / 1000 Ang^3
#
#
#
# Elastic Constant Matrix: (Units=GPa)
#
#
# Indices 1 2 3 4 5 6 
#
# 1 49.8165 -7.5397 -0.1446 0.0000 0.0000 0.0000
# 2 -7.5397 42.4324 -20.3057 0.0000 0.0000 0.0000
# 3 -0.1446 -20.3057 43.8582 0.0000 0.0000 0.0000
# 4 0.0000 0.0000 0.0000 19.3388 0.0000 0.0000
# 5 0.0000 0.0000 0.0000 0.0000 42.4912 0.0000
# 6 0.0000 0.0000 0.0000 0.0000 0.0000 33.8559
#
#
#
# Elastic Compliance Matrix: (Units=1/GPa)
#
#
# Indices 1 2 3 4 5 6 
#
# 1 0.020805 0.004791 0.002287 0.000000 0.000000 0.000000
# 2 0.004791 0.031378 0.014543 0.000000 0.000000 0.000000
# 3 0.002287 0.014543 0.029542 0.000000 0.000000 0.000000
# 4 0.000000 0.000000 0.000000 0.051710 0.000000 0.000000
# 5 0.000000 0.000000 0.000000 0.000000 0.023534 0.000000
# 6 0.000000 0.000000 0.000000 0.000000 0.000000 0.029537
#
#
# Mechanical properties :
#
#
# Convention : Reuss Voigt Hill
#
# Bulk Modulus (GPa) = 8.00208 8.90301 8.45255
# Shear Modulus (GPa) = 27.03889 30.07697 28.55793
#
# Velocity S-wave (km/s) = 3.46800 3.65765 3.56409
# Velocity P-wave (km/s) = 4.42667 4.66883 4.54936
#
# Compressibility (1/GPa) = 0.12496748
#
# Stress axis : x y z
#
# Youngs Moduli (GPa) = 48.06428 31.86966 33.85057
#
# Poissons Ratio (x) = -0.15269 -0.07741
# Poissons Ratio (y) = -0.23029 -0.49230
# Poissons Ratio (z) = -0.10992 -0.46349
#
# Static dielectric constant tensor:
#      x y z
#    x 1.887670 0.000000 0.000000 
#    y 0.000000 1.839790 0.000000 
#    z 0.000000 0.000000 1.857710 
# 
# From -- ./inp_files/5963.got.cif
#   From: 2010.05.17/outbox.cif.g08.bks.cpg/sg19_3_cif.got.tgz:5963.got - 2010.06.03 22:46:19.
