data_PCOD9315938
_publ_section_title
;
Structure prediction by ZEFSAII (Michael W. Deem and Ramdas Pophale) SiO2 
 PCOD9315938
Probable space group: P 21 21 21
;
_chemical_formula_sum "Si O2"
_cell_formula_units_Z 32
_cell_length_a 15.538170
_cell_length_b 16.845968
_cell_length_c 5.171287
_cell_angle_alpha 90.000000
_cell_angle_beta 90.000000
_cell_angle_gamma 90.000000
_cell_volume 1353.612890
_symmetry_space_group_name_H-M "P 21 21 21"
_symmetry_group_IT_number 19
_symmetry_cell_setting 'orthorhombic'
loop_
_space_group_symop_operation_xyz
x,y,z
1/2-x,-y,1/2+z
1/2+x,1/2-y,-z
-x,1/2+y,1/2-z
loop_
_atom_site_type_symbol
_atom_site_label
_atom_site_fract_x
_atom_site_fract_y
_atom_site_fract_z
Si Si1 0.630255 0.124350 0.958968
Si Si2 0.371705 0.079879 0.401887
Si Si3 0.100485 0.092111 0.045608
Si Si4 0.939970 0.051072 0.385131
Si Si5 0.534943 0.826551 0.248520
Si Si6 0.816014 0.178779 0.100838
Si Si7 0.536828 0.180508 0.481486
Si Si8 0.785639 0.357321 0.104329
O O1 0.604776 0.174566 0.708820
O O2 0.600178 0.035459 0.886246
O O3 0.730783 0.132846 0.016692
O O4 0.579641 0.155106 0.210800
O O5 0.456822 0.121408 0.517275
O O6 0.301350 0.092503 0.631995
O O7 0.386735 0.986482 0.371802
O O8 0.352944 0.117673 0.120879
O O9 0.196806 0.125894 0.049771
O O10 0.045191 0.164803 0.935696
O O11 0.036431 0.059987 0.270508
O O12 0.946343 0.082820 0.675362
O O13 0.875619 0.116790 0.258547
O O14 0.622522 0.795912 0.365146
O O15 0.503241 0.768047 0.028343
O O16 0.789987 0.265805 0.203487
#
# Coordination Sequence:
#
# PCOD9315938 Si02
#       8
#     4   4   4   4   4   4   4   4
#     4  12  29  48  79 108 148 195 258 301 370 451
#     4  12  25  47  75 104 148 189 241 301 371 427
#     4  11  26  45  72 112 140 194 242 302 367 438
#     4  11  27  47  74 103 152 192 243 305 367 440
#     4  11  26  46  75 102 155 188 247 302 376 436
#     4  11  28  46  71 109 143 197 242 304 367 438
#     4  12  26  49  76 107 147 199 243 311 371 443
#     4  12  27  46  74 107 147 188 246 304 363 441
#
# _framework density 23.640438
#
# number of rings (size 3 to 8) (size 9 to 14) (size 15 to 20)
#    0.000    0.500    2.500    3.750   14.000    0.000 
#    0.000    0.000    0.000    0.000    0.000    0.000 
#    0.000    0.000    0.000    0.000    0.000    0.000 
#
# Total GULP energy -178757.263529 kJ/mol
# GULP energy per Si atom -5586.164485 kJ/mol
# Density = 2.358663 g / cm^3
# Si number density = 23.640438 Si / 1000 Ang^3
#
#
#
# Elastic Constant Matrix: (Units=GPa)
#
#
# Indices 1 2 3 4 5 6 
#
# 1 118.2582 27.0295 24.3813 0.0000 0.0000 0.0000
# 2 27.0295 113.8976 17.5429 0.0000 0.0000 0.0000
# 3 24.3813 17.5429 65.8237 0.0000 0.0000 0.0000
# 4 0.0000 0.0000 0.0000 31.3532 0.0000 0.0000
# 5 0.0000 0.0000 0.0000 0.0000 -21.8276 0.0000
# 6 0.0000 0.0000 0.0000 0.0000 0.0000 20.7391
#
#
#
# Elastic Compliance Matrix: (Units=1/GPa)
#
#
# Indices 1 2 3 4 5 6 
#
# 1 0.009491 -0.001784 -0.003040 0.000000 0.000000 0.000000
# 2 -0.001784 0.009491 -0.001869 0.000000 0.000000 0.000000
# 3 -0.003040 -0.001869 0.016816 0.000000 0.000000 0.000000
# 4 0.000000 0.000000 0.000000 0.031895 0.000000 0.000000
# 5 0.000000 0.000000 0.000000 0.000000 -0.045814 0.000000
# 6 0.000000 0.000000 0.000000 0.000000 0.000000 0.048218
#
#
# Mechanical properties :
#
#
# Convention : Reuss Voigt Hill
#
# Bulk Modulus (GPa) = 44.61789 48.43189 46.52489
# Shear Modulus (GPa) = 54.97361 21.32134 38.14747
#
# Velocity S-wave (km/s) = 4.82748 3.00642 4.02139
# Velocity P-wave (km/s) = 7.07017 5.70814 6.42534
#
# Compressibility (1/GPa) = 0.02241253
#
# Stress axis : x y z
#
# Youngs Moduli (GPa) = 105.36770 105.36281 59.46682
#
# Poissons Ratio (x) = 0.18797 0.18077
# Poissons Ratio (y) = 0.18798 0.11112
# Poissons Ratio (z) = 0.32030 0.19689
#
# Static dielectric constant tensor:
#      x y z
#    x 1.904440 0.000000 0.000000 
#    y 0.000000 1.911840 0.000000 
#    z 0.000000 0.000000 1.962140 
# 
# From -- ./inp_files/1570.got.cif
#   From: 2010.05.17/outbox.cif.g08.bks.cpg/sg19_1_cif.got.tgz:1570.got - 2010.06.03 22:46:19.
