data_PCOD9315924
_publ_section_title
;
Structure prediction by ZEFSAII (Michael W. Deem and Ramdas Pophale) SiO2 
 PCOD9315924
Probable space group: P 21 21 21
;
_chemical_formula_sum "Si O2"
_cell_formula_units_Z 20
_cell_length_a 5.786559
_cell_length_b 7.622134
_cell_length_c 16.047478
_cell_angle_alpha 90.000000
_cell_angle_beta 90.000000
_cell_angle_gamma 90.000000
_cell_volume 707.788911
_symmetry_space_group_name_H-M "P 21 21 21"
_symmetry_group_IT_number 19
_symmetry_cell_setting 'orthorhombic'
loop_
_space_group_symop_operation_xyz
x,y,z
1/2-x,-y,1/2+z
1/2+x,1/2-y,-z
-x,1/2+y,1/2-z
loop_
_atom_site_type_symbol
_atom_site_label
_atom_site_fract_x
_atom_site_fract_y
_atom_site_fract_z
Si Si1 0.006192 0.471196 0.173197
Si Si2 0.824783 0.573093 0.341022
Si Si3 0.138335 0.276726 0.426383
Si Si4 0.578978 0.130111 0.384356
Si Si5 0.993725 0.248065 0.953553
O O1 0.062911 0.268315 0.162117
O O2 0.238665 0.590341 0.188547
O O3 0.829457 0.503342 0.247341
O O4 0.942246 0.575149 0.089176
O O5 0.584167 0.604702 0.387872
O O6 0.977927 0.431238 0.391200
O O7 0.370947 0.263812 0.370979
O O8 0.170812 0.304209 0.524312
O O9 0.492814 0.935257 0.405512
O O10 0.749309 0.227821 0.006703
#
# Coordination Sequence:
#
# PCOD9315924 Si02
#       5
#     4   4   4   4   4
#     4  11  25  50  72 112 162 211 275 334 417 482
#     4  11  25  49  77 112 161 212 270 342 407 489
#     4  12  24  47  74 113 151 211 266 334 403 490
#     4  11  26  44  80 112 158 209 274 331 409 486
#     4  11  26  48  81 121 158 211 271 335 408 485
#
# _framework density 28.257016
#
# number of rings (size 3 to 8) (size 9 to 14) (size 15 to 20)
#    0.000    0.800    6.000    0.000    5.600    1.600 
#    7.200    0.000    0.000    0.000    0.000    0.000 
#    0.000    0.000    0.000    0.000    0.000    0.000 
#
# Total GULP energy -111743.885232 kJ/mol
# GULP energy per Si atom -5587.194262 kJ/mol
# Density = 2.819270 g / cm^3
# Si number density = 28.257016 Si / 1000 Ang^3
#
#
#
# Elastic Constant Matrix: (Units=GPa)
#
#
# Indices 1 2 3 4 5 6 
#
# 1 109.1444 60.5435 26.9921 0.0000 0.0000 0.0000
# 2 60.5435 228.5414 36.1201 0.0000 0.0000 0.0000
# 3 26.9921 36.1201 94.7150 0.0000 0.0000 0.0000
# 4 0.0000 0.0000 0.0000 48.8524 0.0000 0.0000
# 5 0.0000 0.0000 0.0000 0.0000 25.4885 0.0000
# 6 0.0000 0.0000 0.0000 0.0000 0.0000 70.8997
#
#
#
# Elastic Compliance Matrix: (Units=1/GPa)
#
#
# Indices 1 2 3 4 5 6 
#
# 1 0.011149 -0.002609 -0.002182 0.000000 0.000000 0.000000
# 2 -0.002609 0.005267 -0.001265 0.000000 0.000000 0.000000
# 3 -0.002182 -0.001265 0.011662 0.000000 0.000000 0.000000
# 4 0.000000 0.000000 0.000000 0.020470 0.000000 0.000000
# 5 0.000000 0.000000 0.000000 0.000000 0.039233 0.000000
# 6 0.000000 0.000000 0.000000 0.000000 0.000000 0.014104
#
#
# Mechanical properties :
#
#
# Convention : Reuss Voigt Hill
#
# Bulk Modulus (GPa) = 62.63412 75.52357 69.07885
# Shear Modulus (GPa) = 41.90432 49.63114 45.76773
#
# Velocity S-wave (km/s) = 3.85511 4.19551 4.02891
# Velocity P-wave (km/s) = 6.48304 7.08909 6.79283
#
# Compressibility (1/GPa) = 0.01596574
#
# Stress axis : x y z
#
# Youngs Moduli (GPa) = 89.69499 189.87777 85.74582
#
# Poissons Ratio (x) = 0.49531 0.18714
# Poissons Ratio (y) = 0.23397 0.10847
# Poissons Ratio (z) = 0.19576 0.24020
#
# Static dielectric constant tensor:
#      x y z
#    x 2.606140 0.000000 0.000000 
#    y 0.000000 2.115800 0.000000 
#    z 0.000000 0.000000 2.191280 
# 
# From -- ./inp_files/384.got.cif
#   From: 2010.05.17/outbox.cif.g08.bks.cpg/sg19_1_cif.got.tgz:384.got - 2010.06.03 22:46:19.
