data_PCOD9315902
_publ_section_title
;
Structure prediction by ZEFSAII (Michael W. Deem and Ramdas Pophale) SiO2 
 PCOD9315902
Probable space group: P 21 21 21
;
_chemical_formula_sum "Si O2"
_cell_formula_units_Z 24
_cell_length_a 13.581936
_cell_length_b 12.865524
_cell_length_c 4.959369
_cell_angle_alpha 90.000000
_cell_angle_beta 90.000000
_cell_angle_gamma 90.000000
_cell_volume 866.593809
_symmetry_space_group_name_H-M "P 21 21 21"
_symmetry_group_IT_number 19
_symmetry_cell_setting 'orthorhombic'
loop_
_space_group_symop_operation_xyz
x,y,z
1/2-x,-y,1/2+z
1/2+x,1/2-y,-z
-x,1/2+y,1/2-z
loop_
_atom_site_type_symbol
_atom_site_label
_atom_site_fract_x
_atom_site_fract_y
_atom_site_fract_z
Si Si1 0.936837 0.462905 0.599387
Si Si2 0.898986 0.828690 0.893756
Si Si3 0.720829 0.932993 0.109769
Si Si4 0.642394 0.656295 0.581468
Si Si5 0.864822 0.653447 0.519368
Si Si6 0.959996 0.159832 0.334312
O O1 0.873083 0.410413 0.355644
O O2 0.885125 0.563657 0.739543
O O3 0.052893 0.440639 0.549938
O O4 0.930175 0.382512 0.853116
O O5 0.791415 0.836855 0.027785
O O6 0.883971 0.770507 0.609334
O O7 0.972123 0.748401 0.035801
O O8 0.608394 0.902346 0.039378
O O9 0.750029 0.025518 0.902212
O O10 0.751138 0.645537 0.458401
O O11 0.614787 0.775666 0.645331
O O12 0.954425 0.604407 0.340564
#
# Coordination Sequence:
#
# PCOD9315902 Si02
#       6
#     4   4   4   4   4   4
#     4  11  26  45  71 107 144 189 253 309 373 455
#     4  11  27  46  75 109 153 198 259 311 387 467
#     4  12  30  52  80 115 162 208 265 333 401 473
#     4  11  25  47  68 105 146 189 250 310 370 455
#     4  12  25  45  77 102 149 201 242 317 386 449
#     4  11  27  47  77 110 156 203 259 318 393 471
#
# _framework density 27.694635999999999
#
# number of rings (size 3 to 8) (size 9 to 14) (size 15 to 20)
#    0.000    0.667    3.333    2.000   11.667    0.000 
#    0.000    0.000    0.000    0.000    0.000    0.000 
#    0.000    0.000    0.000    0.000    0.000    0.000 
#
# Total GULP energy -134109.870022 kJ/mol
# GULP energy per Si atom -5587.911251 kJ/mol
# Density = 2.763160 g / cm^3
# Si number density = 27.694636 Si / 1000 Ang^3
#
#
#
# Elastic Constant Matrix: (Units=GPa)
#
#
# Indices 1 2 3 4 5 6 
#
# 1 152.1915 51.2576 -0.7794 0.0000 0.0000 0.0000
# 2 51.2576 201.5156 81.8395 0.0000 0.0000 0.0000
# 3 -0.7794 81.8395 109.9550 0.0000 0.0000 0.0000
# 4 0.0000 0.0000 0.0000 -4.2429 0.0000 0.0000
# 5 0.0000 0.0000 0.0000 0.0000 117.5296 0.0000
# 6 0.0000 0.0000 0.0000 0.0000 0.0000 49.1307
#
#
#
# Elastic Compliance Matrix: (Units=1/GPa)
#
#
# Indices 1 2 3 4 5 6 
#
# 1 0.007515 -0.002771 0.002115 0.000000 0.000000 0.000000
# 2 -0.002771 0.008134 -0.006074 0.000000 0.000000 0.000000
# 3 0.002115 -0.006074 0.013630 0.000000 0.000000 0.000000
# 4 0.000000 0.000000 0.000000 -0.235690 0.000000 0.000000
# 5 0.000000 0.000000 0.000000 0.000000 0.008508 0.000000
# 6 0.000000 0.000000 0.000000 0.000000 0.000000 0.020354
#
#
# Mechanical properties :
#
#
# Convention : Reuss Voigt Hill
#
# Bulk Modulus (GPa) = 63.20686 80.92194 72.06440
# Shear Modulus (GPa) = -31.48251 54.57312 11.54530
#
# Velocity S-wave (km/s) = -3.37526 4.44388 2.04398
# Velocity P-wave (km/s) = 2.77172 7.45745 5.62566
#
# Compressibility (1/GPa) = 0.01582107
#
# Stress axis : x y z
#
# Youngs Moduli (GPa) = 133.07425 122.94542 73.36666
#
# Poissons Ratio (x) = 0.34062 -0.15520
# Poissons Ratio (y) = 0.36868 0.44560
# Poissons Ratio (z) = -0.28150 0.74671
#
# Static dielectric constant tensor:
#      x y z
#    x 2.184370 0.000000 0.000000 
#    y 0.000000 -5.490170 0.000000 
#    z 0.000000 0.000000 2.691600 
# 
# From -- ./inp_files/936.got.cif
#   From: 2010.05.17/outbox.cif.g08.bks.cpg/sg19_1_cif.got.tgz:936.got - 2010.06.03 22:46:19.
