data_PCOD9315930
_publ_section_title
;
Structure prediction by ZEFSAII (Michael W. Deem and Ramdas Pophale) SiO2 
 PCOD9315930
Probable space group: P 21 21 21
;
_chemical_formula_sum "Si O2"
_cell_formula_units_Z 20
_cell_length_a 14.076784
_cell_length_b 10.514436
_cell_length_c 5.087483
_cell_angle_alpha 90.000000
_cell_angle_beta 90.000000
_cell_angle_gamma 90.000000
_cell_volume 752.995532
_symmetry_space_group_name_H-M "P 21 21 21"
_symmetry_group_IT_number 19
_symmetry_cell_setting 'orthorhombic'
loop_
_space_group_symop_operation_xyz
x,y,z
1/2-x,-y,1/2+z
1/2+x,1/2-y,-z
-x,1/2+y,1/2-z
loop_
_atom_site_type_symbol
_atom_site_label
_atom_site_fract_x
_atom_site_fract_y
_atom_site_fract_z
Si Si1 0.253329 0.875730 0.169385
Si Si2 0.307973 0.486637 0.833458
Si Si3 0.910516 0.430901 0.678003
Si Si4 0.152853 0.249256 0.176565
Si Si5 0.466349 0.331462 0.039310
O O1 0.292122 0.798356 0.419122
O O2 0.321929 0.001285 0.167462
O O3 0.143439 0.909183 0.104487
O O4 0.285350 0.793459 0.920241
O O5 0.225703 0.469954 0.621114
O O6 0.363560 0.601244 0.698108
O O7 0.371862 0.366249 0.884925
O O8 0.947444 0.295102 0.787110
O O9 0.993563 0.538338 0.676334
O O10 0.049194 0.192084 0.168335
#
# Coordination Sequence:
#
# PCOD9315930 Si02
#       5
#     4   4   4   4   4
#     4  11  25  51  85 120 164 225 272 342 416 507
#     4  12  29  53  82 122 171 220 273 347 418 491
#     4  11  26  53  87 128 167 224 280 346 418 503
#     4  11  27  52  83 120 168 212 284 332 417 493
#     4  11  29  51  87 124 174 215 283 349 417 494
#
# _framework density 26.560580000000002
#
# number of rings (size 3 to 8) (size 9 to 14) (size 15 to 20)
#    0.000    0.800    0.000    4.800   11.200    3.200 
#    7.200    0.000    0.000    0.000    0.000    0.000 
#    0.000    0.000    0.000    0.000    0.000    0.000 
#
# Total GULP energy -111983.845419 kJ/mol
# GULP energy per Si atom -5599.192271 kJ/mol
# Density = 2.650013 g / cm^3
# Si number density = 26.560580 Si / 1000 Ang^3
#
#
#
# Elastic Constant Matrix: (Units=GPa)
#
#
# Indices 1 2 3 4 5 6 
#
# 1 105.5692 31.0106 -5.9947 0.0000 0.0000 0.0000
# 2 31.0106 159.9064 12.1178 0.0000 0.0000 0.0000
# 3 -5.9947 12.1178 91.6523 0.0000 0.0000 0.0000
# 4 0.0000 0.0000 0.0000 33.3481 0.0000 0.0000
# 5 0.0000 0.0000 0.0000 0.0000 17.0363 0.0000
# 6 0.0000 0.0000 0.0000 0.0000 0.0000 56.8015
#
#
#
# Elastic Compliance Matrix: (Units=1/GPa)
#
#
# Indices 1 2 3 4 5 6 
#
# 1 0.010123 -0.002034 0.000931 0.000000 0.000000 0.000000
# 2 -0.002034 0.006726 -0.001022 0.000000 0.000000 0.000000
# 3 0.000931 -0.001022 0.011107 0.000000 0.000000 0.000000
# 4 0.000000 0.000000 0.000000 0.029987 0.000000 0.000000
# 5 0.000000 0.000000 0.000000 0.000000 0.058698 0.000000
# 6 0.000000 0.000000 0.000000 0.000000 0.000000 0.017605
#
#
# Mechanical properties :
#
#
# Convention : Reuss Voigt Hill
#
# Bulk Modulus (GPa) = 42.18474 47.93281 45.05877
# Shear Modulus (GPa) = 34.15377 42.77012 38.46194
#
# Velocity S-wave (km/s) = 3.58981 4.01719 3.80950
# Velocity P-wave (km/s) = 5.75320 6.29308 6.02918
#
# Compressibility (1/GPa) = 0.02370526
#
# Stress axis : x y z
#
# Youngs Moduli (GPa) = 98.78792 148.68767 90.03455
#
# Poissons Ratio (x) = 0.30238 -0.08382
# Poissons Ratio (y) = 0.20090 0.09204
# Poissons Ratio (z) = -0.09197 0.15199
#
# Static dielectric constant tensor:
#      x y z
#    x 2.056100 0.000000 0.000000 
#    y 0.000000 2.194500 0.000000 
#    z 0.000000 0.000000 2.096490 
# 
# From -- ./inp_files/1405.got.cif
#   From: 2010.05.17/outbox.cif.g08.bks.cpg/sg19_1_cif.got.tgz:1405.got - 2010.06.03 22:46:19.
