data_PCOD9315493
_publ_section_title
;
Structure prediction by ZEFSAII (Michael W. Deem and Ramdas Pophale) SiO2 
 PCOD9315493
Probable space group: P 21 21 21
;
_chemical_formula_sum "Si O2"
_cell_formula_units_Z 32
_cell_length_a 7.602444
_cell_length_b 29.556074
_cell_length_c 5.416059
_cell_angle_alpha 90.000000
_cell_angle_beta 90.000000
_cell_angle_gamma 90.000000
_cell_volume 1216.979778
_symmetry_space_group_name_H-M "P 21 21 21"
_symmetry_group_IT_number 19
_symmetry_cell_setting 'orthorhombic'
loop_
_space_group_symop_operation_xyz
x,y,z
1/2-x,-y,1/2+z
1/2+x,1/2-y,-z
-x,1/2+y,1/2-z
loop_
_atom_site_type_symbol
_atom_site_label
_atom_site_fract_x
_atom_site_fract_y
_atom_site_fract_z
Si Si1 0.938778 0.343896 0.743826
Si Si2 0.325470 0.719435 0.454972
Si Si3 0.167553 0.685316 0.943082
Si Si4 0.724288 0.602359 0.611881
Si Si5 0.797961 0.910182 0.270205
Si Si6 0.845242 0.936557 0.779890
Si Si7 0.789640 0.693496 0.861755
Si Si8 0.653376 0.491350 0.254754
O O1 0.064880 0.386489 0.680155
O O2 0.883029 0.308814 0.531946
O O3 0.000458 0.312061 0.973019
O O4 0.777255 0.374415 0.843455
O O5 0.232382 0.717284 0.718435
O O6 0.317830 0.770018 0.353441
O O7 0.257448 0.692868 0.207923
O O8 0.209403 0.637171 0.810414
O O9 0.969292 0.698090 0.011308
O O10 0.514946 0.592547 0.681380
O O11 0.794870 0.642234 0.775530
O O12 0.843785 0.559368 0.651736
O O13 0.734542 0.928842 0.533657
O O14 0.758394 0.943865 0.045055
O O15 0.987762 0.975476 0.741264
O O16 0.723200 0.487487 0.536312
#
# Coordination Sequence:
#
# PCOD9315493 Si02
#       8
#     4   4   4   4   4   4   4   4
#     4  11  22  45  65  97 133 181 220 290 337 402
#     4  12  27  45  70  92 135 184 240 273 342 418
#     4  12  26  45  66 102 128 184 229 286 337 420
#     4  11  23  40  66  96 140 172 218 290 347 399
#     4  11  19  39  65  89 129 172 215 267 332 405
#     4  11  19  37  65  95 125 169 219 276 330 400
#     4  12  28  41  68  96 142 175 231 289 352 399
#     4  12  20  34  63 105 130 165 226 283 339 397
#
# _framework density 26.294602000000001
#
# number of rings (size 3 to 8) (size 9 to 14) (size 15 to 20)
#    0.000    0.500    8.750    0.750    5.250    0.000 
#    0.000    0.000    0.000    1.500    0.000    0.000 
#    0.000    0.000    0.000    0.000    0.000    0.000 
#
# Total GULP energy -178493.500887 kJ/mol
# GULP energy per Si atom -5577.921903 kJ/mol
# Density = 2.623475 g / cm^3
# Si number density = 26.294602 Si / 1000 Ang^3
#
#
#
# Elastic Constant Matrix: (Units=GPa)
#
#
# Indices 1 2 3 4 5 6 
#
# 1 37.8773 21.1271 -9.3043 0.0000 0.0000 0.0000
# 2 21.1271 114.1600 -0.0291 0.0000 0.0000 0.0000
# 3 -9.3043 -0.0291 128.6974 0.0000 0.0000 0.0000
# 4 0.0000 0.0000 0.0000 35.8844 0.0000 0.0000
# 5 0.0000 0.0000 0.0000 0.0000 15.4682 0.0000
# 6 0.0000 0.0000 0.0000 0.0000 0.0000 14.9437
#
#
#
# Elastic Compliance Matrix: (Units=1/GPa)
#
#
# Indices 1 2 3 4 5 6 
#
# 1 0.030034 -0.005558 0.002170 0.000000 0.000000 0.000000
# 2 -0.005558 0.009788 -0.000400 0.000000 0.000000 0.000000
# 3 0.002170 -0.000400 0.007927 0.000000 0.000000 0.000000
# 4 0.000000 0.000000 0.000000 0.027867 0.000000 0.000000
# 5 0.000000 0.000000 0.000000 0.000000 0.064649 0.000000
# 6 0.000000 0.000000 0.000000 0.000000 0.000000 0.066918
#
#
# Mechanical properties :
#
#
# Convention : Reuss Voigt Hill
#
# Bulk Modulus (GPa) = 24.89130 33.81358 29.35244
# Shear Modulus (GPa) = 21.91550 31.18865 26.55208
#
# Velocity S-wave (km/s) = 2.89010 3.44775 3.18117
# Velocity P-wave (km/s) = 4.54134 5.36067 4.96792
#
# Compressibility (1/GPa) = 0.04017468
#
# Stress axis : x y z
#
# Youngs Moduli (GPa) = 33.29547 102.16506 126.15172
#
# Poissons Ratio (x) = 0.56781 -0.27376
# Poissons Ratio (y) = 0.18505 0.05041
# Poissons Ratio (z) = -0.07225 0.04082
#
# Static dielectric constant tensor:
#      x y z
#    x 2.205730 0.000000 0.000000 
#    y 0.000000 2.045550 0.000000 
#    z 0.000000 0.000000 2.187500 
# 
# From -- ./inp_files/741.got.cif
#   From: 2010.05.17/outbox.cif.g08.bks.cpg/sg19_1_cif.got.tgz:741.got - 2010.06.03 22:46:19.
