data_PCOD9315517
_publ_section_title
;
Structure prediction by ZEFSAII (Michael W. Deem and Ramdas Pophale) SiO2 
 PCOD9315517
Probable space group: P 21 21 21
;
_chemical_formula_sum "Si O2"
_cell_formula_units_Z 24
_cell_length_a 7.336983
_cell_length_b 21.183100
_cell_length_c 5.414013
_cell_angle_alpha 90.000000
_cell_angle_beta 90.000000
_cell_angle_gamma 90.000000
_cell_volume 841.446142
_symmetry_space_group_name_H-M "P 21 21 21"
_symmetry_group_IT_number 19
_symmetry_cell_setting 'orthorhombic'
loop_
_space_group_symop_operation_xyz
x,y,z
1/2-x,-y,1/2+z
1/2+x,1/2-y,-z
-x,1/2+y,1/2-z
loop_
_atom_site_type_symbol
_atom_site_label
_atom_site_fract_x
_atom_site_fract_y
_atom_site_fract_z
Si Si1 0.582661 0.738586 0.086816
Si Si2 0.410660 0.772944 0.596174
Si Si3 0.163970 0.584217 0.961335
Si Si4 0.767624 0.398234 0.468113
Si Si5 0.740416 0.939392 0.537611
Si Si6 0.314214 0.921793 0.534477
O O1 0.446370 0.745107 0.323115
O O2 0.757071 0.762521 0.242830
O O3 0.633019 0.667601 0.005761
O O4 0.556792 0.772545 0.821972
O O5 0.347990 0.845289 0.549131
O O6 0.956187 0.608347 0.954171
O O7 0.268683 0.598682 0.212233
O O8 0.163902 0.507054 0.962759
O O9 0.270355 0.598563 0.711910
O O10 0.805077 0.430327 0.208499
O O11 0.792517 0.437803 0.716382
O O12 0.518124 0.949697 0.534046
#
# Coordination Sequence:
#
# PCOD9315517 Si02
#       6
#     4   4   4   4   4   4
#     4  11  21  34  50  70  96 129 164 198 237 280
#     4  11  21  34  50  70  96 129 164 198 237 280
#     4   8  13  21  35  56  83 114 144 176 222 279
#     4   9  16  27  42  62  89 121 152 186 233 279
#     4   8  13  21  35  56  83 114 144 176 222 279
#     4   9  16  27  42  62  89 121 152 186 233 279
#
# _framework density 28.522324999999999
#
# number of rings (size 3 to 8) (size 9 to 14) (size 15 to 20)
#    0.000    2.667    0.000    5.000    0.000    0.000 
#    0.000    0.000    0.000    0.000    0.000    0.000 
#    0.000    5.333    0.000   10.000    0.000    1.333 
#
# Total GULP energy -134109.999494 kJ/mol
# GULP energy per Si atom -5587.916646 kJ/mol
# Density = 2.845741 g / cm^3
# Si number density = 28.522325 Si / 1000 Ang^3
#
#
#
# Elastic Constant Matrix: (Units=GPa)
#
#
# Indices 1 2 3 4 5 6 
#
# 1 94.9813 26.4086 14.6354 0.0000 0.0000 0.0000
# 2 26.4086 124.9098 47.6150 0.0000 0.0000 0.0000
# 3 14.6354 47.6150 284.7793 0.0000 0.0000 0.0000
# 4 0.0000 0.0000 0.0000 14.6419 0.0000 0.0000
# 5 0.0000 0.0000 0.0000 0.0000 -25.0784 0.0000
# 6 0.0000 0.0000 0.0000 0.0000 0.0000 35.5069
#
#
#
# Elastic Compliance Matrix: (Units=1/GPa)
#
#
# Indices 1 2 3 4 5 6 
#
# 1 0.011196 -0.002294 -0.000192 0.000000 0.000000 0.000000
# 2 -0.002294 0.009021 -0.001390 0.000000 0.000000 0.000000
# 3 -0.000192 -0.001390 0.003754 0.000000 0.000000 0.000000
# 4 0.000000 0.000000 0.000000 0.068297 0.000000 0.000000
# 5 0.000000 0.000000 0.000000 0.000000 -0.039875 0.000000
# 6 0.000000 0.000000 0.000000 0.000000 0.000000 0.028164
#
#
# Mechanical properties :
#
#
# Convention : Reuss Voigt Hill
#
# Bulk Modulus (GPa) = 61.65948 75.77650 68.71799
# Shear Modulus (GPa) = 53.35367 32.74816 43.05092
#
# Velocity S-wave (km/s) = 4.32973 3.39213 3.88928
# Velocity P-wave (km/s) = 6.83083 6.47820 6.65685
#
# Compressibility (1/GPa) = 0.01621811
#
# Stress axis : x y z
#
# Youngs Moduli (GPa) = 89.31965 110.85541 266.39523
#
# Poissons Ratio (x) = 0.25429 0.05110
# Poissons Ratio (y) = 0.20489 0.37039
# Poissons Ratio (z) = 0.01713 0.15413
#
# Static dielectric constant tensor:
#      x y z
#    x 2.443960 0.000000 0.000000 
#    y 0.000000 2.105670 0.000000 
#    z 0.000000 0.000000 2.479200 
# 
# From -- ./inp_files/572.got.cif
#   From: 2010.05.17/outbox.cif.g08.bks.cpg/sg19_1_cif.got.tgz:572.got - 2010.06.03 22:46:19.
