data_PCOD9315495
_publ_section_title
;
Structure prediction by ZEFSAII (Michael W. Deem and Ramdas Pophale) SiO2 
 PCOD9315495
Probable space group: P 21 21 21
;
_chemical_formula_sum "Si O2"
_cell_formula_units_Z 24
_cell_length_a 6.473075
_cell_length_b 18.668334
_cell_length_c 9.315837
_cell_angle_alpha 90.000000
_cell_angle_beta 90.000000
_cell_angle_gamma 90.000000
_cell_volume 1125.739960
_symmetry_space_group_name_H-M "P 21 21 21"
_symmetry_group_IT_number 19
_symmetry_cell_setting 'orthorhombic'
loop_
_space_group_symop_operation_xyz
x,y,z
1/2-x,-y,1/2+z
1/2+x,1/2-y,-z
-x,1/2+y,1/2-z
loop_
_atom_site_type_symbol
_atom_site_label
_atom_site_fract_x
_atom_site_fract_y
_atom_site_fract_z
Si Si1 0.316119 0.276140 0.691240
Si Si2 0.428025 0.641884 0.721195
Si Si3 0.465419 0.315926 0.385200
Si Si4 0.187373 0.430963 0.693844
Si Si5 0.179093 0.924803 0.027448
Si Si6 0.474961 0.530678 0.496422
O O1 0.478779 0.221605 0.760111
O O2 0.353289 0.278183 0.518781
O O3 0.092869 0.240210 0.708720
O O4 0.307883 0.358385 0.735849
O O5 0.557201 0.588400 0.824740
O O6 0.453111 0.609374 0.564312
O O7 0.198981 0.644535 0.785723
O O8 0.631149 0.369337 0.457427
O O9 0.333730 0.480185 0.596660
O O10 0.111786 0.469825 0.836238
O O11 0.986293 0.411055 0.597810
O O12 0.291516 0.000681 0.006200
#
# Coordination Sequence:
#
# PCOD9315495 Si02
#       6
#     4   4   4   4   4   4
#     4  11  21  39  66  99 131 178 220 269 332 391
#     4  11  24  42  68 101 132 176 226 276 326 401
#     4  11  19  38  68  95 129 167 227 267 322 401
#     4  12  25  43  68  99 134 179 221 277 333 395
#     4  11  21  41  69  96 125 170 223 272 333 388
#     4  12  26  45  67  98 137 174 227 275 334 394
#
# _framework density 21.319310000000002
#
# number of rings (size 3 to 8) (size 9 to 14) (size 15 to 20)
#    0.000    0.667    5.000    4.000    0.000    1.333 
#    3.000    0.000    0.000    0.000    0.000    0.000 
#    0.000    0.000    0.000    0.000    0.000    0.000 
#
# Total GULP energy -134173.420365 kJ/mol
# GULP energy per Si atom -5590.559182 kJ/mol
# Density = 2.127079 g / cm^3
# Si number density = 21.319310 Si / 1000 Ang^3
#
#
#
# Elastic Constant Matrix: (Units=GPa)
#
#
# Indices 1 2 3 4 5 6 
#
# 1 73.5712 4.7847 11.4651 0.0000 0.0000 0.0000
# 2 4.7847 69.0079 2.7158 0.0000 0.0000 0.0000
# 3 11.4651 2.7158 61.2153 0.0000 0.0000 0.0000
# 4 0.0000 0.0000 0.0000 30.3607 0.0000 0.0000
# 5 0.0000 0.0000 0.0000 0.0000 10.9071 0.0000
# 6 0.0000 0.0000 0.0000 0.0000 0.0000 35.9715
#
#
#
# Elastic Compliance Matrix: (Units=1/GPa)
#
#
# Indices 1 2 3 4 5 6 
#
# 1 0.014053 -0.000872 -0.002593 0.000000 0.000000 0.000000
# 2 -0.000872 0.014571 -0.000483 0.000000 0.000000 0.000000
# 3 -0.002593 -0.000483 0.016843 0.000000 0.000000 0.000000
# 4 0.000000 0.000000 0.000000 0.032937 0.000000 0.000000
# 5 0.000000 0.000000 0.000000 0.000000 0.091683 0.000000
# 6 0.000000 0.000000 0.000000 0.000000 0.000000 0.027800
#
#
# Mechanical properties :
#
#
# Convention : Reuss Voigt Hill
#
# Bulk Modulus (GPa) = 26.61750 26.85840 26.73795
# Shear Modulus (GPa) = 22.90345 27.76978 25.33661
#
# Velocity S-wave (km/s) = 3.28122 3.61302 3.45111
# Velocity P-wave (km/s) = 5.18338 5.48003 5.33377
#
# Compressibility (1/GPa) = 0.03756926
#
# Stress axis : x y z
#
# Youngs Moduli (GPa) = 71.15844 68.63144 59.37216
#
# Poissons Ratio (x) = 0.05987 0.15397
# Poissons Ratio (y) = 0.06207 0.02868
# Poissons Ratio (z) = 0.18454 0.03315
#
# Static dielectric constant tensor:
#      x y z
#    x 1.778370 0.000000 0.000000 
#    y 0.000000 1.843520 0.000000 
#    z 0.000000 0.000000 1.725500 
# 
# From -- ./inp_files/2388.got.cif
#   From: 2010.05.17/outbox.cif.g08.bks.cpg/sg19_2_cif.got.tgz:2388.got - 2010.06.03 22:46:19.
