data_PCOD9315400
_publ_section_title
;
Structure prediction by ZEFSAII (Michael W. Deem and Ramdas Pophale) SiO2 
 PCOD9315400
Probable space group: P 21 21 21
;
_chemical_formula_sum "Si O2"
_cell_formula_units_Z 28
_cell_length_a 12.441343
_cell_length_b 18.824571
_cell_length_c 5.703382
_cell_angle_alpha 90.000000
_cell_angle_beta 90.000000
_cell_angle_gamma 90.000000
_cell_volume 1335.748859
_symmetry_space_group_name_H-M "P 21 21 21"
_symmetry_group_IT_number 19
_symmetry_cell_setting 'orthorhombic'
loop_
_space_group_symop_operation_xyz
x,y,z
1/2-x,-y,1/2+z
1/2+x,1/2-y,-z
-x,1/2+y,1/2-z
loop_
_atom_site_type_symbol
_atom_site_label
_atom_site_fract_x
_atom_site_fract_y
_atom_site_fract_z
Si Si1 0.536466 0.571762 0.065951
Si Si2 0.686853 0.093183 0.605644
Si Si3 0.821556 0.330556 0.851777
Si Si4 0.128015 0.667787 0.635799
Si Si5 0.747041 0.615648 0.859650
Si Si6 0.856835 0.063315 0.249936
Si Si7 0.517691 0.438542 0.362342
O O1 0.436821 0.610367 0.941796
O O2 0.581608 0.614777 0.291588
O O3 0.639709 0.568670 0.897203
O O4 0.499176 0.495272 0.155767
O O5 0.754044 0.135805 0.799306
O O6 0.758841 0.103091 0.377015
O O7 0.693144 0.008343 0.645432
O O8 0.865277 0.251280 0.878538
O O9 0.757839 0.335466 0.598806
O O10 0.762760 0.351090 0.097114
O O11 0.094247 0.625362 0.405973
O O12 0.040586 0.636983 0.817089
O O13 0.855977 0.571663 0.881732
O O14 0.951106 0.034192 0.416790
#
# Coordination Sequence:
#
# PCOD9315400 Si02
#       7
#     4   4   4   4   4   4   4
#     4  10  25  42  72 101 139 181 239 295 352 419
#     4  11  21  40  65 105 132 178 227 300 350 416
#     4  10  27  47  66 105 141 194 233 289 353 433
#     4  11  25  43  70  97 147 186 241 292 363 424
#     4  10  27  48  69 101 146 182 241 282 362 421
#     4  11  22  38  68 103 135 172 236 292 357 414
#     4  11  25  42  74 104 136 187 239 302 351 423
#
# _framework density 20.962022999999999
#
# number of rings (size 3 to 8) (size 9 to 14) (size 15 to 20)
#    0.857    0.571    2.857    0.857   10.000    1.143 
#    2.571    0.000    0.000    0.000    0.000    0.000 
#    0.000    0.000    0.000    0.000    0.000    0.000 
#
# Total GULP energy -155888.582162 kJ/mol
# GULP energy per Si atom -5567.449363 kJ/mol
# Density = 2.091431 g / cm^3
# Si number density = 20.962023 Si / 1000 Ang^3
#
#
#
# Elastic Constant Matrix: (Units=GPa)
#
#
# Indices 1 2 3 4 5 6 
#
# 1 125.7862 -0.3720 16.3156 0.0000 0.0000 0.0000
# 2 -0.3720 60.2430 6.9412 0.0000 0.0000 0.0000
# 3 16.3156 6.9412 83.6273 0.0000 0.0000 0.0000
# 4 0.0000 0.0000 0.0000 20.8564 0.0000 0.0000
# 5 0.0000 0.0000 0.0000 0.0000 20.5729 0.0000
# 6 0.0000 0.0000 0.0000 0.0000 0.0000 30.0457
#
#
#
# Elastic Compliance Matrix: (Units=1/GPa)
#
#
# Indices 1 2 3 4 5 6 
#
# 1 0.008160 0.000236 -0.001612 0.000000 0.000000 0.000000
# 2 0.000236 0.016767 -0.001438 0.000000 0.000000 0.000000
# 3 -0.001612 -0.001438 0.012392 0.000000 0.000000 0.000000
# 4 0.000000 0.000000 0.000000 0.047947 0.000000 0.000000
# 5 0.000000 0.000000 0.000000 0.000000 0.048608 0.000000
# 6 0.000000 0.000000 0.000000 0.000000 0.000000 0.033283
#
#
# Mechanical properties :
#
#
# Convention : Reuss Voigt Hill
#
# Bulk Modulus (GPa) = 31.55425 35.04735 33.30080
# Shear Modulus (GPa) = 27.27096 30.74645 29.00871
#
# Velocity S-wave (km/s) = 3.61081 3.83400 3.72408
# Velocity P-wave (km/s) = 5.69822 6.02952 5.86621
#
# Compressibility (1/GPa) = 0.03169145
#
# Stress axis : x y z
#
# Youngs Moduli (GPa) = 122.55312 59.64259 80.70013
#
# Poissons Ratio (x) = -0.01408 0.13005
# Poissons Ratio (y) = -0.02893 0.11602
# Poissons Ratio (z) = 0.19750 0.08575
#
# Static dielectric constant tensor:
#      x y z
#    x 1.734200 0.000000 0.000000 
#    y 0.000000 1.700900 0.000000 
#    z 0.000000 0.000000 1.848480 
# 
# From -- ./inp_files/1125.got.cif
#   From: 2010.05.17/outbox.cif.g08.bks.cpg/sg19_1_cif.got.tgz:1125.got - 2010.06.03 22:46:19.
