data_PCOD9315944
_publ_section_title
;
Structure prediction by ZEFSAII (Michael W. Deem and Ramdas Pophale) SiO2 
 PCOD9315944
Probable space group: P 21 21 21
;
_chemical_formula_sum "Si O2"
_cell_formula_units_Z 28
_cell_length_a 5.427713
_cell_length_b 17.044999
_cell_length_c 11.809111
_cell_angle_alpha 90.000000
_cell_angle_beta 90.000000
_cell_angle_gamma 90.000000
_cell_volume 1092.524187
_symmetry_space_group_name_H-M "P 21 21 21"
_symmetry_group_IT_number 19
_symmetry_cell_setting 'orthorhombic'
loop_
_space_group_symop_operation_xyz
x,y,z
1/2-x,-y,1/2+z
1/2+x,1/2-y,-z
-x,1/2+y,1/2-z
loop_
_atom_site_type_symbol
_atom_site_label
_atom_site_fract_x
_atom_site_fract_y
_atom_site_fract_z
Si Si1 0.683945 0.994847 0.397096
Si Si2 0.594389 0.645723 0.758593
Si Si3 0.838421 0.323909 0.842531
Si Si4 0.806221 0.519922 0.240221
Si Si5 0.842967 0.832948 0.457861
Si Si6 0.919129 0.760094 0.874930
Si Si7 0.779788 0.124931 0.557202
O O1 0.659379 0.902212 0.421447
O O2 0.428032 0.026252 0.344984
O O3 0.765500 0.037311 0.513400
O O4 0.922991 0.014816 0.317909
O O5 0.736689 0.566472 0.794108
O O6 0.575283 0.646531 0.623537
O O7 0.691378 0.728825 0.801401
O O8 0.332626 0.632803 0.818655
O O9 0.703777 0.406460 0.824288
O O10 0.723465 0.254251 0.917773
O O11 0.888538 0.289199 0.718365
O O12 0.089442 0.339764 0.911690
O O13 0.983820 0.680444 0.942135
O O14 0.881672 0.827397 0.965319
#
# Coordination Sequence:
#
# PCOD9315944 Si02
#       7
#     4   4   4   4   4   4   4
#     4  11  28  51  77 115 154 201 260 315 391 454
#     4  11  26  46  74 108 150 195 251 310 384 453
#     4  12  26  48  76 110 154 205 258 317 386 462
#     4  11  28  49  78 112 154 204 256 317 380 464
#     4  11  27  48  74 111 152 205 257 314 382 468
#     4  12  25  45  75 110 146 193 250 314 386 446
#     4  12  26  43  80 108 150 193 250 323 381 451
#
# _framework density 25.628724999999999
#
# number of rings (size 3 to 8) (size 9 to 14) (size 15 to 20)
#    0.000    0.571    4.286    1.714   10.000    4.571 
#    0.000    0.000    0.000    0.000    0.000    0.000 
#    0.000    0.000    0.000    0.000    0.000    0.000 
#
# Total GULP energy -156493.707311 kJ/mol
# GULP energy per Si atom -5589.060975 kJ/mol
# Density = 2.557039 g / cm^3
# Si number density = 25.628725 Si / 1000 Ang^3
#
#
#
# Elastic Constant Matrix: (Units=GPa)
#
#
# Indices 1 2 3 4 5 6 
#
# 1 60.6778 4.1122 1.3437 0.0000 0.0000 0.0000
# 2 4.1122 145.5817 20.9260 0.0000 0.0000 0.0000
# 3 1.3437 20.9260 78.9976 0.0000 0.0000 0.0000
# 4 0.0000 0.0000 0.0000 46.1603 0.0000 0.0000
# 5 0.0000 0.0000 0.0000 0.0000 28.0496 0.0000
# 6 0.0000 0.0000 0.0000 0.0000 0.0000 29.5027
#
#
#
# Elastic Compliance Matrix: (Units=1/GPa)
#
#
# Indices 1 2 3 4 5 6 
#
# 1 0.016514 -0.000443 -0.000164 0.000000 0.000000 0.000000
# 2 -0.000443 0.007153 -0.001887 0.000000 0.000000 0.000000
# 3 -0.000164 -0.001887 0.013161 0.000000 0.000000 0.000000
# 4 0.000000 0.000000 0.000000 0.021664 0.000000 0.000000
# 5 0.000000 0.000000 0.000000 0.000000 0.035651 0.000000
# 6 0.000000 0.000000 0.000000 0.000000 0.000000 0.033895
#
#
# Mechanical properties :
#
#
# Convention : Reuss Voigt Hill
#
# Bulk Modulus (GPa) = 31.40625 37.55788 34.48207
# Shear Modulus (GPa) = 34.80947 38.00089 36.40518
#
# Velocity S-wave (km/s) = 3.68940 3.85482 3.77302
# Velocity P-wave (km/s) = 5.51633 5.87361 5.69777
#
# Compressibility (1/GPa) = 0.03184080
#
# Stress axis : x y z
#
# Youngs Moduli (GPa) = 60.55415 139.80594 75.98037
#
# Poissons Ratio (x) = 0.06193 0.01243
# Poissons Ratio (y) = 0.02682 0.14339
# Poissons Ratio (z) = 0.00990 0.26384
#
# Static dielectric constant tensor:
#      x y z
#    x 2.112670 0.000000 0.000000 
#    y 0.000000 2.067440 0.000000 
#    z 0.000000 0.000000 2.003690 
# 
# From -- ./inp_files/4478.got.cif
#   From: 2010.05.17/outbox.cif.g08.bks.cpg/sg19_3_cif.got.tgz:4478.got - 2010.06.03 22:46:19.
