data_PCOD9315420
_publ_section_title
;
Structure prediction by ZEFSAII (Michael W. Deem and Ramdas Pophale) SiO2 
 PCOD9315420
Probable space group: P 21 21 21
;
_chemical_formula_sum "Si O2"
_cell_formula_units_Z 32
_cell_length_a 8.507690
_cell_length_b 30.383429
_cell_length_c 5.090258
_cell_angle_alpha 90.000000
_cell_angle_beta 90.000000
_cell_angle_gamma 90.000000
_cell_volume 1315.795018
_symmetry_space_group_name_H-M "P 21 21 21"
_symmetry_group_IT_number 19
_symmetry_cell_setting 'orthorhombic'
loop_
_space_group_symop_operation_xyz
x,y,z
1/2-x,-y,1/2+z
1/2+x,1/2-y,-z
-x,1/2+y,1/2-z
loop_
_atom_site_type_symbol
_atom_site_label
_atom_site_fract_x
_atom_site_fract_y
_atom_site_fract_z
Si Si1 0.125930 0.881555 0.227294
Si Si2 0.738480 0.331508 0.774578
Si Si3 0.914174 0.250536 0.641702
Si Si4 0.324967 0.020491 0.544337
Si Si5 0.737385 0.111547 0.597679
Si Si6 0.776761 0.800199 0.770815
Si Si7 0.435381 0.336283 0.087139
Si Si8 0.683578 0.020305 0.342601
O O1 0.171908 0.859587 0.501999
O O2 0.190749 0.930293 0.162708
O O3 0.937134 0.886777 0.219766
O O4 0.201150 0.850555 0.001877
O O5 0.556743 0.339622 0.849566
O O6 0.777095 0.279250 0.782908
O O7 0.053444 0.284695 0.657717
O O8 0.844140 0.237124 0.362324
O O9 0.993366 0.204774 0.739608
O O10 0.502011 0.015537 0.429712
O O11 0.214159 0.011018 0.292046
O O12 0.752196 0.155047 0.425097
O O13 0.740282 0.068848 0.418854
O O14 0.886556 0.117316 0.790768
O O15 0.734820 0.814403 0.480103
O O16 0.715389 0.010909 0.037436
#
# Coordination Sequence:
#
# PCOD9315420 Si02
#       8
#     4   4   4   4   4   4   4   4
#     4  11  26  46  70 100 136 186 227 285 352 425
#     4  12  26  43  69 101 140 179 236 289 347 413
#     4  11  24  40  68  93 140 187 239 288 353 414
#     4  11  24  47  73 104 140 182 232 287 361 428
#     4  10  25  45  69  99 138 186 231 287 356 423
#     4  11  23  43  66  96 138 184 236 291 350 423
#     4  11  26  40  66 101 138 183 238 294 350 413
#     4  11  26  46  75 106 142 185 235 293 359 431
#
# _framework density 24.319897999999998
#
# number of rings (size 3 to 8) (size 9 to 14) (size 15 to 20)
#    0.000    1.000    1.250    3.750    8.750    7.000 
#    0.000    0.000    0.000    0.000    0.000    0.000 
#    0.000    0.000    0.000    0.000    0.000    0.000 
#
# Total GULP energy -178856.860113 kJ/mol
# GULP energy per Si atom -5589.276879 kJ/mol
# Density = 2.426455 g / cm^3
# Si number density = 24.319898 Si / 1000 Ang^3
#
#
#
# Elastic Constant Matrix: (Units=GPa)
#
#
# Indices 1 2 3 4 5 6 
#
# 1 58.6727 9.8377 -3.6956 0.0000 0.0000 0.0000
# 2 9.8377 47.1660 -5.6187 0.0000 0.0000 0.0000
# 3 -3.6956 -5.6187 38.7834 0.0000 0.0000 0.0000
# 4 0.0000 0.0000 0.0000 26.7531 0.0000 0.0000
# 5 0.0000 0.0000 0.0000 0.0000 21.2668 0.0000
# 6 0.0000 0.0000 0.0000 0.0000 0.0000 32.9151
#
#
#
# Elastic Compliance Matrix: (Units=1/GPa)
#
#
# Indices 1 2 3 4 5 6 
#
# 1 0.017714 -0.003555 0.001173 0.000000 0.000000 0.000000
# 2 -0.003555 0.022287 0.002890 0.000000 0.000000 0.000000
# 3 0.001173 0.002890 0.026315 0.000000 0.000000 0.000000
# 4 0.000000 0.000000 0.000000 0.037379 0.000000 0.000000
# 5 0.000000 0.000000 0.000000 0.000000 0.047022 0.000000
# 6 0.000000 0.000000 0.000000 0.000000 0.000000 0.030381
#
#
# Mechanical properties :
#
#
# Convention : Reuss Voigt Hill
#
# Bulk Modulus (GPa) = 14.85179 16.18545 15.51862
# Shear Modulus (GPa) = 24.68829 25.79360 25.24094
#
# Velocity S-wave (km/s) = 3.18959 3.26021 3.22510
# Velocity P-wave (km/s) = 4.43675 4.56527 4.50147
#
# Compressibility (1/GPa) = 0.06733194
#
# Stress axis : x y z
#
# Youngs Moduli (GPa) = 56.45370 44.86829 38.00161
#
# Poissons Ratio (x) = 0.15950 -0.04457
# Poissons Ratio (y) = 0.20069 -0.10983
# Poissons Ratio (z) = -0.06621 -0.12968
#
# Static dielectric constant tensor:
#      x y z
#    x 1.997000 0.000000 0.000000 
#    y 0.000000 1.963390 0.000000 
#    z 0.000000 0.000000 2.031030 
# 
# From -- ./inp_files/683.got.cif
#   From: 2010.05.17/outbox.cif.g08.bks.cpg/sg19_1_cif.got.tgz:683.got - 2010.06.03 22:46:19.
