data_PCOD9315675
_publ_section_title
;
Structure prediction by ZEFSAII (Michael W. Deem and Ramdas Pophale) SiO2 
 PCOD9315675
Probable space group: P 21 21 21
;
_chemical_formula_sum "Si O2"
_cell_formula_units_Z 32
_cell_length_a 4.805957
_cell_length_b 16.521722
_cell_length_c 15.837673
_cell_angle_alpha 90.000000
_cell_angle_beta 90.000000
_cell_angle_gamma 90.000000
_cell_volume 1257.553768
_symmetry_space_group_name_H-M "P 21 21 21"
_symmetry_group_IT_number 19
_symmetry_cell_setting 'orthorhombic'
loop_
_space_group_symop_operation_xyz
x,y,z
1/2-x,-y,1/2+z
1/2+x,1/2-y,-z
-x,1/2+y,1/2-z
loop_
_atom_site_type_symbol
_atom_site_label
_atom_site_fract_x
_atom_site_fract_y
_atom_site_fract_z
Si Si1 0.937646 0.653696 0.819751
Si Si2 0.000211 0.564916 0.499498
Si Si3 0.418419 0.720187 0.048470
Si Si4 0.248019 0.933179 0.892999
Si Si5 0.569972 0.053990 0.641152
Si Si6 0.050533 0.689374 0.634468
Si Si7 0.754948 0.076698 0.275896
Si Si8 0.563575 0.800912 0.634088
O O1 0.866257 0.739309 0.860855
O O2 0.251368 0.633839 0.845540
O O3 0.913923 0.654878 0.719436
O O4 0.747338 0.582834 0.858264
O O5 0.770786 0.514221 0.551312
O O6 0.147823 0.496989 0.441976
O O7 0.144356 0.618061 0.572109
O O8 0.931946 0.632615 0.429219
O O9 0.593241 0.638338 0.056506
O O10 0.126574 0.719776 0.001475
O O11 0.552897 0.914944 0.858660
O O12 0.055546 0.938302 0.808666
O O13 0.639764 0.999458 0.721945
O O14 0.314281 0.742601 0.660186
O O15 0.812165 0.747110 0.594072
O O16 0.800097 0.150926 0.211963
#
# Coordination Sequence:
#
# PCOD9315675 Si02
#       8
#     4   4   4   4   4   4   4   4
#     4  12  24  44  70  98 132 173 222 276 326 388
#     4  11  26  44  68  97 138 175 216 271 330 401
#     4  12  25  43  66  95 130 169 216 270 325 385
#     4  12  25  43  66  96 127 170 217 264 325 390
#     4  11  25  43  66  97 132 171 214 265 330 385
#     4  12  25  44  70  99 130 175 224 271 329 395
#     4  11  23  43  66  94 130 170 216 269 319 384
#     4  11  25  44  68  98 133 173 219 274 330 386
#
# _framework density 25.446228000000001
#
# number of rings (size 3 to 8) (size 9 to 14) (size 15 to 20)
#    0.000    0.500    0.000    9.000    0.000    7.000 
#    0.000    0.000    0.000    0.000    0.000    0.000 
#    0.000    0.000    0.000    0.000    0.000    0.000 
#
# Total GULP energy -179261.576458 kJ/mol
# GULP energy per Si atom -5601.924264 kJ/mol
# Density = 2.538831 g / cm^3
# Si number density = 25.446228 Si / 1000 Ang^3
#
#
#
# Elastic Constant Matrix: (Units=GPa)
#
#
# Indices 1 2 3 4 5 6 
#
# 1 79.1441 12.0527 -0.3091 0.0000 0.0000 0.0000
# 2 12.0527 96.1392 46.9487 0.0000 0.0000 0.0000
# 3 -0.3091 46.9487 123.9612 0.0000 0.0000 0.0000
# 4 0.0000 0.0000 0.0000 49.5516 0.0000 0.0000
# 5 0.0000 0.0000 0.0000 0.0000 23.5105 0.0000
# 6 0.0000 0.0000 0.0000 0.0000 0.0000 21.0814
#
#
#
# Elastic Compliance Matrix: (Units=1/GPa)
#
#
# Indices 1 2 3 4 5 6 
#
# 1 0.012944 -0.002010 0.000794 0.000000 0.000000 0.000000
# 2 -0.002010 0.013074 -0.004957 0.000000 0.000000 0.000000
# 3 0.000794 -0.004957 0.009946 0.000000 0.000000 0.000000
# 4 0.000000 0.000000 0.000000 0.020181 0.000000 0.000000
# 5 0.000000 0.000000 0.000000 0.000000 0.042534 0.000000
# 6 0.000000 0.000000 0.000000 0.000000 0.000000 0.047435
#
#
# Mechanical properties :
#
#
# Convention : Reuss Voigt Hill
#
# Bulk Modulus (GPa) = 42.34035 46.29210 44.31623
# Shear Modulus (GPa) = 30.05985 34.86551 32.46268
#
# Velocity S-wave (km/s) = 3.44075 3.70559 3.57562
# Velocity P-wave (km/s) = 5.69739 6.04484 5.87369
#
# Compressibility (1/GPa) = 0.02361813
#
# Stress axis : x y z
#
# Youngs Moduli (GPa) = 77.25327 76.48666 100.53993
#
# Poissons Ratio (x) = 0.15377 -0.07980
# Poissons Ratio (y) = 0.15531 0.49834
# Poissons Ratio (z) = -0.06132 0.37912
#
# Static dielectric constant tensor:
#      x y z
#    x 1.886420 0.000000 0.000000 
#    y 0.000000 1.982110 0.000000 
#    z 0.000000 0.000000 2.023100 
# 
# From -- ./inp_files/5768.got.cif
#   From: 2010.05.17/outbox.cif.g08.bks.cpg/sg19_3_cif.got.tgz:5768.got - 2010.06.03 22:46:19.
