data_PCOD9315984
_publ_section_title
;
Structure prediction by ZEFSAII (Michael W. Deem and Ramdas Pophale) SiO2 
 PCOD9315984
Probable space group: P 21 21 21
;
_chemical_formula_sum "Si O2"
_cell_formula_units_Z 20
_cell_length_a 12.514308
_cell_length_b 7.010808
_cell_length_c 8.435470
_cell_angle_alpha 90.000000
_cell_angle_beta 90.000000
_cell_angle_gamma 90.000000
_cell_volume 740.089424
_symmetry_space_group_name_H-M "P 21 21 21"
_symmetry_group_IT_number 19
_symmetry_cell_setting 'orthorhombic'
loop_
_space_group_symop_operation_xyz
x,y,z
1/2-x,-y,1/2+z
1/2+x,1/2-y,-z
-x,1/2+y,1/2-z
loop_
_atom_site_type_symbol
_atom_site_label
_atom_site_fract_x
_atom_site_fract_y
_atom_site_fract_z
Si Si1 0.587347 0.329416 0.070876
Si Si2 0.083077 0.993158 0.584957
Si Si3 0.181257 0.411727 0.169866
Si Si4 0.761728 0.774794 0.010730
Si Si5 0.982898 0.842405 0.080719
O O1 0.477438 0.205971 0.083621
O O2 0.602281 0.428455 0.239183
O O3 0.678168 0.192578 0.999427
O O4 0.572120 0.506584 0.952110
O O5 0.192985 0.059187 0.497850
O O6 0.000544 0.137791 0.496810
O O7 0.195915 0.635129 0.133096
O O8 0.261001 0.327479 0.304946
O O9 0.065402 0.353322 0.244522
O O10 0.873122 0.897662 0.986671
#
# Coordination Sequence:
#
# PCOD9315984 Si02
#       5
#     4   4   4   4   4
#     4  12  18  36  59  84 113 147 184 239 265 340
#     4   9  20  33  58  80 115 143 187 225 279 327
#     4   9  20  32  64  76 116 145 188 227 284 326
#     4   8  18  36  52  82 105 150 180 223 283 329
#     4   8  22  33  55  84 107 147 191 216 289 324
#
# _framework density 27.023762999999999
#
# number of rings (size 3 to 8) (size 9 to 14) (size 15 to 20)
#    2.400    0.000    2.000    1.200    5.600    0.000 
#    0.000    0.000   17.600    0.000    0.000    0.000 
#    0.000    0.000    0.000    0.000    0.000    0.000 
#
# Total GULP energy -111339.106151 kJ/mol
# GULP energy per Si atom -5566.955308 kJ/mol
# Density = 2.696226 g / cm^3
# Si number density = 27.023763 Si / 1000 Ang^3
#
#
#
# Elastic Constant Matrix: (Units=GPa)
#
#
# Indices 1 2 3 4 5 6 
#
# 1 49.4381 4.9568 11.2052 0.0000 0.0000 0.0000
# 2 4.9568 121.0026 29.4909 0.0000 0.0000 0.0000
# 3 11.2052 29.4909 115.2780 0.0000 0.0000 0.0000
# 4 0.0000 0.0000 0.0000 16.2078 0.0000 0.0000
# 5 0.0000 0.0000 0.0000 0.0000 22.8709 0.0000
# 6 0.0000 0.0000 0.0000 0.0000 0.0000 41.3041
#
#
#
# Elastic Compliance Matrix: (Units=1/GPa)
#
#
# Indices 1 2 3 4 5 6 
#
# 1 0.020699 -0.000381 -0.001914 0.000000 0.000000 0.000000
# 2 -0.000381 0.008821 -0.002220 0.000000 0.000000 0.000000
# 3 -0.001914 -0.002220 0.009429 0.000000 0.000000 0.000000
# 4 0.000000 0.000000 0.000000 0.061699 0.000000 0.000000
# 5 0.000000 0.000000 0.000000 0.000000 0.043724 0.000000
# 6 0.000000 0.000000 0.000000 0.000000 0.000000 0.024211
#
#
# Mechanical properties :
#
#
# Convention : Reuss Voigt Hill
#
# Bulk Modulus (GPa) = 33.42440 41.89158 37.65799
# Shear Modulus (GPa) = 26.65453 32.08096 29.36774
#
# Velocity S-wave (km/s) = 3.14401 3.44923 3.30015
# Velocity P-wave (km/s) = 5.05718 5.60342 5.33729
#
# Compressibility (1/GPa) = 0.02991827
#
# Stress axis : x y z
#
# Youngs Moduli (GPa) = 48.31041 113.36775 106.06057
#
# Poissons Ratio (x) = 0.04323 0.20305
# Poissons Ratio (y) = 0.01842 0.23540
# Poissons Ratio (z) = 0.09249 0.25162
#
# Static dielectric constant tensor:
#      x y z
#    x 2.340320 0.000000 0.000000 
#    y 0.000000 2.127350 0.000000 
#    z 0.000000 0.000000 2.210620 
# 
# From -- ./inp_files/1669.got.cif
#   From: 2010.05.17/outbox.cif.g08.bks.cpg/sg19_1_cif.got.tgz:1669.got - 2010.06.03 22:46:19.
