data_PCOD9315083
_publ_section_title
;
Structure prediction by ZEFSAII (Michael W. Deem and Ramdas Pophale) SiO2 
 PCOD9315083
Probable space group: P 21 21 21
;
_chemical_formula_sum "Si O2"
_cell_formula_units_Z 16
_cell_length_a 20.403637
_cell_length_b 6.846016
_cell_length_c 5.111877
_cell_angle_alpha 90.000000
_cell_angle_beta 90.000000
_cell_angle_gamma 90.000000
_cell_volume 714.045512
_symmetry_space_group_name_H-M "P 21 21 21"
_symmetry_group_IT_number 19
_symmetry_cell_setting 'orthorhombic'
loop_
_space_group_symop_operation_xyz
x,y,z
1/2-x,-y,1/2+z
1/2+x,1/2-y,-z
-x,1/2+y,1/2-z
loop_
_atom_site_type_symbol
_atom_site_label
_atom_site_fract_x
_atom_site_fract_y
_atom_site_fract_z
Si Si1 0.875860 0.637492 0.445894
Si Si2 0.710271 0.045471 0.170027
Si Si3 0.907957 0.239685 0.652166
Si Si4 0.452129 0.900244 0.057803
O O1 0.872310 0.403296 0.473588
O O2 0.905216 0.684670 0.164830
O O3 0.811746 0.750665 0.537414
O O4 0.930551 0.687924 0.663886
O O5 0.751827 0.938987 0.942528
O O6 0.644666 0.921438 0.222636
O O7 0.972179 0.148928 0.515908
O O8 0.934287 0.371988 0.894138
#
# Coordination Sequence:
#
# PCOD9315083 Si02
#       4
#     4   4   4   4
#     4  10  25  43  68 101 136 177 222 288 336 416
#     4  12  28  45  69  97 140 191 236 271 333 415
#     4  10  26  42  72 102 142 173 228 288 351 408
#     4  10  23  42  73 102 136 167 226 285 366 387
#
# _framework density 22.407533999999998
#
# number of rings (size 3 to 8) (size 9 to 14) (size 15 to 20)
#    1.500    0.000    0.000    3.000   10.500    2.000 
#    0.000    0.000    0.000    0.000    0.000    0.000 
#    0.000    0.000    0.000    0.000    0.000    0.000 
#
# Total GULP energy -89218.498792 kJ/mol
# GULP energy per Si atom -5576.156175 kJ/mol
# Density = 2.235653 g / cm^3
# Si number density = 22.407534 Si / 1000 Ang^3
#
#
#
# Elastic Constant Matrix: (Units=GPa)
#
#
# Indices 1 2 3 4 5 6 
#
# 1 50.7349 21.6453 -9.1871 0.0000 0.0000 0.0000
# 2 21.6453 81.0988 0.6746 0.0000 0.0000 0.0000
# 3 -9.1871 0.6746 79.7891 0.0000 0.0000 0.0000
# 4 0.0000 0.0000 0.0000 15.4992 0.0000 0.0000
# 5 0.0000 0.0000 0.0000 0.0000 31.0170 0.0000
# 6 0.0000 0.0000 0.0000 0.0000 0.0000 30.6263
#
#
#
# Elastic Compliance Matrix: (Units=1/GPa)
#
#
# Indices 1 2 3 4 5 6 
#
# 1 0.022801 -0.006108 0.002677 0.000000 0.000000 0.000000
# 2 -0.006108 0.013968 -0.000821 0.000000 0.000000 0.000000
# 3 0.002677 -0.000821 0.012848 0.000000 0.000000 0.000000
# 4 0.000000 0.000000 0.000000 0.064520 0.000000 0.000000
# 5 0.000000 0.000000 0.000000 0.000000 0.032240 0.000000
# 6 0.000000 0.000000 0.000000 0.000000 0.000000 0.032652
#
#
# Mechanical properties :
#
#
# Convention : Reuss Voigt Hill
#
# Bulk Modulus (GPa) = 24.32361 26.43205 25.37783
# Shear Modulus (GPa) = 24.84634 28.66116 26.75375
#
# Velocity S-wave (km/s) = 3.33354 3.58031 3.45912
# Velocity P-wave (km/s) = 5.06905 5.37710 5.22534
#
# Compressibility (1/GPa) = 0.04111232
#
# Stress axis : x y z
#
# Youngs Moduli (GPa) = 43.85800 71.59403 77.83183
#
# Poissons Ratio (x) = 0.43728 -0.20835
# Poissons Ratio (y) = 0.26788 0.06393
# Poissons Ratio (z) = -0.11741 0.05880
#
# Static dielectric constant tensor:
#      x y z
#    x 1.794790 0.000000 0.000000 
#    y 0.000000 1.891230 0.000000 
#    z 0.000000 0.000000 1.814240 
# 
# From -- ./inp_files/72.got.cif
#   From: 2010.05.17/outbox.cif.g08.bks.cpg/sg19_1_cif.got.tgz:72.got - 2010.06.03 22:46:19.
