data_PCOD9315011
_publ_section_title
;
Structure prediction by ZEFSAII (Michael W. Deem and Ramdas Pophale) SiO2 
 PCOD9315011
Probable space group: P 21 21 21
;
_chemical_formula_sum "Si O2"
_cell_formula_units_Z 32
_cell_length_a 13.214721
_cell_length_b 7.742280
_cell_length_c 12.987365
_cell_angle_alpha 90.000000
_cell_angle_beta 90.000000
_cell_angle_gamma 90.000000
_cell_volume 1328.764198
_symmetry_space_group_name_H-M "P 21 21 21"
_symmetry_group_IT_number 19
_symmetry_cell_setting 'orthorhombic'
loop_
_space_group_symop_operation_xyz
x,y,z
1/2-x,-y,1/2+z
1/2+x,1/2-y,-z
-x,1/2+y,1/2-z
loop_
_atom_site_type_symbol
_atom_site_label
_atom_site_fract_x
_atom_site_fract_y
_atom_site_fract_z
Si Si1 0.493527 0.891575 0.173312
Si Si2 0.228074 0.672145 0.248893
Si Si3 0.810905 0.277362 0.589336
Si Si4 0.050130 0.398944 0.243212
Si Si5 0.090028 0.257371 0.880493
Si Si6 0.147911 0.371702 0.558596
Si Si7 0.354853 0.971719 0.782670
Si Si8 0.460323 0.992226 0.538521
O O1 0.605834 0.805817 0.165133
O O2 0.444317 0.873886 0.287325
O O3 0.419526 0.795900 0.091693
O O4 0.514429 0.084957 0.138460
O O5 0.131220 0.550993 0.246665
O O6 0.295799 0.686850 0.350991
O O7 0.299551 0.585541 0.164810
O O8 0.197767 0.869656 0.221570
O O9 0.733458 0.156646 0.526733
O O10 0.734499 0.407717 0.644360
O O11 0.880823 0.373283 0.507480
O O12 0.101875 0.211010 0.236464
O O13 0.992692 0.430976 0.351930
O O14 0.955564 0.439239 0.167835
O O15 0.085892 0.186844 0.996542
O O16 0.066833 0.507319 0.521140
#
# Coordination Sequence:
#
# PCOD9315011 Si02
#       8
#     4   4   4   4   4   4   4   4
#     4  10  23  40  68  96 132 177 227 288 346 408
#     4  11  24  45  72 101 133 185 233 279 348 426
#     4  11  22  43  70  94 133 183 222 280 351 410
#     4  12  26  46  69 105 144 180 228 293 352 418
#     4  11  22  44  67  99 132 175 231 284 338 418
#     4  10  23  43  69  97 133 179 230 278 348 416
#     4  12  24  44  71  95 140 181 225 281 352 410
#     4  11  24  45  66  99 143 172 232 291 341 412
#
# _framework density 24.082529000000001
#
# number of rings (size 3 to 8) (size 9 to 14) (size 15 to 20)
#    0.000    1.000    3.750    3.750    1.750    1.000 
#    2.250    0.000    0.000    0.000    0.000    0.000 
#    0.000    0.000    0.000    0.000    0.000    0.000 
#
# Total GULP energy -178564.439388 kJ/mol
# GULP energy per Si atom -5580.138731 kJ/mol
# Density = 2.402772 g / cm^3
# Si number density = 24.082529 Si / 1000 Ang^3
#
#
#
# Elastic Constant Matrix: (Units=GPa)
#
#
# Indices 1 2 3 4 5 6 
#
# 1 156.1608 8.3704 26.7959 0.0000 0.0000 0.0000
# 2 8.3704 68.7726 11.8504 0.0000 0.0000 0.0000
# 3 26.7959 11.8504 50.7651 0.0000 0.0000 0.0000
# 4 0.0000 0.0000 0.0000 12.9505 0.0000 0.0000
# 5 0.0000 0.0000 0.0000 0.0000 44.8220 0.0000
# 6 0.0000 0.0000 0.0000 0.0000 0.0000 47.7485
#
#
#
# Elastic Compliance Matrix: (Units=1/GPa)
#
#
# Indices 1 2 3 4 5 6 
#
# 1 0.007045 -0.000226 -0.003666 0.000000 0.000000 0.000000
# 2 -0.000226 0.015157 -0.003419 0.000000 0.000000 0.000000
# 3 -0.003666 -0.003419 0.022432 0.000000 0.000000 0.000000
# 4 0.000000 0.000000 0.000000 0.077217 0.000000 0.000000
# 5 0.000000 0.000000 0.000000 0.000000 0.022310 0.000000
# 6 0.000000 0.000000 0.000000 0.000000 0.000000 0.020943
#
#
# Mechanical properties :
#
#
# Convention : Reuss Voigt Hill
#
# Bulk Modulus (GPa) = 33.31955 41.08132 37.20044
# Shear Modulus (GPa) = 26.35329 36.34967 31.35148
#
# Velocity S-wave (km/s) = 3.31160 3.88929 3.61201
# Velocity P-wave (km/s) = 5.33740 6.10445 5.73377
#
# Compressibility (1/GPa) = 0.03001241
#
# Stress axis : x y z
#
# Youngs Moduli (GPa) = 141.94901 65.97481 44.57983
#
# Poissons Ratio (x) = 0.01489 0.16342
# Poissons Ratio (y) = 0.03205 0.15242
# Poissons Ratio (z) = 0.52036 0.22557
#
# Static dielectric constant tensor:
#      x y z
#    x 1.953360 0.000000 0.000000 
#    y 0.000000 1.947480 0.000000 
#    z 0.000000 0.000000 2.012130 
# 
# From -- ./inp_files/6119.got.cif
#   From: 2010.05.17/outbox.cif.g08.bks.cpg/sg19_4_cif.got.tgz:6119.got - 2010.06.03 22:46:19.
