data_PCOD9315841
_publ_section_title
;
Structure prediction by ZEFSAII (Michael W. Deem and Ramdas Pophale) SiO2 
 PCOD9315841
Probable space group: P 21 21 21
;
_chemical_formula_sum "Si O2"
_cell_formula_units_Z 20
_cell_length_a 15.846348
_cell_length_b 4.850376
_cell_length_c 9.334159
_cell_angle_alpha 90.000000
_cell_angle_beta 90.000000
_cell_angle_gamma 90.000000
_cell_volume 717.430424
_symmetry_space_group_name_H-M "P 21 21 21"
_symmetry_group_IT_number 19
_symmetry_cell_setting 'orthorhombic'
loop_
_space_group_symop_operation_xyz
x,y,z
1/2-x,-y,1/2+z
1/2+x,1/2-y,-z
-x,1/2+y,1/2-z
loop_
_atom_site_type_symbol
_atom_site_label
_atom_site_fract_x
_atom_site_fract_y
_atom_site_fract_z
Si Si1 0.045757 0.059404 0.035908
Si Si2 0.088206 0.218033 0.589347
Si Si3 0.115826 0.865457 0.330026
Si Si4 0.326578 0.264439 0.224200
Si Si5 0.714544 0.357034 0.043782
O O1 0.093162 0.908971 0.166377
O O2 0.965177 0.210872 0.104007
O O3 0.003635 0.843063 0.929108
O O4 0.118388 0.250254 0.967907
O O5 0.117446 0.144311 0.426678
O O6 0.096931 0.931498 0.670596
O O7 0.147167 0.433001 0.673367
O O8 0.207844 0.735427 0.361502
O O9 0.302087 0.156887 0.381616
O O10 0.252623 0.166949 0.115069
#
# Coordination Sequence:
#
# PCOD9315841 Si02
#       5
#     4   4   4   4   4
#     4  12  23  46  81 111 157 214 258 333 396 476
#     4  11  24  47  73 109 155 203 258 324 381 472
#     4  11  24  47  75 120 156 204 271 316 403 480
#     4  11  26  49  73 113 160 201 265 326 393 468
#     4  11  25  49  76 117 156 210 260 333 397 470
#
# _framework density 27.877268999999998
#
# number of rings (size 3 to 8) (size 9 to 14) (size 15 to 20)
#    0.000    0.800    8.000    0.000    0.000    4.800 
#   14.400    0.000    0.000    0.000    0.000    0.000 
#    0.000    0.000    0.000    0.000    0.000    0.000 
#
# Total GULP energy -111867.783166 kJ/mol
# GULP energy per Si atom -5593.389158 kJ/mol
# Density = 2.781382 g / cm^3
# Si number density = 27.877269 Si / 1000 Ang^3
#
#
#
# Elastic Constant Matrix: (Units=GPa)
#
#
# Indices 1 2 3 4 5 6 
#
# 1 234.6505 17.8523 35.4831 0.0000 0.0000 0.0000
# 2 17.8523 82.5940 18.7450 0.0000 0.0000 0.0000
# 3 35.4831 18.7450 101.8000 0.0000 0.0000 0.0000
# 4 0.0000 0.0000 0.0000 35.3820 0.0000 0.0000
# 5 0.0000 0.0000 0.0000 0.0000 58.1344 0.0000
# 6 0.0000 0.0000 0.0000 0.0000 0.0000 27.6961
#
#
#
# Elastic Compliance Matrix: (Units=1/GPa)
#
#
# Indices 1 2 3 4 5 6 
#
# 1 0.004532 -0.000648 -0.001460 0.000000 0.000000 0.000000
# 2 -0.000648 0.012728 -0.002118 0.000000 0.000000 0.000000
# 3 -0.001460 -0.002118 0.010722 0.000000 0.000000 0.000000
# 4 0.000000 0.000000 0.000000 0.028263 0.000000 0.000000
# 5 0.000000 0.000000 0.000000 0.000000 0.017202 0.000000
# 6 0.000000 0.000000 0.000000 0.000000 0.000000 0.036106
#
#
# Mechanical properties :
#
#
# Convention : Reuss Voigt Hill
#
# Bulk Modulus (GPa) = 51.20398 62.57838 56.89118
# Shear Modulus (GPa) = 40.15582 47.37343 43.76462
#
# Velocity S-wave (km/s) = 3.79944 4.12680 3.96650
# Velocity P-wave (km/s) = 6.13638 6.72338 6.43658
#
# Compressibility (1/GPa) = 0.01952973
#
# Stress axis : x y z
#
# Youngs Moduli (GPa) = 220.66388 78.56600 93.26506
#
# Poissons Ratio (x) = 0.05092 0.13619
# Poissons Ratio (y) = 0.14302 0.19752
# Poissons Ratio (z) = 0.32222 0.16639
#
# Static dielectric constant tensor:
#      x y z
#    x 2.176880 0.000000 0.000000 
#    y 0.000000 2.249130 0.000000 
#    z 0.000000 0.000000 2.214000 
# 
# From -- ./inp_files/5141.got.cif
#   From: 2010.05.17/outbox.cif.g08.bks.cpg/sg19_3_cif.got.tgz:5141.got - 2010.06.03 22:46:19.
