data_PCOD9315908
_publ_section_title
;
Structure prediction by ZEFSAII (Michael W. Deem and Ramdas Pophale) SiO2 
 PCOD9315908
Probable space group: P 21 21 21
;
_chemical_formula_sum "Si O2"
_cell_formula_units_Z 28
_cell_length_a 13.870391
_cell_length_b 9.737055
_cell_length_c 9.259187
_cell_angle_alpha 90.000000
_cell_angle_beta 90.000000
_cell_angle_gamma 90.000000
_cell_volume 1250.515797
_symmetry_space_group_name_H-M "P 21 21 21"
_symmetry_group_IT_number 19
_symmetry_cell_setting 'orthorhombic'
loop_
_space_group_symop_operation_xyz
x,y,z
1/2-x,-y,1/2+z
1/2+x,1/2-y,-z
-x,1/2+y,1/2-z
loop_
_atom_site_type_symbol
_atom_site_label
_atom_site_fract_x
_atom_site_fract_y
_atom_site_fract_z
Si Si1 0.965527 0.518456 0.666161
Si Si2 0.929164 0.212733 0.295144
Si Si3 0.613681 0.212053 0.266485
Si Si4 0.712809 0.657835 0.286111
Si Si5 0.764613 0.168827 0.505045
Si Si6 0.583897 0.472225 0.828754
Si Si7 0.777807 0.147446 0.051052
O O1 0.961606 0.665963 0.742452
O O2 0.874560 0.433592 0.728043
O O3 0.952826 0.536201 0.494056
O O4 0.059148 0.429494 0.702000
O O5 0.872602 0.191085 0.444724
O O6 0.938100 0.375006 0.274223
O O7 0.857495 0.150264 0.175649
O O8 0.028909 0.135922 0.272403
O O9 0.688399 0.239118 0.396355
O O10 0.678939 0.200997 0.123334
O O11 0.803044 0.560294 0.323247
O O12 0.690270 0.750555 0.425019
O O13 0.742952 0.763560 0.160592
O O14 0.740865 0.007829 0.503203
#
# Coordination Sequence:
#
# PCOD9315908 Si02
#       7
#     4   4   4   4   4   4   4
#     4  12  28  48  72 109 147 193 247 300 370 437
#     4  11  27  47  74 104 146 190 245 299 365 435
#     4  11  27  47  74 104 146 190 245 299 365 435
#     4  12  26  46  76 102 150 194 236 306 362 440
#     4  11  25  47  75 109 144 189 243 300 368 434
#     4  12  28  48  72 109 147 193 247 300 370 437
#     4  11  25  47  75 109 144 189 243 300 368 434
#
# _framework density 22.390761999999999
#
# number of rings (size 3 to 8) (size 9 to 14) (size 15 to 20)
#    0.000    0.571    2.857    4.286   12.000    0.000 
#    0.000    0.000    0.000    0.000    0.000    0.000 
#    0.000    0.000    0.000    0.000    0.000    0.000 
#
# Total GULP energy -156920.992701 kJ/mol
# GULP energy per Si atom -5604.321168 kJ/mol
# Density = 2.233980 g / cm^3
# Si number density = 22.390762 Si / 1000 Ang^3
#
#
#
# Elastic Constant Matrix: (Units=GPa)
#
#
# Indices 1 2 3 4 5 6 
#
# 1 41.0898 -10.0768 6.5054 0.0000 0.0000 0.0000
# 2 -10.0768 67.8424 -9.2494 0.0000 0.0000 0.0000
# 3 6.5054 -9.2494 64.9130 0.0000 0.0000 0.0000
# 4 0.0000 0.0000 0.0000 34.2295 0.0000 0.0000
# 5 0.0000 0.0000 0.0000 0.0000 23.6165 0.0000
# 6 0.0000 0.0000 0.0000 0.0000 0.0000 48.9563
#
#
#
# Elastic Compliance Matrix: (Units=1/GPa)
#
#
# Indices 1 2 3 4 5 6 
#
# 1 0.025524 0.003511 -0.002058 0.000000 0.000000 0.000000
# 2 0.003511 0.015515 0.001859 0.000000 0.000000 0.000000
# 3 -0.002058 0.001859 0.015876 0.000000 0.000000 0.000000
# 4 0.000000 0.000000 0.000000 0.029215 0.000000 0.000000
# 5 0.000000 0.000000 0.000000 0.000000 0.042343 0.000000
# 6 0.000000 0.000000 0.000000 0.000000 0.000000 0.020426
#
#
# Mechanical properties :
#
#
# Convention : Reuss Voigt Hill
#
# Bulk Modulus (GPa) = 15.73852 16.46707 16.10280
# Shear Modulus (GPa) = 30.58944 33.80485 32.19715
#
# Velocity S-wave (km/s) = 3.70017 3.88979 3.79617
# Velocity P-wave (km/s) = 5.02984 5.24827 5.14022
#
# Compressibility (1/GPa) = 0.06353837
#
# Stress axis : x y z
#
# Youngs Moduli (GPa) = 39.17934 64.45410 62.98691
#
# Poissons Ratio (x) = -0.22627 0.12961
# Poissons Ratio (y) = -0.13754 -0.11708
# Poissons Ratio (z) = 0.08062 -0.11981
#
# Static dielectric constant tensor:
#      x y z
#    x 1.823430 0.000000 0.000000 
#    y 0.000000 1.787280 0.000000 
#    z 0.000000 0.000000 1.791870 
# 
# From -- ./inp_files/3854.got.cif
#   From: 2010.05.17/outbox.cif.g08.bks.cpg/sg19_2_cif.got.tgz:3854.got - 2010.06.03 22:46:19.
