data_PCOD9315225
_publ_section_title
;
Structure prediction by ZEFSAII (Michael W. Deem and Ramdas Pophale) SiO2 
 PCOD9315225
Probable space group: P 21 21 21
;
_chemical_formula_sum "Si O2"
_cell_formula_units_Z 20
_cell_length_a 9.702405
_cell_length_b 13.181462
_cell_length_c 5.544516
_cell_angle_alpha 90.000000
_cell_angle_beta 90.000000
_cell_angle_gamma 90.000000
_cell_volume 709.098591
_symmetry_space_group_name_H-M "P 21 21 21"
_symmetry_group_IT_number 19
_symmetry_cell_setting 'orthorhombic'
loop_
_space_group_symop_operation_xyz
x,y,z
1/2-x,-y,1/2+z
1/2+x,1/2-y,-z
-x,1/2+y,1/2-z
loop_
_atom_site_type_symbol
_atom_site_label
_atom_site_fract_x
_atom_site_fract_y
_atom_site_fract_z
Si Si1 0.072956 0.570050 0.859555
Si Si2 0.337954 0.660341 0.039732
Si Si3 0.475190 0.747086 0.431842
Si Si4 0.930009 0.544256 0.366920
Si Si5 0.141587 0.838509 0.180357
O O1 0.233830 0.580834 0.919104
O O2 0.021179 0.684061 0.794890
O O3 0.022324 0.520473 0.608016
O O4 0.004199 0.536896 0.109066
O O5 0.480693 0.662520 0.897513
O O6 0.379317 0.658392 0.326072
O O7 0.246755 0.764213 0.051592
O O8 0.404312 0.835961 0.590804
O O9 0.612578 0.703350 0.551972
O O10 0.815518 0.455804 0.352502
#
# Coordination Sequence:
#
# PCOD9315225 Si02
#       5
#     4   4   4   4   4
#     4  10  23  48  71 110 158 190 260 321 367 482
#     4  12  24  48  77 112 155 204 265 318 397 465
#     4  10  24  47  73 113 157 199 264 316 389 471
#     4  10  24  49  71 115 154 204 262 319 388 464
#     4  12  27  46  84 108 158 217 253 336 397 464
#
# _framework density 28.204823999999999
#
# number of rings (size 3 to 8) (size 9 to 14) (size 15 to 20)
#    1.200    0.000    4.000    0.000    8.400    1.600 
#    7.200    0.000    0.000    0.000    0.000    0.000 
#    0.000    0.000    0.000    0.000    0.000    0.000 
#
# Total GULP energy -111602.720673 kJ/mol
# GULP energy per Si atom -5580.136034 kJ/mol
# Density = 2.814063 g / cm^3
# Si number density = 28.204824 Si / 1000 Ang^3
#
#
#
# Elastic Constant Matrix: (Units=GPa)
#
#
# Indices 1 2 3 4 5 6 
#
# 1 133.2370 10.3646 50.2570 0.0000 0.0000 0.0000
# 2 10.3646 102.7248 54.0609 0.0000 0.0000 0.0000
# 3 50.2570 54.0609 172.7624 0.0000 0.0000 0.0000
# 4 0.0000 0.0000 0.0000 56.7684 0.0000 0.0000
# 5 0.0000 0.0000 0.0000 0.0000 50.4409 0.0000
# 6 0.0000 0.0000 0.0000 0.0000 0.0000 35.3045
#
#
#
# Elastic Compliance Matrix: (Units=1/GPa)
#
#
# Indices 1 2 3 4 5 6 
#
# 1 0.008454 0.000528 -0.002625 0.000000 0.000000 0.000000
# 2 0.000528 0.011687 -0.003811 0.000000 0.000000 0.000000
# 3 -0.002625 -0.003811 0.007744 0.000000 0.000000 0.000000
# 4 0.000000 0.000000 0.000000 0.017615 0.000000 0.000000
# 5 0.000000 0.000000 0.000000 0.000000 0.019825 0.000000
# 6 0.000000 0.000000 0.000000 0.000000 0.000000 0.028325
#
#
# Mechanical properties :
#
#
# Convention : Reuss Voigt Hill
#
# Bulk Modulus (GPa) = 62.22299 70.89879 66.56089
# Shear Modulus (GPa) = 45.11714 48.10555 46.61134
#
# Velocity S-wave (km/s) = 4.00387 4.13435 4.06963
# Velocity P-wave (km/s) = 6.59421 6.92691 6.76261
#
# Compressibility (1/GPa) = 0.01607123
#
# Stress axis : x y z
#
# Youngs Moduli (GPa) = 118.28202 85.56571 129.12729
#
# Poissons Ratio (x) = -0.04520 0.33892
# Poissons Ratio (y) = -0.06249 0.49207
# Poissons Ratio (z) = 0.31046 0.32607
#
# Static dielectric constant tensor:
#      x y z
#    x 2.169850 0.000000 0.000000 
#    y 0.000000 2.314170 0.000000 
#    z 0.000000 0.000000 2.283620 
# 
# From -- ./inp_files/862.got.cif
#   From: 2010.05.17/outbox.cif.g08.bks.cpg/sg19_1_cif.got.tgz:862.got - 2010.06.03 22:46:19.
