data_PCOD9315327
_publ_section_title
;
Structure prediction by ZEFSAII (Michael W. Deem and Ramdas Pophale) SiO2 
 PCOD9315327
Probable space group: P 21 21 21
;
_chemical_formula_sum "Si O2"
_cell_formula_units_Z 32
_cell_length_a 21.150898
_cell_length_b 8.820906
_cell_length_c 8.178347
_cell_angle_alpha 90.000000
_cell_angle_beta 90.000000
_cell_angle_gamma 90.000000
_cell_volume 1525.834879
_symmetry_space_group_name_H-M "P 21 21 21"
_symmetry_group_IT_number 19
_symmetry_cell_setting 'orthorhombic'
loop_
_space_group_symop_operation_xyz
x,y,z
1/2-x,-y,1/2+z
1/2+x,1/2-y,-z
-x,1/2+y,1/2-z
loop_
_atom_site_type_symbol
_atom_site_label
_atom_site_fract_x
_atom_site_fract_y
_atom_site_fract_z
Si Si1 0.068268 0.272326 0.690543
Si Si2 0.816824 0.568402 0.828949
Si Si3 0.351673 0.483719 0.074982
Si Si4 0.132938 0.670262 0.110945
Si Si5 0.983893 0.008901 0.543622
Si Si6 0.262946 0.523175 0.771795
Si Si7 0.893351 0.328334 0.045254
Si Si8 0.772828 0.325274 0.598710
O O1 0.125683 0.163973 0.744612
O O2 0.100136 0.378127 0.550193
O O3 0.044545 0.392780 0.823112
O O4 0.015246 0.156935 0.628012
O O5 0.779459 0.483562 0.687807
O O6 0.846269 0.444905 0.954684
O O7 0.769454 0.666986 0.936988
O O8 0.310211 0.516897 0.237079
O O9 0.296473 0.473494 0.939814
O O10 0.389193 0.326224 0.062384
O O11 0.189367 0.551447 0.144242
O O12 0.123965 0.775313 0.271290
O O13 0.070395 0.575547 0.072097
O O14 0.158077 0.769274 0.959056
O O15 0.039405 0.913245 0.456456
O O16 0.259015 0.704880 0.779820
#
# Coordination Sequence:
#
# PCOD9315327 Si02
#       8
#     4   4   4   4   4   4   4   4
#     4  11  24  42  68  97 126 177 228 272 329 393
#     4  11  24  41  69 102 137 173 217 274 339 397
#     4  11  21  41  71  97 135 166 224 272 337 401
#     4  11  25  42  68  98 137 175 225 275 337 398
#     4  11  26  45  68  94 133 179 233 275 329 388
#     4  11  21  38  68 100 133 172 211 272 340 399
#     4  10  24  45  65  99 130 178 223 278 328 388
#     4  12  23  42  67 103 137 172 215 278 335 406
#
# _framework density 20.972125999999999
#
# number of rings (size 3 to 8) (size 9 to 14) (size 15 to 20)
#    0.000    1.000    3.750    2.250    3.500    4.000 
#    2.250    0.000    0.000    0.000    0.000    0.000 
#    0.000    0.000    0.000    0.000    0.000    0.000 
#
# Total GULP energy -178627.072540 kJ/mol
# GULP energy per Si atom -5582.096017 kJ/mol
# Density = 2.092439 g / cm^3
# Si number density = 20.972126 Si / 1000 Ang^3
#
#
#
# Elastic Constant Matrix: (Units=GPa)
#
#
# Indices 1 2 3 4 5 6 
#
# 1 85.9108 39.4657 13.9381 0.0000 0.0000 0.0000
# 2 39.4657 109.5028 21.1791 0.0000 0.0000 0.0000
# 3 13.9381 21.1791 44.7412 0.0000 0.0000 0.0000
# 4 0.0000 0.0000 0.0000 36.8673 0.0000 0.0000
# 5 0.0000 0.0000 0.0000 0.0000 21.8661 0.0000
# 6 0.0000 0.0000 0.0000 0.0000 0.0000 45.2140
#
#
#
# Elastic Compliance Matrix: (Units=1/GPa)
#
#
# Indices 1 2 3 4 5 6 
#
# 1 0.014142 -0.004673 -0.002194 0.000000 0.000000 0.000000
# 2 -0.004673 0.011596 -0.004034 0.000000 0.000000 0.000000
# 3 -0.002194 -0.004034 0.024944 0.000000 0.000000 0.000000
# 4 0.000000 0.000000 0.000000 0.027124 0.000000 0.000000
# 5 0.000000 0.000000 0.000000 0.000000 0.045733 0.000000
# 6 0.000000 0.000000 0.000000 0.000000 0.000000 0.022117
#
#
# Mechanical properties :
#
#
# Convention : Reuss Voigt Hill
#
# Bulk Modulus (GPa) = 34.62367 43.25787 38.94077
# Shear Modulus (GPa) = 28.23506 31.82761 30.03134
#
# Velocity S-wave (km/s) = 3.67320 3.89988 3.78824
# Velocity P-wave (km/s) = 5.87665 6.39921 6.14349
#
# Compressibility (1/GPa) = 0.02888198
#
# Stress axis : x y z
#
# Youngs Moduli (GPa) = 70.70898 86.23328 40.09034
#
# Poissons Ratio (x) = 0.40295 0.08795
# Poissons Ratio (y) = 0.33041 0.16171
# Poissons Ratio (z) = 0.15512 0.34784
#
# Static dielectric constant tensor:
#      x y z
#    x 1.750090 0.000000 0.000000 
#    y 0.000000 1.757170 0.000000 
#    z 0.000000 0.000000 1.796820 
# 
# From -- ./inp_files/4309.got.cif
#   From: 2010.05.17/outbox.cif.g08.bks.cpg/sg19_3_cif.got.tgz:4309.got - 2010.06.03 22:46:19.
