data_PCOD9315299
_publ_section_title
;
Structure prediction by ZEFSAII (Michael W. Deem and Ramdas Pophale) SiO2 
 PCOD9315299
Probable space group: P 21 21 21
;
_chemical_formula_sum "Si O2"
_cell_formula_units_Z 28
_cell_length_a 6.555613
_cell_length_b 19.310659
_cell_length_c 9.005706
_cell_angle_alpha 90.000000
_cell_angle_beta 90.000000
_cell_angle_gamma 90.000000
_cell_volume 1140.061205
_symmetry_space_group_name_H-M "P 21 21 21"
_symmetry_group_IT_number 19
_symmetry_cell_setting 'orthorhombic'
loop_
_space_group_symop_operation_xyz
x,y,z
1/2-x,-y,1/2+z
1/2+x,1/2-y,-z
-x,1/2+y,1/2-z
loop_
_atom_site_type_symbol
_atom_site_label
_atom_site_fract_x
_atom_site_fract_y
_atom_site_fract_z
Si Si1 0.880480 0.259697 0.128411
Si Si2 0.745029 0.841651 0.374653
Si Si3 0.369000 0.821300 0.860548
Si Si4 0.494664 0.261160 0.338382
Si Si5 0.732890 0.503889 0.719995
Si Si6 0.061348 0.517340 0.490003
Si Si7 0.504647 0.957410 0.023665
O O1 0.014671 0.203969 0.216904
O O2 0.680067 0.267957 0.225964
O O3 0.011821 0.329728 0.121614
O O4 0.827416 0.224036 0.974227
O O5 0.661713 0.822063 0.211418
O O6 0.647624 0.910594 0.442534
O O7 0.129991 0.810509 0.830403
O O8 0.452118 0.893505 0.917828
O O9 0.422635 0.770600 0.996949
O O10 0.579506 0.519699 0.583521
O O11 0.926442 0.478814 0.617388
O O12 0.584691 0.470701 0.847124
O O13 0.863691 0.552138 0.831677
O O14 0.260053 0.472838 0.445115
#
# Coordination Sequence:
#
# PCOD9315299 Si02
#       7
#     4   4   4   4   4   4   4
#     4  11  23  42  68 100 138 181 230 290 365 420
#     4  11  24  42  68 102 139 177 236 297 356 433
#     4  11  24  42  66  98 139 181 233 291 354 429
#     4  11  23  43  64 101 136 179 233 289 364 422
#     4  10  24  44  66 104 135 183 238 286 363 423
#     4  11  24  45  72 104 142 188 243 303 363 435
#     4  11  24  44  68 101 143 187 239 294 359 430
#
# _framework density 24.560085999999998
#
# number of rings (size 3 to 8) (size 9 to 14) (size 15 to 20)
#    0.000    1.143    2.857    2.571    0.000    6.857 
#    0.000    0.000    0.000    0.000    0.000    0.000 
#    0.000    0.000    0.000    0.000    0.000    0.000 
#
# Total GULP energy -156161.102610 kJ/mol
# GULP energy per Si atom -5577.182236 kJ/mol
# Density = 2.450419 g / cm^3
# Si number density = 24.560086 Si / 1000 Ang^3
#
#
#
# Elastic Constant Matrix: (Units=GPa)
#
#
# Indices 1 2 3 4 5 6 
#
# 1 134.6161 37.0063 31.5144 0.0000 0.0000 0.0000
# 2 37.0063 66.7636 -4.7196 0.0000 0.0000 0.0000
# 3 31.5144 -4.7196 101.0438 0.0000 0.0000 0.0000
# 4 0.0000 0.0000 0.0000 19.0875 0.0000 0.0000
# 5 0.0000 0.0000 0.0000 0.0000 44.4220 0.0000
# 6 0.0000 0.0000 0.0000 0.0000 0.0000 22.2738
#
#
#
# Elastic Compliance Matrix: (Units=1/GPa)
#
#
# Indices 1 2 3 4 5 6 
#
# 1 0.009753 -0.005639 -0.003305 0.000000 0.000000 0.000000
# 2 -0.005639 0.018289 0.002613 0.000000 0.000000 0.000000
# 3 -0.003305 0.002613 0.011050 0.000000 0.000000 0.000000
# 4 0.000000 0.000000 0.000000 0.052390 0.000000 0.000000
# 5 0.000000 0.000000 0.000000 0.000000 0.022511 0.000000
# 6 0.000000 0.000000 0.000000 0.000000 0.000000 0.044896
#
#
# Mechanical properties :
#
#
# Convention : Reuss Voigt Hill
#
# Bulk Modulus (GPa) = 37.83847 47.78064 42.80956
# Shear Modulus (GPa) = 27.72223 33.06480 30.39352
#
# Velocity S-wave (km/s) = 3.36333 3.67315 3.52165
# Velocity P-wave (km/s) = 5.52473 6.12260 5.83133
#
# Compressibility (1/GPa) = 0.02642813
#
# Stress axis : x y z
#
# Youngs Moduli (GPa) = 102.53719 54.67832 90.50122
#
# Poissons Ratio (x) = 0.30835 0.29912
# Poissons Ratio (y) = 0.57825 -0.23649
# Poissons Ratio (z) = 0.33890 -0.14288
#
# Static dielectric constant tensor:
#      x y z
#    x 2.009250 0.000000 0.000000 
#    y 0.000000 2.063080 0.000000 
#    z 0.000000 0.000000 1.928850 
# 
# From -- ./inp_files/2417.got.cif
#   From: 2010.05.17/outbox.cif.g08.bks.cpg/sg19_2_cif.got.tgz:2417.got - 2010.06.03 22:46:19.
