data_PCOD9315735
_publ_section_title
;
Structure prediction by ZEFSAII (Michael W. Deem and Ramdas Pophale) SiO2 
 PCOD9315735
Probable space group: P 21 21 21
;
_chemical_formula_sum "Si O2"
_cell_formula_units_Z 24
_cell_length_a 20.348057
_cell_length_b 7.957698
_cell_length_c 6.644701
_cell_angle_alpha 90.000000
_cell_angle_beta 90.000000
_cell_angle_gamma 90.000000
_cell_volume 1075.934521
_symmetry_space_group_name_H-M "P 21 21 21"
_symmetry_group_IT_number 19
_symmetry_cell_setting 'orthorhombic'
loop_
_space_group_symop_operation_xyz
x,y,z
1/2-x,-y,1/2+z
1/2+x,1/2-y,-z
-x,1/2+y,1/2-z
loop_
_atom_site_type_symbol
_atom_site_label
_atom_site_fract_x
_atom_site_fract_y
_atom_site_fract_z
Si Si1 0.015111 0.161187 0.024084
Si Si2 0.181755 0.456976 0.524937
Si Si3 0.929174 0.973145 0.691197
Si Si4 0.843963 0.488469 0.429777
Si Si5 0.105645 0.653956 0.197309
Si Si6 0.766049 0.277957 0.731650
O O1 0.029427 0.344763 0.939375
O O2 0.974097 0.062063 0.855632
O O3 0.968056 0.169898 0.217056
O O4 0.085101 0.074871 0.055635
O O5 0.130167 0.386065 0.687168
O O6 0.142504 0.511200 0.324353
O O7 0.235660 0.323408 0.459153
O O8 0.208414 0.630197 0.621747
O O9 0.898576 0.104493 0.535155
O O10 0.856080 0.328757 0.284057
O O11 0.818044 0.410324 0.640428
O O12 0.790806 0.616663 0.341758
#
# Coordination Sequence:
#
# PCOD9315735 Si02
#       6
#     4   4   4   4   4   4
#     4  11  26  41  74 103 142 186 241 303 367 426
#     4  11  26  46  73 100 143 197 240 292 367 438
#     4  11  24  45  71 103 144 189 242 300 366 430
#     4  12  26  45  71 108 145 186 246 303 361 434
#     4  11  23  48  71 105 143 187 240 309 361 435
#     4  12  27  45  74 105 149 195 243 299 362 443
#
# _framework density 22.306190000000001
#
# number of rings (size 3 to 8) (size 9 to 14) (size 15 to 20)
#    0.000    0.667    1.667    5.000    7.000    5.333 
#    0.000    0.000    0.000    0.000    0.000    0.000 
#    0.000    0.000    0.000    0.000    0.000    0.000 
#
# Total GULP energy -134373.277773 kJ/mol
# GULP energy per Si atom -5598.886574 kJ/mol
# Density = 2.225542 g / cm^3
# Si number density = 22.306190 Si / 1000 Ang^3
#
#
#
# Elastic Constant Matrix: (Units=GPa)
#
#
# Indices 1 2 3 4 5 6 
#
# 1 80.0886 -2.1412 10.5686 0.0000 0.0000 0.0000
# 2 -2.1412 45.7078 -8.0804 0.0000 0.0000 0.0000
# 3 10.5686 -8.0804 57.2194 0.0000 0.0000 0.0000
# 4 0.0000 0.0000 0.0000 35.6054 0.0000 0.0000
# 5 0.0000 0.0000 0.0000 0.0000 29.1916 0.0000
# 6 0.0000 0.0000 0.0000 0.0000 0.0000 51.1115
#
#
#
# Elastic Compliance Matrix: (Units=1/GPa)
#
#
# Indices 1 2 3 4 5 6 
#
# 1 0.012800 0.000186 -0.002338 0.000000 0.000000 0.000000
# 2 0.000186 0.022441 0.003135 0.000000 0.000000 0.000000
# 3 -0.002338 0.003135 0.018351 0.000000 0.000000 0.000000
# 4 0.000000 0.000000 0.000000 0.028086 0.000000 0.000000
# 5 0.000000 0.000000 0.000000 0.000000 0.034256 0.000000
# 6 0.000000 0.000000 0.000000 0.000000 0.000000 0.019565
#
#
# Mechanical properties :
#
#
# Convention : Reuss Voigt Hill
#
# Bulk Modulus (GPa) = 17.99921 20.41219 19.20570
# Shear Modulus (GPa) = 32.88352 35.35962 34.12157
#
# Velocity S-wave (km/s) = 3.84368 3.98577 3.91537
# Velocity P-wave (km/s) = 5.27117 5.50932 5.39156
#
# Compressibility (1/GPa) = 0.05555798
#
# Stress axis : x y z
#
# Youngs Moduli (GPa) = 78.12708 44.56136 54.49276
#
# Poissons Ratio (x) = -0.00830 0.12739
# Poissons Ratio (y) = -0.01456 -0.17082
# Poissons Ratio (z) = 0.18265 -0.13968
#
# Static dielectric constant tensor:
#      x y z
#    x 1.819120 0.000000 0.000000 
#    y 0.000000 1.814770 0.000000 
#    z 0.000000 0.000000 1.829520 
# 
# From -- ./inp_files/425.got.cif
#   From: 2010.05.17/outbox.cif.g08.bks.cpg/sg19_1_cif.got.tgz:425.got - 2010.06.03 22:46:19.
