data_PCOD9315114
_publ_section_title
;
Structure prediction by ZEFSAII (Michael W. Deem and Ramdas Pophale) SiO2 
 PCOD9315114
Probable space group: P 21 21 21
;
_chemical_formula_sum "Si O2"
_cell_formula_units_Z 20
_cell_length_a 13.255674
_cell_length_b 5.112636
_cell_length_c 11.961435
_cell_angle_alpha 90.000000
_cell_angle_beta 90.000000
_cell_angle_gamma 90.000000
_cell_volume 810.643628
_symmetry_space_group_name_H-M "P 21 21 21"
_symmetry_group_IT_number 19
_symmetry_cell_setting 'orthorhombic'
loop_
_space_group_symop_operation_xyz
x,y,z
1/2-x,-y,1/2+z
1/2+x,1/2-y,-z
-x,1/2+y,1/2-z
loop_
_atom_site_type_symbol
_atom_site_label
_atom_site_fract_x
_atom_site_fract_y
_atom_site_fract_z
Si Si1 0.930476 0.287984 0.766089
Si Si2 0.148224 0.377982 0.062263
Si Si3 0.414969 0.166099 0.977324
Si Si4 0.778776 0.369070 0.563173
Si Si5 0.564255 0.015392 0.719671
O O1 0.845107 0.348395 0.674911
O O2 0.982501 0.007834 0.746513
O O3 0.890399 0.300623 0.892663
O O4 0.153553 0.407800 0.195999
O O5 0.030570 0.427862 0.030872
O O6 0.172169 0.092428 0.015842
O O7 0.212947 0.595729 0.000644
O O8 0.334345 0.973540 0.920888
O O9 0.412118 0.431885 0.905719
O O10 0.516029 0.746711 0.768310
#
# Coordination Sequence:
#
# PCOD9315114 Si02
#       5
#     4   4   4   4   4
#     4  12  25  49  74 104 150 192 242 304 367 428
#     4  11  24  48  69 103 148 183 243 301 350 434
#     4  11  26  47  76 104 149 191 242 304 360 442
#     4  12  26  45  73 110 140 198 240 290 372 430
#     4  10  23  43  72 101 139 186 235 293 363 414
#
# _framework density 24.671755999999998
#
# number of rings (size 3 to 8) (size 9 to 14) (size 15 to 20)
#    0.000    0.800    4.000    2.400    2.800    6.400 
#    3.600    0.000    0.000    0.000    0.000    0.000 
#    0.000    0.000    0.000    0.000    0.000    0.000 
#
# Total GULP energy -112143.023038 kJ/mol
# GULP energy per Si atom -5607.151152 kJ/mol
# Density = 2.461560 g / cm^3
# Si number density = 24.671756 Si / 1000 Ang^3
#
#
#
# Elastic Constant Matrix: (Units=GPa)
#
#
# Indices 1 2 3 4 5 6 
#
# 1 104.9725 1.9463 6.7823 0.0000 0.0000 0.0000
# 2 1.9463 103.4429 35.6754 0.0000 0.0000 0.0000
# 3 6.7823 35.6754 139.3790 0.0000 0.0000 0.0000
# 4 0.0000 0.0000 0.0000 50.4325 0.0000 0.0000
# 5 0.0000 0.0000 0.0000 0.0000 28.5339 0.0000
# 6 0.0000 0.0000 0.0000 0.0000 0.0000 39.1449
#
#
#
# Elastic Compliance Matrix: (Units=1/GPa)
#
#
# Indices 1 2 3 4 5 6 
#
# 1 0.009556 -0.000021 -0.000460 0.000000 0.000000 0.000000
# 2 -0.000021 0.010603 -0.002713 0.000000 0.000000 0.000000
# 3 -0.000460 -0.002713 0.007891 0.000000 0.000000 0.000000
# 4 0.000000 0.000000 0.000000 0.019828 0.000000 0.000000
# 5 0.000000 0.000000 0.000000 0.000000 0.035046 0.000000
# 6 0.000000 0.000000 0.000000 0.000000 0.000000 0.025546
#
#
# Mechanical properties :
#
#
# Convention : Reuss Voigt Hill
#
# Bulk Modulus (GPa) = 46.16082 48.51137 47.33610
# Shear Modulus (GPa) = 40.95659 43.84829 42.40244
#
# Velocity S-wave (km/s) = 4.07880 4.22034 4.15017
# Velocity P-wave (km/s) = 6.39787 6.59194 6.49563
#
# Compressibility (1/GPa) = 0.02166339
#
# Stress axis : x y z
#
# Youngs Moduli (GPa) = 104.64195 94.31101 126.71932
#
# Poissons Ratio (x) = 0.00201 0.05824
# Poissons Ratio (y) = 0.00223 0.34378
# Poissons Ratio (z) = 0.04809 0.25586
#
# Static dielectric constant tensor:
#      x y z
#    x 2.009560 0.000000 0.000000 
#    y 0.000000 1.892890 0.000000 
#    z 0.000000 0.000000 1.983720 
# 
# From -- ./inp_files/869.got.cif
#   From: 2010.05.17/outbox.cif.g08.bks.cpg/sg19_1_cif.got.tgz:869.got - 2010.06.03 22:46:19.
