data_PCOD9315745
_publ_section_title
;
Structure prediction by ZEFSAII (Michael W. Deem and Ramdas Pophale) SiO2 
 PCOD9315745
Probable space group: P 21 21 21
;
_chemical_formula_sum "Si O2"
_cell_formula_units_Z 32
_cell_length_a 5.091075
_cell_length_b 13.634172
_cell_length_c 18.660891
_cell_angle_alpha 90.000000
_cell_angle_beta 90.000000
_cell_angle_gamma 90.000000
_cell_volume 1295.300817
_symmetry_space_group_name_H-M "P 21 21 21"
_symmetry_group_IT_number 19
_symmetry_cell_setting 'orthorhombic'
loop_
_space_group_symop_operation_xyz
x,y,z
1/2-x,-y,1/2+z
1/2+x,1/2-y,-z
-x,1/2+y,1/2-z
loop_
_atom_site_type_symbol
_atom_site_label
_atom_site_fract_x
_atom_site_fract_y
_atom_site_fract_z
Si Si1 0.667145 0.552045 0.110095
Si Si2 0.948133 0.412500 0.771428
Si Si3 0.077261 0.966404 0.572577
Si Si4 0.704739 0.656575 0.599692
Si Si5 0.494995 0.248382 0.604563
Si Si6 0.251107 0.615897 0.999032
Si Si7 0.924538 0.153903 0.016749
Si Si8 0.059690 0.721708 0.265776
O O1 0.575874 0.540758 0.192658
O O2 0.855926 0.458786 0.096900
O O3 0.804843 0.658390 0.106624
O O4 0.496160 0.339625 0.067951
O O5 0.912792 0.478672 0.841815
O O6 0.730404 0.324730 0.775365
O O7 0.236262 0.366480 0.776458
O O8 0.335553 0.908823 0.549462
O O9 0.830247 0.898814 0.548901
O O10 0.014123 0.065152 0.528965
O O11 0.565863 0.736313 0.548627
O O12 0.641257 0.696522 0.677593
O O13 0.289071 0.286657 0.546166
O O14 0.609336 0.148807 0.573706
O O15 0.400646 0.239925 0.685270
O O16 0.431319 0.552517 0.052492
#
# Coordination Sequence:
#
# PCOD9315745 Si02
#       8
#     4   4   4   4   4   4   4   4
#     4  11  25  49  77 114 159 203 271 333 402 483
#     4  11  23  51  72 109 156 208 251 335 394 480
#     4  12  25  48  74 115 151 210 264 325 395 481
#     4  12  25  49  74 116 153 212 258 328 410 490
#     4  11  25  49  76 111 156 211 264 342 395 477
#     4  12  24  47  81 109 156 209 276 328 403 473
#     4  12  26  45  76 109 159 200 259 323 397 484
#     4  11  25  48  78 103 160 205 259 320 414 470
#
# _framework density 24.704685000000001
#
# number of rings (size 3 to 8) (size 9 to 14) (size 15 to 20)
#    0.000    0.500    6.250    1.500    0.000    1.000 
#   18.000    0.000    0.000    0.000    0.000    0.000 
#    0.000    0.000    0.000    0.000    0.000    0.000 
#
# Total GULP energy -179072.555635 kJ/mol
# GULP energy per Si atom -5596.017364 kJ/mol
# Density = 2.464846 g / cm^3
# Si number density = 24.704685 Si / 1000 Ang^3
#
#
#
# Elastic Constant Matrix: (Units=GPa)
#
#
# Indices 1 2 3 4 5 6 
#
# 1 78.4871 18.3060 -1.2564 0.0000 0.0000 0.0000
# 2 18.3060 97.5444 37.2496 0.0000 0.0000 0.0000
# 3 -1.2564 37.2496 154.0362 0.0000 0.0000 0.0000
# 4 0.0000 0.0000 0.0000 39.4375 0.0000 0.0000
# 5 0.0000 0.0000 0.0000 0.0000 33.5294 0.0000
# 6 0.0000 0.0000 0.0000 0.0000 0.0000 42.1397
#
#
#
# Elastic Compliance Matrix: (Units=1/GPa)
#
#
# Indices 1 2 3 4 5 6 
#
# 1 0.013411 -0.002819 0.000791 0.000000 0.000000 0.000000
# 2 -0.002819 0.011887 -0.002898 0.000000 0.000000 0.000000
# 3 0.000791 -0.002898 0.007199 0.000000 0.000000 0.000000
# 4 0.000000 0.000000 0.000000 0.025357 0.000000 0.000000
# 5 0.000000 0.000000 0.000000 0.000000 0.029825 0.000000
# 6 0.000000 0.000000 0.000000 0.000000 0.000000 0.023731
#
#
# Mechanical properties :
#
#
# Convention : Reuss Voigt Hill
#
# Bulk Modulus (GPa) = 44.15681 48.74068 46.44874
# Shear Modulus (GPa) = 38.81713 41.40587 40.11150
#
# Velocity S-wave (km/s) = 3.96819 4.09838 4.03381
# Velocity P-wave (km/s) = 6.23763 6.49367 6.36694
#
# Compressibility (1/GPa) = 0.02264657
#
# Stress axis : x y z
#
# Youngs Moduli (GPa) = 74.56523 84.12343 138.90532
#
# Poissons Ratio (x) = 0.23714 -0.10988
# Poissons Ratio (y) = 0.21019 0.40250
# Poissons Ratio (z) = -0.05899 0.24376
#
# Static dielectric constant tensor:
#      x y z
#    x 2.014530 0.000000 0.000000 
#    y 0.000000 1.960420 0.000000 
#    z 0.000000 0.000000 1.975720 
# 
# From -- ./inp_files/1975.got.cif
#   From: 2010.05.17/outbox.cif.g08.bks.cpg/sg19_1_cif.got.tgz:1975.got - 2010.06.03 22:46:19.
