data_PCOD9315492
_publ_section_title
;
Structure prediction by ZEFSAII (Michael W. Deem and Ramdas Pophale) SiO2 
 PCOD9315492
Probable space group: P 21 21 21
;
_chemical_formula_sum "Si O2"
_cell_formula_units_Z 32
_cell_length_a 8.958591
_cell_length_b 13.776767
_cell_length_c 10.777147
_cell_angle_alpha 90.000000
_cell_angle_beta 90.000000
_cell_angle_gamma 90.000000
_cell_volume 1330.120018
_symmetry_space_group_name_H-M "P 21 21 21"
_symmetry_group_IT_number 19
_symmetry_cell_setting 'orthorhombic'
loop_
_space_group_symop_operation_xyz
x,y,z
1/2-x,-y,1/2+z
1/2+x,1/2-y,-z
-x,1/2+y,1/2-z
loop_
_atom_site_type_symbol
_atom_site_label
_atom_site_fract_x
_atom_site_fract_y
_atom_site_fract_z
Si Si1 0.387140 0.033284 0.307658
Si Si2 0.279883 0.842172 0.415066
Si Si3 0.870755 0.078196 0.372729
Si Si4 0.394078 0.674612 0.257837
Si Si5 0.878343 0.655278 0.306504
Si Si6 0.548655 0.312395 0.440644
Si Si7 0.540198 0.126607 0.821233
Si Si8 0.099673 0.865638 0.062170
O O1 0.512678 0.077511 0.217250
O O2 0.245168 0.097271 0.270444
O O3 0.428569 0.064026 0.447461
O O4 0.347791 0.920882 0.318193
O O5 0.318438 0.733548 0.368779
O O6 0.348494 0.863928 0.548783
O O7 0.100752 0.855344 0.413036
O O8 0.722655 0.139070 0.346807
O O9 0.971979 0.116691 0.257844
O O10 0.950096 0.100764 0.503936
O O11 0.857463 0.962669 0.360983
O O12 0.491353 0.757572 0.187460
O O13 0.876436 0.772184 0.300386
O O14 0.499377 0.229869 0.538702
O O15 0.723257 0.340849 0.438958
O O16 0.456654 0.096965 0.693486
#
# Coordination Sequence:
#
# PCOD9315492 Si02
#       8
#     4   4   4   4   4   4   4   4
#     4  11  26  43  74 106 138 190 245 289 352 432
#     4  12  25  45  71 102 151 192 229 301 363 429
#     4  12  23  44  72 100 134 186 238 292 360 435
#     4  11  26  45  68 103 146 177 242 308 348 418
#     4  12  25  45  73 103 145 189 240 291 363 437
#     4  11  18  39  68  92 128 174 227 287 342 405
#     4  12  24  44  73 103 140 189 234 292 370 424
#     4  11  19  39  69  99 130 175 235 288 338 412
#
# _framework density 24.057981999999999
#
# number of rings (size 3 to 8) (size 9 to 14) (size 15 to 20)
#    0.000    0.500    7.500    0.750    1.750    2.000 
#    0.000    1.250    0.000    0.000    0.000    0.000 
#    0.000    0.000    0.000    0.000    0.000    0.000 
#
# Total GULP energy -178782.280093 kJ/mol
# GULP energy per Si atom -5586.946253 kJ/mol
# Density = 2.400322 g / cm^3
# Si number density = 24.057982 Si / 1000 Ang^3
#
#
#
# Elastic Constant Matrix: (Units=GPa)
#
#
# Indices 1 2 3 4 5 6 
#
# 1 66.1887 15.8225 10.9319 0.0000 0.0000 0.0000
# 2 15.8225 125.9237 22.5186 0.0000 0.0000 0.0000
# 3 10.9319 22.5186 80.1375 0.0000 0.0000 0.0000
# 4 0.0000 0.0000 0.0000 34.2945 0.0000 0.0000
# 5 0.0000 0.0000 0.0000 0.0000 15.3758 0.0000
# 6 0.0000 0.0000 0.0000 0.0000 0.0000 27.6253
#
#
#
# Elastic Compliance Matrix: (Units=1/GPa)
#
#
# Indices 1 2 3 4 5 6 
#
# 1 0.015788 -0.001683 -0.001681 0.000000 0.000000 0.000000
# 2 -0.001683 0.008541 -0.002170 0.000000 0.000000 0.000000
# 3 -0.001681 -0.002170 0.013318 0.000000 0.000000 0.000000
# 4 0.000000 0.000000 0.000000 0.029159 0.000000 0.000000
# 5 0.000000 0.000000 0.000000 0.000000 0.065037 0.000000
# 6 0.000000 0.000000 0.000000 0.000000 0.000000 0.036199
#
#
# Mechanical properties :
#
#
# Convention : Reuss Voigt Hill
#
# Bulk Modulus (GPa) = 37.62487 41.19954 39.41220
# Shear Modulus (GPa) = 26.59996 30.32425 28.46211
#
# Velocity S-wave (km/s) = 3.32875 3.55416 3.44330
# Velocity P-wave (km/s) = 5.51791 5.83138 5.67681
#
# Compressibility (1/GPa) = 0.02657817
#
# Stress axis : x y z
#
# Youngs Moduli (GPa) = 63.33809 117.08312 75.08796
#
# Poissons Ratio (x) = 0.19708 0.12620
# Poissons Ratio (y) = 0.10661 0.16297
# Poissons Ratio (z) = 0.10646 0.25412
#
# Static dielectric constant tensor:
#      x y z
#    x 1.958940 0.000000 0.000000 
#    y 0.000000 1.941560 0.000000 
#    z 0.000000 0.000000 1.940020 
# 
# From -- ./inp_files/4670.got.cif
#   From: 2010.05.17/outbox.cif.g08.bks.cpg/sg19_3_cif.got.tgz:4670.got - 2010.06.03 22:46:19.
