data_PCOD9315529
_publ_section_title
;
Structure prediction by ZEFSAII (Michael W. Deem and Ramdas Pophale) SiO2 
 PCOD9315529
Probable space group: P 21 21 21
;
_chemical_formula_sum "Si O2"
_cell_formula_units_Z 32
_cell_length_a 13.549759
_cell_length_b 9.561407
_cell_length_c 11.458077
_cell_angle_alpha 90.000000
_cell_angle_beta 90.000000
_cell_angle_gamma 90.000000
_cell_volume 1484.448422
_symmetry_space_group_name_H-M "P 21 21 21"
_symmetry_group_IT_number 19
_symmetry_cell_setting 'orthorhombic'
loop_
_space_group_symop_operation_xyz
x,y,z
1/2-x,-y,1/2+z
1/2+x,1/2-y,-z
-x,1/2+y,1/2-z
loop_
_atom_site_type_symbol
_atom_site_label
_atom_site_fract_x
_atom_site_fract_y
_atom_site_fract_z
Si Si1 0.845099 0.551443 0.637777
Si Si2 0.031912 0.806832 0.778869
Si Si3 0.561737 0.094840 0.604868
Si Si4 0.332768 0.870493 0.928554
Si Si5 0.113482 0.700619 0.016931
Si Si6 0.516431 0.815561 0.478848
Si Si7 0.993020 0.953085 0.366086
Si Si8 0.685605 0.273689 0.343974
O O1 0.926987 0.464124 0.709466
O O2 0.772758 0.435566 0.589619
O O3 0.902842 0.635570 0.539277
O O4 0.786921 0.654420 0.722880
O O5 0.045553 0.742601 0.649602
O O6 0.914941 0.810580 0.813145
O O7 0.092420 0.719430 0.877821
O O8 0.649365 0.206618 0.590941
O O9 0.463272 0.182180 0.568057
O O10 0.554628 0.061223 0.740302
O O11 0.569949 0.954797 0.527642
O O12 0.408754 0.954751 0.850754
O O13 0.355631 0.889328 0.064926
O O14 0.075468 0.547125 0.051297
O O15 0.217389 0.718214 0.087760
O O16 0.520034 0.692337 0.572967
#
# Coordination Sequence:
#
# PCOD9315529 Si02
#       8
#     4   4   4   4   4   4   4   4
#     4  11  23  41  69 100 135 183 237 286 338 429
#     4  11  22  41  70  96 141 180 231 301 344 414
#     4  11  22  42  66  96 139 185 232 293 344 422
#     4  11  21  41  67  90 133 181 228 276 356 405
#     4  11  22  42  67  97 138 183 230 290 363 416
#     4  11  23  41  70 103 134 183 242 286 353 414
#     4  11  24  41  67 100 140 182 230 294 358 421
#     4  11  21  39  66  96 130 185 226 280 354 419
#
# _framework density 21.556827999999999
#
# number of rings (size 3 to 8) (size 9 to 14) (size 15 to 20)
#    0.000    1.000    5.000    3.000    1.750    1.000 
#    0.000    8.750    0.000    0.000    0.000    0.000 
#    0.000    0.000    0.000    0.000    0.000    0.000 
#
# Total GULP energy -178419.469558 kJ/mol
# GULP energy per Si atom -5575.608424 kJ/mol
# Density = 2.150776 g / cm^3
# Si number density = 21.556828 Si / 1000 Ang^3
#
#
#
# Elastic Constant Matrix: (Units=GPa)
#
#
# Indices 1 2 3 4 5 6 
#
# 1 33.3614 5.2922 -10.1600 0.0000 0.0000 0.0000
# 2 5.2922 95.9640 17.2883 0.0000 0.0000 0.0000
# 3 -10.1600 17.2883 77.2012 0.0000 0.0000 0.0000
# 4 0.0000 0.0000 0.0000 33.0514 0.0000 0.0000
# 5 0.0000 0.0000 0.0000 0.0000 19.0428 0.0000
# 6 0.0000 0.0000 0.0000 0.0000 0.0000 32.5971
#
#
#
# Elastic Compliance Matrix: (Units=1/GPa)
#
#
# Indices 1 2 3 4 5 6 
#
# 1 0.031845 -0.002617 0.004777 0.000000 0.000000 0.000000
# 2 -0.002617 0.011074 -0.002824 0.000000 0.000000 0.000000
# 3 0.004777 -0.002824 0.014214 0.000000 0.000000 0.000000
# 4 0.000000 0.000000 0.000000 0.030256 0.000000 0.000000
# 5 0.000000 0.000000 0.000000 0.000000 0.052513 0.000000
# 6 0.000000 0.000000 0.000000 0.000000 0.000000 0.030678
#
#
# Mechanical properties :
#
#
# Convention : Reuss Voigt Hill
#
# Bulk Modulus (GPa) = 17.91970 25.70751 21.81361
# Shear Modulus (GPa) = 26.24547 29.87865 28.06206
#
# Velocity S-wave (km/s) = 3.49306 3.72700 3.61192
# Velocity P-wave (km/s) = 4.95978 5.52015 5.24745
#
# Compressibility (1/GPa) = 0.05580449
#
# Stress axis : x y z
#
# Youngs Moduli (GPa) = 31.40244 90.30424 70.35183
#
# Poissons Ratio (x) = 0.23630 -0.33606
# Poissons Ratio (y) = 0.08217 0.19869
# Poissons Ratio (z) = -0.15001 0.25504
#
# Static dielectric constant tensor:
#      x y z
#    x 1.860750 0.000000 0.000000 
#    y 0.000000 1.799400 0.000000 
#    z 0.000000 0.000000 1.799740 
# 
# From -- ./inp_files/5227.got.cif
#   From: 2010.05.17/outbox.cif.g08.bks.cpg/sg19_3_cif.got.tgz:5227.got - 2010.06.03 22:46:19.
