data_PCOD9315484
_publ_section_title
;
Structure prediction by ZEFSAII (Michael W. Deem and Ramdas Pophale) SiO2 
 PCOD9315484
Probable space group: P 21 21 21
;
_chemical_formula_sum "Si O2"
_cell_formula_units_Z 28
_cell_length_a 19.434449
_cell_length_b 11.428049
_cell_length_c 5.713127
_cell_angle_alpha 90.000000
_cell_angle_beta 90.000000
_cell_angle_gamma 90.000000
_cell_volume 1268.873140
_symmetry_space_group_name_H-M "P 21 21 21"
_symmetry_group_IT_number 19
_symmetry_cell_setting 'orthorhombic'
loop_
_space_group_symop_operation_xyz
x,y,z
1/2-x,-y,1/2+z
1/2+x,1/2-y,-z
-x,1/2+y,1/2-z
loop_
_atom_site_type_symbol
_atom_site_label
_atom_site_fract_x
_atom_site_fract_y
_atom_site_fract_z
Si Si1 0.668539 0.942082 0.201069
Si Si2 0.084864 0.959992 0.466012
Si Si3 0.847444 0.679026 0.244701
Si Si4 0.797916 0.278187 0.982848
Si Si5 0.512837 0.239258 0.865272
Si Si6 0.220178 0.319711 0.626493
Si Si7 0.515557 0.864725 0.140386
O O1 0.678314 0.854225 0.422500
O O2 0.591045 0.920942 0.119865
O O3 0.683367 0.078283 0.229928
O O4 0.728476 0.892517 0.037268
O O5 0.141308 0.868920 0.558626
O O6 0.024339 0.885347 0.346242
O O7 0.124228 0.049184 0.294195
O O8 0.045163 0.039165 0.654295
O O9 0.771025 0.685326 0.346732
O O10 0.904741 0.752257 0.382517
O O11 0.838168 0.745201 0.999223
O O12 0.770799 0.270397 0.245704
O O13 0.496318 0.301815 0.613688
O O14 0.486975 0.293428 0.114215
#
# Coordination Sequence:
#
# PCOD9315484 Si02
#       7
#     4   4   4   4   4   4   4
#     4  11  23  44  75 104 143 197 248 314 367 449
#     4  11  26  48  75 108 153 198 243 319 377 454
#     4  10  28  43  71 113 143 199 248 315 372 454
#     4  11  24  47  72 106 149 196 251 305 382 444
#     4  11  26  51  71 110 150 199 249 305 380 453
#     4  11  24  43  73 107 147 190 257 307 378 443
#     4  11  27  46  75 106 147 195 254 299 376 447
#
# _framework density 22.066821000000001
#
# number of rings (size 3 to 8) (size 9 to 14) (size 15 to 20)
#    0.000    1.143    2.857    0.857    8.000    4.571 
#    7.714    0.000    0.000    0.000    0.000    0.000 
#    0.000    0.000    0.000    0.000    0.000    0.000 
#
# Total GULP energy -156209.012444 kJ/mol
# GULP energy per Si atom -5578.893302 kJ/mol
# Density = 2.201660 g / cm^3
# Si number density = 22.066821 Si / 1000 Ang^3
#
#
#
# Elastic Constant Matrix: (Units=GPa)
#
#
# Indices 1 2 3 4 5 6 
#
# 1 113.1132 63.5443 12.4095 0.0000 0.0000 0.0000
# 2 63.5443 101.8406 32.1926 0.0000 0.0000 0.0000
# 3 12.4095 32.1926 76.3196 0.0000 0.0000 0.0000
# 4 0.0000 0.0000 0.0000 19.2941 0.0000 0.0000
# 5 0.0000 0.0000 0.0000 0.0000 24.5296 0.0000
# 6 0.0000 0.0000 0.0000 0.0000 0.0000 52.5285
#
#
#
# Elastic Compliance Matrix: (Units=1/GPa)
#
#
# Indices 1 2 3 4 5 6 
#
# 1 0.013779 -0.009103 0.001599 0.000000 0.000000 0.000000
# 2 -0.009103 0.017344 -0.005836 0.000000 0.000000 0.000000
# 3 0.001599 -0.005836 0.015304 0.000000 0.000000 0.000000
# 4 0.000000 0.000000 0.000000 0.051829 0.000000 0.000000
# 5 0.000000 0.000000 0.000000 0.000000 0.040767 0.000000
# 6 0.000000 0.000000 0.000000 0.000000 0.000000 0.019037
#
#
# Mechanical properties :
#
#
# Convention : Reuss Voigt Hill
#
# Bulk Modulus (GPa) = 50.63715 56.39624 53.51670
# Shear Modulus (GPa) = 26.13380 31.47892 28.80636
#
# Velocity S-wave (km/s) = 3.44510 3.78104 3.61697
# Velocity P-wave (km/s) = 6.23073 6.68387 6.46128
#
# Compressibility (1/GPa) = 0.01974835
#
# Stress axis : x y z
#
# Youngs Moduli (GPa) = 72.57319 57.65682 65.34097
#
# Poissons Ratio (x) = 0.52486 -0.10450
# Poissons Ratio (y) = 0.66065 0.38131
# Poissons Ratio (z) = -0.11607 0.33647
#
# Static dielectric constant tensor:
#      x y z
#    x 1.789210 0.000000 0.000000 
#    y 0.000000 1.812590 0.000000 
#    z 0.000000 0.000000 1.917700 
# 
# From -- ./inp_files/1948.got.cif
#   From: 2010.05.17/outbox.cif.g08.bks.cpg/sg19_1_cif.got.tgz:1948.got - 2010.06.03 22:46:19.
