data_PCOD9315274
_publ_section_title
;
Structure prediction by ZEFSAII (Michael W. Deem and Ramdas Pophale) SiO2 
 PCOD9315274
Probable space group: P 21 21 21
;
_chemical_formula_sum "Si O2"
_cell_formula_units_Z 32
_cell_length_a 17.811700
_cell_length_b 5.129059
_cell_length_c 14.980432
_cell_angle_alpha 90.000000
_cell_angle_beta 90.000000
_cell_angle_gamma 90.000000
_cell_volume 1368.571224
_symmetry_space_group_name_H-M "P 21 21 21"
_symmetry_group_IT_number 19
_symmetry_cell_setting 'orthorhombic'
loop_
_space_group_symop_operation_xyz
x,y,z
1/2-x,-y,1/2+z
1/2+x,1/2-y,-z
-x,1/2+y,1/2-z
loop_
_atom_site_type_symbol
_atom_site_label
_atom_site_fract_x
_atom_site_fract_y
_atom_site_fract_z
Si Si1 0.261859 0.702684 0.548555
Si Si2 0.459523 0.681268 0.283705
Si Si3 0.809722 0.406262 0.333825
Si Si4 0.828429 0.022700 0.116787
Si Si5 0.405365 0.950201 0.816100
Si Si6 0.545135 0.788551 0.898235
Si Si7 0.432851 0.756927 0.490302
Si Si8 0.707857 0.044041 0.262169
O O1 0.201906 0.625345 0.476111
O O2 0.345212 0.676327 0.505037
O O3 0.234796 0.581803 0.644043
O O4 0.270009 0.004178 0.576326
O O5 0.516680 0.438808 0.271533
O O6 0.450850 0.775196 0.386152
O O7 0.379852 0.561460 0.252321
O O8 0.865060 0.598660 0.279410
O O9 0.870437 0.190255 0.360663
O O10 0.742312 0.334940 0.269308
O O11 0.879918 0.255757 0.158657
O O12 0.756288 0.948676 0.178288
O O13 0.873175 0.754532 0.112363
O O14 0.490992 0.856271 0.815711
O O15 0.546699 0.513786 0.951573
O O16 0.524132 0.012983 0.967620
#
# Coordination Sequence:
#
# PCOD9315274 Si02
#       8
#     4   4   4   4   4   4   4   4
#     4  11  23  44  74 102 140 190 243 300 355 428
#     4  12  29  49  75 105 147 194 242 306 368 427
#     4  10  24  42  71 103 140 190 239 287 369 426
#     4  11  25  43  71 102 143 189 235 298 355 419
#     4  11  25  43  65 107 146 178 235 295 357 422
#     4  11  24  43  72 103 146 186 230 289 361 440
#     4  11  24  47  70 103 144 191 237 289 369 430
#     4  11  24  47  72 105 140 186 249 296 354 434
#
# _framework density 23.382048999999999
#
# number of rings (size 3 to 8) (size 9 to 14) (size 15 to 20)
#    0.000    1.000    3.750    1.500    3.500    7.000 
#    0.000    0.000    0.000    0.000    0.000    0.000 
#    0.000    0.000    0.000    0.000    0.000    0.000 
#
# Total GULP energy -178391.469226 kJ/mol
# GULP energy per Si atom -5574.733413 kJ/mol
# Density = 2.332883 g / cm^3
# Si number density = 23.382049 Si / 1000 Ang^3
#
#
#
# Elastic Constant Matrix: (Units=GPa)
#
#
# Indices 1 2 3 4 5 6 
#
# 1 67.7064 19.4488 11.9250 0.0000 0.0000 0.0000
# 2 19.4488 90.8961 13.8071 0.0000 0.0000 0.0000
# 3 11.9250 13.8071 93.4310 0.0000 0.0000 0.0000
# 4 0.0000 0.0000 0.0000 28.2216 0.0000 0.0000
# 5 0.0000 0.0000 0.0000 0.0000 36.3665 0.0000
# 6 0.0000 0.0000 0.0000 0.0000 0.0000 20.0251
#
#
#
# Elastic Compliance Matrix: (Units=1/GPa)
#
#
# Indices 1 2 3 4 5 6 
#
# 1 0.015958 -0.003176 -0.001567 0.000000 0.000000 0.000000
# 2 -0.003176 0.011886 -0.001351 0.000000 0.000000 0.000000
# 3 -0.001567 -0.001351 0.011103 0.000000 0.000000 0.000000
# 4 0.000000 0.000000 0.000000 0.035434 0.000000 0.000000
# 5 0.000000 0.000000 0.000000 0.000000 0.027498 0.000000
# 6 0.000000 0.000000 0.000000 0.000000 0.000000 0.049937
#
#
# Mechanical properties :
#
#
# Convention : Reuss Voigt Hill
#
# Bulk Modulus (GPa) = 37.37274 38.04392 37.70833
# Shear Modulus (GPa) = 28.91418 30.71281 29.81349
#
# Velocity S-wave (km/s) = 3.52034 3.62818 3.57467
# Velocity P-wave (km/s) = 5.70456 5.81872 5.76192
#
# Compressibility (1/GPa) = 0.02675747
#
# Stress axis : x y z
#
# Youngs Moduli (GPa) = 62.66387 84.12931 90.06724
#
# Poissons Ratio (x) = 0.26723 0.14117
# Poissons Ratio (y) = 0.19905 0.12169
# Poissons Ratio (z) = 0.09822 0.11367
#
# Static dielectric constant tensor:
#      x y z
#    x 1.911640 0.000000 0.000000 
#    y 0.000000 2.028470 0.000000 
#    z 0.000000 0.000000 1.921570 
# 
# From -- ./inp_files/1787.got.cif
#   From: 2010.05.17/outbox.cif.g08.bks.cpg/sg19_1_cif.got.tgz:1787.got - 2010.06.03 22:46:19.
