data_PCOD9315931
_publ_section_title
;
Structure prediction by ZEFSAII (Michael W. Deem and Ramdas Pophale) SiO2 
 PCOD9315931
Probable space group: P 21 21 21
;
_chemical_formula_sum "Si O2"
_cell_formula_units_Z 20
_cell_length_a 4.921650
_cell_length_b 13.728618
_cell_length_c 10.621115
_cell_angle_alpha 90.000000
_cell_angle_beta 90.000000
_cell_angle_gamma 90.000000
_cell_volume 717.641686
_symmetry_space_group_name_H-M "P 21 21 21"
_symmetry_group_IT_number 19
_symmetry_cell_setting 'orthorhombic'
loop_
_space_group_symop_operation_xyz
x,y,z
1/2-x,-y,1/2+z
1/2+x,1/2-y,-z
-x,1/2+y,1/2-z
loop_
_atom_site_type_symbol
_atom_site_label
_atom_site_fract_x
_atom_site_fract_y
_atom_site_fract_z
Si Si1 0.140466 0.911670 0.934322
Si Si2 0.386501 0.031094 0.155947
Si Si3 0.764553 0.749765 0.880346
Si Si4 0.188873 0.313886 0.996730
Si Si5 0.245297 0.642780 0.764753
O O1 0.230862 0.951110 0.797006
O O2 0.841995 0.861837 0.911946
O O3 0.297653 0.816275 0.992097
O O4 0.187524 0.990629 0.045484
O O5 0.535479 0.126486 0.108059
O O6 0.626500 0.952182 0.170126
O O7 0.004362 0.719045 0.785472
O O8 0.511624 0.695751 0.815172
O O9 0.482459 0.272339 0.963363
O O10 0.220626 0.380509 0.118884
#
# Coordination Sequence:
#
# PCOD9315931 Si02
#       5
#     4   4   4   4   4
#     4  11  26  53  85 129 170 232 286 363 430 528
#     4  11  29  51  90 130 177 227 296 367 436 515
#     4  11  25  51  85 120 171 231 281 348 438 531
#     4  12  28  52  84 124 174 226 285 362 441 515
#     4  11  26  49  82 123 170 218 292 348 429 515
#
# _framework density 27.869059
#
# number of rings (size 3 to 8) (size 9 to 14) (size 15 to 20)
#    0.000    0.800    0.000    4.800   11.200    3.200 
#    3.600    0.000    0.000    0.000    0.000    0.000 
#    0.000    0.000    0.000    0.000    0.000    0.000 
#
# Total GULP energy -112010.195864 kJ/mol
# GULP energy per Si atom -5600.509793 kJ/mol
# Density = 2.780563 g / cm^3
# Si number density = 27.869059 Si / 1000 Ang^3
#
#
#
# Elastic Constant Matrix: (Units=GPa)
#
#
# Indices 1 2 3 4 5 6 
#
# 1 151.5023 33.4245 46.3146 0.0000 0.0000 0.0000
# 2 33.4245 98.5065 60.2992 0.0000 0.0000 0.0000
# 3 46.3146 60.2992 227.5655 0.0000 0.0000 0.0000
# 4 0.0000 0.0000 0.0000 59.7936 0.0000 0.0000
# 5 0.0000 0.0000 0.0000 0.0000 33.7415 0.0000
# 6 0.0000 0.0000 0.0000 0.0000 0.0000 49.1676
#
#
#
# Elastic Compliance Matrix: (Units=1/GPa)
#
#
# Indices 1 2 3 4 5 6 
#
# 1 0.007318 -0.001876 -0.000992 0.000000 0.000000 0.000000
# 2 -0.001876 0.012598 -0.002956 0.000000 0.000000 0.000000
# 3 -0.000992 -0.002956 0.005380 0.000000 0.000000 0.000000
# 4 0.000000 0.000000 0.000000 0.016724 0.000000 0.000000
# 5 0.000000 0.000000 0.000000 0.000000 0.029637 0.000000
# 6 0.000000 0.000000 0.000000 0.000000 0.000000 0.020339
#
#
# Mechanical properties :
#
#
# Convention : Reuss Voigt Hill
#
# Bulk Modulus (GPa) = 73.27846 84.18343 78.73095
# Shear Modulus (GPa) = 46.21401 51.04295 48.62848
#
# Velocity S-wave (km/s) = 4.07659 4.28428 4.18172
# Velocity P-wave (km/s) = 6.96484 7.39904 7.18522
#
# Compressibility (1/GPa) = 0.01364657
#
# Stress axis : x y z
#
# Youngs Moduli (GPa) = 136.65491 79.37950 185.88508
#
# Poissons Ratio (x) = 0.14888 0.18446
# Poissons Ratio (y) = 0.25630 0.54954
# Poissons Ratio (z) = 0.13561 0.23468
#
# Static dielectric constant tensor:
#      x y z
#    x 2.245060 0.000000 0.000000 
#    y 0.000000 2.189920 0.000000 
#    z 0.000000 0.000000 2.227780 
# 
# From -- ./inp_files/4423.got.cif
#   From: 2010.05.17/outbox.cif.g08.bks.cpg/sg19_3_cif.got.tgz:4423.got - 2010.06.03 22:46:19.
