data_PCOD9315546
_publ_section_title
;
Structure prediction by ZEFSAII (Michael W. Deem and Ramdas Pophale) SiO2 
 PCOD9315546
Probable space group: P 21 21 21
;
_chemical_formula_sum "Si O2"
_cell_formula_units_Z 32
_cell_length_a 13.015518
_cell_length_b 8.766438
_cell_length_c 12.057264
_cell_angle_alpha 90.000000
_cell_angle_beta 90.000000
_cell_angle_gamma 90.000000
_cell_volume 1375.730586
_symmetry_space_group_name_H-M "P 21 21 21"
_symmetry_group_IT_number 19
_symmetry_cell_setting 'orthorhombic'
loop_
_space_group_symop_operation_xyz
x,y,z
1/2-x,-y,1/2+z
1/2+x,1/2-y,-z
-x,1/2+y,1/2-z
loop_
_atom_site_type_symbol
_atom_site_label
_atom_site_fract_x
_atom_site_fract_y
_atom_site_fract_z
Si Si1 0.944906 0.874541 0.790870
Si Si2 0.064673 0.384790 0.333879
Si Si3 0.777602 0.628897 0.163940
Si Si4 0.120928 0.552611 0.122430
Si Si5 0.406795 0.170740 0.494733
Si Si6 0.785725 0.105886 0.029984
Si Si7 0.253509 0.785562 0.263380
Si Si8 0.116945 0.716531 0.671775
O O1 0.856810 0.747179 0.805435
O O2 0.019804 0.878167 0.895662
O O3 0.017855 0.819356 0.692966
O O4 0.901271 0.044637 0.782749
O O5 0.112699 0.214076 0.340198
O O6 0.061826 0.443218 0.207325
O O7 0.149703 0.480560 0.403071
O O8 0.957395 0.408567 0.397766
O O9 0.709094 0.641570 0.049693
O O10 0.777431 0.455830 0.206762
O O11 0.710478 0.718599 0.256018
O O12 0.212941 0.463295 0.063646
O O13 0.167776 0.686140 0.200954
O O14 0.075781 0.650395 0.021178
O O15 0.861318 0.210035 0.958303
O O16 0.725021 0.202162 0.119929
#
# Coordination Sequence:
#
# PCOD9315546 Si02
#       8
#     4   4   4   4   4   4   4   4
#     4  11  22  41  69 102 132 179 231 288 331 418
#     4  11  22  44  69  90 141 180 231 279 356 411
#     4  11  24  43  67 101 133 184 231 290 335 416
#     4  11  23  44  70  96 135 188 224 283 346 422
#     4  11  24  41  71 100 134 177 232 277 350 410
#     4  11  21  45  68  97 130 190 224 282 348 411
#     4  11  25  42  68 100 140 177 232 283 344 408
#     4  11  21  42  70 100 135 175 235 282 342 398
#
# _framework density 23.260370000000002
#
# number of rings (size 3 to 8) (size 9 to 14) (size 15 to 20)
#    0.000    1.000    5.000    2.250    1.750    2.000 
#    6.750    0.000    0.000    0.000    0.000    0.000 
#    0.000    0.000    0.000    0.000    0.000    0.000 
#
# Total GULP energy -178775.981286 kJ/mol
# GULP energy per Si atom -5586.749415 kJ/mol
# Density = 2.320743 g / cm^3
# Si number density = 23.260370 Si / 1000 Ang^3
#
#
#
# Elastic Constant Matrix: (Units=GPa)
#
#
# Indices 1 2 3 4 5 6 
#
# 1 18.7298 20.7824 0.4135 0.0000 0.0000 0.0000
# 2 20.7824 84.9058 38.5706 0.0000 0.0000 0.0000
# 3 0.4135 38.5706 62.1086 0.0000 0.0000 0.0000
# 4 0.0000 0.0000 0.0000 31.6361 0.0000 0.0000
# 5 0.0000 0.0000 0.0000 0.0000 21.7502 0.0000
# 6 0.0000 0.0000 0.0000 0.0000 0.0000 33.2700
#
#
#
# Elastic Compliance Matrix: (Units=1/GPa)
#
#
# Indices 1 2 3 4 5 6 
#
# 1 0.084637 -0.028501 0.017136 0.000000 0.000000 0.000000
# 2 -0.028501 0.026004 -0.015959 0.000000 0.000000 0.000000
# 3 0.017136 -0.015959 0.025898 0.000000 0.000000 0.000000
# 4 0.000000 0.000000 0.000000 0.031609 0.000000 0.000000
# 5 0.000000 0.000000 0.000000 0.000000 0.045977 0.000000
# 6 0.000000 0.000000 0.000000 0.000000 0.000000 0.030057
#
#
# Mechanical properties :
#
#
# Convention : Reuss Voigt Hill
#
# Bulk Modulus (GPa) = 12.21139 31.69747 21.95443
# Shear Modulus (GPa) = 15.33144 24.39643 19.86394
#
# Velocity S-wave (km/s) = 2.57012 3.24210 2.92547
# Velocity P-wave (km/s) = 3.75082 5.26039 4.56839
#
# Compressibility (1/GPa) = 0.08189078
#
# Stress axis : x y z
#
# Youngs Moduli (GPa) = 11.81511 38.45582 38.61350
#
# Poissons Ratio (x) = 1.09604 -0.66170
# Poissons Ratio (y) = 0.33675 0.61624
# Poissons Ratio (z) = -0.20247 0.61372
#
# Static dielectric constant tensor:
#      x y z
#    x 1.926630 0.000000 0.000000 
#    y 0.000000 1.881380 0.000000 
#    z 0.000000 0.000000 1.905780 
# 
# From -- ./inp_files/5246.got.cif
#   From: 2010.05.17/outbox.cif.g08.bks.cpg/sg19_3_cif.got.tgz:5246.got - 2010.06.03 22:46:19.
