data_PCOD9315886
_publ_section_title
;
Structure prediction by ZEFSAII (Michael W. Deem and Ramdas Pophale) SiO2 
 PCOD9315886
Probable space group: P 21 21 21
;
_chemical_formula_sum "Si O2"
_cell_formula_units_Z 20
_cell_length_a 5.148083
_cell_length_b 19.479616
_cell_length_c 7.405179
_cell_angle_alpha 90.000000
_cell_angle_beta 90.000000
_cell_angle_gamma 90.000000
_cell_volume 742.611196
_symmetry_space_group_name_H-M "P 21 21 21"
_symmetry_group_IT_number 19
_symmetry_cell_setting 'orthorhombic'
loop_
_space_group_symop_operation_xyz
x,y,z
1/2-x,-y,1/2+z
1/2+x,1/2-y,-z
-x,1/2+y,1/2-z
loop_
_atom_site_type_symbol
_atom_site_label
_atom_site_fract_x
_atom_site_fract_y
_atom_site_fract_z
Si Si1 0.813008 0.077976 0.385389
Si Si2 0.485764 0.205283 0.250341
Si Si3 0.017346 0.373070 0.098538
Si Si4 0.312593 0.841935 0.081694
Si Si5 0.481143 0.955899 0.507437
O O1 0.701259 0.150683 0.317294
O O2 0.971617 0.044658 0.221404
O O3 0.005855 0.092420 0.551089
O O4 0.573779 0.028434 0.430227
O O5 0.461454 0.190240 0.038242
O O6 0.247500 0.185060 0.380415
O O7 0.552904 0.282081 0.304193
O O8 0.804454 0.429567 0.036915
O O9 0.303118 0.401912 0.066181
O O10 0.946327 0.356388 0.303851
#
# Coordination Sequence:
#
# PCOD9315886 Si02
#       5
#     4   4   4   4   4
#     4  11  25  45  73 105 149 193 248 304 371 439
#     4  11  26  47  71 109 148 192 250 306 368 447
#     4  11  28  47  74 109 148 189 249 306 372 436
#     4  12  25  46  78 101 151 199 243 309 373 438
#     4  11  26  47  72 110 146 193 248 307 366 448
#
# _framework density 26.931996000000002
#
# number of rings (size 3 to 8) (size 9 to 14) (size 15 to 20)
#    0.000    0.800    4.000    1.200    8.400    4.800 
#    0.000    0.000    0.000    0.000    0.000    0.000 
#    0.000    0.000    0.000    0.000    0.000    0.000 
#
# Total GULP energy -112309.590905 kJ/mol
# GULP energy per Si atom -5615.479545 kJ/mol
# Density = 2.687070 g / cm^3
# Si number density = 26.931996 Si / 1000 Ang^3
#
#
#
# Elastic Constant Matrix: (Units=GPa)
#
#
# Indices 1 2 3 4 5 6 
#
# 1 65.5159 19.4369 13.2320 0.0000 0.0000 0.0000
# 2 19.4369 77.4636 7.3186 0.0000 0.0000 0.0000
# 3 13.2320 7.3186 99.1665 0.0000 0.0000 0.0000
# 4 0.0000 0.0000 0.0000 44.6348 0.0000 0.0000
# 5 0.0000 0.0000 0.0000 0.0000 48.7197 0.0000
# 6 0.0000 0.0000 0.0000 0.0000 0.0000 49.5755
#
#
#
# Elastic Compliance Matrix: (Units=1/GPa)
#
#
# Indices 1 2 3 4 5 6 
#
# 1 0.016858 -0.004046 -0.001951 0.000000 0.000000 0.000000
# 2 -0.004046 0.013971 -0.000491 0.000000 0.000000 0.000000
# 3 -0.001951 -0.000491 0.010381 0.000000 0.000000 0.000000
# 4 0.000000 0.000000 0.000000 0.022404 0.000000 0.000000
# 5 0.000000 0.000000 0.000000 0.000000 0.020526 0.000000
# 6 0.000000 0.000000 0.000000 0.000000 0.000000 0.020171
#
#
# Mechanical properties :
#
#
# Convention : Reuss Voigt Hill
#
# Bulk Modulus (GPa) = 35.41845 35.79122 35.60484
# Shear Modulus (GPa) = 39.46440 42.06323 40.76381
#
# Velocity S-wave (km/s) = 3.83212 3.95629 3.89470
# Velocity P-wave (km/s) = 5.72362 5.84705 5.78566
#
# Compressibility (1/GPa) = 0.02823387
#
# Stress axis : x y z
#
# Youngs Moduli (GPa) = 59.32018 71.57784 96.33346
#
# Poissons Ratio (x) = 0.28957 0.18793
# Poissons Ratio (y) = 0.23998 0.04732
# Poissons Ratio (z) = 0.11572 0.03516
#
# Static dielectric constant tensor:
#      x y z
#    x 2.104700 0.000000 0.000000 
#    y 0.000000 2.078110 0.000000 
#    z 0.000000 0.000000 2.067940 
# 
# From -- ./inp_files/365.got.cif
#   From: 2010.05.17/outbox.cif.g08.bks.cpg/sg19_1_cif.got.tgz:365.got - 2010.06.03 22:46:19.
