data_PCOD9315263
_publ_section_title
;
Structure prediction by ZEFSAII (Michael W. Deem and Ramdas Pophale) SiO2 
 PCOD9315263
Probable space group: P 21 21 21
;
_chemical_formula_sum "Si O2"
_cell_formula_units_Z 28
_cell_length_a 12.310940
_cell_length_b 7.641144
_cell_length_c 11.769097
_cell_angle_alpha 90.000000
_cell_angle_beta 90.000000
_cell_angle_gamma 90.000000
_cell_volume 1107.115016
_symmetry_space_group_name_H-M "P 21 21 21"
_symmetry_group_IT_number 19
_symmetry_cell_setting 'orthorhombic'
loop_
_space_group_symop_operation_xyz
x,y,z
1/2-x,-y,1/2+z
1/2+x,1/2-y,-z
-x,1/2+y,1/2-z
loop_
_atom_site_type_symbol
_atom_site_label
_atom_site_fract_x
_atom_site_fract_y
_atom_site_fract_z
Si Si1 0.485273 0.549064 0.136387
Si Si2 0.062211 0.495213 0.281706
Si Si3 0.929244 0.337985 0.091598
Si Si4 0.258415 0.717158 0.891950
Si Si5 0.239018 0.344995 0.643957
Si Si6 0.697512 0.407703 0.148029
Si Si7 0.540316 0.952912 0.109359
O O1 0.357628 0.516105 0.117760
O O2 0.578399 0.418783 0.092863
O O3 0.506538 0.748478 0.097749
O O4 0.499833 0.531790 0.272371
O O5 0.039314 0.641831 0.374885
O O6 0.124846 0.341423 0.347810
O O7 0.151149 0.568871 0.190775
O O8 0.958978 0.436115 0.210379
O O9 0.799903 0.347340 0.073447
O O10 0.993006 0.436384 0.993289
O O11 0.221574 0.888477 0.825226
O O12 0.171498 0.559394 0.881028
O O13 0.250249 0.757162 0.025770
O O14 0.199340 0.213784 0.741690
#
# Coordination Sequence:
#
# PCOD9315263 Si02
#       7
#     4   4   4   4   4   4   4
#     4  11  22  41  67 101 137 178 231 285 341 412
#     4  11  24  45  72 101 139 184 232 296 337 433
#     4  11  24  47  67 104 143 183 238 284 358 412
#     4  11  23  45  73 102 134 192 230 284 364 401
#     4  11  22  44  69  99 141 176 233 291 350 412
#     4  10  24  42  66 100 137 181 231 288 339 422
#     4  11  23  42  72  97 143 178 231 288 343 424
#
# _framework density 25.290959000000001
#
# number of rings (size 3 to 8) (size 9 to 14) (size 15 to 20)
#    0.000    1.143    4.286    1.714    0.000    1.143 
#    2.571    1.429    0.000    0.000    0.000    0.000 
#    0.000    0.000    0.000    0.000    0.000    0.000 
#
# Total GULP energy -156730.290580 kJ/mol
# GULP energy per Si atom -5597.510378 kJ/mol
# Density = 2.523340 g / cm^3
# Si number density = 25.290959 Si / 1000 Ang^3
#
#
#
# Elastic Constant Matrix: (Units=GPa)
#
#
# Indices 1 2 3 4 5 6 
#
# 1 96.7097 23.0405 32.4412 0.0000 0.0000 0.0000
# 2 23.0405 84.2543 31.6024 0.0000 0.0000 0.0000
# 3 32.4412 31.6024 74.3819 0.0000 0.0000 0.0000
# 4 0.0000 0.0000 0.0000 33.9622 0.0000 0.0000
# 5 0.0000 0.0000 0.0000 0.0000 22.1005 0.0000
# 6 0.0000 0.0000 0.0000 0.0000 0.0000 40.0217
#
#
#
# Elastic Compliance Matrix: (Units=1/GPa)
#
#
# Indices 1 2 3 4 5 6 
#
# 1 0.012292 -0.001607 -0.004679 0.000000 0.000000 0.000000
# 2 -0.001607 0.014329 -0.005387 0.000000 0.000000 0.000000
# 3 -0.004679 -0.005387 0.017773 0.000000 0.000000 0.000000
# 4 0.000000 0.000000 0.000000 0.029444 0.000000 0.000000
# 5 0.000000 0.000000 0.000000 0.000000 0.045248 0.000000
# 6 0.000000 0.000000 0.000000 0.000000 0.000000 0.024986
#
#
# Mechanical properties :
#
#
# Convention : Reuss Voigt Hill
#
# Bulk Modulus (GPa) = 47.50610 47.72378 47.61494
# Shear Modulus (GPa) = 28.66398 30.43433 29.54916
#
# Velocity S-wave (km/s) = 3.37021 3.47272 3.42185
# Velocity P-wave (km/s) = 5.82829 5.91529 5.87195
#
# Compressibility (1/GPa) = 0.02104993
#
# Stress axis : x y z
#
# Youngs Moduli (GPa) = 81.35069 69.78948 56.26355
#
# Poissons Ratio (x) = 0.11213 0.26324
# Poissons Ratio (y) = 0.13070 0.30310
# Poissons Ratio (z) = 0.38061 0.37596
#
# Static dielectric constant tensor:
#      x y z
#    x 2.061950 0.000000 0.000000 
#    y 0.000000 1.986210 0.000000 
#    z 0.000000 0.000000 1.944330 
# 
# From -- ./inp_files/3433.got.cif
#   From: 2010.05.17/outbox.cif.g08.bks.cpg/sg19_2_cif.got.tgz:3433.got - 2010.06.03 22:46:19.
