data_PCOD9315837
_publ_section_title
;
Structure prediction by ZEFSAII (Michael W. Deem and Ramdas Pophale) SiO2 
 PCOD9315837
Probable space group: P 21 21 21
;
_chemical_formula_sum "Si O2"
_cell_formula_units_Z 32
_cell_length_a 20.902831
_cell_length_b 11.950297
_cell_length_c 5.167359
_cell_angle_alpha 90.000000
_cell_angle_beta 90.000000
_cell_angle_gamma 90.000000
_cell_volume 1290.780641
_symmetry_space_group_name_H-M "P 21 21 21"
_symmetry_group_IT_number 19
_symmetry_cell_setting 'orthorhombic'
loop_
_space_group_symop_operation_xyz
x,y,z
1/2-x,-y,1/2+z
1/2+x,1/2-y,-z
-x,1/2+y,1/2-z
loop_
_atom_site_type_symbol
_atom_site_label
_atom_site_fract_x
_atom_site_fract_y
_atom_site_fract_z
Si Si1 0.043399 0.824956 0.892009
Si Si2 0.667671 0.116188 0.041882
Si Si3 0.432745 0.788983 0.430995
Si Si4 0.488031 0.474214 0.778494
Si Si5 0.126684 0.616986 0.073869
Si Si6 0.217732 0.049677 0.288907
Si Si7 0.406382 0.986331 0.083010
Si Si8 0.765028 0.807203 0.055559
O O1 0.984120 0.781308 0.727164
O O2 0.096006 0.897434 0.734983
O O3 0.079122 0.715858 0.995219
O O4 0.012651 0.911623 0.094857
O O5 0.613957 0.201422 0.935479
O O6 0.688962 0.164619 0.316767
O O7 0.720308 0.116244 0.810448
O O8 0.639588 0.993896 0.093888
O O9 0.472879 0.869455 0.612847
O O10 0.394043 0.876760 0.253047
O O11 0.413816 0.443599 0.802449
O O12 0.518181 0.480665 0.491059
O O13 0.195880 0.672642 0.075315
O O14 0.144045 0.016867 0.349834
O O15 0.227996 0.180556 0.344412
O O16 0.240667 0.016323 0.004289
#
# Coordination Sequence:
#
# PCOD9315837 Si02
#       8
#     4   4   4   4   4   4   4   4
#     4  11  27  46  70 117 147 196 259 328 400 463
#     4  12  28  51  80 109 155 211 262 319 392 474
#     4  11  25  45  76 107 150 202 256 319 394 483
#     4  11  27  46  75 110 153 200 254 327 407 463
#     4  12  28  48  78 110 151 205 260 330 385 480
#     4  12  27  45  77 113 151 205 258 324 393 462
#     4  11  24  47  71 104 153 197 252 324 395 477
#     4  12  28  52  75 114 156 208 269 319 390 476
#
# _framework density 24.791197
#
# number of rings (size 3 to 8) (size 9 to 14) (size 15 to 20)
#    0.000    0.500    2.500    3.750   12.250    1.000 
#    0.000    0.000    0.000    0.000    0.000    0.000 
#    0.000    0.000    0.000    0.000    0.000    0.000 
#
# Total GULP energy -179052.737402 kJ/mol
# GULP energy per Si atom -5595.398044 kJ/mol
# Density = 2.473477 g / cm^3
# Si number density = 24.791197 Si / 1000 Ang^3
#
#
#
# Elastic Constant Matrix: (Units=GPa)
#
#
# Indices 1 2 3 4 5 6 
#
# 1 89.2226 55.4669 12.2836 0.0000 0.0000 0.0000
# 2 55.4669 164.5241 21.3484 0.0000 0.0000 0.0000
# 3 12.2836 21.3484 54.3081 0.0000 0.0000 0.0000
# 4 0.0000 0.0000 0.0000 26.0006 0.0000 0.0000
# 5 0.0000 0.0000 0.0000 0.0000 38.7188 0.0000
# 6 0.0000 0.0000 0.0000 0.0000 0.0000 32.6565
#
#
#
# Elastic Compliance Matrix: (Units=1/GPa)
#
#
# Indices 1 2 3 4 5 6 
#
# 1 0.014281 -0.004632 -0.001409 0.000000 0.000000 0.000000
# 2 -0.004632 0.007907 -0.002061 0.000000 0.000000 0.000000
# 3 -0.001409 -0.002061 0.019542 0.000000 0.000000 0.000000
# 4 0.000000 0.000000 0.000000 0.038461 0.000000 0.000000
# 5 0.000000 0.000000 0.000000 0.000000 0.025827 0.000000
# 6 0.000000 0.000000 0.000000 0.000000 0.000000 0.030622
#
#
# Mechanical properties :
#
#
# Convention : Reuss Voigt Hill
#
# Bulk Modulus (GPa) = 39.17428 54.02807 46.60117
# Shear Modulus (GPa) = 30.98787 34.07223 32.53005
#
# Velocity S-wave (km/s) = 3.53931 3.71127 3.62631
# Velocity P-wave (km/s) = 5.70423 6.34076 6.03090
#
# Compressibility (1/GPa) = 0.02552695
#
# Stress axis : x y z
#
# Youngs Moduli (GPa) = 70.02082 126.46868 51.17109
#
# Poissons Ratio (x) = 0.58579 0.07212
# Poissons Ratio (y) = 0.32433 0.10544
# Poissons Ratio (z) = 0.09869 0.26060
#
# Static dielectric constant tensor:
#      x y z
#    x 2.010030 0.000000 0.000000 
#    y 0.000000 1.939900 0.000000 
#    z 0.000000 0.000000 2.108340 
# 
# From -- ./inp_files/1991.got.cif
#   From: 2010.05.17/outbox.cif.g08.bks.cpg/sg19_1_cif.got.tgz:1991.got - 2010.06.03 22:46:19.
