data_PCOD9315874
_publ_section_title
;
Structure prediction by ZEFSAII (Michael W. Deem and Ramdas Pophale) SiO2 
 PCOD9315874
Probable space group: P 21 21 21
;
_chemical_formula_sum "Si O2"
_cell_formula_units_Z 32
_cell_length_a 21.862416
_cell_length_b 5.415341
_cell_length_c 11.198134
_cell_angle_alpha 90.000000
_cell_angle_beta 90.000000
_cell_angle_gamma 90.000000
_cell_volume 1325.774382
_symmetry_space_group_name_H-M "P 21 21 21"
_symmetry_group_IT_number 19
_symmetry_cell_setting 'orthorhombic'
loop_
_space_group_symop_operation_xyz
x,y,z
1/2-x,-y,1/2+z
1/2+x,1/2-y,-z
-x,1/2+y,1/2-z
loop_
_atom_site_type_symbol
_atom_site_label
_atom_site_fract_x
_atom_site_fract_y
_atom_site_fract_z
Si Si1 0.636641 0.016707 0.718910
Si Si2 0.854903 0.425634 0.873736
Si Si3 0.211365 0.236787 0.453911
Si Si4 0.987432 0.410936 0.967017
Si Si5 0.935212 0.481149 0.229324
Si Si6 0.733176 0.110853 0.916554
Si Si7 0.321218 0.947433 0.381528
Si Si8 0.054083 0.918934 0.991912
O O1 0.614585 0.739712 0.730331
O O2 0.679288 0.029633 0.603197
O O3 0.586601 0.235335 0.713540
O O4 0.679726 0.117963 0.822402
O O5 0.797087 0.237516 0.877331
O O6 0.847596 0.581204 0.751510
O O7 0.842410 0.576207 0.994477
O O8 0.925266 0.352755 0.893428
O O9 0.251090 0.324622 0.565087
O O10 0.258800 0.104093 0.369336
O O11 0.974098 0.420738 0.110528
O O12 0.018749 0.677414 0.943286
O O13 0.031348 0.180856 0.941178
O O14 0.958066 0.444335 0.365517
O O15 0.703011 0.221099 0.037791
O O16 0.374152 0.088202 0.456941
#
# Coordination Sequence:
#
# PCOD9315874 Si02
#       8
#     4   4   4   4   4   4   4   4
#     4  12  24  43  78 110 146 185 232 301 366 442
#     4  11  26  46  70 103 145 192 242 297 367 435
#     4  11  25  43  71 109 144 189 232 300 369 446
#     4  12  27  48  73 103 143 193 248 299 355 424
#     4  12  24  47  74 110 144 185 242 303 362 424
#     4  11  25  43  71 109 144 189 232 300 369 446
#     4  11  26  46  70 103 145 192 242 297 367 435
#     4  12  27  48  73 103 143 193 248 299 355 424
#
# _framework density 24.136835000000001
#
# number of rings (size 3 to 8) (size 9 to 14) (size 15 to 20)
#    0.000    0.500    3.750    3.750    8.750    1.000 
#    0.000    0.000    0.000    0.000    0.000    0.000 
#    0.000    0.000    0.000    0.000    0.000    0.000 
#
# Total GULP energy -178652.872317 kJ/mol
# GULP energy per Si atom -5582.902260 kJ/mol
# Density = 2.408190 g / cm^3
# Si number density = 24.136835 Si / 1000 Ang^3
#
#
#
# Elastic Constant Matrix: (Units=GPa)
#
#
# Indices 1 2 3 4 5 6 
#
# 1 88.2610 34.0545 14.4347 0.0000 0.0000 0.0000
# 2 34.0545 57.4690 16.5162 0.0000 0.0000 0.0000
# 3 14.4347 16.5162 57.6731 0.0000 0.0000 0.0000
# 4 0.0000 0.0000 0.0000 17.8937 0.0000 0.0000
# 5 0.0000 0.0000 0.0000 0.0000 34.0495 0.0000
# 6 0.0000 0.0000 0.0000 0.0000 0.0000 49.9175
#
#
#
# Elastic Compliance Matrix: (Units=1/GPa)
#
#
# Indices 1 2 3 4 5 6 
#
# 1 0.014777 -0.008383 -0.001298 0.000000 0.000000 0.000000
# 2 -0.008383 0.023717 -0.004694 0.000000 0.000000 0.000000
# 3 -0.001298 -0.004694 0.019008 0.000000 0.000000 0.000000
# 4 0.000000 0.000000 0.000000 0.055885 0.000000 0.000000
# 5 0.000000 0.000000 0.000000 0.000000 0.029369 0.000000
# 6 0.000000 0.000000 0.000000 0.000000 0.000000 0.020033
#
#
# Mechanical properties :
#
#
# Convention : Reuss Voigt Hill
#
# Bulk Modulus (GPa) = 34.77948 37.04601 35.91275
# Shear Modulus (GPa) = 24.86027 29.59865 27.22946
#
# Velocity S-wave (km/s) = 3.21280 3.50563 3.36241
# Velocity P-wave (km/s) = 5.31068 5.63628 5.47590
#
# Compressibility (1/GPa) = 0.02875259
#
# Stress axis : x y z
#
# Youngs Moduli (GPa) = 67.67305 42.16299 52.60915
#
# Poissons Ratio (x) = 0.35347 0.06827
# Poissons Ratio (y) = 0.56733 0.24694
# Poissons Ratio (z) = 0.08781 0.19791
#
# Static dielectric constant tensor:
#      x y z
#    x 1.949530 0.000000 0.000000 
#    y 0.000000 1.919490 0.000000 
#    z 0.000000 0.000000 1.953400 
# 
# From -- ./inp_files/5492.got.cif
#   From: 2010.05.17/outbox.cif.g08.bks.cpg/sg19_3_cif.got.tgz:5492.got - 2010.06.03 22:46:19.
