data_PCOD9315023
_publ_section_title
;
Structure prediction by ZEFSAII (Michael W. Deem and Ramdas Pophale) SiO2 
 PCOD9315023
Probable space group: P 21 21 21
;
_chemical_formula_sum "Si O2"
_cell_formula_units_Z 24
_cell_length_a 14.125346
_cell_length_b 8.129700
_cell_length_c 8.436365
_cell_angle_alpha 90.000000
_cell_angle_beta 90.000000
_cell_angle_gamma 90.000000
_cell_volume 968.788502
_symmetry_space_group_name_H-M "P 21 21 21"
_symmetry_group_IT_number 19
_symmetry_cell_setting 'orthorhombic'
loop_
_space_group_symop_operation_xyz
x,y,z
1/2-x,-y,1/2+z
1/2+x,1/2-y,-z
-x,1/2+y,1/2-z
loop_
_atom_site_type_symbol
_atom_site_label
_atom_site_fract_x
_atom_site_fract_y
_atom_site_fract_z
Si Si1 0.638647 0.934704 0.777813
Si Si2 0.312789 0.964921 0.798369
Si Si3 0.964727 0.730643 0.375810
Si Si4 0.867314 0.571758 0.853968
Si Si5 0.198864 0.628306 0.866578
Si Si6 0.982936 0.267924 0.763170
O O1 0.567323 0.808928 0.695855
O O2 0.579478 0.103484 0.804269
O O3 0.731417 0.980184 0.677243
O O4 0.669377 0.878617 0.951617
O O5 0.394274 0.917059 0.674933
O O6 0.255695 0.794623 0.828217
O O7 0.234253 0.087190 0.728774
O O8 0.352712 0.003566 0.971922
O O9 0.972324 0.750533 0.563532
O O10 0.930861 0.442764 0.755374
O O11 0.932467 0.733116 0.860120
O O12 0.102474 0.639482 0.766539
#
# Coordination Sequence:
#
# PCOD9315023 Si02
#       6
#     4   4   4   4   4   4
#     4  11  24  43  66  94 128 167 212 262 316 375
#     4  10  23  41  64  94 128 169 213 259 314 374
#     4  11  23  40  64  94 129 166 211 261 314 373
#     4  11  24  43  66  94 128 167 212 262 316 375
#     4  10  23  41  64  94 128 169 213 259 314 374
#     4  11  23  40  64  94 129 166 211 261 314 373
#
# _framework density 24.773206999999999
#
# number of rings (size 3 to 8) (size 9 to 14) (size 15 to 20)
#    0.000    1.333    0.000    5.000    0.000   10.667 
#    0.000    0.000    0.000    0.000    0.000    0.000 
#    0.000    0.000    0.000    0.000    0.000    0.000 
#
# Total GULP energy -134540.139833 kJ/mol
# GULP energy per Si atom -5605.839160 kJ/mol
# Density = 2.471682 g / cm^3
# Si number density = 24.773207 Si / 1000 Ang^3
#
#
#
# Elastic Constant Matrix: (Units=GPa)
#
#
# Indices 1 2 3 4 5 6 
#
# 1 104.9222 21.4650 18.3062 0.0000 0.0000 0.0000
# 2 21.4650 53.3874 8.0727 0.0000 0.0000 0.0000
# 3 18.3062 8.0727 54.1594 0.0000 0.0000 0.0000
# 4 0.0000 0.0000 0.0000 27.3117 0.0000 0.0000
# 5 0.0000 0.0000 0.0000 0.0000 54.1691 0.0000
# 6 0.0000 0.0000 0.0000 0.0000 0.0000 47.3642
#
#
#
# Elastic Compliance Matrix: (Units=1/GPa)
#
#
# Indices 1 2 3 4 5 6 
#
# 1 0.010869 -0.003902 -0.003092 0.000000 0.000000 0.000000
# 2 -0.003902 0.020564 -0.001746 0.000000 0.000000 0.000000
# 3 -0.003092 -0.001746 0.019769 0.000000 0.000000 0.000000
# 4 0.000000 0.000000 0.000000 0.036614 0.000000 0.000000
# 5 0.000000 0.000000 0.000000 0.000000 0.018461 0.000000
# 6 0.000000 0.000000 0.000000 0.000000 0.000000 0.021113
#
#
# Mechanical properties :
#
#
# Convention : Reuss Voigt Hill
#
# Bulk Modulus (GPa) = 29.65501 34.23964 31.94733
# Shear Modulus (GPa) = 32.02838 36.74401 34.38620
#
# Velocity S-wave (km/s) = 3.59954 3.85543 3.72968
# Velocity P-wave (km/s) = 5.41038 5.80262 5.60993
#
# Compressibility (1/GPa) = 0.03372111
#
# Stress axis : x y z
#
# Youngs Moduli (GPa) = 92.00748 48.62864 50.58320
#
# Poissons Ratio (x) = 0.18977 0.15640
# Poissons Ratio (y) = 0.35904 0.08833
# Poissons Ratio (z) = 0.28449 0.08491
#
# Static dielectric constant tensor:
#      x y z
#    x 1.964620 0.000000 0.000000 
#    y 0.000000 2.043520 0.000000 
#    z 0.000000 0.000000 1.878630 
# 
# From -- ./inp_files/2685.got.cif
#   From: 2010.05.17/outbox.cif.g08.bks.cpg/sg19_2_cif.got.tgz:2685.got - 2010.06.03 22:46:19.
