data_PCOD9315070
_publ_section_title
;
Structure prediction by ZEFSAII (Michael W. Deem and Ramdas Pophale) SiO2 
 PCOD9315070
Probable space group: P 21 21 21
;
_chemical_formula_sum "Si O2"
_cell_formula_units_Z 24
_cell_length_a 7.062193
_cell_length_b 8.202728
_cell_length_c 14.605049
_cell_angle_alpha 90.000000
_cell_angle_beta 90.000000
_cell_angle_gamma 90.000000
_cell_volume 846.059509
_symmetry_space_group_name_H-M "P 21 21 21"
_symmetry_group_IT_number 19
_symmetry_cell_setting 'orthorhombic'
loop_
_space_group_symop_operation_xyz
x,y,z
1/2-x,-y,1/2+z
1/2+x,1/2-y,-z
-x,1/2+y,1/2-z
loop_
_atom_site_type_symbol
_atom_site_label
_atom_site_fract_x
_atom_site_fract_y
_atom_site_fract_z
Si Si1 0.313174 0.632756 0.383727
Si Si2 0.372441 0.962509 0.458684
Si Si3 0.957638 0.057837 0.289665
Si Si4 0.398585 0.299016 0.385323
Si Si5 0.169870 0.886342 0.142408
Si Si6 0.668796 0.814212 0.331235
O O1 0.192166 0.613545 0.290936
O O2 0.313586 0.459802 0.432892
O O3 0.538920 0.659426 0.360953
O O4 0.260170 0.794133 0.440663
O O5 0.306928 0.139533 0.427750
O O6 0.401905 0.987170 0.565643
O O7 0.547438 0.942775 0.389821
O O8 0.958859 0.224360 0.346916
O O9 0.875656 0.896115 0.339724
O O10 0.142569 0.991286 0.236186
O O11 0.625982 0.317239 0.385371
O O12 0.357939 0.311591 0.277461
#
# Coordination Sequence:
#
# PCOD9315070 Si02
#       6
#     4   4   4   4   4   4
#     4   9  21  42  69  92 125 183 228 266 334 411
#     4  10  23  42  68  98 135 171 232 276 322 417
#     4  11  24  44  65  98 141 177 223 283 346 404
#     4  11  20  43  72  96 132 181 225 273 345 407
#     4  12  25  44  63 109 137 171 231 288 347 388
#     4   9  19  45  67  89 130 181 229 262 328 419
#
# _framework density 28.366799
#
# number of rings (size 3 to 8) (size 9 to 14) (size 15 to 20)
#    1.000    0.667    3.333    1.000    2.333    4.000 
#   12.000    0.000    0.000    0.000    0.000    0.000 
#    0.000    0.000    0.000    0.000    0.000    0.000 
#
# Total GULP energy -134035.637624 kJ/mol
# GULP energy per Si atom -5584.818234 kJ/mol
# Density = 2.830224 g / cm^3
# Si number density = 28.366799 Si / 1000 Ang^3
#
#
#
# Elastic Constant Matrix: (Units=GPa)
#
#
# Indices 1 2 3 4 5 6 
#
# 1 92.8839 18.2702 -0.4116 0.0000 0.0000 0.0000
# 2 18.2702 187.9540 25.9525 0.0000 0.0000 0.0000
# 3 -0.4116 25.9525 60.8270 0.0000 0.0000 0.0000
# 4 0.0000 0.0000 0.0000 37.7542 0.0000 0.0000
# 5 0.0000 0.0000 0.0000 0.0000 20.0625 0.0000
# 6 0.0000 0.0000 0.0000 0.0000 0.0000 14.2722
#
#
#
# Elastic Compliance Matrix: (Units=1/GPa)
#
#
# Indices 1 2 3 4 5 6 
#
# 1 0.010994 -0.001147 0.000564 0.000000 0.000000 0.000000
# 2 -0.001147 0.005773 -0.002471 0.000000 0.000000 0.000000
# 3 0.000564 -0.002471 0.017498 0.000000 0.000000 0.000000
# 4 0.000000 0.000000 0.000000 0.026487 0.000000 0.000000
# 5 0.000000 0.000000 0.000000 0.000000 0.049844 0.000000
# 6 0.000000 0.000000 0.000000 0.000000 0.000000 0.070066
#
#
# Mechanical properties :
#
#
# Convention : Reuss Voigt Hill
#
# Bulk Modulus (GPa) = 35.51433 47.69857 41.60645
# Shear Modulus (GPa) = 25.48989 34.27472 29.88230
#
# Velocity S-wave (km/s) = 3.00089 3.47979 3.24917
# Velocity P-wave (km/s) = 4.95520 5.74427 5.36426
#
# Compressibility (1/GPa) = 0.02815765
#
# Stress axis : x y z
#
# Youngs Moduli (GPa) = 90.95754 173.21789 57.14903
#
# Poissons Ratio (x) = 0.19860 -0.03221
# Poissons Ratio (y) = 0.10428 0.14121
# Poissons Ratio (z) = -0.05126 0.42800
#
# Static dielectric constant tensor:
#      x y z
#    x 2.207650 0.000000 0.000000 
#    y 0.000000 2.291050 0.000000 
#    z 0.000000 0.000000 2.189000 
# 
# From -- ./inp_files/5847.got.cif
#   From: 2010.05.17/outbox.cif.g08.bks.cpg/sg19_3_cif.got.tgz:5847.got - 2010.06.03 22:46:19.
