data_PCOD9315910
_publ_section_title
;
Structure prediction by ZEFSAII (Michael W. Deem and Ramdas Pophale) SiO2 
 PCOD9315910
Probable space group: P 21 21 21
;
_chemical_formula_sum "Si O2"
_cell_formula_units_Z 28
_cell_length_a 16.152117
_cell_length_b 9.773626
_cell_length_c 7.671110
_cell_angle_alpha 90.000000
_cell_angle_beta 90.000000
_cell_angle_gamma 90.000000
_cell_volume 1210.997867
_symmetry_space_group_name_H-M "P 21 21 21"
_symmetry_group_IT_number 19
_symmetry_cell_setting 'orthorhombic'
loop_
_space_group_symop_operation_xyz
x,y,z
1/2-x,-y,1/2+z
1/2+x,1/2-y,-z
-x,1/2+y,1/2-z
loop_
_atom_site_type_symbol
_atom_site_label
_atom_site_fract_x
_atom_site_fract_y
_atom_site_fract_z
Si Si1 0.244020 0.649543 0.292641
Si Si2 0.437282 0.997650 0.455301
Si Si3 0.618994 0.503792 0.425608
Si Si4 0.225141 0.345493 0.384645
Si Si5 0.939688 0.215899 0.069539
Si Si6 0.456085 0.732521 0.911075
Si Si7 0.213522 0.139002 0.072860
O O1 0.264361 0.489387 0.323267
O O2 0.151191 0.673704 0.364552
O O3 0.297607 0.748536 0.418168
O O4 0.251204 0.681938 0.086606
O O5 0.514363 0.893370 0.448298
O O6 0.370473 0.946719 0.598593
O O7 0.385716 0.995168 0.280531
O O8 0.476601 0.145087 0.485114
O O9 0.567753 0.636164 0.483781
O O10 0.579253 0.366969 0.498858
O O11 0.713159 0.535876 0.478203
O O12 0.125239 0.359182 0.378235
O O13 0.241253 0.226162 0.243097
O O14 0.998417 0.229021 0.235096
#
# Coordination Sequence:
#
# PCOD9315910 Si02
#       7
#     4   4   4   4   4   4   4
#     4  11  25  47  75 110 153 201 257 313 380 467
#     4  12  25  48  76 107 151 198 254 327 380 457
#     4  11  28  47  74 112 148 201 257 316 387 469
#     4  12  24  46  75 109 150 204 255 313 383 459
#     4  11  25  48  72 110 149 194 256 314 392 455
#     4  12  26  46  74 104 149 194 246 315 386 450
#     4  11  27  48  76 112 152 204 261 318 382 465
#
# _framework density 23.121427000000001
#
# number of rings (size 3 to 8) (size 9 to 14) (size 15 to 20)
#    0.000    0.571    4.286    2.571    4.000    1.143 
#    2.571    0.000    0.000    0.000    0.000    0.000 
#    0.000    0.000    0.000    0.000    0.000    0.000 
#
# Total GULP energy -156756.782596 kJ/mol
# GULP energy per Si atom -5598.456521 kJ/mol
# Density = 2.306880 g / cm^3
# Si number density = 23.121427 Si / 1000 Ang^3
#
#
#
# Elastic Constant Matrix: (Units=GPa)
#
#
# Indices 1 2 3 4 5 6 
#
# 1 66.0061 25.5189 -3.0939 0.0000 0.0000 0.0000
# 2 25.5189 143.7815 43.9827 0.0000 0.0000 0.0000
# 3 -3.0939 43.9827 85.1012 0.0000 0.0000 0.0000
# 4 0.0000 0.0000 0.0000 56.2929 0.0000 0.0000
# 5 0.0000 0.0000 0.0000 0.0000 121.0495 0.0000
# 6 0.0000 0.0000 0.0000 0.0000 0.0000 5.0655
#
#
#
# Elastic Compliance Matrix: (Units=1/GPa)
#
#
# Indices 1 2 3 4 5 6 
#
# 1 0.016717 -0.003745 0.002543 0.000000 0.000000 0.000000
# 2 -0.003745 0.009100 -0.004839 0.000000 0.000000 0.000000
# 3 0.002543 -0.004839 0.014344 0.000000 0.000000 0.000000
# 4 0.000000 0.000000 0.000000 0.017764 0.000000 0.000000
# 5 0.000000 0.000000 0.000000 0.000000 0.008261 0.000000
# 6 0.000000 0.000000 0.000000 0.000000 0.000000 0.197412
#
#
# Mechanical properties :
#
#
# Convention : Reuss Voigt Hill
#
# Bulk Modulus (GPa) = 35.61327 47.52270 41.56799
# Shear Modulus (GPa) = 17.54134 51.71366 34.62750
#
# Velocity S-wave (km/s) = 2.75737 4.73441 3.87413
# Velocity P-wave (km/s) = 5.05703 7.10524 6.16677
#
# Compressibility (1/GPa) = 0.02807942
#
# Stress axis : x y z
#
# Youngs Moduli (GPa) = 59.81860 109.88989 69.71432
#
# Poissons Ratio (x) = 0.41154 -0.17730
# Poissons Ratio (y) = 0.22402 0.33737
# Poissons Ratio (z) = -0.15214 0.53179
#
# Static dielectric constant tensor:
#      x y z
#    x 1.826140 0.000000 0.000000 
#    y 0.000000 1.796120 0.000000 
#    z 0.000000 0.000000 1.927510 
# 
# From -- ./inp_files/4181.got.cif
#   From: 2010.05.17/outbox.cif.g08.bks.cpg/sg19_3_cif.got.tgz:4181.got - 2010.06.03 22:46:19.
