data_PCOD9315614
_publ_section_title
;
Structure prediction by ZEFSAII (Michael W. Deem and Ramdas Pophale) SiO2 
 PCOD9315614
Probable space group: P 21 21 21
;
_chemical_formula_sum "Si O2"
_cell_formula_units_Z 28
_cell_length_a 21.969732
_cell_length_b 9.214811
_cell_length_c 5.386028
_cell_angle_alpha 90.000000
_cell_angle_beta 90.000000
_cell_angle_gamma 90.000000
_cell_volume 1090.384823
_symmetry_space_group_name_H-M "P 21 21 21"
_symmetry_group_IT_number 19
_symmetry_cell_setting 'orthorhombic'
loop_
_space_group_symop_operation_xyz
x,y,z
1/2-x,-y,1/2+z
1/2+x,1/2-y,-z
-x,1/2+y,1/2-z
loop_
_atom_site_type_symbol
_atom_site_label
_atom_site_fract_x
_atom_site_fract_y
_atom_site_fract_z
Si Si1 0.441005 0.243350 0.597392
Si Si2 0.083642 0.209456 0.847115
Si Si3 0.623211 0.978365 0.218884
Si Si4 0.681635 0.662930 0.657084
Si Si5 0.845668 0.656296 0.162337
Si Si6 0.981080 0.041029 0.038908
Si Si7 0.229885 0.686410 0.842851
O O1 0.400073 0.327962 0.399298
O O2 0.390981 0.184478 0.796537
O O3 0.483155 0.108745 0.528147
O O4 0.483207 0.368202 0.711424
O O5 0.092013 0.380318 0.897670
O O6 0.116198 0.170968 0.590024
O O7 0.015596 0.148336 0.848964
O O8 0.116327 0.139391 0.085348
O O9 0.590369 0.981287 0.485243
O O10 0.695552 0.968512 0.184205
O O11 0.693455 0.491155 0.648490
O O12 0.703281 0.730394 0.398690
O O13 0.713754 0.739748 0.892300
O O14 0.801961 0.796000 0.179671
#
# Coordination Sequence:
#
# PCOD9315614 Si02
#       7
#     4   4   4   4   4   4   4
#     4  11  25  43  74 104 147 191 248 297 370 444
#     4  12  29  44  73 104 149 187 240 300 369 437
#     4  11  27  44  70 103 144 197 241 297 373 433
#     4  11  22  44  73 108 141 190 245 299 366 432
#     4  12  26  46  71 108 145 191 244 303 365 430
#     4  12  25  46  72 107 145 196 238 310 360 451
#     4  11  24  45  75 104 145 192 246 304 361 437
#
# _framework density 25.679006999999999
#
# number of rings (size 3 to 8) (size 9 to 14) (size 15 to 20)
#    0.000    0.571    2.857    4.286    8.000    2.286 
#    0.000    0.000    0.000    0.000    0.000    0.000 
#    0.000    0.000    0.000    0.000    0.000    0.000 
#
# Total GULP energy -156712.963611 kJ/mol
# GULP energy per Si atom -5596.891558 kJ/mol
# Density = 2.562056 g / cm^3
# Si number density = 25.679007 Si / 1000 Ang^3
#
#
#
# Elastic Constant Matrix: (Units=GPa)
#
#
# Indices 1 2 3 4 5 6 
#
# 1 76.4931 1.5339 37.7592 0.0000 0.0000 0.0000
# 2 1.5339 107.6453 26.9552 0.0000 0.0000 0.0000
# 3 37.7592 26.9552 147.6480 0.0000 0.0000 0.0000
# 4 0.0000 0.0000 0.0000 36.4118 0.0000 0.0000
# 5 0.0000 0.0000 0.0000 0.0000 34.7460 0.0000
# 6 0.0000 0.0000 0.0000 0.0000 0.0000 32.2540
#
#
#
# Elastic Compliance Matrix: (Units=1/GPa)
#
#
# Indices 1 2 3 4 5 6 
#
# 1 0.015025 0.000784 -0.003986 0.000000 0.000000 0.000000
# 2 0.000784 0.009776 -0.001985 0.000000 0.000000 0.000000
# 3 -0.003986 -0.001985 0.008155 0.000000 0.000000 0.000000
# 4 0.000000 0.000000 0.000000 0.027464 0.000000 0.000000
# 5 0.000000 0.000000 0.000000 0.000000 0.028780 0.000000
# 6 0.000000 0.000000 0.000000 0.000000 0.000000 0.031004
#
#
# Mechanical properties :
#
#
# Convention : Reuss Voigt Hill
#
# Bulk Modulus (GPa) = 44.28419 51.58700 47.93559
# Shear Modulus (GPa) = 36.20474 38.38489 37.29482
#
# Velocity S-wave (km/s) = 3.75893 3.87045 3.81510
# Velocity P-wave (km/s) = 6.01017 6.33298 6.17369
#
# Compressibility (1/GPa) = 0.02258142
#
# Stress axis : x y z
#
# Youngs Moduli (GPa) = 66.55698 102.29444 122.63123
#
# Poissons Ratio (x) = -0.08019 0.48875
# Poissons Ratio (y) = -0.05217 0.24344
# Poissons Ratio (z) = 0.26526 0.20307
#
# Static dielectric constant tensor:
#      x y z
#    x 2.096870 0.000000 0.000000 
#    y 0.000000 2.040360 0.000000 
#    z 0.000000 0.000000 2.029050 
# 
# From -- ./inp_files/2126.got.cif
#   From: 2010.05.17/outbox.cif.g08.bks.cpg/sg19_2_cif.got.tgz:2126.got - 2010.06.03 22:46:19.
