data_PCOD9315254
_publ_section_title
;
Structure prediction by ZEFSAII (Michael W. Deem and Ramdas Pophale) SiO2 
 PCOD9315254
Probable space group: P 21 21 21
;
_chemical_formula_sum "Si O2"
_cell_formula_units_Z 32
_cell_length_a 10.772998
_cell_length_b 16.381883
_cell_length_c 8.500178
_cell_angle_alpha 90.000000
_cell_angle_beta 90.000000
_cell_angle_gamma 90.000000
_cell_volume 1500.128353
_symmetry_space_group_name_H-M "P 21 21 21"
_symmetry_group_IT_number 19
_symmetry_cell_setting 'orthorhombic'
loop_
_space_group_symop_operation_xyz
x,y,z
1/2-x,-y,1/2+z
1/2+x,1/2-y,-z
-x,1/2+y,1/2-z
loop_
_atom_site_type_symbol
_atom_site_label
_atom_site_fract_x
_atom_site_fract_y
_atom_site_fract_z
Si Si1 0.322680 0.943817 0.729719
Si Si2 0.209321 0.199764 0.647775
Si Si3 0.782769 0.125661 0.329008
Si Si4 0.873155 0.178739 0.989656
Si Si5 0.645233 0.291838 0.997104
Si Si6 0.919267 0.005526 0.826296
Si Si7 0.129549 0.916718 0.994443
Si Si8 0.987468 0.574805 0.984670
O O1 0.357605 0.866787 0.622940
O O2 0.427902 0.964254 0.858994
O O3 0.306432 0.019596 0.614450
O O4 0.203142 0.920818 0.831006
O O5 0.197587 0.296564 0.630397
O O6 0.340759 0.169634 0.575473
O O7 0.102801 0.149524 0.559963
O O8 0.196186 0.180026 0.832474
O O9 0.853377 0.153301 0.171034
O O10 0.704288 0.045217 0.294171
O O11 0.878540 0.107931 0.466864
O O12 0.000277 0.231700 0.977783
O O13 0.746277 0.225177 0.942428
O O14 0.894489 0.096176 0.891433
O O15 0.995129 0.016924 0.664824
O O16 0.995741 0.953059 0.954963
#
# Coordination Sequence:
#
# PCOD9315254 Si02
#       8
#     4   4   4   4   4   4   4   4
#     4  11  21  39  69  98 132 181 225 292 341 420
#     4  10  24  41  67  98 136 182 235 294 343 419
#     4  11  25  43  66  99 139 181 234 285 360 420
#     4  11  24  47  71 102 141 189 234 292 355 426
#     4  11  22  46  71 100 144 183 240 292 354 429
#     4  12  24  43  70  99 143 186 231 296 356 430
#     4  11  22  39  67 100 135 176 234 282 352 416
#     4  11  22  42  67  96 140 176 231 289 343 422
#
# _framework density 21.331506999999998
#
# number of rings (size 3 to 8) (size 9 to 14) (size 15 to 20)
#    0.000    1.000    3.750    3.000    1.750    4.000 
#    0.000   10.000    0.000    0.000    0.000    0.000 
#    0.000    0.000    0.000    0.000    0.000    0.000 
#
# Total GULP energy -178755.477574 kJ/mol
# GULP energy per Si atom -5586.108674 kJ/mol
# Density = 2.128296 g / cm^3
# Si number density = 21.331507 Si / 1000 Ang^3
#
#
#
# Elastic Constant Matrix: (Units=GPa)
#
#
# Indices 1 2 3 4 5 6 
#
# 1 98.8371 38.3710 14.9944 0.0000 0.0000 0.0000
# 2 38.3710 68.3178 17.3254 0.0000 0.0000 0.0000
# 3 14.9944 17.3254 67.8006 0.0000 0.0000 0.0000
# 4 0.0000 0.0000 0.0000 18.2926 0.0000 0.0000
# 5 0.0000 0.0000 0.0000 0.0000 34.5496 0.0000
# 6 0.0000 0.0000 0.0000 0.0000 0.0000 35.4851
#
#
#
# Elastic Compliance Matrix: (Units=1/GPa)
#
#
# Indices 1 2 3 4 5 6 
#
# 1 0.013013 -0.007035 -0.001080 0.000000 0.000000 0.000000
# 2 -0.007035 0.019455 -0.003416 0.000000 0.000000 0.000000
# 3 -0.001080 -0.003416 0.015861 0.000000 0.000000 0.000000
# 4 0.000000 0.000000 0.000000 0.054667 0.000000 0.000000
# 5 0.000000 0.000000 0.000000 0.000000 0.028944 0.000000
# 6 0.000000 0.000000 0.000000 0.000000 0.000000 0.028181
#
#
# Mechanical properties :
#
#
# Convention : Reuss Voigt Hill
#
# Bulk Modulus (GPa) = 39.57697 41.81523 40.69610
# Shear Modulus (GPa) = 26.09564 28.61645 27.35605
#
# Velocity S-wave (km/s) = 3.50142 3.66664 3.58498
# Velocity P-wave (km/s) = 5.91102 6.12950 6.02125
#
# Compressibility (1/GPa) = 0.02526722
#
# Stress axis : x y z
#
# Youngs Moduli (GPa) = 76.84893 51.40149 63.04839
#
# Poissons Ratio (x) = 0.36159 0.06810
# Poissons Ratio (y) = 0.54060 0.21535
# Poissons Ratio (z) = 0.08301 0.17557
#
# Static dielectric constant tensor:
#      x y z
#    x 1.833610 0.000000 0.000000 
#    y 0.000000 1.749640 0.000000 
#    z 0.000000 0.000000 1.756750 
# 
# From -- ./inp_files/3599.got.cif
#   From: 2010.05.17/outbox.cif.g08.bks.cpg/sg19_2_cif.got.tgz:3599.got - 2010.06.03 22:46:19.
