data_PCOD9315728
_publ_section_title
;
Structure prediction by ZEFSAII (Michael W. Deem and Ramdas Pophale) SiO2 
 PCOD9315728
Probable space group: P 21 21 21
;
_chemical_formula_sum "Si O2"
_cell_formula_units_Z 24
_cell_length_a 12.313454
_cell_length_b 5.126438
_cell_length_c 16.231512
_cell_angle_alpha 90.000000
_cell_angle_beta 90.000000
_cell_angle_gamma 90.000000
_cell_volume 1024.600536
_symmetry_space_group_name_H-M "P 21 21 21"
_symmetry_group_IT_number 19
_symmetry_cell_setting 'orthorhombic'
loop_
_space_group_symop_operation_xyz
x,y,z
1/2-x,-y,1/2+z
1/2+x,1/2-y,-z
-x,1/2+y,1/2-z
loop_
_atom_site_type_symbol
_atom_site_label
_atom_site_fract_x
_atom_site_fract_y
_atom_site_fract_z
Si Si1 0.947255 0.909074 0.869082
Si Si2 0.685136 0.372179 0.486943
Si Si3 0.752770 0.306983 0.841525
Si Si4 0.516472 0.278951 0.800943
Si Si5 0.857999 0.644810 0.708401
Si Si6 0.812271 0.114011 0.097670
O O1 0.929279 0.713668 0.944817
O O2 0.931111 0.763866 0.781683
O O3 0.847562 0.114382 0.872323
O O4 0.062380 0.047567 0.863148
O O5 0.752756 0.452438 0.405874
O O6 0.685117 0.623062 0.544248
O O7 0.720272 0.128654 0.541587
O O8 0.633150 0.193340 0.835304
O O9 0.792241 0.416737 0.753825
O O10 0.535425 0.517184 0.737138
O O11 0.432727 0.405699 0.865178
O O12 0.772695 0.846250 0.671384
#
# Coordination Sequence:
#
# PCOD9315728 Si02
#       6
#     4   4   4   4   4   4
#     4  11  23  47  72 109 141 188 231 305 353 421
#     4  11  27  49  66 105 154 181 238 284 370 418
#     4  11  24  49  71 106 141 189 233 297 356 417
#     4  12  26  46  76 105 140 185 242 298 343 420
#     4  11  24  42  80 103 140 181 251 288 350 417
#     4  12  26  49  71 108 142 192 237 292 348 435
#
# _framework density 23.423760999999999
#
# number of rings (size 3 to 8) (size 9 to 14) (size 15 to 20)
#    0.000    0.667    5.000    2.000    4.667    1.333 
#    6.000    0.000    0.000    0.000    0.000    0.000 
#    0.000    0.000    0.000    0.000    0.000    0.000 
#
# Total GULP energy -134308.335320 kJ/mol
# GULP energy per Si atom -5596.180638 kJ/mol
# Density = 2.337045 g / cm^3
# Si number density = 23.423761 Si / 1000 Ang^3
#
#
#
# Elastic Constant Matrix: (Units=GPa)
#
#
# Indices 1 2 3 4 5 6 
#
# 1 96.9034 0.7387 -4.4783 0.0000 0.0000 0.0000
# 2 0.7387 113.5641 22.4151 0.0000 0.0000 0.0000
# 3 -4.4783 22.4151 51.2694 0.0000 0.0000 0.0000
# 4 0.0000 0.0000 0.0000 39.3435 0.0000 0.0000
# 5 0.0000 0.0000 0.0000 0.0000 9.9181 0.0000
# 6 0.0000 0.0000 0.0000 0.0000 0.0000 16.2938
#
#
#
# Elastic Compliance Matrix: (Units=1/GPa)
#
#
# Indices 1 2 3 4 5 6 
#
# 1 0.010369 -0.000269 0.001024 0.000000 0.000000 0.000000
# 2 -0.000269 0.009644 -0.004240 0.000000 0.000000 0.000000
# 3 0.001024 -0.004240 0.021448 0.000000 0.000000 0.000000
# 4 0.000000 0.000000 0.000000 0.025417 0.000000 0.000000
# 5 0.000000 0.000000 0.000000 0.000000 0.100826 0.000000
# 6 0.000000 0.000000 0.000000 0.000000 0.000000 0.061373
#
#
# Mechanical properties :
#
#
# Convention : Reuss Voigt Hill
#
# Bulk Modulus (GPa) = 28.99458 33.23197 31.11328
# Shear Modulus (GPa) = 20.19830 29.31516 24.75673
#
# Velocity S-wave (km/s) = 2.93968 3.54151 3.25454
# Velocity P-wave (km/s) = 4.89157 5.56248 5.23778
#
# Compressibility (1/GPa) = 0.03448920
#
# Stress axis : x y z
#
# Youngs Moduli (GPa) = 96.44212 103.68885 46.62445
#
# Poissons Ratio (x) = 0.02794 -0.04772
# Poissons Ratio (y) = 0.02599 0.19769
# Poissons Ratio (z) = -0.09871 0.43964
#
# Static dielectric constant tensor:
#      x y z
#    x 1.865980 0.000000 0.000000 
#    y 0.000000 1.911450 0.000000 
#    z 0.000000 0.000000 1.919500 
# 
# From -- ./inp_files/1001.got.cif
#   From: 2010.05.17/outbox.cif.g08.bks.cpg/sg19_1_cif.got.tgz:1001.got - 2010.06.03 22:46:19.
