data_PCOD9315524
_publ_section_title
;
Structure prediction by ZEFSAII (Michael W. Deem and Ramdas Pophale) SiO2 
 PCOD9315524
Probable space group: P 21 21 21
;
_chemical_formula_sum "Si O2"
_cell_formula_units_Z 32
_cell_length_a 7.829285
_cell_length_b 20.304541
_cell_length_c 9.293848
_cell_angle_alpha 90.000000
_cell_angle_beta 90.000000
_cell_angle_gamma 90.000000
_cell_volume 1477.443372
_symmetry_space_group_name_H-M "P 21 21 21"
_symmetry_group_IT_number 19
_symmetry_cell_setting 'orthorhombic'
loop_
_space_group_symop_operation_xyz
x,y,z
1/2-x,-y,1/2+z
1/2+x,1/2-y,-z
-x,1/2+y,1/2-z
loop_
_atom_site_type_symbol
_atom_site_label
_atom_site_fract_x
_atom_site_fract_y
_atom_site_fract_z
Si Si1 0.446195 0.212365 0.681422
Si Si2 0.950132 0.574923 0.943906
Si Si3 0.943843 0.430161 0.936814
Si Si4 0.950933 0.291843 0.837248
Si Si5 0.084511 0.929177 0.219066
Si Si6 0.444641 0.782682 0.083894
Si Si7 0.942288 0.703579 0.429329
Si Si8 0.573748 0.428168 0.788980
O O1 0.509239 0.137500 0.674111
O O2 0.250762 0.214456 0.632513
O O3 0.548253 0.262108 0.581513
O O4 0.461197 0.240056 0.840924
O O5 0.029446 0.502253 0.916636
O O6 0.766658 0.572109 0.862906
O O7 0.027578 0.645013 0.895606
O O8 0.929053 0.581712 0.116998
O O9 0.030761 0.361629 0.887511
O O10 0.770225 0.431454 0.842690
O O11 0.895620 0.426044 0.106782
O O12 0.755035 0.293141 0.885336
O O13 0.967102 0.276832 0.669597
O O14 0.034584 0.226936 0.908588
O O15 0.999833 0.999080 0.182734
O O16 0.005524 0.632051 0.378521
#
# Coordination Sequence:
#
# PCOD9315524 Si02
#       8
#     4   4   4   4   4   4   4   4
#     4  11  21  38  58  84 114 147 184 234 283 335
#     4   9  18  33  54  81 110 144 190 238 277 325
#     4   9  18  33  54  81 110 144 190 238 277 325
#     4  11  23  36  58  85 114 150 188 233 284 335
#     4   9  18  32  54  81 110 146 190 237 277 324
#     4  11  23  36  58  85 114 150 188 233 284 335
#     4  11  21  38  58  84 114 147 184 234 283 335
#     4   9  18  32  54  81 110 146 190 237 277 324
#
# _framework density 21.659034999999999
#
# number of rings (size 3 to 8) (size 9 to 14) (size 15 to 20)
#    0.000    2.000    2.500    1.500   10.500    0.000 
#    0.000    0.000    0.000    9.000    0.000    0.000 
#    0.000    0.000    0.000    0.000    0.000    0.000 
#
# Total GULP energy -178339.216634 kJ/mol
# GULP energy per Si atom -5573.100520 kJ/mol
# Density = 2.160974 g / cm^3
# Si number density = 21.659035 Si / 1000 Ang^3
#
#
#
# Elastic Constant Matrix: (Units=GPa)
#
#
# Indices 1 2 3 4 5 6 
#
# 1 30.3717 7.2223 -0.0179 0.0000 0.0000 0.0000
# 2 7.2223 202.7489 23.1964 0.0000 0.0000 0.0000
# 3 -0.0179 23.1964 48.5121 0.0000 0.0000 0.0000
# 4 0.0000 0.0000 0.0000 34.1374 0.0000 0.0000
# 5 0.0000 0.0000 0.0000 0.0000 28.3701 0.0000
# 6 0.0000 0.0000 0.0000 0.0000 0.0000 13.3630
#
#
#
# Elastic Compliance Matrix: (Units=1/GPa)
#
#
# Indices 1 2 3 4 5 6 
#
# 1 0.033224 -0.001253 0.000612 0.000000 0.000000 0.000000
# 2 -0.001253 0.005265 -0.002518 0.000000 0.000000 0.000000
# 3 0.000612 -0.002518 0.021818 0.000000 0.000000 0.000000
# 4 0.000000 0.000000 0.000000 0.029293 0.000000 0.000000
# 5 0.000000 0.000000 0.000000 0.000000 0.035248 0.000000
# 6 0.000000 0.000000 0.000000 0.000000 0.000000 0.074833
#
#
# Mechanical properties :
#
#
# Convention : Reuss Voigt Hill
#
# Bulk Modulus (GPa) = 18.52306 38.04827 28.28567
# Shear Modulus (GPa) = 22.32177 31.92291 27.12234
#
# Velocity S-wave (km/s) = 3.21378 3.84328 3.54254
# Velocity P-wave (km/s) = 4.72671 6.10733 5.46083
#
# Compressibility (1/GPa) = 0.05398676
#
# Stress axis : x y z
#
# Youngs Moduli (GPa) = 30.09890 189.93589 45.83453
#
# Poissons Ratio (x) = 0.23808 -0.02803
# Poissons Ratio (y) = 0.03773 0.11541
# Poissons Ratio (z) = -0.01841 0.47825
#
# Static dielectric constant tensor:
#      x y z
#    x 1.788290 0.000000 0.000000 
#    y 0.000000 1.882090 0.000000 
#    z 0.000000 0.000000 1.737660 
# 
# From -- ./inp_files/3141.got.cif
#   From: 2010.05.17/outbox.cif.g08.bks.cpg/sg19_2_cif.got.tgz:3141.got - 2010.06.03 22:46:19.
