data_PCOD9315580
_publ_section_title
;
Structure prediction by ZEFSAII (Michael W. Deem and Ramdas Pophale) SiO2 
 PCOD9315580
Probable space group: P 21 21 21
;
_chemical_formula_sum "Si O2"
_cell_formula_units_Z 32
_cell_length_a 9.053988
_cell_length_b 18.241033
_cell_length_c 8.218077
_cell_angle_alpha 90.000000
_cell_angle_beta 90.000000
_cell_angle_gamma 90.000000
_cell_volume 1357.249060
_symmetry_space_group_name_H-M "P 21 21 21"
_symmetry_group_IT_number 19
_symmetry_cell_setting 'orthorhombic'
loop_
_space_group_symop_operation_xyz
x,y,z
1/2-x,-y,1/2+z
1/2+x,1/2-y,-z
-x,1/2+y,1/2-z
loop_
_atom_site_type_symbol
_atom_site_label
_atom_site_fract_x
_atom_site_fract_y
_atom_site_fract_z
Si Si1 0.130696 0.215061 0.833388
Si Si2 0.446455 0.550003 0.538511
Si Si3 0.161559 0.726508 0.820637
Si Si4 0.223511 0.864029 0.603602
Si Si5 0.191290 0.833834 0.058710
Si Si6 0.263613 0.619559 0.253284
Si Si7 0.387125 0.603734 0.895818
Si Si8 0.438295 0.903195 0.845434
O O1 0.258039 0.171603 0.741099
O O2 0.165232 0.300192 0.792996
O O3 0.974567 0.187704 0.765094
O O4 0.157703 0.188282 0.013723
O O5 0.586889 0.601402 0.492699
O O6 0.324751 0.568630 0.400501
O O7 0.389099 0.558867 0.725713
O O8 0.510981 0.468502 0.537930
O O9 0.159216 0.803821 0.726908
O O10 0.307838 0.678624 0.832022
O O11 0.131136 0.754602 0.002131
O O12 0.318611 0.923211 0.704882
O O13 0.056932 0.888934 0.049414
O O14 0.340208 0.849698 0.957720
O O15 0.086475 0.624182 0.242901
O O16 0.309709 0.590561 0.071915
#
# Coordination Sequence:
#
# PCOD9315580 Si02
#       8
#     4   4   4   4   4   4   4   4
#     4  12  23  40  72 109 148 181 243 316 389 451
#     4  12  28  52  72 105 151 209 259 313 368 462
#     4  11  22  41  68 110 148 187 240 312 398 452
#     4  11  26  44  72 107 143 199 250 314 383 456
#     4  11  22  44  70 106 142 194 240 304 386 455
#     4  12  26  49  76 111 151 195 254 323 382 463
#     4  12  25  45  77 109 153 194 248 315 387 453
#     4  11  30  49  73 107 152 205 260 309 381 456
#
# _framework density 23.577102
#
# number of rings (size 3 to 8) (size 9 to 14) (size 15 to 20)
#    0.000    0.500    5.000    2.250   10.500    0.000 
#    2.250    0.000    0.000    0.000    0.000    0.000 
#    0.000    0.000    0.000    0.000    0.000    0.000 
#
# Total GULP energy -178336.390820 kJ/mol
# GULP energy per Si atom -5573.012213 kJ/mol
# Density = 2.352344 g / cm^3
# Si number density = 23.577102 Si / 1000 Ang^3
#
#
#
# Elastic Constant Matrix: (Units=GPa)
#
#
# Indices 1 2 3 4 5 6 
#
# 1 138.8581 22.6605 51.8556 0.0000 0.0000 0.0000
# 2 22.6605 31.3326 18.0839 0.0000 0.0000 0.0000
# 3 51.8556 18.0839 75.1265 0.0000 0.0000 0.0000
# 4 0.0000 0.0000 0.0000 37.8940 0.0000 0.0000
# 5 0.0000 0.0000 0.0000 0.0000 19.3809 0.0000
# 6 0.0000 0.0000 0.0000 0.0000 0.0000 17.3383
#
#
#
# Elastic Compliance Matrix: (Units=1/GPa)
#
#
# Indices 1 2 3 4 5 6 
#
# 1 0.010078 -0.003802 -0.006041 0.000000 0.000000 0.000000
# 2 -0.003802 0.038499 -0.006643 0.000000 0.000000 0.000000
# 3 -0.006041 -0.006643 0.019080 0.000000 0.000000 0.000000
# 4 0.000000 0.000000 0.000000 0.026389 0.000000 0.000000
# 5 0.000000 0.000000 0.000000 0.000000 0.051597 0.000000
# 6 0.000000 0.000000 0.000000 0.000000 0.000000 0.057676
#
#
# Mechanical properties :
#
#
# Convention : Reuss Voigt Hill
#
# Bulk Modulus (GPa) = 28.83092 47.83524 38.33308
# Shear Modulus (GPa) = 20.17320 25.10379 22.63850
#
# Velocity S-wave (km/s) = 2.92828 3.26660 3.10205
# Velocity P-wave (km/s) = 4.86704 5.87881 5.39669
#
# Compressibility (1/GPa) = 0.03468498
#
# Stress axis : x y z
#
# Youngs Moduli (GPa) = 99.22537 25.97445 52.41151
#
# Poissons Ratio (x) = 0.09875 0.31662
# Poissons Ratio (y) = 0.37726 0.34817
# Poissons Ratio (z) = 0.59943 0.17255
#
# Static dielectric constant tensor:
#      x y z
#    x 1.909520 0.000000 0.000000 
#    y 0.000000 1.933580 0.000000 
#    z 0.000000 0.000000 1.993280 
# 
# From -- ./inp_files/3130.got.cif
#   From: 2010.05.17/outbox.cif.g08.bks.cpg/sg19_2_cif.got.tgz:3130.got - 2010.06.03 22:46:19.
