data_PCOD9315645
_publ_section_title
;
Structure prediction by ZEFSAII (Michael W. Deem and Ramdas Pophale) SiO2 
 PCOD9315645
Probable space group: P 21 21 21
;
_chemical_formula_sum "Si O2"
_cell_formula_units_Z 32
_cell_length_a 21.535980
_cell_length_b 5.127499
_cell_length_c 12.147798
_cell_angle_alpha 90.000000
_cell_angle_beta 90.000000
_cell_angle_gamma 90.000000
_cell_volume 1341.429291
_symmetry_space_group_name_H-M "P 21 21 21"
_symmetry_group_IT_number 19
_symmetry_cell_setting 'orthorhombic'
loop_
_space_group_symop_operation_xyz
x,y,z
1/2-x,-y,1/2+z
1/2+x,1/2-y,-z
-x,1/2+y,1/2-z
loop_
_atom_site_type_symbol
_atom_site_label
_atom_site_fract_x
_atom_site_fract_y
_atom_site_fract_z
Si Si1 0.364289 0.250790 0.136738
Si Si2 0.782558 0.735620 0.889540
Si Si3 0.171793 0.052707 0.204134
Si Si4 0.756700 0.885158 0.124923
Si Si5 0.390139 0.368208 0.369369
Si Si6 0.917384 0.644165 0.490859
Si Si7 0.870787 0.220296 0.109541
Si Si8 0.984324 0.944993 0.183095
O O1 0.315029 0.487484 0.126668
O O2 0.406542 0.327449 0.240618
O O3 0.328506 0.981603 0.159280
O O4 0.391780 0.214145 0.014192
O O5 0.715011 0.682274 0.840190
O O6 0.773524 0.705273 0.020334
O O7 0.125459 0.932531 0.294530
O O8 0.216990 0.247327 0.267373
O O9 0.136136 0.179749 0.101977
O O10 0.683704 0.934671 0.128154
O O11 0.798593 0.139487 0.106363
O O12 0.424084 0.597238 0.436052
O O13 0.398839 0.095693 0.431340
O O14 0.976046 0.551403 0.419582
O O15 0.912614 0.978907 0.149494
O O16 0.996155 0.157005 0.280232
#
# Coordination Sequence:
#
# PCOD9315645 Si02
#       8
#     4   4   4   4   4   4   4   4
#     4  11  24  43  63  96 138 180 223 274 344 418
#     4  11  23  36  61  98 139 175 218 273 343 428
#     4  12  23  40  67 104 134 185 228 293 351 422
#     4  11  24  38  68 103 145 180 228 286 363 429
#     4  12  26  44  66 100 145 189 224 284 353 442
#     4  12  28  44  70 102 141 186 240 289 358 418
#     4  11  26  43  71 104 134 184 238 300 351 417
#     4  12  26  50  74 103 140 181 239 303 357 412
#
# _framework density 23.855153999999999
#
# number of rings (size 3 to 8) (size 9 to 14) (size 15 to 20)
#    0.000    0.500    5.000    3.000    7.000    0.000 
#    0.000    1.250    0.000    0.000    0.000    0.000 
#    0.000    0.000    0.000    0.000    0.000    0.000 
#
# Total GULP energy -179111.104511 kJ/mol
# GULP energy per Si atom -5597.222016 kJ/mol
# Density = 2.380086 g / cm^3
# Si number density = 23.855154 Si / 1000 Ang^3
#
#
#
# Elastic Constant Matrix: (Units=GPa)
#
#
# Indices 1 2 3 4 5 6 
#
# 1 27.1264 -3.7630 -17.4642 0.0000 0.0000 0.0000
# 2 -3.7630 80.1957 32.0643 0.0000 0.0000 0.0000
# 3 -17.4642 32.0643 147.5253 0.0000 0.0000 0.0000
# 4 0.0000 0.0000 0.0000 34.5879 0.0000 0.0000
# 5 0.0000 0.0000 0.0000 0.0000 20.1404 0.0000
# 6 0.0000 0.0000 0.0000 0.0000 0.0000 26.2639
#
#
#
# Elastic Compliance Matrix: (Units=1/GPa)
#
#
# Indices 1 2 3 4 5 6 
#
# 1 0.039906 -0.000018 0.004728 0.000000 0.000000 0.000000
# 2 -0.000018 0.013656 -0.002970 0.000000 0.000000 0.000000
# 3 0.004728 -0.002970 0.007984 0.000000 0.000000 0.000000
# 4 0.000000 0.000000 0.000000 0.028912 0.000000 0.000000
# 5 0.000000 0.000000 0.000000 0.000000 0.049651 0.000000
# 6 0.000000 0.000000 0.000000 0.000000 0.000000 0.038075
#
#
# Mechanical properties :
#
#
# Convention : Reuss Voigt Hill
#
# Bulk Modulus (GPa) = 15.37857 30.72462 23.05159
# Shear Modulus (GPa) = 25.46087 32.46580 28.96334
#
# Velocity S-wave (km/s) = 3.27052 3.69312 3.48822
# Velocity P-wave (km/s) = 4.55218 5.57612 5.08996
#
# Compressibility (1/GPa) = 0.06502556
#
# Stress axis : x y z
#
# Youngs Moduli (GPa) = 25.05899 73.22656 125.25379
#
# Poissons Ratio (x) = 0.00131 -0.59220
# Poissons Ratio (y) = 0.00045 0.37204
# Poissons Ratio (z) = -0.11848 0.21750
#
# Static dielectric constant tensor:
#      x y z
#    x 1.913930 0.000000 0.000000 
#    y 0.000000 1.883220 0.000000 
#    z 0.000000 0.000000 1.964960 
# 
# From -- ./inp_files/1176.got.cif
#   From: 2010.05.17/outbox.cif.g08.bks.cpg/sg19_1_cif.got.tgz:1176.got - 2010.06.03 22:46:19.
