data_PCOD9315013
_publ_section_title
;
Structure prediction by ZEFSAII (Michael W. Deem and Ramdas Pophale) SiO2 
 PCOD9315013
Probable space group: P 21 21 21
;
_chemical_formula_sum "Si O2"
_cell_formula_units_Z 28
_cell_length_a 9.400895
_cell_length_b 8.869358
_cell_length_c 14.042122
_cell_angle_alpha 90.000000
_cell_angle_beta 90.000000
_cell_angle_gamma 90.000000
_cell_volume 1170.830774
_symmetry_space_group_name_H-M "P 21 21 21"
_symmetry_group_IT_number 19
_symmetry_cell_setting 'orthorhombic'
loop_
_space_group_symop_operation_xyz
x,y,z
1/2-x,-y,1/2+z
1/2+x,1/2-y,-z
-x,1/2+y,1/2-z
loop_
_atom_site_type_symbol
_atom_site_label
_atom_site_fract_x
_atom_site_fract_y
_atom_site_fract_z
Si Si1 0.280145 0.499216 0.138702
Si Si2 0.190469 0.043617 0.223024
Si Si3 0.322560 0.054635 0.502956
Si Si4 0.007117 0.325203 0.171537
Si Si5 0.002974 0.476970 0.808626
Si Si6 0.991901 0.215794 0.957363
Si Si7 0.574246 0.273365 0.456128
O O1 0.119000 0.460911 0.158143
O O2 0.346970 0.359249 0.080413
O O3 0.369067 0.511383 0.235652
O O4 0.313800 0.648161 0.079495
O O5 0.193431 0.000514 0.111220
O O6 0.125559 0.899311 0.275877
O O7 0.091905 0.192720 0.228089
O O8 0.356771 0.068065 0.245978
O O9 0.442356 0.183300 0.498098
O O10 0.167186 0.117511 0.475903
O O11 0.387383 0.912112 0.448848
O O12 0.973573 0.261794 0.066797
O O13 0.029240 0.354249 0.890201
O O14 0.978005 0.632512 0.864837
#
# Coordination Sequence:
#
# PCOD9315013 Si02
#       7
#     4   4   4   4   4   4   4
#     4  11  24  45  70 102 143 184 240 294 357 427
#     4  10  24  45  67  99 143 180 239 292 361 427
#     4   9  22  45  66 101 137 182 233 292 357 423
#     4  11  25  45  71 102 143 187 239 301 354 424
#     4  11  23  45  71 102 140 186 239 288 358 432
#     4  10  23  47  71  99 140 192 239 288 353 436
#     4  10  23  40  68  99 138 177 233 293 348 427
#
# _framework density 23.914643000000002
#
# number of rings (size 3 to 8) (size 9 to 14) (size 15 to 20)
#    0.000    1.714    1.429    0.857    6.000    2.286 
#   12.857    0.000    0.000    0.000    0.000    0.000 
#    0.000    0.000    0.000    0.000    0.000    0.000 
#
# Total GULP energy -156896.219894 kJ/mol
# GULP energy per Si atom -5603.436425 kJ/mol
# Density = 2.386021 g / cm^3
# Si number density = 23.914643 Si / 1000 Ang^3
#
#
#
# Elastic Constant Matrix: (Units=GPa)
#
#
# Indices 1 2 3 4 5 6 
#
# 1 59.3285 22.1267 13.0088 0.0000 0.0000 0.0000
# 2 22.1267 86.5424 15.2855 0.0000 0.0000 0.0000
# 3 13.0088 15.2855 43.3932 0.0000 0.0000 0.0000
# 4 0.0000 0.0000 0.0000 31.4927 0.0000 0.0000
# 5 0.0000 0.0000 0.0000 0.0000 27.1717 0.0000
# 6 0.0000 0.0000 0.0000 0.0000 0.0000 32.1382
#
#
#
# Elastic Compliance Matrix: (Units=1/GPa)
#
#
# Indices 1 2 3 4 5 6 
#
# 1 0.019366 -0.004186 -0.004331 0.000000 0.000000 0.000000
# 2 -0.004186 0.013227 -0.003404 0.000000 0.000000 0.000000
# 3 -0.004331 -0.003404 0.025543 0.000000 0.000000 0.000000
# 4 0.000000 0.000000 0.000000 0.031753 0.000000 0.000000
# 5 0.000000 0.000000 0.000000 0.000000 0.036803 0.000000
# 6 0.000000 0.000000 0.000000 0.000000 0.000000 0.031116
#
#
# Mechanical properties :
#
#
# Convention : Reuss Voigt Hill
#
# Bulk Modulus (GPa) = 29.16114 32.23401 30.69757
# Shear Modulus (GPa) = 25.89576 27.41672 26.65624
#
# Velocity S-wave (km/s) = 3.29423 3.38959 3.34225
# Velocity P-wave (km/s) = 5.16619 5.36909 5.26862
#
# Compressibility (1/GPa) = 0.03429222
#
# Stress axis : x y z
#
# Youngs Moduli (GPa) = 51.63599 75.60497 39.15024
#
# Poissons Ratio (x) = 0.31652 0.16956
# Poissons Ratio (y) = 0.21617 0.13327
# Poissons Ratio (z) = 0.22364 0.25737
#
# Static dielectric constant tensor:
#      x y z
#    x 1.912130 0.000000 0.000000 
#    y 0.000000 1.922640 0.000000 
#    z 0.000000 0.000000 1.871020 
# 
# From -- ./inp_files/6724.got.cif
#   From: 2010.05.17/outbox.cif.g08.bks.cpg/sg19_4_cif.got.tgz:6724.got - 2010.06.03 22:46:19.
