data_PCOD9315424
_publ_section_title
;
Structure prediction by ZEFSAII (Michael W. Deem and Ramdas Pophale) SiO2 
 PCOD9315424
Probable space group: P 21 21 21
;
_chemical_formula_sum "Si O2"
_cell_formula_units_Z 32
_cell_length_a 9.506881
_cell_length_b 13.123384
_cell_length_c 9.658344
_cell_angle_alpha 90.000000
_cell_angle_beta 90.000000
_cell_angle_gamma 90.000000
_cell_volume 1204.998660
_symmetry_space_group_name_H-M "P 21 21 21"
_symmetry_group_IT_number 19
_symmetry_cell_setting 'orthorhombic'
loop_
_space_group_symop_operation_xyz
x,y,z
1/2-x,-y,1/2+z
1/2+x,1/2-y,-z
-x,1/2+y,1/2-z
loop_
_atom_site_type_symbol
_atom_site_label
_atom_site_fract_x
_atom_site_fract_y
_atom_site_fract_z
Si Si1 0.391495 0.836261 0.321657
Si Si2 0.108505 0.836261 0.678344
Si Si3 0.161365 0.453509 0.114497
Si Si4 0.561975 0.445563 0.460827
Si Si5 0.838635 0.046490 0.114497
Si Si6 0.938024 0.445563 0.539173
Si Si7 0.090176 0.158943 0.272127
Si Si8 0.909824 0.341057 0.272126
O O1 0.500000 0.750000 0.370692
O O2 0.272427 0.805663 0.689742
O O3 0.400205 0.941942 0.405762
O O4 0.434624 0.867740 0.165136
O O5 0.065377 0.867739 0.834864
O O6 0.227574 0.805663 0.310258
O O7 0.099795 0.941942 0.594239
O O8 0.095652 0.543476 0.021602
O O9 0.236787 0.500000 0.250000
O O10 0.025260 0.396123 0.176245
O O11 0.250000 0.393897 1.000000
O O12 0.641502 0.412134 0.601674
O O13 0.974740 0.103877 0.176245
O O14 0.904348 0.956524 0.021601
O O15 0.858498 0.412134 0.398326
O O16 1.000000 0.250000 0.336189
#
# Coordination Sequence:
#
# PCOD9315424 Si02
#       8
#     4   4   4   4   4   4   4   4
#     4  11  26  44  81 119 158 207 271 328 392 482
#     4  11  26  44  81 119 158 207 271 328 392 482
#     4  10  25  45  75 111 156 208 264 328 394 466
#     4  10  25  45  77 110 161 212 263 319 408 474
#     4  10  25  45  75 111 156 208 264 328 394 466
#     4  10  25  45  77 110 161 212 263 319 408 474
#     4  11  26  47  77 115 161 208 264 330 399 474
#     4  11  26  47  77 115 161 208 264 330 399 474
#
# _framework density 26.556045999999998
#
# number of rings (size 3 to 8) (size 9 to 14) (size 15 to 20)
#    0.000    1.500    0.000    1.500   21.000    3.000 
#    0.000    0.000    0.000    0.000    0.000    0.000 
#    0.000    0.000    0.000    0.000    0.000    0.000 
#
# Total GULP energy -179131.393985 kJ/mol
# GULP energy per Si atom -5597.856062 kJ/mol
# Density = 2.649560 g / cm^3
# Si number density = 26.556046 Si / 1000 Ang^3
#
#
#
# Elastic Constant Matrix: (Units=GPa)
#
#
# Indices 1 2 3 4 5 6 
#
# 1 131.0589 61.1768 62.1412 0.0000 0.0000 0.0000
# 2 61.1768 123.7992 41.7114 0.0000 0.0000 0.0000
# 3 62.1412 41.7114 178.5603 0.0000 0.0000 0.0000
# 4 0.0000 0.0000 0.0000 40.6202 0.0000 0.0000
# 5 0.0000 0.0000 0.0000 0.0000 52.5838 0.0000
# 6 0.0000 0.0000 0.0000 0.0000 0.0000 39.9766
#
#
#
# Elastic Compliance Matrix: (Units=1/GPa)
#
#
# Indices 1 2 3 4 5 6 
#
# 1 0.011069 -0.004528 -0.002794 0.000000 0.000000 0.000000
# 2 -0.004528 0.010620 -0.000905 0.000000 0.000000 0.000000
# 3 -0.002794 -0.000905 0.006784 0.000000 0.000000 0.000000
# 4 0.000000 0.000000 0.000000 0.024618 0.000000 0.000000
# 5 0.000000 0.000000 0.000000 0.000000 0.019017 0.000000
# 6 0.000000 0.000000 0.000000 0.000000 0.000000 0.025015
#
#
# Mechanical properties :
#
#
# Convention : Reuss Voigt Hill
#
# Bulk Modulus (GPa) = 83.20763 84.83080 84.01921
# Shear Modulus (GPa) = 42.52258 44.52871 43.52564
#
# Velocity S-wave (km/s) = 4.00589 4.09930 4.05286
# Velocity P-wave (km/s) = 7.26616 7.37693 7.32175
#
# Compressibility (1/GPa) = 0.01201813
#
# Stress axis : x y z
#
# Youngs Moduli (GPa) = 90.34387 94.16005 147.40157
#
# Poissons Ratio (x) = 0.42639 0.41188
# Poissons Ratio (y) = 0.40911 0.13339
# Poissons Ratio (z) = 0.25245 0.08521
#
# Static dielectric constant tensor:
#      x y z
#    x 2.220330 0.000000 0.000000 
#    y 0.000000 2.104230 0.000000 
#    z 0.000000 0.000000 2.099730 
# 
# From -- ./inp_files/4269.got.cif
#   From: 2010.05.17/outbox.cif.g08.bks.cpg/sg19_3_cif.got.tgz:4269.got - 2010.06.03 22:46:19.
