data_PCOD9315881
_publ_section_title
;
Structure prediction by ZEFSAII (Michael W. Deem and Ramdas Pophale) SiO2 
 PCOD9315881
Probable space group: P 21 21 21
;
_chemical_formula_sum "Si O2"
_cell_formula_units_Z 24
_cell_length_a 9.568407
_cell_length_b 5.332918
_cell_length_c 17.438673
_cell_angle_alpha 90.000000
_cell_angle_beta 90.000000
_cell_angle_gamma 90.000000
_cell_volume 889.852408
_symmetry_space_group_name_H-M "P 21 21 21"
_symmetry_group_IT_number 19
_symmetry_cell_setting 'orthorhombic'
loop_
_space_group_symop_operation_xyz
x,y,z
1/2-x,-y,1/2+z
1/2+x,1/2-y,-z
-x,1/2+y,1/2-z
loop_
_atom_site_type_symbol
_atom_site_label
_atom_site_fract_x
_atom_site_fract_y
_atom_site_fract_z
Si Si1 0.953001 0.029445 0.205980
Si Si2 0.321470 0.786714 0.286411
Si Si3 0.068009 0.169636 0.511854
Si Si4 0.373494 0.160121 0.158398
Si Si5 0.827854 0.483542 0.554828
Si Si6 0.880974 0.828102 0.417609
O O1 0.784357 0.055205 0.204527
O O2 0.000951 0.258300 0.263053
O O3 0.022657 0.120008 0.125828
O O4 0.486467 0.735084 0.296861
O O5 0.301596 0.944478 0.209546
O O6 0.285060 0.955170 0.359996
O O7 0.222028 0.218180 0.480795
O O8 0.985650 0.393491 0.549995
O O9 0.077703 0.965242 0.579230
O O10 0.978785 0.056491 0.441534
O O11 0.254253 0.361336 0.136515
O O12 0.822753 0.715546 0.497026
#
# Coordination Sequence:
#
# PCOD9315881 Si02
#       6
#     4   4   4   4   4   4
#     4  12  29  51  80 114 154 207 261 324 392 470
#     4  12  25  47  73 111 153 199 263 318 400 460
#     4  11  25  44  72 104 146 196 256 319 389 464
#     4  11  26  45  71 109 149 198 253 324 392 456
#     4  11  26  44  72 108 142 202 254 319 390 467
#     4  11  25  49  70 106 148 198 255 316 385 465
#
# _framework density 26.970766000000001
#
# number of rings (size 3 to 8) (size 9 to 14) (size 15 to 20)
#    0.000    0.667    5.000    1.000    7.000    2.667 
#    0.000    0.000    0.000    0.000    0.000    0.000 
#    0.000    0.000    0.000    0.000    0.000    0.000 
#
# Total GULP energy -134564.579814 kJ/mol
# GULP energy per Si atom -5606.857492 kJ/mol
# Density = 2.690938 g / cm^3
# Si number density = 26.970766 Si / 1000 Ang^3
#
#
#
# Elastic Constant Matrix: (Units=GPa)
#
#
# Indices 1 2 3 4 5 6 
#
# 1 127.1726 6.2182 29.0336 0.0000 0.0000 0.0000
# 2 6.2182 69.3491 36.4225 0.0000 0.0000 0.0000
# 3 29.0336 36.4225 97.4199 0.0000 0.0000 0.0000
# 4 0.0000 0.0000 0.0000 43.1776 0.0000 0.0000
# 5 0.0000 0.0000 0.0000 0.0000 38.8532 0.0000
# 6 0.0000 0.0000 0.0000 0.0000 0.0000 44.3316
#
#
#
# Elastic Compliance Matrix: (Units=1/GPa)
#
#
# Indices 1 2 3 4 5 6 
#
# 1 0.008465 0.000704 -0.002786 0.000000 0.000000 0.000000
# 2 0.000704 0.018002 -0.006940 0.000000 0.000000 0.000000
# 3 -0.002786 -0.006940 0.013690 0.000000 0.000000 0.000000
# 4 0.000000 0.000000 0.000000 0.023160 0.000000 0.000000
# 5 0.000000 0.000000 0.000000 0.000000 0.025738 0.000000
# 6 0.000000 0.000000 0.000000 0.000000 0.000000 0.022557
#
#
# Mechanical properties :
#
#
# Convention : Reuss Voigt Hill
#
# Bulk Modulus (GPa) = 45.22329 48.58780 46.90555
# Shear Modulus (GPa) = 36.48924 40.09031 38.28977
#
# Velocity S-wave (km/s) = 3.68219 3.85961 3.77195
# Velocity P-wave (km/s) = 5.90610 6.15762 6.03317
#
# Compressibility (1/GPa) = 0.02211250
#
# Stress axis : x y z
#
# Youngs Moduli (GPa) = 118.13412 55.55036 73.04655
#
# Poissons Ratio (x) = -0.03912 0.20351
# Poissons Ratio (y) = -0.08319 0.50696
# Poissons Ratio (z) = 0.32913 0.38553
#
# Static dielectric constant tensor:
#      x y z
#    x 2.131190 0.000000 0.000000 
#    y 0.000000 2.071280 0.000000 
#    z 0.000000 0.000000 2.061410 
# 
# From -- ./inp_files/406.got.cif
#   From: 2010.05.17/outbox.cif.g08.bks.cpg/sg19_1_cif.got.tgz:406.got - 2010.06.03 22:46:19.
