data_PCOD9315183
_publ_section_title
;
Structure prediction by ZEFSAII (Michael W. Deem and Ramdas Pophale) SiO2 
 PCOD9315183
Probable space group: P 21 21 21
;
_chemical_formula_sum "Si O2"
_cell_formula_units_Z 28
_cell_length_a 24.412986
_cell_length_b 8.558444
_cell_length_c 5.066482
_cell_angle_alpha 90.000000
_cell_angle_beta 90.000000
_cell_angle_gamma 90.000000
_cell_volume 1058.576429
_symmetry_space_group_name_H-M "P 21 21 21"
_symmetry_group_IT_number 19
_symmetry_cell_setting 'orthorhombic'
loop_
_space_group_symop_operation_xyz
x,y,z
1/2-x,-y,1/2+z
1/2+x,1/2-y,-z
-x,1/2+y,1/2-z
loop_
_atom_site_type_symbol
_atom_site_label
_atom_site_fract_x
_atom_site_fract_y
_atom_site_fract_z
Si Si1 0.527801 0.861241 0.613195
Si Si2 0.949038 0.866202 0.689973
Si Si3 0.647473 0.203439 0.897828
Si Si4 0.860725 0.296700 0.176981
Si Si5 0.425106 0.918710 0.948677
Si Si6 0.714278 0.986048 0.519738
Si Si7 0.787234 0.513191 0.540236
O O1 0.499093 0.713313 0.469349
O O2 0.583613 0.797825 0.740945
O O3 0.486777 0.925815 0.835453
O O4 0.535996 0.001472 0.402702
O O5 0.894134 0.916290 0.535310
O O6 0.927087 0.709200 0.828793
O O7 0.606873 0.333038 0.783289
O O8 0.677845 0.120762 0.654678
O O9 0.687617 0.313666 0.062855
O O10 0.887594 0.432054 0.992824
O O11 0.828592 0.384135 0.414591
O O12 0.819680 0.173572 0.046045
O O13 0.733905 0.015012 0.222005
O O14 0.759907 0.471500 0.816575
#
# Coordination Sequence:
#
# PCOD9315183 Si02
#       7
#     4   4   4   4   4   4   4
#     4  11  24  44  70 113 145 197 241 309 372 469
#     4  11  24  44  73 104 152 191 243 305 371 458
#     4  10  25  43  72 100 143 191 237 304 371 431
#     4  11  25  45  75 106 147 200 248 311 389 447
#     4  10  23  45  70 107 145 187 250 300 376 453
#     4  12  28  49  71 110 149 190 253 311 373 443
#     4  11  25  48  75 108 145 192 256 314 368 441
#
# _framework density 26.450619
#
# number of rings (size 3 to 8) (size 9 to 14) (size 15 to 20)
#    0.000    1.143    0.000    4.286    8.000    4.571 
#   10.286    0.000    0.000    0.000    0.000    0.000 
#    0.000    0.000    0.000    0.000    0.000    0.000 
#
# Total GULP energy -156800.204780 kJ/mol
# GULP energy per Si atom -5600.007314 kJ/mol
# Density = 2.639042 g / cm^3
# Si number density = 26.450619 Si / 1000 Ang^3
#
#
#
# Elastic Constant Matrix: (Units=GPa)
#
#
# Indices 1 2 3 4 5 6 
#
# 1 136.8551 52.0016 0.2236 0.0000 0.0000 0.0000
# 2 52.0016 154.0974 13.4819 0.0000 0.0000 0.0000
# 3 0.2236 13.4819 40.7682 0.0000 0.0000 0.0000
# 4 0.0000 0.0000 0.0000 43.0669 0.0000 0.0000
# 5 0.0000 0.0000 0.0000 0.0000 28.0932 0.0000
# 6 0.0000 0.0000 0.0000 0.0000 0.0000 32.5321
#
#
#
# Elastic Compliance Matrix: (Units=1/GPa)
#
#
# Indices 1 2 3 4 5 6 
#
# 1 0.008415 -0.002920 0.000920 0.000000 0.000000 0.000000
# 2 -0.002920 0.007696 -0.002529 0.000000 0.000000 0.000000
# 3 0.000920 -0.002529 0.025360 0.000000 0.000000 0.000000
# 4 0.000000 0.000000 0.000000 0.023220 0.000000 0.000000
# 5 0.000000 0.000000 0.000000 0.000000 0.035596 0.000000
# 6 0.000000 0.000000 0.000000 0.000000 0.000000 0.030739
#
#
# Mechanical properties :
#
#
# Convention : Reuss Voigt Hill
#
# Bulk Modulus (GPa) = 30.85274 51.45942 41.15608
# Shear Modulus (GPa) = 33.13686 38.47266 35.80476
#
# Velocity S-wave (km/s) = 3.54331 3.81794 3.68318
# Velocity P-wave (km/s) = 5.33194 6.23961 5.80355
#
# Compressibility (1/GPa) = 0.03241204
#
# Stress axis : x y z
#
# Youngs Moduli (GPa) = 118.83393 129.93559 39.43178
#
# Poissons Ratio (x) = 0.37944 -0.03626
# Poissons Ratio (y) = 0.34702 0.09973
# Poissons Ratio (z) = -0.10927 0.32862
#
# Static dielectric constant tensor:
#      x y z
#    x 2.290360 0.000000 0.000000 
#    y 0.000000 2.092640 0.000000 
#    z 0.000000 0.000000 2.063370 
# 
# From -- ./inp_files/2147.got.cif
#   From: 2010.05.17/outbox.cif.g08.bks.cpg/sg19_2_cif.got.tgz:2147.got - 2010.06.03 22:46:19.
