data_PCOD9315235
_publ_section_title
;
Structure prediction by ZEFSAII (Michael W. Deem and Ramdas Pophale) SiO2 
 PCOD9315235
Probable space group: P 21 21 21
;
_chemical_formula_sum "Si O2"
_cell_formula_units_Z 32
_cell_length_a 21.253261
_cell_length_b 13.802949
_cell_length_c 5.015070
_cell_angle_alpha 90.000000
_cell_angle_beta 90.000000
_cell_angle_gamma 90.000000
_cell_volume 1471.209289
_symmetry_space_group_name_H-M "P 21 21 21"
_symmetry_group_IT_number 19
_symmetry_cell_setting 'orthorhombic'
loop_
_space_group_symop_operation_xyz
x,y,z
1/2-x,-y,1/2+z
1/2+x,1/2-y,-z
-x,1/2+y,1/2-z
loop_
_atom_site_type_symbol
_atom_site_label
_atom_site_fract_x
_atom_site_fract_y
_atom_site_fract_z
Si Si1 0.087870 0.102196 0.584086
Si Si2 0.736267 0.765239 0.850690
Si Si3 0.770279 0.059171 0.715120
Si Si4 0.731781 0.443129 0.544638
Si Si5 0.369594 0.702021 0.344348
Si Si6 0.406526 0.584938 0.841797
Si Si7 0.872813 0.118524 0.073937
Si Si8 0.008689 0.057761 0.071168
O O1 0.158449 0.066890 0.528502
O O2 0.094107 0.207186 0.719540
O O3 0.051145 0.098458 0.307073
O O4 0.048108 0.044201 0.803308
O O5 0.734792 0.658902 0.977424
O O6 0.796103 0.768749 0.652640
O O7 0.671518 0.801936 0.713810
O O8 0.755383 0.844662 0.073500
O O9 0.615904 0.116915 0.366411
O O10 0.840340 0.092900 0.793665
O O11 0.758034 0.974690 0.499804
O O12 0.739970 0.475272 0.848982
O O13 0.393070 0.667384 0.629882
O O14 0.522459 0.045413 0.648839
O O15 0.370265 0.484921 0.771514
O O16 0.947676 0.128757 0.036564
#
# Coordination Sequence:
#
# PCOD9315235 Si02
#       8
#     4   4   4   4   4   4   4   4
#     4  11  23  48  71  94 132 182 230 293 342 394
#     4  11  27  41  69 107 142 181 228 286 360 422
#     4  12  25  36  62 103 145 186 212 263 345 432
#     4  11  27  51  78 101 130 176 248 314 354 386
#     4  11  24  39  66 100 133 174 228 274 340 423
#     4  10  24  38  63  98 139 178 218 264 331 432
#     4  10  26  37  65  96 150 176 217 268 348 409
#     4  10  24  42  68  91 137 189 221 266 342 408
#
# _framework density 21.750813999999998
#
# number of rings (size 3 to 8) (size 9 to 14) (size 15 to 20)
#    0.750    0.500    1.250    3.000   10.500    2.000 
#    0.000    7.500    0.000    0.000    0.000    0.000 
#    0.000    0.000    0.000    0.000    0.000    0.000 
#
# Total GULP energy -178687.227949 kJ/mol
# GULP energy per Si atom -5583.975873 kJ/mol
# Density = 2.170131 g / cm^3
# Si number density = 21.750814 Si / 1000 Ang^3
#
#
#
# Elastic Constant Matrix: (Units=GPa)
#
#
# Indices 1 2 3 4 5 6 
#
# 1 102.8557 -3.1366 23.2009 0.0000 0.0000 0.0000
# 2 -3.1366 49.4557 -15.2959 0.0000 0.0000 0.0000
# 3 23.2009 -15.2959 91.0412 0.0000 0.0000 0.0000
# 4 0.0000 0.0000 0.0000 22.0961 0.0000 0.0000
# 5 0.0000 0.0000 0.0000 0.0000 38.8715 0.0000
# 6 0.0000 0.0000 0.0000 0.0000 0.0000 14.8489
#
#
#
# Elastic Compliance Matrix: (Units=1/GPa)
#
#
# Indices 1 2 3 4 5 6 
#
# 1 0.010317 -0.000168 -0.002657 0.000000 0.000000 0.000000
# 2 -0.000168 0.021331 0.003627 0.000000 0.000000 0.000000
# 3 -0.002657 0.003627 0.012271 0.000000 0.000000 0.000000
# 4 0.000000 0.000000 0.000000 0.045257 0.000000 0.000000
# 5 0.000000 0.000000 0.000000 0.000000 0.025726 0.000000
# 6 0.000000 0.000000 0.000000 0.000000 0.000000 0.067345
#
#
# Mechanical properties :
#
#
# Convention : Reuss Voigt Hill
#
# Bulk Modulus (GPa) = 21.96750 28.09884 25.03317
# Shear Modulus (GPa) = 25.53413 31.06893 28.30153
#
# Velocity S-wave (km/s) = 3.43000 3.78352 3.61109
# Velocity P-wave (km/s) = 5.08016 5.65980 5.37779
#
# Compressibility (1/GPa) = 0.04552180
#
# Stress axis : x y z
#
# Youngs Moduli (GPa) = 96.93083 46.87986 81.49626
#
# Poissons Ratio (x) = 0.00785 0.21655
# Poissons Ratio (y) = 0.01624 -0.29555
# Poissons Ratio (z) = 0.25757 -0.17001
#
# Static dielectric constant tensor:
#      x y z
#    x 1.848960 0.000000 0.000000 
#    y 0.000000 1.823810 0.000000 
#    z 0.000000 0.000000 1.803380 
# 
# From -- ./inp_files/2063.got.cif
#   From: 2010.05.17/outbox.cif.g08.bks.cpg/sg19_2_cif.got.tgz:2063.got - 2010.06.03 22:46:19.
