data_PCOD9315754
_publ_section_title
;
Structure prediction by ZEFSAII (Michael W. Deem and Ramdas Pophale) SiO2 
 PCOD9315754
Probable space group: P 21 21 21
;
_chemical_formula_sum "Si O2"
_cell_formula_units_Z 20
_cell_length_a 20.938881
_cell_length_b 5.345531
_cell_length_c 7.368655
_cell_angle_alpha 90.000000
_cell_angle_beta 90.000000
_cell_angle_gamma 90.000000
_cell_volume 824.769409
_symmetry_space_group_name_H-M "P 21 21 21"
_symmetry_group_IT_number 19
_symmetry_cell_setting 'orthorhombic'
loop_
_space_group_symop_operation_xyz
x,y,z
1/2-x,-y,1/2+z
1/2+x,1/2-y,-z
-x,1/2+y,1/2-z
loop_
_atom_site_type_symbol
_atom_site_label
_atom_site_fract_x
_atom_site_fract_y
_atom_site_fract_z
Si Si1 0.096907 0.202628 0.129221
Si Si2 0.732206 0.318636 0.003643
Si Si3 0.695571 0.835725 0.184857
Si Si4 0.939556 0.324468 0.665307
Si Si5 0.474688 0.001671 0.949604
O O1 0.172105 0.252396 0.128503
O O2 0.079117 0.024578 0.298550
O O3 0.040098 0.403711 0.143903
O O4 0.085325 0.072646 0.933713
O O5 0.794834 0.265640 0.887600
O O6 0.723781 0.605080 0.065208
O O7 0.726973 0.106446 0.157503
O O8 0.620621 0.859342 0.140280
O O9 0.002095 0.247241 0.554154
O O10 0.953958 0.336909 0.877231
#
# Coordination Sequence:
#
# PCOD9315754 Si02
#       5
#     4   4   4   4   4
#     4  11  24  41  67  98 135 173 227 278 336 407
#     4  11  25  47  70  99 136 177 230 282 336 403
#     4  11  25  47  70  99 136 177 230 282 336 403
#     4  11  24  41  67  98 135 173 227 278 336 407
#     4  12  22  42  66  98 130 180 216 280 346 400
#
# _framework density 24.249203999999999
#
# number of rings (size 3 to 8) (size 9 to 14) (size 15 to 20)
#    0.000    0.800    6.000    1.200    2.800    0.000 
#    7.200    0.000    0.000    0.000    0.000    0.000 
#    0.000    0.000    0.000    0.000    0.000    0.000 
#
# Total GULP energy -111657.726852 kJ/mol
# GULP energy per Si atom -5582.886343 kJ/mol
# Density = 2.419401 g / cm^3
# Si number density = 24.249204 Si / 1000 Ang^3
#
#
#
# Elastic Constant Matrix: (Units=GPa)
#
#
# Indices 1 2 3 4 5 6 
#
# 1 41.5826 0.0634 4.2694 0.0000 0.0000 0.0000
# 2 0.0634 65.7760 9.3131 0.0000 0.0000 0.0000
# 3 4.2694 9.3131 89.1593 0.0000 0.0000 0.0000
# 4 0.0000 0.0000 0.0000 31.2431 0.0000 0.0000
# 5 0.0000 0.0000 0.0000 0.0000 40.0871 0.0000
# 6 0.0000 0.0000 0.0000 0.0000 0.0000 24.8758
#
#
#
# Elastic Compliance Matrix: (Units=1/GPa)
#
#
# Indices 1 2 3 4 5 6 
#
# 1 0.024169 0.000143 -0.001172 0.000000 0.000000 0.000000
# 2 0.000143 0.015432 -0.001619 0.000000 0.000000 0.000000
# 3 -0.001172 -0.001619 0.011441 0.000000 0.000000 0.000000
# 4 0.000000 0.000000 0.000000 0.032007 0.000000 0.000000
# 5 0.000000 0.000000 0.000000 0.000000 0.024946 0.000000
# 6 0.000000 0.000000 0.000000 0.000000 0.000000 0.040200
#
#
# Mechanical properties :
#
#
# Convention : Reuss Voigt Hill
#
# Bulk Modulus (GPa) = 21.86020 24.86775 23.36398
# Shear Modulus (GPa) = 29.63149 31.43268 30.53209
#
# Velocity S-wave (km/s) = 3.49944 3.60423 3.55222
# Velocity P-wave (km/s) = 5.03612 5.25338 5.14590
#
# Compressibility (1/GPa) = 0.04574524
#
# Stress axis : x y z
#
# Youngs Moduli (GPa) = 41.37587 64.79972 87.40414
#
# Poissons Ratio (x) = -0.00924 0.10246
# Poissons Ratio (y) = -0.00590 0.14149
# Poissons Ratio (z) = 0.04850 0.10490
#
# Static dielectric constant tensor:
#      x y z
#    x 1.972530 0.000000 0.000000 
#    y 0.000000 2.001430 0.000000 
#    z 0.000000 0.000000 1.971150 
# 
# From -- ./inp_files/128.got.cif
#   From: 2010.05.17/outbox.cif.g08.bks.cpg/sg19_1_cif.got.tgz:128.got - 2010.06.03 22:46:19.
