data_PCOD9315516
_publ_section_title
;
Structure prediction by ZEFSAII (Michael W. Deem and Ramdas Pophale) SiO2 
 PCOD9315516
Probable space group: P 21 21 21
;
_chemical_formula_sum "Si O2"
_cell_formula_units_Z 32
_cell_length_a 10.024390
_cell_length_b 13.634716
_cell_length_c 9.510850
_cell_angle_alpha 90.000000
_cell_angle_beta 90.000000
_cell_angle_gamma 90.000000
_cell_volume 1299.940227
_symmetry_space_group_name_H-M "P 21 21 21"
_symmetry_group_IT_number 19
_symmetry_cell_setting 'orthorhombic'
loop_
_space_group_symop_operation_xyz
x,y,z
1/2-x,-y,1/2+z
1/2+x,1/2-y,-z
-x,1/2+y,1/2-z
loop_
_atom_site_type_symbol
_atom_site_label
_atom_site_fract_x
_atom_site_fract_y
_atom_site_fract_z
Si Si1 0.926484 0.733321 0.299149
Si Si2 0.798037 0.326530 0.277768
Si Si3 0.451062 0.977886 0.768890
Si Si4 0.014004 0.954920 0.795546
Si Si5 0.306887 0.206598 0.408077
Si Si6 0.961081 0.104116 0.567621
Si Si7 0.827013 0.999445 0.061168
Si Si8 0.653659 0.182062 0.087412
O O1 0.919904 0.616766 0.326327
O O2 0.803177 0.751158 0.195072
O O3 0.915283 0.793223 0.441741
O O4 0.065979 0.761784 0.229858
O O5 0.845376 0.435979 0.245345
O O6 0.749293 0.310441 0.436467
O O7 0.701808 0.279698 0.163764
O O8 0.590271 0.017654 0.704305
O O9 0.470527 0.934998 0.925021
O O10 0.940905 0.879551 0.689747
O O11 0.143101 0.897942 0.850459
O O12 0.028615 0.052856 0.702487
O O13 0.919229 0.974088 0.928967
O O14 0.432790 0.280587 0.416183
O O15 0.809494 0.061365 0.557929
O O16 0.780361 0.112370 0.057848
#
# Coordination Sequence:
#
# PCOD9315516 Si02
#       8
#     4   4   4   4   4   4   4   4
#     4  12  28  47  72 110 146 192 244 298 369 436
#     4  12  25  48  73 105 149 188 242 298 368 437
#     4  12  25  45  72 104 148 187 235 305 362 432
#     4  11  25  44  69 107 139 187 248 301 355 428
#     4  12  26  46  72 105 146 194 239 300 368 436
#     4  11  23  42  73 101 138 186 248 296 354 425
#     4  11  20  45  71 104 134 187 246 297 348 419
#     4  11  26  45  76 102 144 193 242 305 362 427
#
# _framework density 24.616516000000001
#
# number of rings (size 3 to 8) (size 9 to 14) (size 15 to 20)
#    0.000    0.500    3.750    5.250    5.250    2.000 
#    2.250    0.000    0.000    0.000    0.000    0.000 
#    0.000    0.000    0.000    0.000    0.000    0.000 
#
# Total GULP energy -179520.908366 kJ/mol
# GULP energy per Si atom -5610.028386 kJ/mol
# Density = 2.456049 g / cm^3
# Si number density = 24.616516 Si / 1000 Ang^3
#
#
#
# Elastic Constant Matrix: (Units=GPa)
#
#
# Indices 1 2 3 4 5 6 
#
# 1 56.1502 1.2881 32.5477 0.0000 0.0000 0.0000
# 2 1.2881 115.0632 17.0100 0.0000 0.0000 0.0000
# 3 32.5477 17.0100 121.2566 0.0000 0.0000 0.0000
# 4 0.0000 0.0000 0.0000 48.9168 0.0000 0.0000
# 5 0.0000 0.0000 0.0000 0.0000 27.5030 0.0000
# 6 0.0000 0.0000 0.0000 0.0000 0.0000 50.4306
#
#
#
# Elastic Compliance Matrix: (Units=1/GPa)
#
#
# Indices 1 2 3 4 5 6 
#
# 1 0.021133 0.000615 -0.005759 0.000000 0.000000 0.000000
# 2 0.000615 0.008893 -0.001413 0.000000 0.000000 0.000000
# 3 -0.005759 -0.001413 0.009991 0.000000 0.000000 0.000000
# 4 0.000000 0.000000 0.000000 0.020443 0.000000 0.000000
# 5 0.000000 0.000000 0.000000 0.000000 0.036360 0.000000
# 6 0.000000 0.000000 0.000000 0.000000 0.000000 0.019829
#
#
# Mechanical properties :
#
#
# Convention : Reuss Voigt Hill
#
# Bulk Modulus (GPa) = 37.16928 43.79571 40.48249
# Shear Modulus (GPa) = 36.04119 41.47835 38.75977
#
# Velocity S-wave (km/s) = 3.83051 4.10930 3.97236
# Velocity P-wave (km/s) = 5.89032 6.35177 6.12539
#
# Compressibility (1/GPa) = 0.02690394
#
# Stress axis : x y z
#
# Youngs Moduli (GPa) = 47.31840 112.45039 100.09089
#
# Poissons Ratio (x) = -0.06913 0.57641
# Poissons Ratio (y) = -0.02909 0.14138
# Poissons Ratio (z) = 0.27250 0.15884
#
# Static dielectric constant tensor:
#      x y z
#    x 1.973470 0.000000 0.000000 
#    y 0.000000 1.971100 0.000000 
#    z 0.000000 0.000000 1.883880 
# 
# From -- ./inp_files/3592.got.cif
#   From: 2010.05.17/outbox.cif.g08.bks.cpg/sg19_2_cif.got.tgz:3592.got - 2010.06.03 22:46:19.
