data_PCOD9315242
_publ_section_title
;
Structure prediction by ZEFSAII (Michael W. Deem and Ramdas Pophale) SiO2 
 PCOD9315242
Probable space group: P 21 21 21
;
_chemical_formula_sum "Si O2"
_cell_formula_units_Z 28
_cell_length_a 22.866591
_cell_length_b 8.266199
_cell_length_c 6.625765
_cell_angle_alpha 90.000000
_cell_angle_beta 90.000000
_cell_angle_gamma 90.000000
_cell_volume 1252.400720
_symmetry_space_group_name_H-M "P 21 21 21"
_symmetry_group_IT_number 19
_symmetry_cell_setting 'orthorhombic'
loop_
_space_group_symop_operation_xyz
x,y,z
1/2-x,-y,1/2+z
1/2+x,1/2-y,-z
-x,1/2+y,1/2-z
loop_
_atom_site_type_symbol
_atom_site_label
_atom_site_fract_x
_atom_site_fract_y
_atom_site_fract_z
Si Si1 0.921024 0.776344 0.895268
Si Si2 0.998880 0.432182 0.303011
Si Si3 0.864826 0.113231 0.773113
Si Si4 0.868793 0.331363 0.419104
Si Si5 0.180641 0.072289 0.747087
Si Si6 0.481143 0.247002 0.062299
Si Si7 0.284136 0.204353 0.957289
O O1 0.871771 0.641524 0.886726
O O2 0.974120 0.735293 0.745294
O O3 0.890308 0.937464 0.808613
O O4 0.948521 0.822904 0.109369
O O5 0.936749 0.363812 0.378083
O O6 0.995072 0.415847 0.062071
O O7 0.009088 0.605848 0.404717
O O8 0.858272 0.165314 0.541991
O O9 0.915428 0.235720 0.857163
O O10 0.806980 0.149203 0.903857
O O11 0.845918 0.471649 0.567233
O O12 0.832765 0.325281 0.213722
O O13 0.222722 0.208844 0.841189
O O14 0.217191 0.949212 0.608387
#
# Coordination Sequence:
#
# PCOD9315242 Si02
#       7
#     4   4   4   4   4   4   4
#     4  11  25  42  61  97 132 165 209 266 330 380
#     4  11  24  37  64  94 126 172 209 260 323 384
#     4  10  24  40  61  92 130 168 204 260 325 380
#     4  11  21  41  66  90 126 167 209 265 313 375
#     4  11  24  43  68  93 123 170 219 269 315 378
#     4  11  23  38  62  94 128 165 214 255 321 383
#     4  11  23  43  66  92 121 165 224 259 313 380
#
# _framework density 22.357061000000002
#
# number of rings (size 3 to 8) (size 9 to 14) (size 15 to 20)
#    0.000    1.143    5.714    0.000    4.000    0.000 
#    2.571    0.000    0.000    0.000    0.000    0.000 
#    0.000    0.000    0.000    0.000    0.000    0.000 
#
# Total GULP energy -156639.503870 kJ/mol
# GULP energy per Si atom -5594.267995 kJ/mol
# Density = 2.230618 g / cm^3
# Si number density = 22.357061 Si / 1000 Ang^3
#
#
#
# Elastic Constant Matrix: (Units=GPa)
#
#
# Indices 1 2 3 4 5 6 
#
# 1 66.5933 -7.7898 8.6988 0.0000 0.0000 0.0000
# 2 -7.7898 27.9120 3.0724 0.0000 0.0000 0.0000
# 3 8.6988 3.0724 60.8335 0.0000 0.0000 0.0000
# 4 0.0000 0.0000 0.0000 14.4507 0.0000 0.0000
# 5 0.0000 0.0000 0.0000 0.0000 35.4775 0.0000
# 6 0.0000 0.0000 0.0000 0.0000 0.0000 25.3230
#
#
#
# Elastic Compliance Matrix: (Units=1/GPa)
#
#
# Indices 1 2 3 4 5 6 
#
# 1 0.015896 0.004713 -0.002511 0.000000 0.000000 0.000000
# 2 0.004713 0.037424 -0.002564 0.000000 0.000000 0.000000
# 3 -0.002511 -0.002564 0.016927 0.000000 0.000000 0.000000
# 4 0.000000 0.000000 0.000000 0.069201 0.000000 0.000000
# 5 0.000000 0.000000 0.000000 0.000000 0.028187 0.000000
# 6 0.000000 0.000000 0.000000 0.000000 0.000000 0.039490
#
#
# Mechanical properties :
#
#
# Convention : Reuss Voigt Hill
#
# Bulk Modulus (GPa) = 14.38387 18.14462 16.26425
# Shear Modulus (GPa) = 21.64284 25.14075 23.39179
#
# Velocity S-wave (km/s) = 3.11473 3.35701 3.23814
# Velocity P-wave (km/s) = 4.40262 4.81243 4.61208
#
# Compressibility (1/GPa) = 0.06952232
#
# Stress axis : x y z
#
# Youngs Moduli (GPa) = 62.90974 26.72058 59.07770
#
# Poissons Ratio (x) = -0.12593 0.14834
# Poissons Ratio (y) = -0.29647 0.15148
# Poissons Ratio (z) = 0.15797 0.06851
#
# Static dielectric constant tensor:
#      x y z
#    x 1.809500 0.000000 0.000000 
#    y 0.000000 1.869400 0.000000 
#    z 0.000000 0.000000 1.798100 
# 
# From -- ./inp_files/516.got.cif
#   From: 2010.05.17/outbox.cif.g08.bks.cpg/sg19_1_cif.got.tgz:516.got - 2010.06.03 22:46:19.
