data_PCOD9315713
_publ_section_title
;
Structure prediction by ZEFSAII (Michael W. Deem and Ramdas Pophale) SiO2 
 PCOD9315713
Probable space group: P 21 21 21
;
_chemical_formula_sum "Si O2"
_cell_formula_units_Z 28
_cell_length_a 13.920964
_cell_length_b 9.739856
_cell_length_c 8.009679
_cell_angle_alpha 90.000000
_cell_angle_beta 90.000000
_cell_angle_gamma 90.000000
_cell_volume 1086.017836
_symmetry_space_group_name_H-M "P 21 21 21"
_symmetry_group_IT_number 19
_symmetry_cell_setting 'orthorhombic'
loop_
_space_group_symop_operation_xyz
x,y,z
1/2-x,-y,1/2+z
1/2+x,1/2-y,-z
-x,1/2+y,1/2-z
loop_
_atom_site_type_symbol
_atom_site_label
_atom_site_fract_x
_atom_site_fract_y
_atom_site_fract_z
Si Si1 0.927995 0.381819 0.690970
Si Si2 0.280163 0.285793 0.459884
Si Si3 0.905048 0.651065 0.478570
Si Si4 0.688849 0.733959 0.512534
Si Si5 0.459018 0.570260 0.473418
Si Si6 0.132993 0.046130 0.377083
Si Si7 0.694395 0.968426 0.750168
O O1 0.890060 0.270984 0.554081
O O2 0.909773 0.531879 0.614520
O O3 0.034566 0.398130 0.773100
O O4 0.857655 0.325593 0.840728
O O5 0.212340 0.154939 0.430343
O O6 0.255814 0.405006 0.322967
O O7 0.254267 0.354176 0.636239
O O8 0.804194 0.731522 0.493834
O O9 0.981538 0.773403 0.471865
O O10 0.908063 0.582218 0.300641
O O11 0.672472 0.607310 0.637426
O O12 0.660082 0.881146 0.588573
O O13 0.545832 0.463921 0.494328
O O14 0.382755 0.519678 0.611565
#
# Coordination Sequence:
#
# PCOD9315713 Si02
#       7
#     4   4   4   4   4   4   4
#     4  11  25  44  77 104 148 194 256 310 378 460
#     4  12  24  49  74 111 146 210 259 316 378 476
#     4  12  22  49  72 108 148 195 251 317 367 465
#     4  11  23  45  79 110 140 199 255 308 374 463
#     4  11  28  45  68 112 152 195 246 320 396 438
#     4  11  25  46  74 106 145 202 255 305 385 464
#     4  12  27  46  76 113 159 193 260 324 394 454
#
# _framework density 25.782264000000001
#
# number of rings (size 3 to 8) (size 9 to 14) (size 15 to 20)
#    0.000    0.571    4.286    2.571   10.000    0.000 
#    0.000    0.000    0.000    0.000    0.000    0.000 
#    0.000    0.000    0.000    0.000    0.000    0.000 
#
# Total GULP energy -156124.526876 kJ/mol
# GULP energy per Si atom -5575.875960 kJ/mol
# Density = 2.572358 g / cm^3
# Si number density = 25.782264 Si / 1000 Ang^3
#
#
#
# Elastic Constant Matrix: (Units=GPa)
#
#
# Indices 1 2 3 4 5 6 
#
# 1 45.7064 42.4975 18.3454 0.0000 0.0000 0.0000
# 2 42.4975 171.9408 35.8343 0.0000 0.0000 0.0000
# 3 18.3454 35.8343 62.8501 0.0000 0.0000 0.0000
# 4 0.0000 0.0000 0.0000 60.8877 0.0000 0.0000
# 5 0.0000 0.0000 0.0000 0.0000 34.4746 0.0000
# 6 0.0000 0.0000 0.0000 0.0000 0.0000 33.5214
#
#
#
# Elastic Compliance Matrix: (Units=1/GPa)
#
#
# Indices 1 2 3 4 5 6 
#
# 1 0.029782 -0.006298 -0.005103 0.000000 0.000000 0.000000
# 2 -0.006298 0.007932 -0.002684 0.000000 0.000000 0.000000
# 3 -0.005103 -0.002684 0.018931 0.000000 0.000000 0.000000
# 4 0.000000 0.000000 0.000000 0.016424 0.000000 0.000000
# 5 0.000000 0.000000 0.000000 0.000000 0.029007 0.000000
# 6 0.000000 0.000000 0.000000 0.000000 0.000000 0.029832
#
#
# Mechanical properties :
#
#
# Convention : Reuss Voigt Hill
#
# Bulk Modulus (GPa) = 35.11719 52.65019 43.88369
# Shear Modulus (GPa) = 29.48668 38.03141 33.75905
#
# Velocity S-wave (km/s) = 3.38550 3.84487 3.62248
# Velocity P-wave (km/s) = 5.37889 6.33846 5.87829
#
# Compressibility (1/GPa) = 0.02847609
#
# Stress axis : x y z
#
# Youngs Moduli (GPa) = 33.57691 126.07279 52.82439
#
# Poissons Ratio (x) = 0.79397 0.26954
# Poissons Ratio (y) = 0.21146 0.14179
# Poissons Ratio (z) = 0.17133 0.33840
#
# Static dielectric constant tensor:
#      x y z
#    x 2.190160 0.000000 0.000000 
#    y 0.000000 2.016240 0.000000 
#    z 0.000000 0.000000 2.076840 
# 
# From -- ./inp_files/4172.got.cif
#   From: 2010.05.17/outbox.cif.g08.bks.cpg/sg19_3_cif.got.tgz:4172.got - 2010.06.03 22:46:19.
