data_PCOD9315587
_publ_section_title
;
Structure prediction by ZEFSAII (Michael W. Deem and Ramdas Pophale) SiO2 
 PCOD9315587
Probable space group: P 21 21 21
;
_chemical_formula_sum "Si O2"
_cell_formula_units_Z 16
_cell_length_a 7.831404
_cell_length_b 7.501087
_cell_length_c 9.579885
_cell_angle_alpha 90.000000
_cell_angle_beta 90.000000
_cell_angle_gamma 90.000000
_cell_volume 562.761174
_symmetry_space_group_name_H-M "P 21 21 21"
_symmetry_group_IT_number 19
_symmetry_cell_setting 'orthorhombic'
loop_
_space_group_symop_operation_xyz
x,y,z
1/2-x,-y,1/2+z
1/2+x,1/2-y,-z
-x,1/2+y,1/2-z
loop_
_atom_site_type_symbol
_atom_site_label
_atom_site_fract_x
_atom_site_fract_y
_atom_site_fract_z
Si Si1 0.118045 0.808551 0.119758
Si Si2 0.968231 0.328589 0.906525
Si Si3 0.774624 0.521487 0.620348
Si Si4 0.262109 0.558020 0.758091
O O1 0.241092 0.933439 0.217559
O O2 0.166180 0.610479 0.168572
O O3 0.160652 0.843921 0.957727
O O4 0.925400 0.869431 0.154954
O O5 0.897661 0.418176 0.044741
O O6 0.097079 0.465158 0.830705
O O7 0.816724 0.223270 0.826378
O O8 0.088399 0.161267 0.936868
#
# Coordination Sequence:
#
# PCOD9315587 Si02
#       4
#     4   4   4   4
#     4  11  25  44  71 102 140 183 230 283 344 410
#     4  11  22  42  71 104 140 181 228 287 345 406
#     4  11  23  44  70 102 141 183 228 284 345 408
#     4  11  24  44  72 104 139 181 230 284 344 408
#
# _framework density 28.431245000000001
#
# number of rings (size 3 to 8) (size 9 to 14) (size 15 to 20)
#    0.000    1.000    0.000    9.000    0.000    2.000 
#    0.000   12.500    0.000    0.000    0.000    0.000 
#    0.000    0.000    0.000    0.000    0.000    0.000 
#
# Total GULP energy -89694.467650 kJ/mol
# GULP energy per Si atom -5605.904228 kJ/mol
# Density = 2.836653 g / cm^3
# Si number density = 28.431245 Si / 1000 Ang^3
#
#
#
# Elastic Constant Matrix: (Units=GPa)
#
#
# Indices 1 2 3 4 5 6 
#
# 1 164.8423 74.0733 27.8905 0.0000 0.0000 0.0000
# 2 74.0733 171.7557 36.5488 0.0000 0.0000 0.0000
# 3 27.8905 36.5488 117.9797 0.0000 0.0000 0.0000
# 4 0.0000 0.0000 0.0000 22.3172 0.0000 0.0000
# 5 0.0000 0.0000 0.0000 0.0000 54.5858 0.0000
# 6 0.0000 0.0000 0.0000 0.0000 0.0000 72.4983
#
#
#
# Elastic Compliance Matrix: (Units=1/GPa)
#
#
# Indices 1 2 3 4 5 6 
#
# 1 0.007601 -0.003100 -0.000837 0.000000 0.000000 0.000000
# 2 -0.003100 0.007497 -0.001590 0.000000 0.000000 0.000000
# 3 -0.000837 -0.001590 0.009166 0.000000 0.000000 0.000000
# 4 0.000000 0.000000 0.000000 0.044809 0.000000 0.000000
# 5 0.000000 0.000000 0.000000 0.000000 0.018320 0.000000
# 6 0.000000 0.000000 0.000000 0.000000 0.000000 0.013793
#
#
# Mechanical properties :
#
#
# Convention : Reuss Voigt Hill
#
# Bulk Modulus (GPa) = 75.68863 81.28921 78.48892
# Shear Modulus (GPa) = 42.86574 50.95126 46.90850
#
# Velocity S-wave (km/s) = 3.88712 4.23790 4.06629
# Velocity P-wave (km/s) = 6.84293 7.25258 7.05073
#
# Compressibility (1/GPa) = 0.01321202
#
# Stress axis : x y z
#
# Youngs Moduli (GPa) = 131.56191 133.37786 109.09549
#
# Poissons Ratio (x) = 0.41348 0.09126
# Poissons Ratio (y) = 0.40785 0.17344
# Poissons Ratio (z) = 0.11005 0.21204
#
# Static dielectric constant tensor:
#      x y z
#    x 2.237270 0.000000 0.000000 
#    y 0.000000 2.180460 0.000000 
#    z 0.000000 0.000000 2.280510 
# 
# From -- ./inp_files/2536.got.cif
#   From: 2010.05.17/outbox.cif.g08.bks.cpg/sg19_2_cif.got.tgz:2536.got - 2010.06.03 22:46:19.
