data_PCOD9315786
_publ_section_title
;
Structure prediction by ZEFSAII (Michael W. Deem and Ramdas Pophale) SiO2 
 PCOD9315786
Probable space group: P 21 21 21
;
_chemical_formula_sum "Si O2"
_cell_formula_units_Z 28
_cell_length_a 16.869294
_cell_length_b 12.028809
_cell_length_c 5.138394
_cell_angle_alpha 90.000000
_cell_angle_beta 90.000000
_cell_angle_gamma 90.000000
_cell_volume 1042.670144
_symmetry_space_group_name_H-M "P 21 21 21"
_symmetry_group_IT_number 19
_symmetry_cell_setting 'orthorhombic'
loop_
_space_group_symop_operation_xyz
x,y,z
1/2-x,-y,1/2+z
1/2+x,1/2-y,-z
-x,1/2+y,1/2-z
loop_
_atom_site_type_symbol
_atom_site_label
_atom_site_fract_x
_atom_site_fract_y
_atom_site_fract_z
Si Si1 0.230864 0.629906 0.142501
Si Si2 0.491023 0.891367 0.224399
Si Si3 0.157163 0.856082 0.377697
Si Si4 0.233574 0.211755 0.250926
Si Si5 0.816321 0.591814 0.744560
Si Si6 0.506524 0.230989 0.779497
Si Si7 0.877693 0.943627 0.514417
O O1 0.188802 0.737676 0.268321
O O2 0.312462 0.602438 0.284239
O O3 0.244528 0.664754 0.840677
O O4 0.168994 0.531498 0.162006
O O5 0.504822 0.820460 0.486980
O O6 0.556605 0.984034 0.166919
O O7 0.405274 0.952897 0.241119
O O8 0.491080 0.800478 0.988284
O O9 0.181305 0.845974 0.681879
O O10 0.067615 0.855566 0.294654
O O11 0.221967 0.946933 0.274924
O O12 0.189034 0.164870 0.497623
O O13 0.080935 0.347301 0.153264
O O14 0.183394 0.171460 0.006736
#
# Coordination Sequence:
#
# PCOD9315786 Si02
#       7
#     4   4   4   4   4   4   4
#     4  11  24  44  70 116 150 188 255 318 377 449
#     4  12  27  49  69 109 157 192 246 324 376 438
#     4   9  21  42  74 101 144 191 243 295 382 432
#     4   9  19  39  71 104 132 194 237 296 362 447
#     4   9  20  37  74  98 135 196 239 282 377 444
#     4  12  27  48  73 109 154 200 245 315 381 449
#     4  12  30  45  79 117 152 201 257 312 387 459
#
# _framework density 26.854129
#
# number of rings (size 3 to 8) (size 9 to 14) (size 15 to 20)
#    0.857    0.571    1.429    3.429    8.000    3.429 
#    0.000    0.000    3.143    0.000    0.000    0.000 
#    0.000    0.000    0.000    0.000    0.000    0.000 
#
# Total GULP energy -156501.633565 kJ/mol
# GULP energy per Si atom -5589.344056 kJ/mol
# Density = 2.679301 g / cm^3
# Si number density = 26.854129 Si / 1000 Ang^3
#
#
#
# Elastic Constant Matrix: (Units=GPa)
#
#
# Indices 1 2 3 4 5 6 
#
# 1 189.5969 44.4245 11.0116 0.0000 0.0000 0.0000
# 2 44.4245 114.6791 32.4575 0.0000 0.0000 0.0000
# 3 11.0116 32.4575 137.9805 0.0000 0.0000 0.0000
# 4 0.0000 0.0000 0.0000 13.4302 0.0000 0.0000
# 5 0.0000 0.0000 0.0000 0.0000 24.0234 0.0000
# 6 0.0000 0.0000 0.0000 0.0000 0.0000 61.7316
#
#
#
# Elastic Compliance Matrix: (Units=1/GPa)
#
#
# Indices 1 2 3 4 5 6 
#
# 1 0.005802 -0.002267 0.000070 0.000000 0.000000 0.000000
# 2 -0.002267 0.010228 -0.002225 0.000000 0.000000 0.000000
# 3 0.000070 -0.002225 0.007765 0.000000 0.000000 0.000000
# 4 0.000000 0.000000 0.000000 0.074459 0.000000 0.000000
# 5 0.000000 0.000000 0.000000 0.000000 0.041626 0.000000
# 6 0.000000 0.000000 0.000000 0.000000 0.000000 0.016199
#
#
# Mechanical properties :
#
#
# Convention : Reuss Voigt Hill
#
# Bulk Modulus (GPa) = 66.88613 68.67152 67.77883
# Shear Modulus (GPa) = 29.42797 43.46123 36.44460
#
# Velocity S-wave (km/s) = 3.31395 4.02732 3.68792
# Velocity P-wave (km/s) = 6.29319 6.87411 6.59005
#
# Compressibility (1/GPa) = 0.01495078
#
# Stress axis : x y z
#
# Youngs Moduli (GPa) = 172.36875 97.77045 128.77996
#
# Poissons Ratio (x) = 0.22168 -0.00906
# Poissons Ratio (y) = 0.39081 0.28654
# Poissons Ratio (z) = -0.01213 0.21754
#
# Static dielectric constant tensor:
#      x y z
#    x 2.160900 0.000000 0.000000 
#    y 0.000000 2.247650 0.000000 
#    z 0.000000 0.000000 2.191090 
# 
# From -- ./inp_files/1851.got.cif
#   From: 2010.05.17/outbox.cif.g08.bks.cpg/sg19_1_cif.got.tgz:1851.got - 2010.06.03 22:46:19.
