data_PCOD9315753
_publ_section_title
;
Structure prediction by ZEFSAII (Michael W. Deem and Ramdas Pophale) SiO2 
 PCOD9315753
Probable space group: P 21 21 21
;
_chemical_formula_sum "Si O2"
_cell_formula_units_Z 24
_cell_length_a 4.943961
_cell_length_b 13.038993
_cell_length_c 15.970934
_cell_angle_alpha 90.000000
_cell_angle_beta 90.000000
_cell_angle_gamma 90.000000
_cell_volume 1029.554647
_symmetry_space_group_name_H-M "P 21 21 21"
_symmetry_group_IT_number 19
_symmetry_cell_setting 'orthorhombic'
loop_
_space_group_symop_operation_xyz
x,y,z
1/2-x,-y,1/2+z
1/2+x,1/2-y,-z
-x,1/2+y,1/2-z
loop_
_atom_site_type_symbol
_atom_site_label
_atom_site_fract_x
_atom_site_fract_y
_atom_site_fract_z
Si Si1 0.888031 0.981168 0.963416
Si Si2 0.640940 0.882637 0.191700
Si Si3 0.900013 0.319411 0.773614
Si Si4 0.889283 0.060821 0.290021
Si Si5 0.878960 0.467689 0.923294
Si Si6 0.215004 0.768805 0.955189
O O1 0.722982 0.988962 0.875775
O O2 0.033313 0.870077 0.952533
O O3 0.661725 0.010153 0.031323
O O4 0.148610 0.037575 0.005801
O O5 0.608429 0.803491 0.268500
O O6 0.385142 0.937910 0.145864
O O7 0.752200 0.802499 0.124238
O O8 0.832716 0.974132 0.220538
O O9 0.682896 0.387506 0.719164
O O10 0.876421 0.366277 0.866156
O O11 0.187593 0.347681 0.734157
O O12 0.512503 0.796382 0.985446
#
# Coordination Sequence:
#
# PCOD9315753 Si02
#       6
#     4   4   4   4   4   4
#     4  12  22  42  62  98 131 169 222 288 333 401
#     4  11  24  44  66  96 139 176 224 281 345 404
#     4  11  25  43  64  99 136 182 225 279 346 420
#     4  11  26  42  67  98 136 181 230 279 346 417
#     4  11  24  41  66  95 135 171 223 281 342 395
#     4  12  23  36  63 102 129 165 216 280 348 397
#
# _framework density 23.311048
#
# number of rings (size 3 to 8) (size 9 to 14) (size 15 to 20)
#    0.000    0.667    5.000    3.000    2.333    4.000 
#    0.000    1.667    0.000    0.000    0.000    0.000 
#    0.000    0.000    0.000    0.000    0.000    0.000 
#
# Total GULP energy -133721.220721 kJ/mol
# GULP energy per Si atom -5571.717530 kJ/mol
# Density = 2.325799 g / cm^3
# Si number density = 23.311048 Si / 1000 Ang^3
#
#
#
# Elastic Constant Matrix: (Units=GPa)
#
#
# Indices 1 2 3 4 5 6 
#
# 1 92.7833 -19.8300 11.3159 0.0000 0.0000 0.0000
# 2 -19.8300 31.0139 -24.3239 0.0000 0.0000 0.0000
# 3 11.3159 -24.3239 57.7430 0.0000 0.0000 0.0000
# 4 0.0000 0.0000 0.0000 35.0645 0.0000 0.0000
# 5 0.0000 0.0000 0.0000 0.0000 36.4681 0.0000
# 6 0.0000 0.0000 0.0000 0.0000 0.0000 17.2342
#
#
#
# Elastic Compliance Matrix: (Units=1/GPa)
#
#
# Indices 1 2 3 4 5 6 
#
# 1 0.012557 0.009108 0.001376 0.000000 0.000000 0.000000
# 2 0.009108 0.054758 0.021282 0.000000 0.000000 0.000000
# 3 0.001376 0.021282 0.026013 0.000000 0.000000 0.000000
# 4 0.000000 0.000000 0.000000 0.028519 0.000000 0.000000
# 5 0.000000 0.000000 0.000000 0.000000 0.027421 0.000000
# 6 0.000000 0.000000 0.000000 0.000000 0.000000 0.058024
#
#
# Mechanical properties :
#
#
# Convention : Reuss Voigt Hill
#
# Bulk Modulus (GPa) = 6.37519 12.87378 9.62449
# Shear Modulus (GPa) = 25.50400 32.04526 28.77463
#
# Velocity S-wave (km/s) = 3.31127 3.71169 3.51718
# Velocity P-wave (km/s) = 4.16654 4.88912 4.54222
#
# Compressibility (1/GPa) = 0.15685795
#
# Stress axis : x y z
#
# Youngs Moduli (GPa) = 79.63992 18.26219 38.44189
#
# Poissons Ratio (x) = -0.16632 -0.05289
# Poissons Ratio (y) = -0.72533 -0.81811
# Poissons Ratio (z) = -0.10957 -0.38865
#
# Static dielectric constant tensor:
#      x y z
#    x 1.858110 0.000000 0.000000 
#    y 0.000000 1.906330 0.000000 
#    z 0.000000 0.000000 2.049130 
# 
# From -- ./inp_files/5672.got.cif
#   From: 2010.05.17/outbox.cif.g08.bks.cpg/sg19_3_cif.got.tgz:5672.got - 2010.06.03 22:46:19.
