data_PCOD9315322
_publ_section_title
;
Structure prediction by ZEFSAII (Michael W. Deem and Ramdas Pophale) SiO2 
 PCOD9315322
Probable space group: P 21 21 21
;
_chemical_formula_sum "Si O2"
_cell_formula_units_Z 28
_cell_length_a 17.783685
_cell_length_b 5.247464
_cell_length_c 11.144825
_cell_angle_alpha 90.000000
_cell_angle_beta 90.000000
_cell_angle_gamma 90.000000
_cell_volume 1040.026675
_symmetry_space_group_name_H-M "P 21 21 21"
_symmetry_group_IT_number 19
_symmetry_cell_setting 'orthorhombic'
loop_
_space_group_symop_operation_xyz
x,y,z
1/2-x,-y,1/2+z
1/2+x,1/2-y,-z
-x,1/2+y,1/2-z
loop_
_atom_site_type_symbol
_atom_site_label
_atom_site_fract_x
_atom_site_fract_y
_atom_site_fract_z
Si Si1 0.107097 0.469505 0.869356
Si Si2 0.241250 0.625539 0.733784
Si Si3 0.469723 0.387604 0.126080
Si Si4 0.228800 0.117707 0.590522
Si Si5 0.981887 0.256427 0.449226
Si Si6 0.128983 0.052193 0.176609
Si Si7 0.889831 0.425439 0.085727
O O1 0.196066 0.509061 0.847317
O O2 0.072151 0.613369 0.752166
O O3 0.055616 0.213874 0.862343
O O4 0.083419 0.579696 0.998312
O O5 0.225177 0.405743 0.635778
O O6 0.208302 0.904931 0.693403
O O7 0.329990 0.699105 0.730167
O O8 0.473496 0.667747 0.069757
O O9 0.425168 0.240165 0.020643
O O10 0.313736 0.024867 0.569693
O O11 0.177996 0.072031 0.476640
O O12 0.950966 0.504140 0.382792
O O13 0.041798 0.107172 0.371955
O O14 0.138060 0.841456 0.283585
#
# Coordination Sequence:
#
# PCOD9315322 Si02
#       7
#     4   4   4   4   4   4   4
#     4  11  22  39  68 106 133 188 235 317 360 443
#     4  10  24  44  74 100 147 181 250 293 376 433
#     4  11  22  39  71  99 143 183 247 301 377 433
#     4  10  24  48  71 107 139 192 246 304 370 445
#     4  11  26  43  70 105 147 189 252 300 381 445
#     4  10  27  47  69 108 146 200 244 309 375 461
#     4  11  25  46  71 107 147 199 246 312 375 462
#
# _framework density 26.922384999999998
#
# number of rings (size 3 to 8) (size 9 to 14) (size 15 to 20)
#    0.857    0.571    2.857    0.857    8.000    3.429 
#    0.000    0.000    0.000    0.000    0.000    0.000 
#    0.000    0.000    0.000    0.000    0.000    0.000 
#
# Total GULP energy -156090.212048 kJ/mol
# GULP energy per Si atom -5574.650430 kJ/mol
# Density = 2.686111 g / cm^3
# Si number density = 26.922385 Si / 1000 Ang^3
#
#
#
# Elastic Constant Matrix: (Units=GPa)
#
#
# Indices 1 2 3 4 5 6 
#
# 1 48.2871 0.8150 8.5352 0.0000 0.0000 0.0000
# 2 0.8150 77.2838 6.7345 0.0000 0.0000 0.0000
# 3 8.5352 6.7345 95.8526 0.0000 0.0000 0.0000
# 4 0.0000 0.0000 0.0000 24.4128 0.0000 0.0000
# 5 0.0000 0.0000 0.0000 0.0000 44.7787 0.0000
# 6 0.0000 0.0000 0.0000 0.0000 0.0000 20.0560
#
#
#
# Elastic Compliance Matrix: (Units=1/GPa)
#
#
# Indices 1 2 3 4 5 6 
#
# 1 0.021041 -0.000059 -0.001869 0.000000 0.000000 0.000000
# 2 -0.000059 0.013019 -0.000909 0.000000 0.000000 0.000000
# 3 -0.001869 -0.000909 0.010663 0.000000 0.000000 0.000000
# 4 0.000000 0.000000 0.000000 0.040962 0.000000 0.000000
# 5 0.000000 0.000000 0.000000 0.000000 0.022332 0.000000
# 6 0.000000 0.000000 0.000000 0.000000 0.000000 0.049860
#
#
# Mechanical properties :
#
#
# Convention : Reuss Voigt Hill
#
# Bulk Modulus (GPa) = 25.60992 28.17699 26.89346
# Shear Modulus (GPa) = 28.31750 31.53875 29.92812
#
# Velocity S-wave (km/s) = 3.24670 3.42639 3.33775
# Velocity P-wave (km/s) = 4.85673 5.11295 4.98649
#
# Compressibility (1/GPa) = 0.03904737
#
# Stress axis : x y z
#
# Youngs Moduli (GPa) = 47.52648 76.80963 93.78182
#
# Poissons Ratio (x) = 0.00453 0.17532
# Poissons Ratio (y) = 0.00280 0.08529
# Poissons Ratio (z) = 0.08885 0.06986
#
# Static dielectric constant tensor:
#      x y z
#    x 2.300830 0.000000 0.000000 
#    y 0.000000 2.105740 0.000000 
#    z 0.000000 0.000000 2.084070 
# 
# From -- ./inp_files/5453.got.cif
#   From: 2010.05.17/outbox.cif.g08.bks.cpg/sg19_3_cif.got.tgz:5453.got - 2010.06.03 22:46:19.
