data_PCOD9315205
_publ_section_title
;
Structure prediction by ZEFSAII (Michael W. Deem and Ramdas Pophale) SiO2 
 PCOD9315205
Probable space group: P 21 21 21
;
_chemical_formula_sum "Si O2"
_cell_formula_units_Z 32
_cell_length_a 21.803613
_cell_length_b 11.238287
_cell_length_c 5.003517
_cell_angle_alpha 90.000000
_cell_angle_beta 90.000000
_cell_angle_gamma 90.000000
_cell_volume 1226.038092
_symmetry_space_group_name_H-M "P 21 21 21"
_symmetry_group_IT_number 19
_symmetry_cell_setting 'orthorhombic'
loop_
_space_group_symop_operation_xyz
x,y,z
1/2-x,-y,1/2+z
1/2+x,1/2-y,-z
-x,1/2+y,1/2-z
loop_
_atom_site_type_symbol
_atom_site_label
_atom_site_fract_x
_atom_site_fract_y
_atom_site_fract_z
Si Si1 0.453058 0.216843 0.255445
Si Si2 0.834187 0.272832 0.076216
Si Si3 0.832772 0.061088 0.420319
Si Si4 0.015215 0.629719 0.254734
Si Si5 0.793386 0.487140 0.437683
Si Si6 0.772703 0.817968 0.226691
Si Si7 0.562793 0.076449 0.065904
Si Si8 0.382350 0.814737 0.679699
O O1 0.456961 0.272775 0.548076
O O2 0.385169 0.187570 0.142898
O O3 0.477389 0.319290 0.051519
O O4 0.502629 0.110219 0.231984
O O5 0.857882 0.145406 0.187395
O O6 0.825228 0.372573 0.301836
O O7 0.766631 0.244269 0.959368
O O8 0.779763 0.144803 0.527312
O O9 0.801778 0.942269 0.315798
O O10 0.881818 0.014264 0.639579
O O11 0.038888 0.497531 0.191814
O O12 0.942506 0.631928 0.189156
O O13 0.755679 0.471939 0.709827
O O14 0.846405 0.584277 0.479818
O O15 0.829357 0.738910 0.128720
O O16 0.594876 0.200659 0.989247
#
# Coordination Sequence:
#
# PCOD9315205 Si02
#       8
#     4   4   4   4   4   4   4   4
#     4  11  26  44  71 106 143 190 243 301 371 439
#     4  12  24  43  73 100 147 188 242 303 371 446
#     4  11  22  40  70 105 146 184 241 307 370 442
#     4  11  24  47  70 105 144 190 245 302 370 435
#     4  12  27  47  70 103 147 193 243 294 370 455
#     4  11  22  41  67 109 141 188 235 300 378 434
#     4  10  23  46  72 105 145 190 246 309 364 437
#     4  10  24  46  71 105 149 191 247 304 368 450
#
# _framework density 26.100328999999999
#
# number of rings (size 3 to 8) (size 9 to 14) (size 15 to 20)
#    0.000    1.000    3.750    2.250    0.000    5.000 
#    4.500    0.000    0.000    0.000    0.000    0.000 
#    0.000    0.000    0.000    0.000    0.000    0.000 
#
# Total GULP energy -179016.481230 kJ/mol
# GULP energy per Si atom -5594.265038 kJ/mol
# Density = 2.604092 g / cm^3
# Si number density = 26.100329 Si / 1000 Ang^3
#
#
#
# Elastic Constant Matrix: (Units=GPa)
#
#
# Indices 1 2 3 4 5 6 
#
# 1 138.2733 40.0418 20.5414 0.0000 0.0000 0.0000
# 2 40.0418 112.8305 22.1036 0.0000 0.0000 0.0000
# 3 20.5414 22.1036 79.8621 0.0000 0.0000 0.0000
# 4 0.0000 0.0000 0.0000 33.5129 0.0000 0.0000
# 5 0.0000 0.0000 0.0000 0.0000 22.0603 0.0000
# 6 0.0000 0.0000 0.0000 0.0000 0.0000 72.9247
#
#
#
# Elastic Compliance Matrix: (Units=1/GPa)
#
#
# Indices 1 2 3 4 5 6 
#
# 1 0.008202 -0.002641 -0.001379 0.000000 0.000000 0.000000
# 2 -0.002641 0.010221 -0.002150 0.000000 0.000000 0.000000
# 3 -0.001379 -0.002150 0.013471 0.000000 0.000000 0.000000
# 4 0.000000 0.000000 0.000000 0.029839 0.000000 0.000000
# 5 0.000000 0.000000 0.000000 0.000000 0.045330 0.000000
# 6 0.000000 0.000000 0.000000 0.000000 0.000000 0.013713
#
#
# Mechanical properties :
#
#
# Convention : Reuss Voigt Hill
#
# Bulk Modulus (GPa) = 51.13548 55.14879 53.14214
# Shear Modulus (GPa) = 35.80825 42.25153 39.02989
#
# Velocity S-wave (km/s) = 3.70800 4.02781 3.87121
# Velocity P-wave (km/s) = 6.16172 6.54266 6.35504
#
# Compressibility (1/GPa) = 0.01955589
#
# Stress axis : x y z
#
# Youngs Moduli (GPa) = 121.92863 97.83720 74.23250
#
# Poissons Ratio (x) = 0.25834 0.10234
# Poissons Ratio (y) = 0.32195 0.15958
# Poissons Ratio (z) = 0.16810 0.21032
#
# Static dielectric constant tensor:
#      x y z
#    x 2.169060 0.000000 0.000000 
#    y 0.000000 2.156600 0.000000 
#    z 0.000000 0.000000 2.076620 
# 
# From -- ./inp_files/1980.got.cif
#   From: 2010.05.17/outbox.cif.g08.bks.cpg/sg19_1_cif.got.tgz:1980.got - 2010.06.03 22:46:19.
