data_PCOD9315879
_publ_section_title
;
Structure prediction by ZEFSAII (Michael W. Deem and Ramdas Pophale) SiO2 
 PCOD9315879
Probable space group: P 21 21 21
;
_chemical_formula_sum "Si O2"
_cell_formula_units_Z 32
_cell_length_a 22.045113
_cell_length_b 5.990449
_cell_length_c 10.659649
_cell_angle_alpha 90.000000
_cell_angle_beta 90.000000
_cell_angle_gamma 90.000000
_cell_volume 1407.714581
_symmetry_space_group_name_H-M "P 21 21 21"
_symmetry_group_IT_number 19
_symmetry_cell_setting 'orthorhombic'
loop_
_space_group_symop_operation_xyz
x,y,z
1/2-x,-y,1/2+z
1/2+x,1/2-y,-z
-x,1/2+y,1/2-z
loop_
_atom_site_type_symbol
_atom_site_label
_atom_site_fract_x
_atom_site_fract_y
_atom_site_fract_z
Si Si1 0.794292 0.876474 0.111369
Si Si2 0.973124 0.266572 0.913862
Si Si3 0.091123 0.413958 0.762528
Si Si4 0.141251 0.075904 0.578534
Si Si5 0.266442 0.869353 0.637415
Si Si6 0.481665 0.199053 0.798761
Si Si7 0.348648 0.256424 0.738770
Si Si8 0.328899 0.515865 0.496384
O O1 0.770327 0.800575 0.246777
O O2 0.826478 0.108704 0.140263
O O3 0.735795 0.897566 0.024501
O O4 0.841489 0.711548 0.046290
O O5 0.924872 0.467514 0.923120
O O6 0.031624 0.308457 0.827417
O O7 0.934640 0.071910 0.847028
O O8 0.994556 0.237600 0.056467
O O9 0.136858 0.243194 0.696147
O O10 0.128912 0.521175 0.876587
O O11 0.197405 0.910103 0.599875
O O12 0.308431 0.770378 0.526108
O O13 0.297472 0.088278 0.693132
O O14 0.490557 0.449446 0.733213
O O15 0.411292 0.145569 0.773963
O O16 0.359276 0.420623 0.621090
#
# Coordination Sequence:
#
# PCOD9315879 Si02
#       8
#     4   4   4   4   4   4   4   4
#     4  11  25  44  70 109 147 194 253 314 403 463
#     4  12  28  50  78 111 157 206 267 323 402 483
#     4  12  27  48  74 111 154 204 257 327 399 482
#     4  12  26  45  75 109 150 201 251 324 394 484
#     4  11  26  44  73 109 147 202 253 324 397 479
#     4  12  31  52  83 114 157 215 272 338 395 474
#     4  11  25  47  72 105 151 199 258 323 395 479
#     4  11  26  44  73 110 153 195 255 325 391 486
#
# _framework density 22.731878999999999
#
# number of rings (size 3 to 8) (size 9 to 14) (size 15 to 20)
#    0.000    0.500    2.500    3.750   17.500    2.000 
#    0.000    0.000    0.000    0.000    0.000    0.000 
#    0.000    0.000    0.000    0.000    0.000    0.000 
#
# Total GULP energy -178804.002002 kJ/mol
# GULP energy per Si atom -5587.625063 kJ/mol
# Density = 2.268014 g / cm^3
# Si number density = 22.731879 Si / 1000 Ang^3
#
#
#
# Elastic Constant Matrix: (Units=GPa)
#
#
# Indices 1 2 3 4 5 6 
#
# 1 81.7079 24.1283 12.3535 0.0000 0.0000 0.0000
# 2 24.1283 48.9923 31.9715 0.0000 0.0000 0.0000
# 3 12.3535 31.9715 107.0272 0.0000 0.0000 0.0000
# 4 0.0000 0.0000 0.0000 45.7224 0.0000 0.0000
# 5 0.0000 0.0000 0.0000 0.0000 39.2995 0.0000
# 6 0.0000 0.0000 0.0000 0.0000 0.0000 45.2824
#
#
#
# Elastic Compliance Matrix: (Units=1/GPa)
#
#
# Indices 1 2 3 4 5 6 
#
# 1 0.014349 -0.007435 0.000565 0.000000 0.000000 0.000000
# 2 -0.007435 0.029207 -0.007867 0.000000 0.000000 0.000000
# 3 0.000565 -0.007867 0.011628 0.000000 0.000000 0.000000
# 4 0.000000 0.000000 0.000000 0.021871 0.000000 0.000000
# 5 0.000000 0.000000 0.000000 0.000000 0.025446 0.000000
# 6 0.000000 0.000000 0.000000 0.000000 0.000000 0.022084
#
#
# Mechanical properties :
#
#
# Convention : Reuss Voigt Hill
#
# Bulk Modulus (GPa) = 38.89556 41.62601 40.26079
# Shear Modulus (GPa) = 30.74495 37.34579 34.04537
#
# Velocity S-wave (km/s) = 3.68163 4.05764 3.87420
# Velocity P-wave (km/s) = 5.93467 6.34855 6.14509
#
# Compressibility (1/GPa) = 0.02570987
#
# Stress axis : x y z
#
# Youngs Moduli (GPa) = 69.69134 34.23858 85.99834
#
# Poissons Ratio (x) = 0.25458 -0.04858
# Poissons Ratio (y) = 0.51818 0.67651
# Poissons Ratio (z) = -0.03937 0.26934
#
# Static dielectric constant tensor:
#      x y z
#    x 1.795910 0.000000 0.000000 
#    y 0.000000 1.941000 0.000000 
#    z 0.000000 0.000000 1.841820 
# 
# From -- ./inp_files/5464.got.cif
#   From: 2010.05.17/outbox.cif.g08.bks.cpg/sg19_3_cif.got.tgz:5464.got - 2010.06.03 22:46:19.
