data_PCOD9315632
_publ_section_title
;
Structure prediction by ZEFSAII (Michael W. Deem and Ramdas Pophale) SiO2 
 PCOD9315632
Probable space group: P 21 21 21
;
_chemical_formula_sum "Si O2"
_cell_formula_units_Z 28
_cell_length_a 6.770827
_cell_length_b 12.726772
_cell_length_c 13.800365
_cell_angle_alpha 90.000000
_cell_angle_beta 90.000000
_cell_angle_gamma 90.000000
_cell_volume 1189.188099
_symmetry_space_group_name_H-M "P 21 21 21"
_symmetry_group_IT_number 19
_symmetry_cell_setting 'orthorhombic'
loop_
_space_group_symop_operation_xyz
x,y,z
1/2-x,-y,1/2+z
1/2+x,1/2-y,-z
-x,1/2+y,1/2-z
loop_
_atom_site_type_symbol
_atom_site_label
_atom_site_fract_x
_atom_site_fract_y
_atom_site_fract_z
Si Si1 0.028525 0.712575 0.859070
Si Si2 0.398121 0.396175 0.782092
Si Si3 0.212287 0.930997 0.159682
Si Si4 0.722864 0.025145 0.890391
Si Si5 0.513309 0.100037 0.076996
Si Si6 0.390443 0.632220 0.981316
Si Si7 0.750197 0.751480 0.315671
O O1 0.147402 0.784834 0.784350
O O2 0.864370 0.651707 0.794942
O O3 0.919294 0.776009 0.942285
O O4 0.193498 0.644843 0.916834
O O5 0.555861 0.491955 0.791767
O O6 0.331449 0.421927 0.672427
O O7 0.208775 0.400047 0.853844
O O8 0.528605 0.293920 0.808300
O O9 0.365342 0.007970 0.107514
O O10 0.075624 0.865613 0.088393
O O11 0.764253 0.122609 0.820137
O O12 0.889340 0.978781 0.961811
O O13 0.570287 0.076807 0.966413
O O14 0.381436 0.203618 0.097795
#
# Coordination Sequence:
#
# PCOD9315632 Si02
#       7
#     4   4   4   4   4   4   4
#     4  12  25  45  70 112 145 190 245 311 374 444
#     4  11  26  50  73 108 145 194 252 308 375 446
#     4  11  22  46  71 102 145 184 242 311 362 440
#     4  12  26  47  75 104 149 194 245 307 378 444
#     4  11  25  47  70 104 144 193 251 296 374 453
#     4  12  25  41  76 106 141 190 248 302 374 443
#     4  11  29  46  71 106 153 191 245 311 373 446
#
# _framework density 23.545476000000001
#
# number of rings (size 3 to 8) (size 9 to 14) (size 15 to 20)
#    0.000    0.571    4.286    2.571    6.000    4.571 
#    0.000    0.000    0.000    0.000    0.000    0.000 
#    0.000    0.000    0.000    0.000    0.000    0.000 
#
# Total GULP energy -156270.248083 kJ/mol
# GULP energy per Si atom -5581.080289 kJ/mol
# Density = 2.349189 g / cm^3
# Si number density = 23.545476 Si / 1000 Ang^3
#
#
#
# Elastic Constant Matrix: (Units=GPa)
#
#
# Indices 1 2 3 4 5 6 
#
# 1 141.6268 34.9453 28.7081 0.0000 0.0000 0.0000
# 2 34.9453 62.8110 -6.8798 0.0000 0.0000 0.0000
# 3 28.7081 -6.8798 65.8555 0.0000 0.0000 0.0000
# 4 0.0000 0.0000 0.0000 27.8840 0.0000 0.0000
# 5 0.0000 0.0000 0.0000 0.0000 28.7849 0.0000
# 6 0.0000 0.0000 0.0000 0.0000 0.0000 40.3061
#
#
#
# Elastic Compliance Matrix: (Units=1/GPa)
#
#
# Indices 1 2 3 4 5 6 
#
# 1 0.009441 -0.005769 -0.004718 0.000000 0.000000 0.000000
# 2 -0.005769 0.019631 0.004566 0.000000 0.000000 0.000000
# 3 -0.004718 0.004566 0.017718 0.000000 0.000000 0.000000
# 4 0.000000 0.000000 0.000000 0.035863 0.000000 0.000000
# 5 0.000000 0.000000 0.000000 0.000000 0.034740 0.000000
# 6 0.000000 0.000000 0.000000 0.000000 0.000000 0.024810
#
#
# Mechanical properties :
#
#
# Convention : Reuss Voigt Hill
#
# Bulk Modulus (GPa) = 28.61512 42.64894 35.63203
# Shear Modulus (GPa) = 30.17590 33.62966 31.90278
#
# Velocity S-wave (km/s) = 3.58383 3.78337 3.68495
# Velocity P-wave (km/s) = 5.41337 6.10229 5.76812
#
# Compressibility (1/GPa) = 0.03494655
#
# Stress axis : x y z
#
# Youngs Moduli (GPa) = 105.92453 50.94096 56.43823
#
# Poissons Ratio (x) = 0.29389 0.26628
# Poissons Ratio (y) = 0.61110 -0.25768
# Poissons Ratio (z) = 0.49977 -0.23258
#
# Static dielectric constant tensor:
#      x y z
#    x 1.898230 0.000000 0.000000 
#    y 0.000000 1.989730 0.000000 
#    z 0.000000 0.000000 1.957770 
# 
# From -- ./inp_files/5704.got.cif
#   From: 2010.05.17/outbox.cif.g08.bks.cpg/sg19_3_cif.got.tgz:5704.got - 2010.06.03 22:46:19.
