data_PCOD9315906
_publ_section_title
;
Structure prediction by ZEFSAII (Michael W. Deem and Ramdas Pophale) SiO2 
 PCOD9315906
Probable space group: P 21 21 21
;
_chemical_formula_sum "Si O2"
_cell_formula_units_Z 28
_cell_length_a 6.940144
_cell_length_b 21.188266
_cell_length_c 7.165239
_cell_angle_alpha 90.000000
_cell_angle_beta 90.000000
_cell_angle_gamma 90.000000
_cell_volume 1053.645652
_symmetry_space_group_name_H-M "P 21 21 21"
_symmetry_group_IT_number 19
_symmetry_cell_setting 'orthorhombic'
loop_
_space_group_symop_operation_xyz
x,y,z
1/2-x,-y,1/2+z
1/2+x,1/2-y,-z
-x,1/2+y,1/2-z
loop_
_atom_site_type_symbol
_atom_site_label
_atom_site_fract_x
_atom_site_fract_y
_atom_site_fract_z
Si Si1 0.130965 0.455422 0.348272
Si Si2 0.081996 0.897173 0.808445
Si Si3 0.980295 0.216620 0.228767
Si Si4 0.818507 0.635161 0.863128
Si Si5 0.975017 0.497350 0.962431
Si Si6 0.325131 0.175364 0.005986
Si Si7 0.709368 0.816729 0.111903
O O1 0.306339 0.503449 0.383575
O O2 0.219004 0.385238 0.317835
O O3 0.023989 0.442151 0.543252
O O4 0.005655 0.481590 0.178651
O O5 0.011873 0.847976 0.649948
O O6 0.154081 0.949504 0.658250
O O7 0.190606 0.851119 0.955575
O O8 0.124146 0.170047 0.119408
O O9 0.131206 0.267062 0.322838
O O10 0.841874 0.188116 0.389329
O O11 0.863533 0.255333 0.073152
O O12 0.692076 0.634395 0.679931
O O13 0.901977 0.567735 0.924180
O O14 0.987862 0.684584 0.818763
#
# Coordination Sequence:
#
# PCOD9315906 Si02
#       7
#     4   4   4   4   4   4   4
#     4  11  25  48  72 111 149 201 255 322 387 475
#     4  12  25  45  75 106 147 197 249 322 375 469
#     4  12  26  48  82 109 158 205 260 323 400 459
#     4  11  26  48  72 111 153 195 255 319 383 468
#     4  11  25  47  74 105 151 199 250 316 396 457
#     4  12  28  48  74 118 148 205 261 319 392 471
#     4  11  25  48  77 108 154 198 258 321 387 465
#
# _framework density 26.574397999999999
#
# number of rings (size 3 to 8) (size 9 to 14) (size 15 to 20)
#    0.000    0.571    2.857    4.286    8.000    0.000 
#    5.143    0.000    0.000    0.000    0.000    0.000 
#    0.000    0.000    0.000    0.000    0.000    0.000 
#
# Total GULP energy -156290.548732 kJ/mol
# GULP energy per Si atom -5581.805312 kJ/mol
# Density = 2.651391 g / cm^3
# Si number density = 26.574398 Si / 1000 Ang^3
#
#
#
# Elastic Constant Matrix: (Units=GPa)
#
#
# Indices 1 2 3 4 5 6 
#
# 1 76.8817 14.2666 56.7824 0.0000 0.0000 0.0000
# 2 14.2666 79.9547 46.5195 0.0000 0.0000 0.0000
# 3 56.7824 46.5195 212.3156 0.0000 0.0000 0.0000
# 4 0.0000 0.0000 0.0000 56.8593 0.0000 0.0000
# 5 0.0000 0.0000 0.0000 0.0000 -11.0110 0.0000
# 6 0.0000 0.0000 0.0000 0.0000 0.0000 38.8261
#
#
#
# Elastic Compliance Matrix: (Units=1/GPa)
#
#
# Indices 1 2 3 4 5 6 
#
# 1 0.016221 -0.000424 -0.004245 0.000000 0.000000 0.000000
# 2 -0.000424 0.014346 -0.003030 0.000000 0.000000 0.000000
# 3 -0.004245 -0.003030 0.006509 0.000000 0.000000 0.000000
# 4 0.000000 0.000000 0.000000 0.017587 0.000000 0.000000
# 5 0.000000 0.000000 0.000000 0.000000 -0.090818 0.000000
# 6 0.000000 0.000000 0.000000 0.000000 0.000000 0.025756
#
#
# Mechanical properties :
#
#
# Convention : Reuss Voigt Hill
#
# Bulk Modulus (GPa) = 46.13147 67.14321 56.63734
# Shear Modulus (GPa) = 408.97843 33.70709 221.34276
#
# Velocity S-wave (km/s) = 12.41908 3.56533 9.13633
# Velocity P-wave (km/s) = 14.93458 6.50152 11.51763
#
# Compressibility (1/GPa) = 0.02167718
#
# Stress axis : x y z
#
# Youngs Moduli (GPa) = 61.64784 69.70806 153.62987
#
# Poissons Ratio (x) = 0.02959 0.65220
# Poissons Ratio (y) = 0.02616 0.46545
# Poissons Ratio (z) = 0.26171 0.21119
#
# Static dielectric constant tensor:
#      x y z
#    x 2.262490 0.000000 0.000000 
#    y 0.000000 2.145180 0.000000 
#    z 0.000000 0.000000 2.040210 
# 
# From -- ./inp_files/527.got.cif
#   From: 2010.05.17/outbox.cif.g08.bks.cpg/sg19_1_cif.got.tgz:527.got - 2010.06.03 22:46:19.
