data_PCOD9315748
_publ_section_title
;
Structure prediction by ZEFSAII (Michael W. Deem and Ramdas Pophale) SiO2 
 PCOD9315748
Probable space group: P 21 21 21
;
_chemical_formula_sum "Si O2"
_cell_formula_units_Z 32
_cell_length_a 11.774717
_cell_length_b 8.102820
_cell_length_c 14.756159
_cell_angle_alpha 90.000000
_cell_angle_beta 90.000000
_cell_angle_gamma 90.000000
_cell_volume 1407.861703
_symmetry_space_group_name_H-M "P 21 21 21"
_symmetry_group_IT_number 19
_symmetry_cell_setting 'orthorhombic'
loop_
_space_group_symop_operation_xyz
x,y,z
1/2-x,-y,1/2+z
1/2+x,1/2-y,-z
-x,1/2+y,1/2-z
loop_
_atom_site_type_symbol
_atom_site_label
_atom_site_fract_x
_atom_site_fract_y
_atom_site_fract_z
Si Si1 0.978339 0.173866 0.531021
Si Si2 0.417180 0.192780 0.038605
Si Si3 0.478354 0.257535 0.847249
Si Si4 0.154620 0.781709 0.811037
Si Si5 0.032740 0.134021 0.806547
Si Si6 0.904972 0.097586 0.339461
Si Si7 0.710056 0.412471 0.841316
Si Si8 0.178916 0.273311 0.657398
O O1 0.863467 0.221278 0.586311
O O2 0.959853 0.193836 0.424504
O O3 0.081144 0.269907 0.580962
O O4 0.017120 0.983250 0.543092
O O5 0.498495 0.315802 0.093241
O O6 0.299350 0.174402 0.091491
O O7 0.400156 0.243649 0.935276
O O8 0.419082 0.312632 0.755902
O O9 0.581460 0.382096 0.867429
O O10 0.535169 0.078680 0.834478
O O11 0.269970 0.828193 0.758507
O O12 0.081670 0.651119 0.752836
O O13 0.088534 0.956000 0.802041
O O14 0.117961 0.258696 0.754882
O O15 0.770160 0.084527 0.356224
O O16 0.749204 0.602134 0.846015
#
# Coordination Sequence:
#
# PCOD9315748 Si02
#       8
#     4   4   4   4   4   4   4   4
#     4   9  20  38  58  82 112 146 189 236 278 328
#     4   9  20  38  58  82 112 146 189 236 278 328
#     4  11  24  40  57  81 114 149 187 230 276 331
#     4   9  17  31  55  84 112 143 181 226 275 327
#     4   9  17  31  55  84 112 143 181 226 275 327
#     4  11  24  40  57  81 114 149 187 230 276 331
#     4   9  19  37  58  81 112 148 183 226 282 334
#     4   9  19  37  58  81 112 148 183 226 282 334
#
# _framework density 22.729507000000002
#
# number of rings (size 3 to 8) (size 9 to 14) (size 15 to 20)
#    0.000    2.500    0.000    3.000    0.000    9.000 
#    0.000    7.500    0.000    0.000    0.000    0.000 
#    0.000    0.000    0.000    0.000    0.000    0.000 
#
# Total GULP energy -178734.772962 kJ/mol
# GULP energy per Si atom -5585.461655 kJ/mol
# Density = 2.267777 g / cm^3
# Si number density = 22.729507 Si / 1000 Ang^3
#
#
#
# Elastic Constant Matrix: (Units=GPa)
#
#
# Indices 1 2 3 4 5 6 
#
# 1 46.1900 6.2020 12.1558 0.0000 0.0000 0.0000
# 2 6.2020 41.6413 24.0532 0.0000 0.0000 0.0000
# 3 12.1558 24.0532 118.0966 0.0000 0.0000 0.0000
# 4 0.0000 0.0000 0.0000 19.0357 0.0000 0.0000
# 5 0.0000 0.0000 0.0000 0.0000 23.1015 0.0000
# 6 0.0000 0.0000 0.0000 0.0000 0.0000 30.6237
#
#
#
# Elastic Compliance Matrix: (Units=1/GPa)
#
#
# Indices 1 2 3 4 5 6 
#
# 1 0.022441 -0.002276 -0.001846 0.000000 0.000000 0.000000
# 2 -0.002276 0.027447 -0.005356 0.000000 0.000000 0.000000
# 3 -0.001846 -0.005356 0.009749 0.000000 0.000000 0.000000
# 4 0.000000 0.000000 0.000000 0.052533 0.000000 0.000000
# 5 0.000000 0.000000 0.000000 0.000000 0.043287 0.000000
# 6 0.000000 0.000000 0.000000 0.000000 0.000000 0.032654
#
#
# Mechanical properties :
#
#
# Convention : Reuss Voigt Hill
#
# Bulk Modulus (GPa) = 24.58174 32.30555 28.44364
# Shear Modulus (GPa) = 22.66252 25.45330 24.05791
#
# Velocity S-wave (km/s) = 3.16104 3.35002 3.25690
# Velocity P-wave (km/s) = 4.91541 5.40439 5.16569
#
# Compressibility (1/GPa) = 0.04068060
#
# Stress axis : x y z
#
# Youngs Moduli (GPa) = 44.56094 36.43331 102.57896
#
# Poissons Ratio (x) = 0.08292 0.18940
# Poissons Ratio (y) = 0.10141 0.54942
# Poissons Ratio (z) = 0.08228 0.19514
#
# Static dielectric constant tensor:
#      x y z
#    x 1.882110 0.000000 0.000000 
#    y 0.000000 1.868170 0.000000 
#    z 0.000000 0.000000 1.854970 
# 
# From -- ./inp_files/5919.got.cif
#   From: 2010.05.17/outbox.cif.g08.bks.cpg/sg19_3_cif.got.tgz:5919.got - 2010.06.03 22:46:19.
