data_PCOD9315329
_publ_section_title
;
Structure prediction by ZEFSAII (Michael W. Deem and Ramdas Pophale) SiO2 
 PCOD9315329
Probable space group: P 21 21 21
;
_chemical_formula_sum "Si O2"
_cell_formula_units_Z 28
_cell_length_a 12.777485
_cell_length_b 6.955741
_cell_length_c 15.969577
_cell_angle_alpha 90.000000
_cell_angle_beta 90.000000
_cell_angle_gamma 90.000000
_cell_volume 1419.326119
_symmetry_space_group_name_H-M "P 21 21 21"
_symmetry_group_IT_number 19
_symmetry_cell_setting 'orthorhombic'
loop_
_space_group_symop_operation_xyz
x,y,z
1/2-x,-y,1/2+z
1/2+x,1/2-y,-z
-x,1/2+y,1/2-z
loop_
_atom_site_type_symbol
_atom_site_label
_atom_site_fract_x
_atom_site_fract_y
_atom_site_fract_z
Si Si1 0.554784 0.043497 0.075825
Si Si2 0.815412 0.076404 0.727961
Si Si3 0.948713 0.246916 0.428491
Si Si4 0.672852 0.383098 0.635353
Si Si5 0.203970 0.816624 0.225418
Si Si6 0.836149 0.586993 0.513241
Si Si7 0.326472 0.141038 0.125659
O O1 0.613095 0.246291 0.067669
O O2 0.431341 0.080367 0.078524
O O3 0.591328 0.942674 0.161329
O O4 0.584048 0.913669 0.996097
O O5 0.728181 0.214372 0.687394
O O6 0.848216 0.179236 0.813939
O O7 0.765270 0.869204 0.743209
O O8 0.879582 0.251238 0.344332
O O9 0.924732 0.450774 0.472885
O O10 0.067748 0.200078 0.404817
O O11 0.652708 0.561307 0.698889
O O12 0.756035 0.458722 0.567211
O O13 0.285105 0.963034 0.181346
O O14 0.766809 0.679645 0.439306
#
# Coordination Sequence:
#
# PCOD9315329 Si02
#       7
#     4   4   4   4   4   4   4
#     4  12  24  40  71  97 130 178 219 265 339 389
#     4  11  24  41  67  95 132 174 214 270 339 388
#     4  11  25  43  68  96 132 177 224 270 332 389
#     4  11  23  43  66  98 133 170 222 275 327 395
#     4  10  24  45  66  93 136 168 221 277 320 398
#     4  11  23  45  63  97 136 168 221 278 319 398
#     4  10  25  43  63  98 133 169 219 273 322 399
#
# _framework density 19.727671999999998
#
# number of rings (size 3 to 8) (size 9 to 14) (size 15 to 20)
#    0.000    1.143    4.286    0.857    4.000    3.429 
#    0.000    0.000    0.000    0.000    0.000    0.000 
#    0.000    0.000    0.000    0.000    0.000    0.000 
#
# Total GULP energy -156478.437256 kJ/mol
# GULP energy per Si atom -5588.515616 kJ/mol
# Density = 1.968277 g / cm^3
# Si number density = 19.727672 Si / 1000 Ang^3
#
#
#
# Elastic Constant Matrix: (Units=GPa)
#
#
# Indices 1 2 3 4 5 6 
#
# 1 73.8035 37.9225 23.5071 0.0000 0.0000 0.0000
# 2 37.9225 59.5800 25.2759 0.0000 0.0000 0.0000
# 3 23.5071 25.2759 80.8395 0.0000 0.0000 0.0000
# 4 0.0000 0.0000 0.0000 46.3393 0.0000 0.0000
# 5 0.0000 0.0000 0.0000 0.0000 32.3295 0.0000
# 6 0.0000 0.0000 0.0000 0.0000 0.0000 21.5870
#
#
#
# Elastic Compliance Matrix: (Units=1/GPa)
#
#
# Indices 1 2 3 4 5 6 
#
# 1 0.020458 -0.012103 -0.002165 0.000000 0.000000 0.000000
# 2 -0.012103 0.026511 -0.004770 0.000000 0.000000 0.000000
# 3 -0.002165 -0.004770 0.014491 0.000000 0.000000 0.000000
# 4 0.000000 0.000000 0.000000 0.021580 0.000000 0.000000
# 5 0.000000 0.000000 0.000000 0.000000 0.030932 0.000000
# 6 0.000000 0.000000 0.000000 0.000000 0.000000 0.046324
#
#
# Mechanical properties :
#
#
# Convention : Reuss Voigt Hill
#
# Bulk Modulus (GPa) = 42.76226 43.07045 42.91636
# Shear Modulus (GPa) = 24.25232 28.55231 26.40231
#
# Velocity S-wave (km/s) = 3.51002 3.80850 3.66230
# Velocity P-wave (km/s) = 6.17660 6.42024 6.29959
#
# Compressibility (1/GPa) = 0.02338510
#
# Stress axis : x y z
#
# Youngs Moduli (GPa) = 48.88089 37.71985 69.00838
#
# Poissons Ratio (x) = 0.45653 0.14938
# Poissons Ratio (y) = 0.59161 0.32915
# Poissons Ratio (z) = 0.10581 0.17991
#
# Static dielectric constant tensor:
#      x y z
#    x 1.645430 0.000000 0.000000 
#    y 0.000000 1.664230 0.000000 
#    z 0.000000 0.000000 1.709100 
# 
# From -- ./inp_files/1743.got.cif
#   From: 2010.05.17/outbox.cif.g08.bks.cpg/sg19_1_cif.got.tgz:1743.got - 2010.06.03 22:46:19.
