data_PCOD9315878
_publ_section_title
;
Structure prediction by ZEFSAII (Michael W. Deem and Ramdas Pophale) SiO2 
 PCOD9315878
Probable space group: P 21 21 21
;
_chemical_formula_sum "Si O2"
_cell_formula_units_Z 16
_cell_length_a 12.735858
_cell_length_b 4.831897
_cell_length_c 9.971268
_cell_angle_alpha 90.000000
_cell_angle_beta 90.000000
_cell_angle_gamma 90.000000
_cell_volume 613.615421
_symmetry_space_group_name_H-M "P 21 21 21"
_symmetry_group_IT_number 19
_symmetry_cell_setting 'orthorhombic'
loop_
_space_group_symop_operation_xyz
x,y,z
1/2-x,-y,1/2+z
1/2+x,1/2-y,-z
-x,1/2+y,1/2-z
loop_
_atom_site_type_symbol
_atom_site_label
_atom_site_fract_x
_atom_site_fract_y
_atom_site_fract_z
Si Si1 0.407252 0.744965 0.070633
Si Si2 0.480014 0.924401 0.663162
Si Si3 0.217059 0.100614 0.977275
Si Si4 0.634685 0.897031 0.172839
O O1 0.360483 0.539297 0.183141
O O2 0.512474 0.890277 0.129159
O O3 0.444499 0.556216 0.947316
O O4 0.325902 0.974997 0.023512
O O5 0.490394 0.117123 0.793424
O O6 0.365286 0.935956 0.598625
O O7 0.176002 0.911040 0.852823
O O8 0.202671 0.411989 0.927140
#
# Coordination Sequence:
#
# PCOD9315878 Si02
#       4
#     4   4   4   4
#     4  11  26  48  78  99 155 185 242 306 349 439
#     4  11  25  44  67 106 146 181 235 294 354 424
#     4  11  27  44  75 109 139 195 237 296 365 423
#     4  11  26  48  72 110 138 193 248 288 368 422
#
# _framework density 26.074961999999999
#
# number of rings (size 3 to 8) (size 9 to 14) (size 15 to 20)
#    0.000    1.000    0.000    6.000    7.000   10.000 
#    0.000    0.000    0.000    0.000    0.000    0.000 
#    0.000    0.000    0.000    0.000    0.000    0.000 
#
# Total GULP energy -89939.859600 kJ/mol
# GULP energy per Si atom -5621.241225 kJ/mol
# Density = 2.601561 g / cm^3
# Si number density = 26.074962 Si / 1000 Ang^3
#
#
#
# Elastic Constant Matrix: (Units=GPa)
#
#
# Indices 1 2 3 4 5 6 
#
# 1 85.3957 17.3836 35.4582 0.0000 0.0000 0.0000
# 2 17.3836 101.6806 6.7371 0.0000 0.0000 0.0000
# 3 35.4582 6.7371 107.4131 0.0000 0.0000 0.0000
# 4 0.0000 0.0000 0.0000 44.4235 0.0000 0.0000
# 5 0.0000 0.0000 0.0000 0.0000 28.4436 0.0000
# 6 0.0000 0.0000 0.0000 0.0000 0.0000 33.4484
#
#
#
# Elastic Compliance Matrix: (Units=1/GPa)
#
#
# Indices 1 2 3 4 5 6 
#
# 1 0.014001 -0.002096 -0.004491 0.000000 0.000000 0.000000
# 2 -0.002096 0.010190 0.000053 0.000000 0.000000 0.000000
# 3 -0.004491 0.000053 0.010789 0.000000 0.000000 0.000000
# 4 0.000000 0.000000 0.000000 0.022511 0.000000 0.000000
# 5 0.000000 0.000000 0.000000 0.000000 0.035157 0.000000
# 6 0.000000 0.000000 0.000000 0.000000 0.000000 0.029897
#
#
# Mechanical properties :
#
#
# Convention : Reuss Voigt Hill
#
# Bulk Modulus (GPa) = 45.63664 45.96079 45.79872
# Shear Modulus (GPa) = 34.98544 36.92379 35.95461
#
# Velocity S-wave (km/s) = 3.66693 3.76714 3.71737
# Velocity P-wave (km/s) = 5.95555 6.04868 6.00230
#
# Compressibility (1/GPa) = 0.02191222
#
# Stress axis : x y z
#
# Youngs Moduli (GPa) = 71.42095 98.13937 92.68767
#
# Poissons Ratio (x) = 0.20572 0.41622
# Poissons Ratio (y) = 0.14971 -0.00490
# Poissons Ratio (z) = 0.32072 -0.00519
#
# Static dielectric constant tensor:
#      x y z
#    x 2.004960 0.000000 0.000000 
#    y 0.000000 1.961150 0.000000 
#    z 0.000000 0.000000 2.018460 
# 
# From -- ./inp_files/281.got.cif
#   From: 2010.05.17/outbox.cif.g08.bks.cpg/sg19_1_cif.got.tgz:281.got - 2010.06.03 22:46:19.
