data_PCOD9315475
_publ_section_title
;
Structure prediction by ZEFSAII (Michael W. Deem and Ramdas Pophale) SiO2 
 PCOD9315475
Probable space group: P 21 21 21
;
_chemical_formula_sum "Si O2"
_cell_formula_units_Z 16
_cell_length_a 5.193340
_cell_length_b 5.095127
_cell_length_c 22.860237
_cell_angle_alpha 90.000000
_cell_angle_beta 90.000000
_cell_angle_gamma 90.000000
_cell_volume 604.898487
_symmetry_space_group_name_H-M "P 21 21 21"
_symmetry_group_IT_number 19
_symmetry_cell_setting 'orthorhombic'
loop_
_space_group_symop_operation_xyz
x,y,z
1/2-x,-y,1/2+z
1/2+x,1/2-y,-z
-x,1/2+y,1/2-z
loop_
_atom_site_type_symbol
_atom_site_label
_atom_site_fract_x
_atom_site_fract_y
_atom_site_fract_z
Si Si1 0.111176 0.356665 0.677108
Si Si2 0.586148 0.199563 0.903176
Si Si3 0.244445 0.359583 0.804452
Si Si4 0.799009 0.569705 0.999572
O O1 0.271696 0.442079 0.620940
O O2 0.291124 0.373957 0.735007
O O3 0.901770 0.586375 0.685664
O O4 0.951429 0.089751 0.677498
O O5 0.488475 0.358948 0.846759
O O6 0.348814 0.106521 0.943060
O O7 0.758026 0.375751 0.945351
O O8 0.550888 0.751522 0.007010
#
# Coordination Sequence:
#
# PCOD9315475 Si02
#       4
#     4   4   4   4
#     4  10  26  50  81 124 168 217 278 348 425 511
#     4  12  30  50  84 120 170 226 280 354 428 508
#     4  10  26  50  81 124 168 217 278 348 425 511
#     4  12  32  54  82 124 172 226 294 348 420 506
#
# _framework density 26.450721999999999
#
# number of rings (size 3 to 8) (size 9 to 14) (size 15 to 20)
#    0.000    1.000    0.000    1.500   17.500    6.000 
#    0.000    0.000    0.000    0.000    0.000    0.000 
#    0.000    0.000    0.000    0.000    0.000    0.000 
#
# Total GULP energy -89978.855254 kJ/mol
# GULP energy per Si atom -5623.678453 kJ/mol
# Density = 2.639052 g / cm^3
# Si number density = 26.450722 Si / 1000 Ang^3
#
#
#
# Elastic Constant Matrix: (Units=GPa)
#
#
# Indices 1 2 3 4 5 6 
#
# 1 117.2490 50.3769 42.6135 0.0000 0.0000 0.0000
# 2 50.3769 107.2720 28.9353 0.0000 0.0000 0.0000
# 3 42.6135 28.9353 142.1084 0.0000 0.0000 0.0000
# 4 0.0000 0.0000 0.0000 44.3155 0.0000 0.0000
# 5 0.0000 0.0000 0.0000 0.0000 62.8895 0.0000
# 6 0.0000 0.0000 0.0000 0.0000 0.0000 50.6180
#
#
#
# Elastic Compliance Matrix: (Units=1/GPa)
#
#
# Indices 1 2 3 4 5 6 
#
# 1 0.011452 -0.004711 -0.002475 0.000000 0.000000 0.000000
# 2 -0.004711 0.011801 -0.000990 0.000000 0.000000 0.000000
# 3 -0.002475 -0.000990 0.007981 0.000000 0.000000 0.000000
# 4 0.000000 0.000000 0.000000 0.022565 0.000000 0.000000
# 5 0.000000 0.000000 0.000000 0.000000 0.015901 0.000000
# 6 0.000000 0.000000 0.000000 0.000000 0.000000 0.019756
#
#
# Mechanical properties :
#
#
# Convention : Reuss Voigt Hill
#
# Bulk Modulus (GPa) = 67.19330 67.83120 67.51225
# Shear Modulus (GPa) = 45.13874 47.87817 46.50846
#
# Velocity S-wave (km/s) = 4.13549 4.25913 4.19776
# Velocity P-wave (km/s) = 6.94704 7.06307 7.00530
#
# Compressibility (1/GPa) = 0.01488244
#
# Stress axis : x y z
#
# Youngs Moduli (GPa) = 87.31836 84.73539 125.30211
#
# Poissons Ratio (x) = 0.39916 0.31012
# Poissons Ratio (y) = 0.41132 0.12410
# Poissons Ratio (z) = 0.21611 0.08392
#
# Static dielectric constant tensor:
#      x y z
#    x 2.023550 0.000000 0.000000 
#    y 0.000000 2.042230 0.000000 
#    z 0.000000 0.000000 2.062240 
# 
# From -- ./inp_files/123.got.cif
#   From: 2010.05.17/outbox.cif.g08.bks.cpg/sg19_1_cif.got.tgz:123.got - 2010.06.03 22:46:19.
