data_PCOD9315701
_publ_section_title
;
Structure prediction by ZEFSAII (Michael W. Deem and Ramdas Pophale) SiO2 
 PCOD9315701
Probable space group: P 21 21 21
;
_chemical_formula_sum "Si O2"
_cell_formula_units_Z 28
_cell_length_a 22.501317
_cell_length_b 5.368465
_cell_length_c 9.051519
_cell_angle_alpha 90.000000
_cell_angle_beta 90.000000
_cell_angle_gamma 90.000000
_cell_volume 1093.401163
_symmetry_space_group_name_H-M "P 21 21 21"
_symmetry_group_IT_number 19
_symmetry_cell_setting 'orthorhombic'
loop_
_space_group_symop_operation_xyz
x,y,z
1/2-x,-y,1/2+z
1/2+x,1/2-y,-z
-x,1/2+y,1/2-z
loop_
_atom_site_type_symbol
_atom_site_label
_atom_site_fract_x
_atom_site_fract_y
_atom_site_fract_z
Si Si1 0.244938 0.977506 0.249301
Si Si2 0.951062 0.889986 0.357761
Si Si3 0.535243 0.236937 0.529874
Si Si4 0.170851 0.665435 0.872060
Si Si5 0.145269 0.258727 0.643776
Si Si6 0.932766 0.507712 0.601050
Si Si7 0.679089 0.014083 0.817779
O O1 0.297146 0.915409 0.128441
O O2 0.210268 0.718742 0.264500
O O3 0.290286 0.083738 0.372249
O O4 0.202112 0.213897 0.227723
O O5 0.979263 0.839792 0.198032
O O6 0.923610 0.661255 0.450811
O O7 0.891312 0.034489 0.311671
O O8 0.001906 0.997888 0.466326
O O9 0.605070 0.225004 0.500658
O O10 0.501688 0.066116 0.409655
O O11 0.169199 0.512112 0.719533
O O12 0.103928 0.752039 0.901133
O O13 0.193752 0.505954 0.007727
O O14 0.096861 0.149525 0.761803
#
# Coordination Sequence:
#
# PCOD9315701 Si02
#       7
#     4   4   4   4   4   4   4
#     4  11  27  48  76 114 149 203 261 324 383 460
#     4  12  26  48  72 116 155 208 255 315 403 471
#     4  12  27  47  73 112 160 198 261 324 393 473
#     4  11  24  49  76 111 149 197 271 314 391 462
#     4  11  26  49  76 116 148 202 268 330 382 461
#     4  11  23  44  78 102 150 201 251 318 390 462
#     4  12  25  47  81 107 155 211 253 321 394 467
#
# _framework density 25.608167999999999
#
# number of rings (size 3 to 8) (size 9 to 14) (size 15 to 20)
#    0.000    0.571    5.714    0.857    6.000    2.286 
#    2.571    0.000    0.000    0.000    0.000    0.000 
#    0.000    0.000    0.000    0.000    0.000    0.000 
#
# Total GULP energy -156302.625299 kJ/mol
# GULP energy per Si atom -5582.236618 kJ/mol
# Density = 2.554988 g / cm^3
# Si number density = 25.608168 Si / 1000 Ang^3
#
#
#
# Elastic Constant Matrix: (Units=GPa)
#
#
# Indices 1 2 3 4 5 6 
#
# 1 84.6829 29.6151 -3.5796 0.0000 0.0000 0.0000
# 2 29.6151 113.9784 10.0770 0.0000 0.0000 0.0000
# 3 -3.5796 10.0770 53.7768 0.0000 0.0000 0.0000
# 4 0.0000 0.0000 0.0000 37.6592 0.0000 0.0000
# 5 0.0000 0.0000 0.0000 0.0000 44.9300 0.0000
# 6 0.0000 0.0000 0.0000 0.0000 0.0000 43.0433
#
#
#
# Elastic Compliance Matrix: (Units=1/GPa)
#
#
# Indices 1 2 3 4 5 6 
#
# 1 0.013113 -0.003543 0.001537 0.000000 0.000000 0.000000
# 2 -0.003543 0.009879 -0.002087 0.000000 0.000000 0.000000
# 3 0.001537 -0.002087 0.019089 0.000000 0.000000 0.000000
# 4 0.000000 0.000000 0.000000 0.026554 0.000000 0.000000
# 5 0.000000 0.000000 0.000000 0.000000 0.022257 0.000000
# 6 0.000000 0.000000 0.000000 0.000000 0.000000 0.023232
#
#
# Mechanical properties :
#
#
# Convention : Reuss Voigt Hill
#
# Bulk Modulus (GPa) = 29.50391 36.07367 32.78879
# Shear Modulus (GPa) = 37.42302 39.54822 38.48562
#
# Velocity S-wave (km/s) = 3.82693 3.93410 3.88089
# Velocity P-wave (km/s) = 5.57436 5.89521 5.73703
#
# Compressibility (1/GPa) = 0.03389381
#
# Stress axis : x y z
#
# Youngs Moduli (GPa) = 76.26164 101.22818 52.38693
#
# Poissons Ratio (x) = 0.35865 -0.08050
# Poissons Ratio (y) = 0.27019 0.10933
# Poissons Ratio (z) = -0.11719 0.21126
#
# Static dielectric constant tensor:
#      x y z
#    x 2.050560 0.000000 0.000000 
#    y 0.000000 2.139260 0.000000 
#    z 0.000000 0.000000 2.075420 
# 
# From -- ./inp_files/4348.got.cif
#   From: 2010.05.17/outbox.cif.g08.bks.cpg/sg19_3_cif.got.tgz:4348.got - 2010.06.03 22:46:19.
