data_PCOD9315819
_publ_section_title
;
Structure prediction by ZEFSAII (Michael W. Deem and Ramdas Pophale) SiO2 
 PCOD9315819
Probable space group: P 21 21 21
;
_chemical_formula_sum "Si O2"
_cell_formula_units_Z 28
_cell_length_a 10.807374
_cell_length_b 11.663102
_cell_length_c 9.349570
_cell_angle_alpha 90.000000
_cell_angle_beta 90.000000
_cell_angle_gamma 90.000000
_cell_volume 1178.489974
_symmetry_space_group_name_H-M "P 21 21 21"
_symmetry_group_IT_number 19
_symmetry_cell_setting 'orthorhombic'
loop_
_space_group_symop_operation_xyz
x,y,z
1/2-x,-y,1/2+z
1/2+x,1/2-y,-z
-x,1/2+y,1/2-z
loop_
_atom_site_type_symbol
_atom_site_label
_atom_site_fract_x
_atom_site_fract_y
_atom_site_fract_z
Si Si1 0.946144 0.338527 0.402530
Si Si2 0.852892 0.049191 0.706983
Si Si3 0.606670 0.939845 0.646230
Si Si4 0.016562 0.100154 0.435610
Si Si5 0.778522 0.410543 0.148383
Si Si6 0.067925 0.913955 0.799018
Si Si7 0.842211 0.242135 0.926351
O O1 0.844594 0.341183 0.277147
O O2 0.891033 0.342922 0.561573
O O3 0.012261 0.459834 0.387881
O O4 0.043452 0.233938 0.403432
O O5 0.799925 0.150161 0.807650
O O6 0.953947 0.088515 0.590021
O O7 0.745206 0.983497 0.625486
O O8 0.929112 0.961265 0.806320
O O9 0.587442 0.920171 0.814499
O O10 0.584829 0.831104 0.545254
O O11 0.125232 0.008609 0.408168
O O12 0.660763 0.478545 0.205691
O O13 0.750410 0.322061 0.019444
O O14 0.077476 0.832859 0.662093
#
# Coordination Sequence:
#
# PCOD9315819 Si02
#       7
#     4   4   4   4   4   4   4
#     4  11  24  46  73 101 144 186 235 305 363 432
#     4  12  26  47  72 108 144 186 245 297 362 435
#     4  11  26  48  71 106 144 190 244 295 372 438
#     4  11  24  46  73 101 144 186 235 305 363 432
#     4  11  26  48  71 106 144 190 244 295 372 438
#     4  12  26  47  72 108 144 186 245 297 362 435
#     4  12  24  48  74 106 142 194 238 304 362 426
#
# _framework density 23.759218000000001
#
# number of rings (size 3 to 8) (size 9 to 14) (size 15 to 20)
#    0.000    0.571    5.714    1.714    2.000    1.143 
#   10.286    0.000    0.000    0.000    0.000    0.000 
#    0.000    0.000    0.000    0.000    0.000    0.000 
#
# Total GULP energy -156468.236424 kJ/mol
# GULP energy per Si atom -5588.151301 kJ/mol
# Density = 2.370514 g / cm^3
# Si number density = 23.759218 Si / 1000 Ang^3
#
#
#
# Elastic Constant Matrix: (Units=GPa)
#
#
# Indices 1 2 3 4 5 6 
#
# 1 60.1731 13.0758 17.2773 0.0000 0.0000 0.0000
# 2 13.0758 101.6539 37.5349 0.0000 0.0000 0.0000
# 3 17.2773 37.5349 127.3106 0.0000 0.0000 0.0000
# 4 0.0000 0.0000 0.0000 56.0638 0.0000 0.0000
# 5 0.0000 0.0000 0.0000 0.0000 17.3668 0.0000
# 6 0.0000 0.0000 0.0000 0.0000 0.0000 9.8932
#
#
#
# Elastic Compliance Matrix: (Units=1/GPa)
#
#
# Indices 1 2 3 4 5 6 
#
# 1 0.017505 -0.001542 -0.001921 0.000000 0.000000 0.000000
# 2 -0.001542 0.011175 -0.003085 0.000000 0.000000 0.000000
# 3 -0.001921 -0.003085 0.009025 0.000000 0.000000 0.000000
# 4 0.000000 0.000000 0.000000 0.017837 0.000000 0.000000
# 5 0.000000 0.000000 0.000000 0.000000 0.057581 0.000000
# 6 0.000000 0.000000 0.000000 0.000000 0.000000 0.101079
#
#
# Mechanical properties :
#
#
# Convention : Reuss Voigt Hill
#
# Bulk Modulus (GPa) = 40.63707 47.21264 43.92485
# Shear Modulus (GPa) = 21.23119 31.41475 26.32297
#
# Velocity S-wave (km/s) = 2.99255 3.64017 3.33213
# Velocity P-wave (km/s) = 5.39271 6.13043 5.77337
#
# Compressibility (1/GPa) = 0.02460807
#
# Stress axis : x y z
#
# Youngs Moduli (GPa) = 57.12514 89.48575 110.80147
#
# Poissons Ratio (x) = 0.13803 0.21284
# Poissons Ratio (y) = 0.08811 0.34187
# Poissons Ratio (z) = 0.10973 0.27610
#
# Static dielectric constant tensor:
#      x y z
#    x 1.825540 0.000000 0.000000 
#    y 0.000000 1.946130 0.000000 
#    z 0.000000 0.000000 1.975280 
# 
# From -- ./inp_files/3453.got.cif
#   From: 2010.05.17/outbox.cif.g08.bks.cpg/sg19_2_cif.got.tgz:3453.got - 2010.06.03 22:46:19.
