data_PCOD9315565
_publ_section_title
;
Structure prediction by ZEFSAII (Michael W. Deem and Ramdas Pophale) SiO2 
 PCOD9315565
Probable space group: P 21 21 21
;
_chemical_formula_sum "Si O2"
_cell_formula_units_Z 28
_cell_length_a 17.581694
_cell_length_b 5.815202
_cell_length_c 10.319257
_cell_angle_alpha 90.000000
_cell_angle_beta 90.000000
_cell_angle_gamma 90.000000
_cell_volume 1055.052209
_symmetry_space_group_name_H-M "P 21 21 21"
_symmetry_group_IT_number 19
_symmetry_cell_setting 'orthorhombic'
loop_
_space_group_symop_operation_xyz
x,y,z
1/2-x,-y,1/2+z
1/2+x,1/2-y,-z
-x,1/2+y,1/2-z
loop_
_atom_site_type_symbol
_atom_site_label
_atom_site_fract_x
_atom_site_fract_y
_atom_site_fract_z
Si Si1 0.599329 0.801073 0.859623
Si Si2 0.723201 0.104698 0.304972
Si Si3 0.893267 0.720806 0.286130
Si Si4 0.686149 0.299981 0.052483
Si Si5 0.951702 0.385538 0.616680
Si Si6 0.663377 0.422176 0.521315
Si Si7 0.589834 0.811903 0.391012
O O1 0.689326 0.829353 0.829996
O O2 0.579876 0.542681 0.811055
O O3 0.563438 0.037051 0.806185
O O4 0.578515 0.795138 0.011300
O O5 0.709388 0.099769 0.150715
O O6 0.678437 0.305917 0.382782
O O7 0.676194 0.889519 0.360838
O O8 0.830927 0.739955 0.402213
O O9 0.862049 0.732461 0.140920
O O10 0.607978 0.406039 0.105569
O O11 0.755614 0.475306 0.064101
O O12 0.947720 0.289130 0.760763
O O13 0.034239 0.478229 0.576039
O O14 0.600715 0.620178 0.499644
#
# Coordination Sequence:
#
# PCOD9315565 Si02
#       7
#     4   4   4   4   4   4   4
#     4  11  25  45  79 111 160 217 273 339 420 495
#     4  12  24  42  78 117 157 216 280 355 406 509
#     4  11  25  43  73 113 162 206 272 332 424 487
#     4  11  21  46  75 114 159 216 274 338 416 497
#     4  11  25  49  76 118 163 223 275 354 426 514
#     4  12  24  44  73 122 159 207 269 355 413 492
#     4  12  28  45  78 119 168 213 287 349 437 504
#
# _framework density 26.538972000000001
#
# number of rings (size 3 to 8) (size 9 to 14) (size 15 to 20)
#    0.000    0.571    5.714    2.571    4.000    2.286 
#    0.000    0.000   12.571    0.000    0.000    0.000 
#    0.000    0.000    0.000    0.000    0.000    0.000 
#
# Total GULP energy -156638.219437 kJ/mol
# GULP energy per Si atom -5594.222123 kJ/mol
# Density = 2.647857 g / cm^3
# Si number density = 26.538972 Si / 1000 Ang^3
#
#
#
# Elastic Constant Matrix: (Units=GPa)
#
#
# Indices 1 2 3 4 5 6 
#
# 1 93.5489 8.6246 56.8287 0.0000 0.0000 0.0000
# 2 8.6246 126.8260 22.2131 0.0000 0.0000 0.0000
# 3 56.8287 22.2131 140.8629 0.0000 0.0000 0.0000
# 4 0.0000 0.0000 0.0000 29.3005 0.0000 0.0000
# 5 0.0000 0.0000 0.0000 0.0000 16.7868 0.0000
# 6 0.0000 0.0000 0.0000 0.0000 0.0000 -123.3218
#
#
#
# Elastic Compliance Matrix: (Units=1/GPa)
#
#
# Indices 1 2 3 4 5 6 
#
# 1 0.014160 0.000039 -0.005719 0.000000 0.000000 0.000000
# 2 0.000039 0.008109 -0.001294 0.000000 0.000000 0.000000
# 3 -0.005719 -0.001294 0.009610 0.000000 0.000000 0.000000
# 4 0.000000 0.000000 0.000000 0.034129 0.000000 0.000000
# 5 0.000000 0.000000 0.000000 0.000000 0.059571 0.000000
# 6 0.000000 0.000000 0.000000 0.000000 0.000000 -0.008109
#
#
# Mechanical properties :
#
#
# Convention : Reuss Voigt Hill
#
# Bulk Modulus (GPa) = 55.77084 59.61895 57.69490
# Shear Modulus (GPa) = 36.39128 2.79119 19.59124
#
# Velocity S-wave (km/s) = 3.70704 1.02665 2.71994
# Velocity P-wave (km/s) = 6.27560 4.89069 5.62592
#
# Compressibility (1/GPa) = 0.01793052
#
# Stress axis : x y z
#
# Youngs Moduli (GPa) = 70.62145 123.32155 104.05479
#
# Poissons Ratio (x) = -0.00477 0.59506
# Poissons Ratio (y) = -0.00273 0.13468
# Poissons Ratio (z) = 0.40386 0.15962
#
# Static dielectric constant tensor:
#      x y z
#    x 2.020730 0.000000 0.000000 
#    y 0.000000 2.141440 0.000000 
#    z 0.000000 0.000000 2.145470 
# 
# From -- ./inp_files/5364.got.cif
#   From: 2010.05.17/outbox.cif.g08.bks.cpg/sg19_3_cif.got.tgz:5364.got - 2010.06.03 22:46:19.
