data_PCOD9315478
_publ_section_title
;
Structure prediction by ZEFSAII (Michael W. Deem and Ramdas Pophale) SiO2 
 PCOD9315478
Probable space group: P 21 21 21
;
_chemical_formula_sum "Si O2"
_cell_formula_units_Z 20
_cell_length_a 10.260891
_cell_length_b 4.740244
_cell_length_c 14.000876
_cell_angle_alpha 90.000000
_cell_angle_beta 90.000000
_cell_angle_gamma 90.000000
_cell_volume 680.990386
_symmetry_space_group_name_H-M "P 21 21 21"
_symmetry_group_IT_number 19
_symmetry_cell_setting 'orthorhombic'
loop_
_space_group_symop_operation_xyz
x,y,z
1/2-x,-y,1/2+z
1/2+x,1/2-y,-z
-x,1/2+y,1/2-z
loop_
_atom_site_type_symbol
_atom_site_label
_atom_site_fract_x
_atom_site_fract_y
_atom_site_fract_z
Si Si1 0.795605 0.165977 0.599308
Si Si2 0.592525 0.218104 0.245872
Si Si3 0.821252 0.496132 0.938228
Si Si4 0.051823 0.228463 0.301520
Si Si5 0.542356 0.429570 0.986102
O O1 0.829043 0.869118 0.649493
O O2 0.704795 0.305742 0.680840
O O3 0.708699 0.233964 0.506272
O O4 0.924647 0.334934 0.567756
O O5 0.532980 0.913707 0.273270
O O6 0.664511 0.370584 0.333242
O O7 0.686994 0.321068 0.954879
O O8 0.940323 0.308298 0.980097
O O9 0.998926 0.398484 0.392142
O O10 0.018491 0.435002 0.214380
#
# Coordination Sequence:
#
# PCOD9315478 Si02
#       5
#     4   4   4   4   4
#     4  10  28  56  90 135 193 249 327 391 488 576
#     4  12  31  56  92 143 195 255 329 411 490 582
#     4  10  26  57 101 141 193 258 330 399 500 577
#     4  12  27  55  87 135 181 246 320 400 477 578
#     4  10  26  56  96 140 192 254 318 399 487 585
#
# _framework density 29.368991000000001
#
# number of rings (size 3 to 8) (size 9 to 14) (size 15 to 20)
#    1.200    0.000    0.000    2.400    5.600    6.400 
#    7.200    0.000    0.000    0.000    0.000    0.000 
#    0.000    0.000    0.000    0.000    0.000    0.000 
#
# Total GULP energy -112015.375582 kJ/mol
# GULP energy per Si atom -5600.768779 kJ/mol
# Density = 2.930215 g / cm^3
# Si number density = 29.368991 Si / 1000 Ang^3
#
#
#
# Elastic Constant Matrix: (Units=GPa)
#
#
# Indices 1 2 3 4 5 6 
#
# 1 176.1570 81.0806 102.9096 0.0000 0.0000 0.0000
# 2 81.0806 199.8241 77.2766 0.0000 0.0000 0.0000
# 3 102.9096 77.2766 184.1041 0.0000 0.0000 0.0000
# 4 0.0000 0.0000 0.0000 76.3950 0.0000 0.0000
# 5 0.0000 0.0000 0.0000 0.0000 71.5229 0.0000
# 6 0.0000 0.0000 0.0000 0.0000 0.0000 63.2617
#
#
#
# Elastic Compliance Matrix: (Units=1/GPa)
#
#
# Indices 1 2 3 4 5 6 
#
# 1 0.009086 -0.002056 -0.004216 0.000000 0.000000 0.000000
# 2 -0.002056 0.006440 -0.001553 0.000000 0.000000 0.000000
# 3 -0.004216 -0.001553 0.008440 0.000000 0.000000 0.000000
# 4 0.000000 0.000000 0.000000 0.013090 0.000000 0.000000
# 5 0.000000 0.000000 0.000000 0.000000 0.013982 0.000000
# 6 0.000000 0.000000 0.000000 0.000000 0.000000 0.015807
#
#
# Mechanical properties :
#
#
# Convention : Reuss Voigt Hill
#
# Bulk Modulus (GPa) = 120.26969 120.29096 120.28033
# Shear Modulus (GPa) = 58.63902 62.15715 60.39809
#
# Velocity S-wave (km/s) = 4.47321 4.60545 4.53981
# Velocity P-wave (km/s) = 8.22920 8.32632 8.27790
#
# Compressibility (1/GPa) = 0.00831465
#
# Stress axis : x y z
#
# Youngs Moduli (GPa) = 110.05861 155.28935 118.48004
#
# Poissons Ratio (x) = 0.31935 0.49948
# Poissons Ratio (y) = 0.22633 0.18406
# Poissons Ratio (z) = 0.46397 0.24124
#
# Static dielectric constant tensor:
#      x y z
#    x 2.448420 0.000000 0.000000 
#    y 0.000000 2.184180 0.000000 
#    z 0.000000 0.000000 2.354750 
# 
# From -- ./inp_files/6532.got.cif
#   From: 2010.05.17/outbox.cif.g08.bks.cpg/sg19_4_cif.got.tgz:6532.got - 2010.06.03 22:46:19.
