data_PCOD9315405
_publ_section_title
;
Structure prediction by ZEFSAII (Michael W. Deem and Ramdas Pophale) SiO2 
 PCOD9315405
Probable space group: P 21 21 21
;
_chemical_formula_sum "Si O2"
_cell_formula_units_Z 32
_cell_length_a 23.852658
_cell_length_b 11.285899
_cell_length_c 4.949073
_cell_angle_alpha 90.000000
_cell_angle_beta 90.000000
_cell_angle_gamma 90.000000
_cell_volume 1332.283964
_symmetry_space_group_name_H-M "P 21 21 21"
_symmetry_group_IT_number 19
_symmetry_cell_setting 'orthorhombic'
loop_
_space_group_symop_operation_xyz
x,y,z
1/2-x,-y,1/2+z
1/2+x,1/2-y,-z
-x,1/2+y,1/2-z
loop_
_atom_site_type_symbol
_atom_site_label
_atom_site_fract_x
_atom_site_fract_y
_atom_site_fract_z
Si Si1 0.949989 0.664493 0.085333
Si Si2 0.105977 0.354329 0.738588
Si Si3 0.268553 0.200449 0.994066
Si Si4 0.662690 0.639091 0.005238
Si Si5 0.646420 0.381571 0.951340
Si Si6 0.510512 0.542614 0.253571
Si Si7 0.271205 0.560865 0.203137
Si Si8 0.952570 0.316816 0.246265
O O1 0.899356 0.593792 0.221713
O O2 0.006396 0.703394 0.239028
O O3 0.919528 0.788277 0.019921
O O4 0.970712 0.589108 0.828803
O O5 0.054134 0.433314 0.836606
O O6 0.123472 0.238325 0.910579
O O7 0.162046 0.426441 0.688095
O O8 0.311667 0.206647 0.240523
O O9 0.210530 0.149701 0.115160
O O10 0.253872 0.323370 0.847180
O O11 0.293688 0.125028 0.744447
O O12 0.648680 0.505984 0.107833
O O13 0.609055 0.701490 0.867892
O O14 0.545381 0.632266 0.445364
O O15 0.521395 0.583054 0.948288
O O16 0.246986 0.542987 0.905891
#
# Coordination Sequence:
#
# PCOD9315405 Si02
#       8
#     4   4   4   4   4   4   4   4
#     4  11  24  41  72 100 135 185 229 291 353 415
#     4  10  25  43  71 101 138 182 240 287 344 436
#     4  11  27  42  68 102 139 175 236 282 342 415
#     4  12  24  44  65 101 143 179 220 291 350 408
#     4  11  23  40  71  96 137 184 229 277 350 421
#     4  11  23  43  66 103 131 179 232 287 352 412
#     4  11  26  47  74  99 139 188 238 291 350 415
#     4  11  24  42  65  98 138 174 230 286 345 422
#
# _framework density 24.018901
#
# number of rings (size 3 to 8) (size 9 to 14) (size 15 to 20)
#    0.000    1.000    2.500    3.000    8.750    2.000 
#    0.000    0.000    0.000    0.000    0.000    0.000 
#    0.000    0.000    0.000    0.000    0.000    0.000 
#
# Total GULP energy -178905.150517 kJ/mol
# GULP energy per Si atom -5590.785954 kJ/mol
# Density = 2.396423 g / cm^3
# Si number density = 24.018901 Si / 1000 Ang^3
#
#
#
# Elastic Constant Matrix: (Units=GPa)
#
#
# Indices 1 2 3 4 5 6 
#
# 1 153.6822 24.1199 23.7470 0.0000 0.0000 0.0000
# 2 24.1199 38.3636 6.2678 0.0000 0.0000 0.0000
# 3 23.7470 6.2678 66.0768 0.0000 0.0000 0.0000
# 4 0.0000 0.0000 0.0000 35.4028 0.0000 0.0000
# 5 0.0000 0.0000 0.0000 0.0000 26.1812 0.0000
# 6 0.0000 0.0000 0.0000 0.0000 0.0000 39.3503
#
#
#
# Elastic Compliance Matrix: (Units=1/GPa)
#
#
# Indices 1 2 3 4 5 6 
#
# 1 0.007548 -0.004370 -0.002298 0.000000 0.000000 0.000000
# 2 -0.004370 0.029007 -0.001181 0.000000 0.000000 0.000000
# 3 -0.002298 -0.001181 0.016072 0.000000 0.000000 0.000000
# 4 0.000000 0.000000 0.000000 0.028246 0.000000 0.000000
# 5 0.000000 0.000000 0.000000 0.000000 0.038195 0.000000
# 6 0.000000 0.000000 0.000000 0.000000 0.000000 0.025413
#
#
# Mechanical properties :
#
#
# Convention : Reuss Voigt Hill
#
# Bulk Modulus (GPa) = 27.07942 40.71022 33.89482
# Shear Modulus (GPa) = 28.98742 33.78606 31.38674
#
# Velocity S-wave (km/s) = 3.47776 3.75460 3.61882
# Velocity P-wave (km/s) = 5.23690 5.98181 5.62170
#
# Compressibility (1/GPa) = 0.03692842
#
# Stress axis : x y z
#
# Youngs Moduli (GPa) = 132.48719 34.47461 62.22074
#
# Poissons Ratio (x) = 0.15066 0.14299
# Poissons Ratio (y) = 0.57898 0.07348
# Poissons Ratio (z) = 0.30446 0.04071
#
# Static dielectric constant tensor:
#      x y z
#    x 1.935540 0.000000 0.000000 
#    y 0.000000 1.963620 0.000000 
#    z 0.000000 0.000000 1.928730 
# 
# From -- ./inp_files/1974.got.cif
#   From: 2010.05.17/outbox.cif.g08.bks.cpg/sg19_1_cif.got.tgz:1974.got - 2010.06.03 22:46:19.
