data_PCOD9315552
_publ_section_title
;
Structure prediction by ZEFSAII (Michael W. Deem and Ramdas Pophale) SiO2 
 PCOD9315552
Probable space group: P 21 21 21
;
_chemical_formula_sum "Si O2"
_cell_formula_units_Z 32
_cell_length_a 16.867110
_cell_length_b 6.551743
_cell_length_c 14.027569
_cell_angle_alpha 90.000000
_cell_angle_beta 90.000000
_cell_angle_gamma 90.000000
_cell_volume 1550.172200
_symmetry_space_group_name_H-M "P 21 21 21"
_symmetry_group_IT_number 19
_symmetry_cell_setting 'orthorhombic'
loop_
_space_group_symop_operation_xyz
x,y,z
1/2-x,-y,1/2+z
1/2+x,1/2-y,-z
-x,1/2+y,1/2-z
loop_
_atom_site_type_symbol
_atom_site_label
_atom_site_fract_x
_atom_site_fract_y
_atom_site_fract_z
Si Si1 0.734601 0.966283 0.156303
Si Si2 0.659053 0.394115 0.908476
Si Si3 0.414828 0.405679 0.849053
Si Si4 0.414794 0.546808 0.479690
Si Si5 0.955320 0.274071 0.352512
Si Si6 0.082084 0.872964 0.530971
Si Si7 0.282967 0.811997 0.992319
Si Si8 0.294926 0.420726 0.131239
O O1 0.698428 0.990806 0.260530
O O2 0.818754 0.084460 0.153420
O O3 0.663332 0.016375 0.083646
O O4 0.763864 0.746715 0.116505
O O5 0.607913 0.541131 0.842613
O O6 0.714469 0.539993 0.970637
O O7 0.716915 0.223158 0.865680
O O8 0.599287 0.265299 0.972044
O O9 0.459798 0.619026 0.871981
O O10 0.449676 0.345465 0.746377
O O11 0.432869 0.241048 0.930555
O O12 0.427628 0.373102 0.560887
O O13 0.498310 0.560661 0.425609
O O14 0.132625 0.717790 0.595451
O O15 0.136397 0.067222 0.509242
O O16 0.284695 0.606602 0.057071
#
# Coordination Sequence:
#
# PCOD9315552 Si02
#       8
#     4   4   4   4   4   4   4   4
#     4  12  24  44  72  99 136 187 232 286 352 423
#     4  11  21  43  70  96 138 175 228 292 353 414
#     4  12  25  42  73 107 139 186 235 289 368 420
#     4  12  24  47  67 100 142 184 236 286 354 423
#     4  12  26  43  69 108 146 180 230 306 354 425
#     4  11  25  45  68  99 140 186 233 291 350 425
#     4  11  22  46  70  97 137 184 229 300 348 405
#     4  11  25  46  65 102 140 176 241 288 349 433
#
# _framework density 20.642868
#
# number of rings (size 3 to 8) (size 9 to 14) (size 15 to 20)
#    0.000    0.500    5.000    3.750    3.500    0.000 
#    6.750    0.000    0.000    0.000    0.000    0.000 
#    0.000    0.000    0.000    0.000    0.000    0.000 
#
# Total GULP energy -178712.426719 kJ/mol
# GULP energy per Si atom -5584.763335 kJ/mol
# Density = 2.059588 g / cm^3
# Si number density = 20.642868 Si / 1000 Ang^3
#
#
#
# Elastic Constant Matrix: (Units=GPa)
#
#
# Indices 1 2 3 4 5 6 
#
# 1 150.7082 44.2962 31.0612 0.0000 0.0000 0.0000
# 2 44.2962 91.6024 21.5506 0.0000 0.0000 0.0000
# 3 31.0612 21.5506 80.0491 0.0000 0.0000 0.0000
# 4 0.0000 0.0000 0.0000 23.0435 0.0000 0.0000
# 5 0.0000 0.0000 0.0000 0.0000 19.5419 0.0000
# 6 0.0000 0.0000 0.0000 0.0000 0.0000 36.7578
#
#
#
# Elastic Compliance Matrix: (Units=1/GPa)
#
#
# Indices 1 2 3 4 5 6 
#
# 1 0.008090 -0.003388 -0.002227 0.000000 0.000000 0.000000
# 2 -0.003388 0.013074 -0.002205 0.000000 0.000000 0.000000
# 3 -0.002227 -0.002205 0.013950 0.000000 0.000000 0.000000
# 4 0.000000 0.000000 0.000000 0.043396 0.000000 0.000000
# 5 0.000000 0.000000 0.000000 0.000000 0.051172 0.000000
# 6 0.000000 0.000000 0.000000 0.000000 0.000000 0.027205
#
#
# Mechanical properties :
#
#
# Convention : Reuss Voigt Hill
#
# Bulk Modulus (GPa) = 51.35133 57.35284 54.35208
# Shear Modulus (GPa) = 27.92993 30.89876 29.41434
#
# Velocity S-wave (km/s) = 3.68231 3.87308 3.77890
# Velocity P-wave (km/s) = 6.55815 6.91698 6.73995
#
# Compressibility (1/GPa) = 0.01947369
#
# Stress axis : x y z
#
# Youngs Moduli (GPa) = 123.60621 76.48798 71.68400
#
# Poissons Ratio (x) = 0.25916 0.15964
# Poissons Ratio (y) = 0.41881 0.15806
# Poissons Ratio (z) = 0.27528 0.16866
#
# Static dielectric constant tensor:
#      x y z
#    x 1.790820 0.000000 0.000000 
#    y 0.000000 1.747390 0.000000 
#    z 0.000000 0.000000 1.729560 
# 
# From -- ./inp_files/5739.got.cif
#   From: 2010.05.17/outbox.cif.g08.bks.cpg/sg19_3_cif.got.tgz:5739.got - 2010.06.03 22:46:19.
