data_PCOD9315256
_publ_section_title
;
Structure prediction by ZEFSAII (Michael W. Deem and Ramdas Pophale) SiO2 
 PCOD9315256
Probable space group: P 21 21 21
;
_chemical_formula_sum "Si O2"
_cell_formula_units_Z 32
_cell_length_a 23.343538
_cell_length_b 5.359815
_cell_length_c 10.266377
_cell_angle_alpha 90.000000
_cell_angle_beta 90.000000
_cell_angle_gamma 90.000000
_cell_volume 1284.498754
_symmetry_space_group_name_H-M "P 21 21 21"
_symmetry_group_IT_number 19
_symmetry_cell_setting 'orthorhombic'
loop_
_space_group_symop_operation_xyz
x,y,z
1/2-x,-y,1/2+z
1/2+x,1/2-y,-z
-x,1/2+y,1/2-z
loop_
_atom_site_type_symbol
_atom_site_label
_atom_site_fract_x
_atom_site_fract_y
_atom_site_fract_z
Si Si1 0.821777 0.225097 0.261771
Si Si2 0.887267 0.772725 0.898606
Si Si3 0.720871 0.503905 0.380445
Si Si4 0.150509 0.634689 0.806985
Si Si5 0.535575 0.056548 0.605761
Si Si6 0.683314 0.161346 0.960833
Si Si7 0.582635 0.569344 0.601885
Si Si8 0.093341 0.944741 0.017709
O O1 0.761550 0.357274 0.280117
O O2 0.854978 0.318587 0.135172
O O3 0.866812 0.315646 0.373125
O O4 0.813136 0.943693 0.312861
O O5 0.822667 0.699003 0.939167
O O6 0.879214 0.893954 0.758645
O O7 0.921038 0.525828 0.951190
O O8 0.920786 0.975877 0.982858
O O9 0.683751 0.708300 0.302412
O O10 0.766487 0.637141 0.473094
O O11 0.106430 0.816488 0.879816
O O12 0.191032 0.538696 0.924449
O O13 0.540635 0.777965 0.660789
O O14 0.472094 0.091802 0.554632
O O15 0.565017 0.302210 0.668710
O O16 0.620472 0.279137 0.981161
#
# Coordination Sequence:
#
# PCOD9315256 Si02
#       8
#     4   4   4   4   4   4   4   4
#     4  10  24  42  68 107 144 194 244 303 381 449
#     4  10  24  44  67 101 143 188 243 301 377 435
#     4  11  23  42  65 103 144 190 245 305 376 454
#     4  11  23  45  68 103 143 196 248 309 377 453
#     4  10  25  47  72 103 147 187 251 309 372 451
#     4  10  24  41  71 104 147 194 257 306 382 466
#     4  10  25  44  73 107 144 191 241 314 369 455
#     4  10  24  45  70 100 144 194 255 305 378 449
#
# _framework density 24.912441000000001
#
# number of rings (size 3 to 8) (size 9 to 14) (size 15 to 20)
#    0.750    1.000    0.000    2.250    7.000    7.000 
#    4.500    0.000    0.000    0.000    0.000    0.000 
#    0.000    0.000    0.000    0.000    0.000    0.000 
#
# Total GULP energy -178377.993146 kJ/mol
# GULP energy per Si atom -5574.312286 kJ/mol
# Density = 2.485574 g / cm^3
# Si number density = 24.912441 Si / 1000 Ang^3
#
#
#
# Elastic Constant Matrix: (Units=GPa)
#
#
# Indices 1 2 3 4 5 6 
#
# 1 111.6544 19.3480 24.4375 0.0000 0.0000 0.0000
# 2 19.3480 107.4643 21.6104 0.0000 0.0000 0.0000
# 3 24.4375 21.6104 78.8044 0.0000 0.0000 0.0000
# 4 0.0000 0.0000 0.0000 29.4795 0.0000 0.0000
# 5 0.0000 0.0000 0.0000 0.0000 33.3204 0.0000
# 6 0.0000 0.0000 0.0000 0.0000 0.0000 20.0696
#
#
#
# Elastic Compliance Matrix: (Units=1/GPa)
#
#
# Indices 1 2 3 4 5 6 
#
# 1 0.009756 -0.001215 -0.002692 0.000000 0.000000 0.000000
# 2 -0.001215 0.010000 -0.002365 0.000000 0.000000 0.000000
# 3 -0.002692 -0.002365 0.014173 0.000000 0.000000 0.000000
# 4 0.000000 0.000000 0.000000 0.033922 0.000000 0.000000
# 5 0.000000 0.000000 0.000000 0.000000 0.030012 0.000000
# 6 0.000000 0.000000 0.000000 0.000000 0.000000 0.049827
#
#
# Mechanical properties :
#
#
# Convention : Reuss Voigt Hill
#
# Bulk Modulus (GPa) = 46.76475 47.63499 47.19987
# Shear Modulus (GPa) = 29.87528 32.07571 30.97550
#
# Velocity S-wave (km/s) = 3.46672 3.59212 3.52998
# Velocity P-wave (km/s) = 5.90225 6.03050 5.96672
#
# Compressibility (1/GPa) = 0.02138363
#
# Stress axis : x y z
#
# Youngs Moduli (GPa) = 102.50119 100.00145 70.55595
#
# Poissons Ratio (x) = 0.12151 0.18995
# Poissons Ratio (y) = 0.12455 0.16690
# Poissons Ratio (z) = 0.27595 0.23655
#
# Static dielectric constant tensor:
#      x y z
#    x 1.936200 0.000000 0.000000 
#    y 0.000000 2.170000 0.000000 
#    z 0.000000 0.000000 2.056700 
# 
# From -- ./inp_files/5582.got.cif
#   From: 2010.05.17/outbox.cif.g08.bks.cpg/sg19_3_cif.got.tgz:5582.got - 2010.06.03 22:46:19.
