data_PCOD9315483
_publ_section_title
;
Structure prediction by ZEFSAII (Michael W. Deem and Ramdas Pophale) SiO2 
 PCOD9315483
Probable space group: P 21 21 21
;
_chemical_formula_sum "Si O2"
_cell_formula_units_Z 28
_cell_length_a 17.205375
_cell_length_b 5.485407
_cell_length_c 11.420656
_cell_angle_alpha 90.000000
_cell_angle_beta 90.000000
_cell_angle_gamma 90.000000
_cell_volume 1077.864205
_symmetry_space_group_name_H-M "P 21 21 21"
_symmetry_group_IT_number 19
_symmetry_cell_setting 'orthorhombic'
loop_
_space_group_symop_operation_xyz
x,y,z
1/2-x,-y,1/2+z
1/2+x,1/2-y,-z
-x,1/2+y,1/2-z
loop_
_atom_site_type_symbol
_atom_site_label
_atom_site_fract_x
_atom_site_fract_y
_atom_site_fract_z
Si Si1 0.795411 0.509423 0.164237
Si Si2 0.023195 0.000614 0.043794
Si Si3 0.340163 0.621532 0.558212
Si Si4 0.778428 0.475508 0.912409
Si Si5 0.434135 0.150589 0.133193
Si Si6 0.884739 0.021724 0.204598
Si Si7 0.585347 0.883650 0.141344
O O1 0.751438 0.441702 0.285714
O O2 0.850000 0.269279 0.148618
O O3 0.838434 0.768964 0.181462
O O4 0.747838 0.550680 0.042388
O O5 0.971860 0.967013 0.159731
O O6 0.101691 0.148000 0.071144
O O7 0.966577 0.164410 0.961990
O O8 0.046889 0.780237 0.959803
O O9 0.252207 0.694660 0.584691
O O10 0.374625 0.441783 0.655833
O O11 0.350864 0.537986 0.425666
O O12 0.870187 0.526913 0.921413
O O13 0.386571 0.252619 0.243536
O O14 0.512362 0.040349 0.185736
#
# Coordination Sequence:
#
# PCOD9315483 Si02
#       7
#     4   4   4   4   4   4   4
#     4  11  27  48  76 108 149 194 251 303 378 448
#     4  11  24  45  73 100 147 188 252 304 372 445
#     4  10  28  42  69 108 144 190 249 304 377 442
#     4  11  26  49  71 109 151 197 242 313 378 458
#     4  11  23  46  72 106 142 191 250 304 384 443
#     4  11  26  49  72 106 143 197 249 303 372 448
#     4  11  24  43  73 107 140 193 251 315 369 452
#
# _framework density 25.9773
#
# number of rings (size 3 to 8) (size 9 to 14) (size 15 to 20)
#    0.000    1.143    2.857    0.857   10.000    4.571 
#    7.714    0.000    0.000    0.000    0.000    0.000 
#    0.000    0.000    0.000    0.000    0.000    0.000 
#
# Total GULP energy -156391.282517 kJ/mol
# GULP energy per Si atom -5585.402947 kJ/mol
# Density = 2.591817 g / cm^3
# Si number density = 25.977300 Si / 1000 Ang^3
#
#
#
# Elastic Constant Matrix: (Units=GPa)
#
#
# Indices 1 2 3 4 5 6 
#
# 1 70.3645 11.1486 24.5751 0.0000 0.0000 0.0000
# 2 11.1486 53.1810 2.0891 0.0000 0.0000 0.0000
# 3 24.5751 2.0891 140.9268 0.0000 0.0000 0.0000
# 4 0.0000 0.0000 0.0000 40.8371 0.0000 0.0000
# 5 0.0000 0.0000 0.0000 0.0000 41.6124 0.0000
# 6 0.0000 0.0000 0.0000 0.0000 0.0000 33.8308
#
#
#
# Elastic Compliance Matrix: (Units=1/GPa)
#
#
# Indices 1 2 3 4 5 6 
#
# 1 0.015652 -0.003176 -0.002682 0.000000 0.000000 0.000000
# 2 -0.003176 0.019459 0.000265 0.000000 0.000000 0.000000
# 3 -0.002682 0.000265 0.007560 0.000000 0.000000 0.000000
# 4 0.000000 0.000000 0.000000 0.024488 0.000000 0.000000
# 5 0.000000 0.000000 0.000000 0.000000 0.024031 0.000000
# 6 0.000000 0.000000 0.000000 0.000000 0.000000 0.029559
#
#
# Mechanical properties :
#
#
# Convention : Reuss Voigt Hill
#
# Bulk Modulus (GPa) = 31.76121 37.78868 34.77494
# Shear Modulus (GPa) = 35.10531 38.36669 36.73600
#
# Velocity S-wave (km/s) = 3.68011 3.84726 3.76461
# Velocity P-wave (km/s) = 5.50551 5.85778 5.68437
#
# Compressibility (1/GPa) = 0.03148494
#
# Stress axis : x y z
#
# Youngs Moduli (GPa) = 63.89083 51.38997 132.28047
#
# Poissons Ratio (x) = 0.16320 0.35482
# Poissons Ratio (y) = 0.20290 -0.03510
# Poissons Ratio (z) = 0.17137 -0.01364
#
# Static dielectric constant tensor:
#      x y z
#    x 2.022340 0.000000 0.000000 
#    y 0.000000 2.084140 0.000000 
#    z 0.000000 0.000000 2.113950 
# 
# From -- ./inp_files/5356.got.cif
#   From: 2010.05.17/outbox.cif.g08.bks.cpg/sg19_3_cif.got.tgz:5356.got - 2010.06.03 22:46:19.
