data_PCOD9315782
_publ_section_title
;
Structure prediction by ZEFSAII (Michael W. Deem and Ramdas Pophale) SiO2 
 PCOD9315782
Probable space group: P 21 21 21
;
_chemical_formula_sum "Si O2"
_cell_formula_units_Z 32
_cell_length_a 6.025846
_cell_length_b 12.352067
_cell_length_c 18.464897
_cell_angle_alpha 90.000000
_cell_angle_beta 90.000000
_cell_angle_gamma 90.000000
_cell_volume 1374.372816
_symmetry_space_group_name_H-M "P 21 21 21"
_symmetry_group_IT_number 19
_symmetry_cell_setting 'orthorhombic'
loop_
_space_group_symop_operation_xyz
x,y,z
1/2-x,-y,1/2+z
1/2+x,1/2-y,-z
-x,1/2+y,1/2-z
loop_
_atom_site_type_symbol
_atom_site_label
_atom_site_fract_x
_atom_site_fract_y
_atom_site_fract_z
Si Si1 0.441425 0.817037 0.931029
Si Si2 0.643380 0.998817 0.181780
Si Si3 0.947790 0.652510 0.718118
Si Si4 0.383214 0.317774 0.724357
Si Si5 0.818222 0.697520 0.489208
Si Si6 0.401801 0.000288 0.414704
Si Si7 0.229667 0.844858 0.669124
Si Si8 0.726732 0.081988 0.531577
O O1 0.602908 0.826920 0.861755
O O2 0.224319 0.885860 0.911093
O O3 0.403940 0.691551 0.948060
O O4 0.539530 0.874498 0.002043
O O5 0.754162 0.083434 0.236825
O O6 0.394417 0.041618 0.170153
O O7 0.618041 0.883166 0.219486
O O8 0.754289 0.989004 0.103651
O O9 0.728231 0.704193 0.752632
O O10 0.924591 0.550718 0.664793
O O11 0.047940 0.750165 0.671918
O O12 0.621728 0.328230 0.760932
O O13 0.567576 0.754113 0.490670
O O14 0.777698 0.593286 0.539839
O O15 0.856230 0.668073 0.405501
O O16 0.617693 0.020142 0.464074
#
# Coordination Sequence:
#
# PCOD9315782 Si02
#       8
#     4   4   4   4   4   4   4   4
#     4  12  27  46  72 104 147 199 255 321 391 476
#     4  11  26  44  72 107 145 196 250 320 392 466
#     4  11  25  45  72 105 144 192 252 317 389 472
#     4  11  26  46  73 106 150 192 259 319 394 473
#     4  12  27  45  76 113 155 199 259 326 398 479
#     4  12  26  46  74 104 151 201 255 319 404 472
#     4  11  24  44  69 104 146 190 248 318 389 469
#     4  12  27  46  72 107 148 199 258 322 391 477
#
# _framework density 23.283349999999999
#
# number of rings (size 3 to 8) (size 9 to 14) (size 15 to 20)
#    0.000    0.500    2.500    4.500    7.000    9.000 
#    0.000    0.000    0.000    0.000    0.000    0.000 
#    0.000    0.000    0.000    0.000    0.000    0.000 
#
# Total GULP energy -178813.514652 kJ/mol
# GULP energy per Si atom -5587.922333 kJ/mol
# Density = 2.323036 g / cm^3
# Si number density = 23.283350 Si / 1000 Ang^3
#
#
#
# Elastic Constant Matrix: (Units=GPa)
#
#
# Indices 1 2 3 4 5 6 
#
# 1 57.1073 27.1336 8.7833 0.0000 0.0000 0.0000
# 2 27.1336 62.5542 23.8825 0.0000 0.0000 0.0000
# 3 8.7833 23.8825 84.7963 0.0000 0.0000 0.0000
# 4 0.0000 0.0000 0.0000 41.9910 0.0000 0.0000
# 5 0.0000 0.0000 0.0000 0.0000 35.0762 0.0000
# 6 0.0000 0.0000 0.0000 0.0000 0.0000 43.1064
#
#
#
# Elastic Compliance Matrix: (Units=1/GPa)
#
#
# Indices 1 2 3 4 5 6 
#
# 1 0.022073 -0.009750 0.000460 0.000000 0.000000 0.000000
# 2 -0.009750 0.022219 -0.005248 0.000000 0.000000 0.000000
# 3 0.000460 -0.005248 0.013223 0.000000 0.000000 0.000000
# 4 0.000000 0.000000 0.000000 0.023815 0.000000 0.000000
# 5 0.000000 0.000000 0.000000 0.000000 0.028509 0.000000
# 6 0.000000 0.000000 0.000000 0.000000 0.000000 0.023198
#
#
# Mechanical properties :
#
#
# Convention : Reuss Voigt Hill
#
# Bulk Modulus (GPa) = 35.16321 36.00628 35.58475
# Shear Modulus (GPa) = 29.13871 33.67860 31.40866
#
# Velocity S-wave (km/s) = 3.54147 3.80737 3.67682
# Velocity P-wave (km/s) = 5.64427 5.90136 5.77424
#
# Compressibility (1/GPa) = 0.02843881
#
# Stress axis : x y z
#
# Youngs Moduli (GPa) = 45.30490 45.00687 75.62343
#
# Poissons Ratio (x) = 0.43881 -0.03476
# Poissons Ratio (y) = 0.44171 0.39687
# Poissons Ratio (z) = -0.02083 0.23619
#
# Static dielectric constant tensor:
#      x y z
#    x 1.936610 0.000000 0.000000 
#    y 0.000000 1.873030 0.000000 
#    z 0.000000 0.000000 1.853570 
# 
# From -- ./inp_files/6941.got.cif
#   From: 2010.05.17/outbox.cif.g08.bks.cpg/sg19_4_cif.got.tgz:6941.got - 2010.06.03 22:46:19.
