data_PCOD9315370
_publ_section_title
;
Structure prediction by ZEFSAII (Michael W. Deem and Ramdas Pophale) SiO2 
 PCOD9315370
Probable space group: P 21 21 21
;
_chemical_formula_sum "Si O2"
_cell_formula_units_Z 28
_cell_length_a 13.643063
_cell_length_b 13.174452
_cell_length_c 5.841584
_cell_angle_alpha 90.000000
_cell_angle_beta 90.000000
_cell_angle_gamma 90.000000
_cell_volume 1049.965599
_symmetry_space_group_name_H-M "P 21 21 21"
_symmetry_group_IT_number 19
_symmetry_cell_setting 'orthorhombic'
loop_
_space_group_symop_operation_xyz
x,y,z
1/2-x,-y,1/2+z
1/2+x,1/2-y,-z
-x,1/2+y,1/2-z
loop_
_atom_site_type_symbol
_atom_site_label
_atom_site_fract_x
_atom_site_fract_y
_atom_site_fract_z
Si Si1 0.242312 0.547646 0.844419
Si Si2 0.867296 0.437965 0.954733
Si Si3 0.434450 0.403308 0.089040
Si Si4 0.214678 0.733729 0.306563
Si Si5 0.461619 0.589201 0.777353
Si Si6 0.402329 0.771126 0.567113
Si Si7 0.246819 0.134309 0.411470
O O1 0.258787 0.524917 0.113537
O O2 0.132836 0.590048 0.812208
O O3 0.343893 0.599493 0.776644
O O4 0.850489 0.396514 0.699957
O O5 0.822289 0.344814 0.103180
O O6 0.800000 0.538205 0.960714
O O7 0.973932 0.454957 0.065388
O O8 0.359145 0.350188 0.905744
O O9 0.472520 0.509507 0.983249
O O10 0.527972 0.332138 0.105273
O O11 0.322809 0.713934 0.409219
O O12 0.233561 0.761776 0.044862
O O13 0.476378 0.709382 0.734749
O O14 0.335088 0.843360 0.720481
#
# Coordination Sequence:
#
# PCOD9315370 Si02
#       7
#     4   4   4   4   4   4   4
#     4  10  24  47  71 103 147 196 245 304 377 450
#     4  11  22  43  70 100 137 181 234 300 368 436
#     4  11  23  45  74 102 145 193 245 306 371 457
#     4  11  24  45  68 101 142 183 241 298 367 445
#     4  11  23  45  70 104 143 187 246 302 377 445
#     4  11  24  45  68 101 142 186 243 301 364 458
#     4  11  24  44  71  99 138 184 234 303 372 443
#
# _framework density 26.667539000000001
#
# number of rings (size 3 to 8) (size 9 to 14) (size 15 to 20)
#    0.000    1.143    5.714    0.000    0.000    5.714 
#    7.714    0.000    0.000    0.000    0.000    0.000 
#    0.000    0.000    0.000    0.000    0.000    0.000 
#
# Total GULP energy -156045.604448 kJ/mol
# GULP energy per Si atom -5573.057302 kJ/mol
# Density = 2.660684 g / cm^3
# Si number density = 26.667539 Si / 1000 Ang^3
#
#
#
# Elastic Constant Matrix: (Units=GPa)
#
#
# Indices 1 2 3 4 5 6 
#
# 1 112.5571 29.5933 24.5220 0.0000 0.0000 0.0000
# 2 29.5933 68.1594 18.5622 0.0000 0.0000 0.0000
# 3 24.5220 18.5622 58.1996 0.0000 0.0000 0.0000
# 4 0.0000 0.0000 0.0000 46.4508 0.0000 0.0000
# 5 0.0000 0.0000 0.0000 0.0000 17.8393 0.0000
# 6 0.0000 0.0000 0.0000 0.0000 0.0000 49.7516
#
#
#
# Elastic Compliance Matrix: (Units=1/GPa)
#
#
# Indices 1 2 3 4 5 6 
#
# 1 0.010570 -0.003697 -0.003274 0.000000 0.000000 0.000000
# 2 -0.003697 0.017360 -0.003979 0.000000 0.000000 0.000000
# 3 -0.003274 -0.003979 0.019831 0.000000 0.000000 0.000000
# 4 0.000000 0.000000 0.000000 0.021528 0.000000 0.000000
# 5 0.000000 0.000000 0.000000 0.000000 0.056056 0.000000
# 6 0.000000 0.000000 0.000000 0.000000 0.000000 0.020100
#
#
# Mechanical properties :
#
#
# Convention : Reuss Voigt Hill
#
# Bulk Modulus (GPa) = 38.67023 42.69676 40.68350
# Shear Modulus (GPa) = 28.41448 33.89093 31.15270
#
# Velocity S-wave (km/s) = 3.26775 3.56879 3.42158
# Velocity P-wave (km/s) = 5.36376 5.74693 5.55865
#
# Compressibility (1/GPa) = 0.02585968
#
# Stress axis : x y z
#
# Youngs Moduli (GPa) = 94.60871 57.60205 50.42633
#
# Poissons Ratio (x) = 0.21298 0.16511
# Poissons Ratio (y) = 0.34982 0.20065
# Poissons Ratio (z) = 0.30977 0.22920
#
# Static dielectric constant tensor:
#      x y z
#    x 2.094460 0.000000 0.000000 
#    y 0.000000 2.317850 0.000000 
#    z 0.000000 0.000000 2.171890 
# 
# From -- ./inp_files/1510.got.cif
#   From: 2010.05.17/outbox.cif.g08.bks.cpg/sg19_1_cif.got.tgz:1510.got - 2010.06.03 22:46:19.
