data_PCOD9315801
_publ_section_title
;
Structure prediction by ZEFSAII (Michael W. Deem and Ramdas Pophale) SiO2 
 PCOD9315801
Probable space group: P 21 21 21
;
_chemical_formula_sum "Si O2"
_cell_formula_units_Z 20
_cell_length_a 14.800815
_cell_length_b 4.896424
_cell_length_c 10.873122
_cell_angle_alpha 90.000000
_cell_angle_beta 90.000000
_cell_angle_gamma 90.000000
_cell_volume 787.986740
_symmetry_space_group_name_H-M "P 21 21 21"
_symmetry_group_IT_number 19
_symmetry_cell_setting 'orthorhombic'
loop_
_space_group_symop_operation_xyz
x,y,z
1/2-x,-y,1/2+z
1/2+x,1/2-y,-z
-x,1/2+y,1/2-z
loop_
_atom_site_type_symbol
_atom_site_label
_atom_site_fract_x
_atom_site_fract_y
_atom_site_fract_z
Si Si1 0.116435 0.736020 0.687600
Si Si2 0.435533 0.574015 0.435190
Si Si3 0.547171 0.153677 0.797223
Si Si4 0.277732 0.942306 0.807794
Si Si5 0.235149 0.576498 0.467630
O O1 0.085065 0.617220 0.818396
O O2 0.186006 0.976749 0.727932
O O3 0.182429 0.573948 0.595424
O O4 0.024611 0.774844 0.612622
O O5 0.459431 0.488720 0.573879
O O6 0.336921 0.700266 0.464087
O O7 0.486339 0.426691 0.798667
O O8 0.644495 0.284505 0.766728
O O9 0.258876 0.729384 0.918016
O O10 0.310121 0.221927 0.868116
#
# Coordination Sequence:
#
# PCOD9315801 Si02
#       5
#     4   4   4   4   4
#     4  11  24  46  73 109 152 193 249 311 365 449
#     4  11  25  46  74 114 146 202 248 306 378 442
#     4  12  26  47  75 108 150 192 252 299 369 447
#     4  11  24  45  70 107 142 198 239 310 367 435
#     4  11  25  46  74 104 150 187 248 302 371 437
#
# _framework density 25.381139999999998
#
# number of rings (size 3 to 8) (size 9 to 14) (size 15 to 20)
#    0.000    0.800    2.000    4.800    0.000   11.200 
#    0.000    0.000    0.000    0.000    0.000    0.000 
#    0.000    0.000    0.000    0.000    0.000    0.000 
#
# Total GULP energy -111544.345644 kJ/mol
# GULP energy per Si atom -5577.217282 kJ/mol
# Density = 2.532337 g / cm^3
# Si number density = 25.381140 Si / 1000 Ang^3
#
#
#
# Elastic Constant Matrix: (Units=GPa)
#
#
# Indices 1 2 3 4 5 6 
#
# 1 167.2098 41.0923 38.7658 0.0000 0.0000 0.0000
# 2 41.0923 88.4480 25.2459 0.0000 0.0000 0.0000
# 3 38.7658 25.2459 119.0804 0.0000 0.0000 0.0000
# 4 0.0000 0.0000 0.0000 36.9889 0.0000 0.0000
# 5 0.0000 0.0000 0.0000 0.0000 40.9116 0.0000
# 6 0.0000 0.0000 0.0000 0.0000 0.0000 11.4301
#
#
#
# Elastic Compliance Matrix: (Units=1/GPa)
#
#
# Indices 1 2 3 4 5 6 
#
# 1 0.007063 -0.002794 -0.001707 0.000000 0.000000 0.000000
# 2 -0.002794 0.013140 -0.001876 0.000000 0.000000 0.000000
# 3 -0.001707 -0.001876 0.009351 0.000000 0.000000 0.000000
# 4 0.000000 0.000000 0.000000 0.027035 0.000000 0.000000
# 5 0.000000 0.000000 0.000000 0.000000 0.024443 0.000000
# 6 0.000000 0.000000 0.000000 0.000000 0.000000 0.087488
#
#
# Mechanical properties :
#
#
# Convention : Reuss Voigt Hill
#
# Bulk Modulus (GPa) = 59.52588 64.99402 62.25995
# Shear Modulus (GPa) = 26.75597 35.84174 31.29886
#
# Velocity S-wave (km/s) = 3.25032 3.76192 3.51544
# Velocity P-wave (km/s) = 6.13105 6.67325 6.40789
#
# Compressibility (1/GPa) = 0.01679942
#
# Stress axis : x y z
#
# Youngs Moduli (GPa) = 141.58462 76.10513 106.93926
#
# Poissons Ratio (x) = 0.21265 0.18253
# Poissons Ratio (y) = 0.39561 0.20063
# Poissons Ratio (z) = 0.24167 0.14278
#
# Static dielectric constant tensor:
#      x y z
#    x 2.080320 0.000000 0.000000 
#    y 0.000000 1.991630 0.000000 
#    z 0.000000 0.000000 2.046200 
# 
# From -- ./inp_files/5143.got.cif
#   From: 2010.05.17/outbox.cif.g08.bks.cpg/sg19_3_cif.got.tgz:5143.got - 2010.06.03 22:46:19.
