data_PCOD9315920
_publ_section_title
;
Structure prediction by ZEFSAII (Michael W. Deem and Ramdas Pophale) SiO2 
 PCOD9315920
Probable space group: P 21 21 21
;
_chemical_formula_sum "Si O2"
_cell_formula_units_Z 32
_cell_length_a 11.542337
_cell_length_b 5.878814
_cell_length_c 19.196478
_cell_angle_alpha 90.000000
_cell_angle_beta 90.000000
_cell_angle_gamma 90.000000
_cell_volume 1302.581859
_symmetry_space_group_name_H-M "P 21 21 21"
_symmetry_group_IT_number 19
_symmetry_cell_setting 'orthorhombic'
loop_
_space_group_symop_operation_xyz
x,y,z
1/2-x,-y,1/2+z
1/2+x,1/2-y,-z
-x,1/2+y,1/2-z
loop_
_atom_site_type_symbol
_atom_site_label
_atom_site_fract_x
_atom_site_fract_y
_atom_site_fract_z
Si Si1 0.798902 0.982841 0.058012
Si Si2 0.544053 0.789047 0.670527
Si Si3 0.824853 0.447276 0.366919
Si Si4 0.174884 0.672813 0.589413
Si Si5 0.964853 0.127097 0.717246
Si Si6 0.259458 0.425694 0.725506
Si Si7 0.525802 0.380357 0.581628
Si Si8 0.031073 0.458182 0.926428
O O1 0.888576 0.139564 0.099796
O O2 0.668977 0.055656 0.073351
O O3 0.848759 0.738396 0.078702
O O4 0.813606 0.012105 0.975925
O O5 0.623810 0.884777 0.731473
O O6 0.526539 0.527262 0.652112
O O7 0.418484 0.899958 0.673774
O O8 0.746134 0.591757 0.419310
O O9 0.744783 0.325068 0.309163
O O10 0.912883 0.280996 0.407964
O O11 0.236833 0.570854 0.656313
O O12 0.040544 0.736092 0.596979
O O13 0.830986 0.047644 0.723561
O O14 0.017928 0.885081 0.751090
O O15 0.997570 0.135646 0.635457
O O16 0.506086 0.490078 0.505620
#
# Coordination Sequence:
#
# PCOD9315920 Si02
#       8
#     4   4   4   4   4   4   4   4
#     4  11  26  47  76 112 153 205 262 323 404 483
#     4  11  25  49  72 114 154 202 260 335 397 485
#     4  11  27  47  79 110 154 200 269 325 407 491
#     4  12  27  48  76 114 154 207 263 331 412 492
#     4  12  28  51  75 116 159 214 273 332 416 498
#     4  12  27  46  78 111 156 211 269 334 407 492
#     4  11  27  48  77 115 153 208 269 328 417 484
#     4  12  25  48  77 112 161 207 263 340 398 501
#
# _framework density 24.566596000000001
#
# number of rings (size 3 to 8) (size 9 to 14) (size 15 to 20)
#    0.000    0.500    3.750    3.000   10.500    2.000 
#    0.000    0.000    0.000    0.000    0.000    0.000 
#    0.000    0.000    0.000    0.000    0.000    0.000 
#
# Total GULP energy -178543.080896 kJ/mol
# GULP energy per Si atom -5579.471278 kJ/mol
# Density = 2.451068 g / cm^3
# Si number density = 24.566596 Si / 1000 Ang^3
#
#
#
# Elastic Constant Matrix: (Units=GPa)
#
#
# Indices 1 2 3 4 5 6 
#
# 1 111.6368 38.6249 15.2563 0.0000 0.0000 0.0000
# 2 38.6249 84.0338 27.4106 0.0000 0.0000 0.0000
# 3 15.2563 27.4106 140.1916 0.0000 0.0000 0.0000
# 4 0.0000 0.0000 0.0000 21.5017 0.0000 0.0000
# 5 0.0000 0.0000 0.0000 0.0000 30.0817 0.0000
# 6 0.0000 0.0000 0.0000 0.0000 0.0000 18.1206
#
#
#
# Elastic Compliance Matrix: (Units=1/GPa)
#
#
# Indices 1 2 3 4 5 6 
#
# 1 0.010658 -0.004828 -0.000216 0.000000 0.000000 0.000000
# 2 -0.004828 0.014898 -0.002387 0.000000 0.000000 0.000000
# 3 -0.000216 -0.002387 0.007623 0.000000 0.000000 0.000000
# 4 0.000000 0.000000 0.000000 0.046508 0.000000 0.000000
# 5 0.000000 0.000000 0.000000 0.000000 0.033243 0.000000
# 6 0.000000 0.000000 0.000000 0.000000 0.000000 0.055186
#
#
# Mechanical properties :
#
#
# Convention : Reuss Voigt Hill
#
# Bulk Modulus (GPa) = 54.59705 55.38287 54.98996
# Shear Modulus (GPa) = 26.44331 30.91216 28.67774
#
# Velocity S-wave (km/s) = 3.28440 3.55110 3.42035
# Velocity P-wave (km/s) = 6.05437 6.27747 6.16693
#
# Compressibility (1/GPa) = 0.01831601
#
# Stress axis : x y z
#
# Youngs Moduli (GPa) = 93.82963 67.12335 131.17550
#
# Poissons Ratio (x) = 0.32409 0.02831
# Poissons Ratio (y) = 0.45303 0.31317
# Poissons Ratio (z) = 0.02025 0.16025
#
# Static dielectric constant tensor:
#      x y z
#    x 1.939470 0.000000 0.000000 
#    y 0.000000 2.136020 0.000000 
#    z 0.000000 0.000000 1.934030 
# 
# From -- ./inp_files/7192.got.cif
#   From: 2010.05.17/outbox.cif.g08.bks.cpg/sg19_4_cif.got.tgz:7192.got - 2010.06.03 22:46:19.
