data_PCOD9315601
_publ_section_title
;
Structure prediction by ZEFSAII (Michael W. Deem and Ramdas Pophale) SiO2 
 PCOD9315601
Probable space group: P 21 21 21
;
_chemical_formula_sum "Si O2"
_cell_formula_units_Z 28
_cell_length_a 5.229385
_cell_length_b 12.851935
_cell_length_c 17.462605
_cell_angle_alpha 90.000000
_cell_angle_beta 90.000000
_cell_angle_gamma 90.000000
_cell_volume 1173.621799
_symmetry_space_group_name_H-M "P 21 21 21"
_symmetry_group_IT_number 19
_symmetry_cell_setting 'orthorhombic'
loop_
_space_group_symop_operation_xyz
x,y,z
1/2-x,-y,1/2+z
1/2+x,1/2-y,-z
-x,1/2+y,1/2-z
loop_
_atom_site_type_symbol
_atom_site_label
_atom_site_fract_x
_atom_site_fract_y
_atom_site_fract_z
Si Si1 0.568453 0.126129 0.243066
Si Si2 0.131973 0.003632 0.438072
Si Si3 0.711876 0.720858 0.044335
Si Si4 0.658276 0.098518 0.066623
Si Si5 0.288659 0.559757 0.682039
Si Si6 0.573950 0.244818 0.712345
Si Si7 0.004358 0.168947 0.949423
O O1 0.640663 0.094338 0.156554
O O2 0.297618 0.184317 0.248949
O O3 0.794310 0.203999 0.273085
O O4 0.568435 0.015440 0.286277
O O5 0.249062 0.891242 0.421232
O O6 0.971618 0.990921 0.516249
O O7 0.964441 0.022709 0.363221
O O8 0.328253 0.096928 0.446035
O O9 0.832447 0.762598 0.123916
O O10 0.441179 0.765366 0.017190
O O11 0.529556 0.209269 0.045169
O O12 0.937422 0.115811 0.030415
O O13 0.411013 0.631386 0.747330
O O14 0.199000 0.636456 0.614467
#
# Coordination Sequence:
#
# PCOD9315601 Si02
#       7
#     4   4   4   4   4   4   4
#     4  12  27  46  72 108 148 189 244 303 364 431
#     4  11  25  46  72 103 147 197 234 303 367 430
#     4  12  29  52  74 102 145 197 248 293 353 436
#     4  11  24  39  70 110 143 186 236 300 360 445
#     4  11  26  45  73 103 145 196 242 302 369 423
#     4  12  27  49  74 106 147 190 246 305 361 429
#     4  11  22  43  71 104 147 185 238 296 376 424
#
# _framework density 23.857769999999999
#
# number of rings (size 3 to 8) (size 9 to 14) (size 15 to 20)
#    0.000    0.571    4.286    2.571   10.000    0.000 
#    0.000    0.000    0.000    0.000    0.000    0.000 
#    0.000    0.000    0.000    0.000    0.000    0.000 
#
# Total GULP energy -156505.212208 kJ/mol
# GULP energy per Si atom -5589.471865 kJ/mol
# Density = 2.380347 g / cm^3
# Si number density = 23.857770 Si / 1000 Ang^3
#
#
#
# Elastic Constant Matrix: (Units=GPa)
#
#
# Indices 1 2 3 4 5 6 
#
# 1 70.1175 -0.5948 -3.6943 0.0000 0.0000 0.0000
# 2 -0.5948 88.2646 -0.0778 0.0000 0.0000 0.0000
# 3 -3.6943 -0.0778 107.4784 0.0000 0.0000 0.0000
# 4 0.0000 0.0000 0.0000 22.7240 0.0000 0.0000
# 5 0.0000 0.0000 0.0000 0.0000 18.5586 0.0000
# 6 0.0000 0.0000 0.0000 0.0000 0.0000 31.0621
#
#
#
# Elastic Compliance Matrix: (Units=1/GPa)
#
#
# Indices 1 2 3 4 5 6 
#
# 1 0.014288 0.000097 0.000491 0.000000 0.000000 0.000000
# 2 0.000097 0.011330 0.000012 0.000000 0.000000 0.000000
# 3 0.000491 0.000012 0.009321 0.000000 0.000000 0.000000
# 4 0.000000 0.000000 0.000000 0.044006 0.000000 0.000000
# 5 0.000000 0.000000 0.000000 0.000000 0.053883 0.000000
# 6 0.000000 0.000000 0.000000 0.000000 0.000000 0.032194
#
#
# Mechanical properties :
#
#
# Convention : Reuss Voigt Hill
#
# Bulk Modulus (GPa) = 27.67119 28.56965 28.12042
# Shear Modulus (GPa) = 28.43002 32.48409 30.45706
#
# Velocity S-wave (km/s) = 3.45577 3.69395 3.57684
# Velocity P-wave (km/s) = 5.24849 5.49497 5.37315
#
# Compressibility (1/GPa) = 0.03613867
#
# Stress axis : x y z
#
# Youngs Moduli (GPa) = 69.98650 88.25947 107.28360
#
# Poissons Ratio (x) = -0.00854 -0.05270
# Poissons Ratio (y) = -0.00677 -0.00124
# Poissons Ratio (z) = -0.03438 -0.00102
#
# Static dielectric constant tensor:
#      x y z
#    x 1.986870 0.000000 0.000000 
#    y 0.000000 1.900850 0.000000 
#    z 0.000000 0.000000 1.930660 
# 
# From -- ./inp_files/5344.got.cif
#   From: 2010.05.17/outbox.cif.g08.bks.cpg/sg19_3_cif.got.tgz:5344.got - 2010.06.03 22:46:19.
