data_PCOD9315032
_publ_section_title
;
Structure prediction by ZEFSAII (Michael W. Deem and Ramdas Pophale) SiO2 
 PCOD9315032
Probable space group: P 21 21 21
;
_chemical_formula_sum "Si O2"
_cell_formula_units_Z 28
_cell_length_a 5.495935
_cell_length_b 14.464171
_cell_length_c 14.534533
_cell_angle_alpha 90.000000
_cell_angle_beta 90.000000
_cell_angle_gamma 90.000000
_cell_volume 1155.410254
_symmetry_space_group_name_H-M "P 21 21 21"
_symmetry_group_IT_number 19
_symmetry_cell_setting 'orthorhombic'
loop_
_space_group_symop_operation_xyz
x,y,z
1/2-x,-y,1/2+z
1/2+x,1/2-y,-z
-x,1/2+y,1/2-z
loop_
_atom_site_type_symbol
_atom_site_label
_atom_site_fract_x
_atom_site_fract_y
_atom_site_fract_z
Si Si1 0.169968 0.528260 0.034851
Si Si2 0.517247 0.555177 0.704812
Si Si3 0.114394 0.291206 0.472885
Si Si4 0.182484 0.213592 0.860928
Si Si5 0.483189 0.357891 0.957226
Si Si6 0.632050 0.838962 0.211935
Si Si7 0.309108 0.987986 0.116810
O O1 0.096957 0.522873 0.141248
O O2 0.367078 0.605875 0.012761
O O3 0.288681 0.435048 0.992635
O O4 0.921075 0.550124 0.979283
O O5 0.729159 0.606530 0.648959
O O6 0.317782 0.635021 0.709187
O O7 0.591668 0.534933 0.810127
O O8 0.334693 0.239951 0.527313
O O9 0.225821 0.292801 0.370955
O O10 0.372033 0.294379 0.878214
O O11 0.060448 0.226479 0.761315
O O12 0.032837 0.207846 0.955448
O O13 0.720857 0.410862 0.917039
O O14 0.520937 0.938062 0.178829
#
# Coordination Sequence:
#
# PCOD9315032 Si02
#       7
#     4   4   4   4   4   4   4
#     4  11  24  44  73 100 142 194 243 304 373 452
#     4  11  22  46  71 103 142 187 239 307 364 447
#     4  11  28  49  75 106 148 200 256 316 378 445
#     4  11  25  40  73 107 147 185 238 305 379 447
#     4  12  24  44  69 108 147 188 239 301 382 452
#     4  10  24  46  73  98 146 190 242 304 372 444
#     4  10  23  41  68 100 134 188 237 291 362 441
#
# _framework density 24.233816000000001
#
# number of rings (size 3 to 8) (size 9 to 14) (size 15 to 20)
#    0.000    1.143    2.857    2.571   10.000    1.143 
#    2.571    0.000    0.000    0.000    0.000    0.000 
#    0.000    0.000    0.000    0.000    0.000    0.000 
#
# Total GULP energy -155928.075068 kJ/mol
# GULP energy per Si atom -5568.859824 kJ/mol
# Density = 2.417866 g / cm^3
# Si number density = 24.233816 Si / 1000 Ang^3
#
#
#
# Elastic Constant Matrix: (Units=GPa)
#
#
# Indices 1 2 3 4 5 6 
#
# 1 60.0310 20.8151 11.2805 0.0000 0.0000 0.0000
# 2 20.8151 57.1322 4.1652 0.0000 0.0000 0.0000
# 3 11.2805 4.1652 66.2364 0.0000 0.0000 0.0000
# 4 0.0000 0.0000 0.0000 25.9917 0.0000 0.0000
# 5 0.0000 0.0000 0.0000 0.0000 20.8236 0.0000
# 6 0.0000 0.0000 0.0000 0.0000 0.0000 37.9815
#
#
#
# Elastic Compliance Matrix: (Units=1/GPa)
#
#
# Indices 1 2 3 4 5 6 
#
# 1 0.019607 -0.006932 -0.002903 0.000000 0.000000 0.000000
# 2 -0.006932 0.020035 -0.000079 0.000000 0.000000 0.000000
# 3 -0.002903 -0.000079 0.015597 0.000000 0.000000 0.000000
# 4 0.000000 0.000000 0.000000 0.038474 0.000000 0.000000
# 5 0.000000 0.000000 0.000000 0.000000 0.048023 0.000000
# 6 0.000000 0.000000 0.000000 0.000000 0.000000 0.026329
#
#
# Mechanical properties :
#
#
# Convention : Reuss Voigt Hill
#
# Bulk Modulus (GPa) = 28.24091 28.43567 28.33829
# Shear Modulus (GPa) = 25.03809 26.76861 25.90335
#
# Velocity S-wave (km/s) = 3.21781 3.32715 3.27294
# Velocity P-wave (km/s) = 5.04822 5.14969 5.09921
#
# Compressibility (1/GPa) = 0.03540963
#
# Stress axis : x y z
#
# Youngs Moduli (GPa) = 51.00172 49.91376 64.11535
#
# Poissons Ratio (x) = 0.34600 0.18615
# Poissons Ratio (y) = 0.35354 0.00508
# Poissons Ratio (z) = 0.14807 0.00396
#
# Static dielectric constant tensor:
#      x y z
#    x 2.025350 0.000000 0.000000 
#    y 0.000000 1.999980 0.000000 
#    z 0.000000 0.000000 1.902970 
# 
# From -- ./inp_files/5695.got.cif
#   From: 2010.05.17/outbox.cif.g08.bks.cpg/sg19_3_cif.got.tgz:5695.got - 2010.06.03 22:46:19.
