data_PCOD9315813
_publ_section_title
;
Structure prediction by ZEFSAII (Michael W. Deem and Ramdas Pophale) SiO2 
 PCOD9315813
Probable space group: P 21 21 21
;
_chemical_formula_sum "Si O2"
_cell_formula_units_Z 32
_cell_length_a 12.892681
_cell_length_b 5.388704
_cell_length_c 18.452965
_cell_angle_alpha 90.000000
_cell_angle_beta 90.000000
_cell_angle_gamma 90.000000
_cell_volume 1282.016822
_symmetry_space_group_name_H-M "P 21 21 21"
_symmetry_group_IT_number 19
_symmetry_cell_setting 'orthorhombic'
loop_
_space_group_symop_operation_xyz
x,y,z
1/2-x,-y,1/2+z
1/2+x,1/2-y,-z
-x,1/2+y,1/2-z
loop_
_atom_site_type_symbol
_atom_site_label
_atom_site_fract_x
_atom_site_fract_y
_atom_site_fract_z
Si Si1 0.796404 0.542281 0.358233
Si Si2 0.592844 0.012770 0.088661
Si Si3 0.666034 0.615034 0.012103
Si Si4 0.033808 0.704534 0.767667
Si Si5 0.055861 0.854408 0.248243
Si Si6 0.297831 0.179207 0.888017
Si Si7 0.561836 0.868072 0.478166
Si Si8 0.313542 0.541083 0.155849
O O1 0.785707 0.514108 0.443459
O O2 0.908099 0.478593 0.327306
O O3 0.765651 0.815394 0.336481
O O4 0.733630 0.306015 0.330268
O O5 0.570023 0.805154 0.149151
O O6 0.687750 0.174270 0.120199
O O7 0.483358 0.135694 0.068547
O O8 0.641052 0.904803 0.014642
O O9 0.749954 0.568672 0.075529
O O10 0.549149 0.504235 0.012924
O O11 0.102016 0.520528 0.715992
O O12 0.946462 0.480679 0.764224
O O13 0.141377 0.852484 0.312858
O O14 0.025395 0.571359 0.230381
O O15 0.376756 0.297703 0.948360
O O16 0.634865 0.020123 0.423513
#
# Coordination Sequence:
#
# PCOD9315813 Si02
#       8
#     4   4   4   4   4   4   4   4
#     4  12  27  48  73 108 143 191 247 299 369 438
#     4  11  26  43  71 108 144 196 245 307 372 440
#     4  11  26  43  76 102 146 195 245 309 366 439
#     4  12  25  43  69 104 145 190 240 298 367 438
#     4  12  29  51  78 108 147 201 247 305 373 442
#     4  11  26  47  72 107 150 191 249 312 365 444
#     4  11  24  46  69 107 145 191 249 301 378 434
#     4  12  25  45  72 104 148 187 238 303 364 433
#
# _framework density 24.960671999999999
#
# number of rings (size 3 to 8) (size 9 to 14) (size 15 to 20)
#    0.000    0.500    2.500    4.500   10.500    1.000 
#    0.000    0.000    0.000    0.000    0.000    0.000 
#    0.000    0.000    0.000    0.000    0.000    0.000 
#
# Total GULP energy -178397.897712 kJ/mol
# GULP energy per Si atom -5574.934303 kJ/mol
# Density = 2.490386 g / cm^3
# Si number density = 24.960672 Si / 1000 Ang^3
#
#
#
# Elastic Constant Matrix: (Units=GPa)
#
#
# Indices 1 2 3 4 5 6 
#
# 1 76.1466 39.3055 16.3327 0.0000 0.0000 0.0000
# 2 39.3055 99.8072 14.3245 0.0000 0.0000 0.0000
# 3 16.3327 14.3245 75.8136 0.0000 0.0000 0.0000
# 4 0.0000 0.0000 0.0000 23.9694 0.0000 0.0000
# 5 0.0000 0.0000 0.0000 0.0000 54.3319 0.0000
# 6 0.0000 0.0000 0.0000 0.0000 0.0000 21.2625
#
#
#
# Elastic Compliance Matrix: (Units=1/GPa)
#
#
# Indices 1 2 3 4 5 6 
#
# 1 0.016915 -0.006310 -0.002452 0.000000 0.000000 0.000000
# 2 -0.006310 0.012652 -0.001031 0.000000 0.000000 0.000000
# 3 -0.002452 -0.001031 0.013913 0.000000 0.000000 0.000000
# 4 0.000000 0.000000 0.000000 0.041720 0.000000 0.000000
# 5 0.000000 0.000000 0.000000 0.000000 0.018405 0.000000
# 6 0.000000 0.000000 0.000000 0.000000 0.000000 0.047031
#
#
# Mechanical properties :
#
#
# Convention : Reuss Voigt Hill
#
# Bulk Modulus (GPa) = 41.84939 43.52143 42.68541
# Shear Modulus (GPa) = 28.06025 32.03307 30.04666
#
# Velocity S-wave (km/s) = 3.35651 3.58626 3.47329
# Velocity P-wave (km/s) = 5.64129 5.88407 5.76395
#
# Compressibility (1/GPa) = 0.02389521
#
# Stress axis : x y z
#
# Youngs Moduli (GPa) = 59.11769 79.03798 71.87349
#
# Poissons Ratio (x) = 0.49870 0.17623
# Poissons Ratio (y) = 0.37301 0.07412
# Poissons Ratio (z) = 0.14495 0.08151
#
# Static dielectric constant tensor:
#      x y z
#    x 2.499040 0.000000 0.000000 
#    y 0.000000 1.727360 0.000000 
#    z 0.000000 0.000000 2.127320 
# 
# From -- ./inp_files/6912.got.cif
#   From: 2010.05.17/outbox.cif.g08.bks.cpg/sg19_4_cif.got.tgz:6912.got - 2010.06.03 22:46:19.
