data_PCOD9315695
_publ_section_title
;
Structure prediction by ZEFSAII (Michael W. Deem and Ramdas Pophale) SiO2 
 PCOD9315695
Probable space group: P 21 21 21
;
_chemical_formula_sum "Si O2"
_cell_formula_units_Z 32
_cell_length_a 21.887244
_cell_length_b 5.027274
_cell_length_c 11.113928
_cell_angle_alpha 90.000000
_cell_angle_beta 90.000000
_cell_angle_gamma 90.000000
_cell_volume 1222.900759
_symmetry_space_group_name_H-M "P 21 21 21"
_symmetry_group_IT_number 19
_symmetry_cell_setting 'orthorhombic'
loop_
_space_group_symop_operation_xyz
x,y,z
1/2-x,-y,1/2+z
1/2+x,1/2-y,-z
-x,1/2+y,1/2-z
loop_
_atom_site_type_symbol
_atom_site_label
_atom_site_fract_x
_atom_site_fract_y
_atom_site_fract_z
Si Si1 0.648474 0.583786 0.379803
Si Si2 0.370202 0.968076 0.776506
Si Si3 0.696369 0.163478 0.072054
Si Si4 0.485276 0.631234 0.794169
Si Si5 0.914820 0.080502 0.699346
Si Si6 0.173923 0.544334 0.407752
Si Si7 0.721424 0.655087 0.923301
Si Si8 0.533373 0.221552 0.430489
O O1 0.627061 0.681263 0.249338
O O2 0.668242 0.847595 0.455767
O O3 0.708287 0.396165 0.384313
O O4 0.587548 0.440260 0.431084
O O5 0.436552 0.863462 0.738211
O O6 0.345048 0.745518 0.867776
O O7 0.368701 0.241039 0.846570
O O8 0.324131 0.019656 0.669800
O O9 0.757584 0.078950 0.142731
O O10 0.632665 0.117742 0.136882
O O11 0.710448 0.465586 0.038126
O O12 0.701943 0.953338 0.959562
O O13 0.466221 0.375510 0.715121
O O14 0.472546 0.593726 0.936867
O O15 0.968180 0.159783 0.608099
O O16 0.947439 0.969051 0.819988
#
# Coordination Sequence:
#
# PCOD9315695 Si02
#       8
#     4   4   4   4   4   4   4   4
#     4  11  25  46  72 109 151 205 256 323 393 482
#     4  12  24  45  74 106 141 194 256 318 390 450
#     4  11  27  46  72 114 152 202 248 322 391 469
#     4  12  30  50  79 107 152 209 267 335 387 473
#     4  12  28  47  79 112 164 208 265 332 399 494
#     4  11  23  44  74 107 145 196 254 321 386 470
#     4  11  27  45  75 110 154 199 257 323 395 471
#     4  12  28  49  77 115 155 215 269 320 411 477
#
# _framework density 26.167290999999999
#
# number of rings (size 3 to 8) (size 9 to 14) (size 15 to 20)
#    0.000    0.500    2.500    4.500   12.250    0.000 
#    0.000    0.000    0.000    0.000    0.000    0.000 
#    0.000    0.000    0.000    0.000    0.000    0.000 
#
# Total GULP energy -178939.291573 kJ/mol
# GULP energy per Si atom -5591.852862 kJ/mol
# Density = 2.610773 g / cm^3
# Si number density = 26.167291 Si / 1000 Ang^3
#
#
#
# Elastic Constant Matrix: (Units=GPa)
#
#
# Indices 1 2 3 4 5 6 
#
# 1 179.5333 13.7327 73.5867 0.0000 0.0000 0.0000
# 2 13.7327 112.6696 28.5031 0.0000 0.0000 0.0000
# 3 73.5867 28.5031 80.4650 0.0000 0.0000 0.0000
# 4 0.0000 0.0000 0.0000 30.6752 0.0000 0.0000
# 5 0.0000 0.0000 0.0000 0.0000 57.0968 0.0000
# 6 0.0000 0.0000 0.0000 0.0000 0.0000 26.2922
#
#
#
# Elastic Compliance Matrix: (Units=1/GPa)
#
#
# Indices 1 2 3 4 5 6 
#
# 1 0.009029 0.001086 -0.008642 0.000000 0.000000 0.000000
# 2 0.001086 0.009880 -0.004493 0.000000 0.000000 0.000000
# 3 -0.008642 -0.004493 0.021922 0.000000 0.000000 0.000000
# 4 0.000000 0.000000 0.000000 0.032600 0.000000 0.000000
# 5 0.000000 0.000000 0.000000 0.000000 0.017514 0.000000
# 6 0.000000 0.000000 0.000000 0.000000 0.000000 0.038034
#
#
# Mechanical properties :
#
#
# Convention : Reuss Voigt Hill
#
# Bulk Modulus (GPa) = 59.75989 67.14589 63.45289
# Shear Modulus (GPa) = 31.51514 39.93588 35.72551
#
# Velocity S-wave (km/s) = 3.47417 3.91087 3.69897
# Velocity P-wave (km/s) = 6.24343 6.79037 6.52263
#
# Compressibility (1/GPa) = 0.01673363
#
# Stress axis : x y z
#
# Youngs Moduli (GPa) = 110.75390 101.21761 45.61582
#
# Poissons Ratio (x) = -0.10989 0.39420
# Poissons Ratio (y) = -0.12024 0.20493
# Poissons Ratio (z) = 0.95711 0.45473
#
# Static dielectric constant tensor:
#      x y z
#    x 3.569780 0.000000 0.000000 
#    y 0.000000 1.980840 0.000000 
#    z 0.000000 0.000000 2.226070 
# 
# From -- ./inp_files/5512.got.cif
#   From: 2010.05.17/outbox.cif.g08.bks.cpg/sg19_3_cif.got.tgz:5512.got - 2010.06.03 22:46:19.
