data_PCOD9315185
_publ_section_title
;
Structure prediction by ZEFSAII (Michael W. Deem and Ramdas Pophale) SiO2 
 PCOD9315185
Probable space group: P 21 21 21
;
_chemical_formula_sum "Si O2"
_cell_formula_units_Z 32
_cell_length_a 8.344846
_cell_length_b 5.362045
_cell_length_c 31.946501
_cell_angle_alpha 90.000000
_cell_angle_beta 90.000000
_cell_angle_gamma 90.000000
_cell_volume 1429.460236
_symmetry_space_group_name_H-M "P 21 21 21"
_symmetry_group_IT_number 19
_symmetry_cell_setting 'orthorhombic'
loop_
_space_group_symop_operation_xyz
x,y,z
1/2-x,-y,1/2+z
1/2+x,1/2-y,-z
-x,1/2+y,1/2-z
loop_
_atom_site_type_symbol
_atom_site_label
_atom_site_fract_x
_atom_site_fract_y
_atom_site_fract_z
Si Si1 0.229768 0.570627 0.520352
Si Si2 0.217817 0.438063 0.282032
Si Si3 0.464287 0.152241 0.651812
Si Si4 0.787373 0.468423 0.109516
Si Si5 0.610302 0.259695 0.897394
Si Si6 0.728025 0.041011 0.809033
Si Si7 0.857583 0.428103 0.522188
Si Si8 0.107490 0.078359 0.807768
O O1 0.290878 0.625759 0.567298
O O2 0.322419 0.334731 0.500347
O O3 0.043830 0.498796 0.519345
O O4 0.263887 0.834167 0.497347
O O5 0.080898 0.494230 0.316306
O O6 0.152549 0.388504 0.235466
O O7 0.326239 0.686891 0.281646
O O8 0.316839 0.188159 0.294334
O O9 0.593160 0.344083 0.633062
O O10 0.327485 0.261539 0.681285
O O11 0.375505 0.053053 0.610121
O O12 0.698815 0.587056 0.070271
O O13 0.662883 0.375592 0.144146
O O14 0.919655 0.268369 0.094711
O O15 0.662744 0.175973 0.850677
O O16 0.916922 0.071565 0.805498
#
# Coordination Sequence:
#
# PCOD9315185 Si02
#       8
#     4   4   4   4   4   4   4   4
#     4  12  28  48  75 108 147 178 242 281 365 412
#     4  11  25  44  68  99 142 182 244 285 364 409
#     4  10  25  42  69  99 138 190 231 298 343 429
#     4  10  23  45  70  98 141 181 238 275 367 408
#     4  11  24  45  68 103 141 190 232 296 350 426
#     4  11  26  40  70  99 140 185 240 299 347 425
#     4  12  27  49  76 109 137 191 223 301 338 439
#     4  11  24  45  66 103 136 189 228 301 354 422
#
# _framework density 22.386073
#
# number of rings (size 3 to 8) (size 9 to 14) (size 15 to 20)
#    0.000    1.000    1.250    3.750   12.250    0.000 
#    2.250    0.000    0.000    0.000    0.000    0.000 
#    0.000    0.000    0.000    0.000    0.000    0.000 
#
# Total GULP energy -178630.524946 kJ/mol
# GULP energy per Si atom -5582.203905 kJ/mol
# Density = 2.233512 g / cm^3
# Si number density = 22.386073 Si / 1000 Ang^3
#
#
#
# Elastic Constant Matrix: (Units=GPa)
#
#
# Indices 1 2 3 4 5 6 
#
# 1 54.2455 19.0254 6.4207 0.0000 0.0000 0.0000
# 2 19.0254 66.6653 11.4347 0.0000 0.0000 0.0000
# 3 6.4207 11.4347 96.2642 0.0000 0.0000 0.0000
# 4 0.0000 0.0000 0.0000 30.2194 0.0000 0.0000
# 5 0.0000 0.0000 0.0000 0.0000 31.9761 0.0000
# 6 0.0000 0.0000 0.0000 0.0000 0.0000 22.8361
#
#
#
# Elastic Compliance Matrix: (Units=1/GPa)
#
#
# Indices 1 2 3 4 5 6 
#
# 1 0.020530 -0.005741 -0.000687 0.000000 0.000000 0.000000
# 2 -0.005741 0.016918 -0.001627 0.000000 0.000000 0.000000
# 3 -0.000687 -0.001627 0.010627 0.000000 0.000000 0.000000
# 4 0.000000 0.000000 0.000000 0.033091 0.000000 0.000000
# 5 0.000000 0.000000 0.000000 0.000000 0.031273 0.000000
# 6 0.000000 0.000000 0.000000 0.000000 0.000000 0.043790
#
#
# Mechanical properties :
#
#
# Convention : Reuss Voigt Hill
#
# Bulk Modulus (GPa) = 31.28471 32.32628 31.80550
# Shear Modulus (GPa) = 27.32326 29.02593 28.17459
#
# Velocity S-wave (km/s) = 3.49742 3.60475 3.55149
# Velocity P-wave (km/s) = 5.50588 5.63891 5.57279
#
# Compressibility (1/GPa) = 0.03196449
#
# Stress axis : x y z
#
# Youngs Moduli (GPa) = 48.71016 59.10966 94.09865
#
# Poissons Ratio (x) = 0.33935 0.06468
# Poissons Ratio (y) = 0.27964 0.15306
# Poissons Ratio (z) = 0.03348 0.09615
#
# Static dielectric constant tensor:
#      x y z
#    x 1.788330 0.000000 0.000000 
#    y 0.000000 2.105060 0.000000 
#    z 0.000000 0.000000 1.848920 
# 
# From -- ./inp_files/7593.got.cif
#   From: 2010.05.17/outbox.cif.g08.bks.cpg/sg19_4_cif.got.tgz:7593.got - 2010.06.03 22:46:19.
