data_PCOD9315969
_publ_section_title
;
Structure prediction by ZEFSAII (Michael W. Deem and Ramdas Pophale) SiO2 
 PCOD9315969
Probable space group: P 21 21 21
;
_chemical_formula_sum "Si O2"
_cell_formula_units_Z 20
_cell_length_a 8.533734
_cell_length_b 10.340925
_cell_length_c 9.380322
_cell_angle_alpha 90.000000
_cell_angle_beta 90.000000
_cell_angle_gamma 90.000000
_cell_volume 827.782492
_symmetry_space_group_name_H-M "P 21 21 21"
_symmetry_group_IT_number 19
_symmetry_cell_setting 'orthorhombic'
loop_
_space_group_symop_operation_xyz
x,y,z
1/2-x,-y,1/2+z
1/2+x,1/2-y,-z
-x,1/2+y,1/2-z
loop_
_atom_site_type_symbol
_atom_site_label
_atom_site_fract_x
_atom_site_fract_y
_atom_site_fract_z
Si Si1 0.611487 0.067920 0.016873
Si Si2 0.096719 0.263591 0.234887
Si Si3 0.262651 0.234854 0.793106
Si Si4 0.853351 0.457261 0.754469
Si Si5 0.113911 0.376899 0.529982
O O1 0.647743 0.206260 0.089548
O O2 0.457775 0.020839 0.102061
O O3 0.756153 0.971914 0.036610
O O4 0.614578 0.101906 0.850278
O O5 0.244065 0.168577 0.225996
O O6 0.056899 0.291646 0.398836
O O7 0.934318 0.211867 0.171364
O O8 0.203872 0.290057 0.644233
O O9 0.251791 0.081099 0.781943
O O10 0.974062 0.439108 0.622478
#
# Coordination Sequence:
#
# PCOD9315969 Si02
#       5
#     4   4   4   4   4
#     4  11  27  47  75 105 148 195 255 304 370 442
#     4  12  26  45  73 110 143 195 249 304 371 444
#     4  11  28  48  72 107 152 193 248 311 372 452
#     4  11  28  49  77 107 155 202 245 315 379 440
#     4  11  27  47  75 105 148 195 255 304 370 442
#
# _framework density 24.160934999999998
#
# number of rings (size 3 to 8) (size 9 to 14) (size 15 to 20)
#    0.000    0.800    0.000    4.800   22.400    3.200 
#    0.000    0.000    0.000    0.000    0.000    0.000 
#    0.000    0.000    0.000    0.000    0.000    0.000 
#
# Total GULP energy -111909.817741 kJ/mol
# GULP energy per Si atom -5595.490887 kJ/mol
# Density = 2.410594 g / cm^3
# Si number density = 24.160935 Si / 1000 Ang^3
#
#
#
# Elastic Constant Matrix: (Units=GPa)
#
#
# Indices 1 2 3 4 5 6 
#
# 1 135.4792 38.1863 33.9400 0.0000 0.0000 0.0000
# 2 38.1863 61.4503 11.6377 0.0000 0.0000 0.0000
# 3 33.9400 11.6377 98.9477 0.0000 0.0000 0.0000
# 4 0.0000 0.0000 0.0000 16.8841 0.0000 0.0000
# 5 0.0000 0.0000 0.0000 0.0000 30.3088 0.0000
# 6 0.0000 0.0000 0.0000 0.0000 0.0000 44.8937
#
#
#
# Elastic Compliance Matrix: (Units=1/GPa)
#
#
# Indices 1 2 3 4 5 6 
#
# 1 0.009581 -0.005453 -0.002645 0.000000 0.000000 0.000000
# 2 -0.005453 0.019747 -0.000452 0.000000 0.000000 0.000000
# 3 -0.002645 -0.000452 0.011067 0.000000 0.000000 0.000000
# 4 0.000000 0.000000 0.000000 0.059227 0.000000 0.000000
# 5 0.000000 0.000000 0.000000 0.000000 0.032994 0.000000
# 6 0.000000 0.000000 0.000000 0.000000 0.000000 0.022275
#
#
# Mechanical properties :
#
#
# Convention : Reuss Voigt Hill
#
# Bulk Modulus (GPa) = 42.92760 51.48947 47.20854
# Shear Modulus (GPa) = 27.81556 32.55822 30.18689
#
# Velocity S-wave (km/s) = 3.39671 3.67489 3.53853
# Velocity P-wave (km/s) = 5.76103 6.27405 6.02300
#
# Compressibility (1/GPa) = 0.02329504
#
# Stress axis : x y z
#
# Youngs Moduli (GPa) = 104.37625 50.63962 90.36050
#
# Poissons Ratio (x) = 0.27612 0.23900
# Poissons Ratio (y) = 0.56913 0.04087
# Poissons Ratio (z) = 0.27607 0.02290
#
# Static dielectric constant tensor:
#      x y z
#    x 1.959340 0.000000 0.000000 
#    y 0.000000 1.919680 0.000000 
#    z 0.000000 0.000000 1.983980 
# 
# From -- ./inp_files/2560.got.cif
#   From: 2010.05.17/outbox.cif.g08.bks.cpg/sg19_2_cif.got.tgz:2560.got - 2010.06.03 22:46:19.
