data_PCOD9315952
_publ_section_title
;
Structure prediction by ZEFSAII (Michael W. Deem and Ramdas Pophale) SiO2 
 PCOD9315952
Probable space group: P 21 21 21
;
_chemical_formula_sum "Si O2"
_cell_formula_units_Z 20
_cell_length_a 5.056776
_cell_length_b 14.917162
_cell_length_c 10.216222
_cell_angle_alpha 90.000000
_cell_angle_beta 90.000000
_cell_angle_gamma 90.000000
_cell_volume 770.637687
_symmetry_space_group_name_H-M "P 21 21 21"
_symmetry_group_IT_number 19
_symmetry_cell_setting 'orthorhombic'
loop_
_space_group_symop_operation_xyz
x,y,z
1/2-x,-y,1/2+z
1/2+x,1/2-y,-z
-x,1/2+y,1/2-z
loop_
_atom_site_type_symbol
_atom_site_label
_atom_site_fract_x
_atom_site_fract_y
_atom_site_fract_z
Si Si1 0.853403 0.116172 0.760858
Si Si2 0.650492 0.191091 0.513011
Si Si3 0.538424 0.968065 0.870253
Si Si4 0.980280 0.274485 0.916662
Si Si5 0.293000 0.029263 0.119283
O O1 0.635420 0.149184 0.657604
O O2 0.020290 0.202254 0.803140
O O3 0.717742 0.057332 0.872804
O O4 0.038738 0.047849 0.686181
O O5 0.363589 0.227835 0.476264
O O6 0.792820 0.116601 0.421566
O O7 0.450831 0.956045 0.718952
O O8 0.293810 0.993983 0.968186
O O9 0.945766 0.376355 0.876617
O O10 0.702692 0.244083 0.977888
#
# Coordination Sequence:
#
# PCOD9315952 Si02
#       5
#     4   4   4   4   4
#     4  11  27  45  77 109 156 200 261 308 387 453
#     4  11  28  49  76 114 153 202 255 319 383 457
#     4  11  26  48  78 110 157 201 259 317 383 453
#     4  12  27  48  76 111 153 202 256 314 380 455
#     4  11  26  48  79 110 155 205 253 322 377 460
#
# _framework density 25.952531
#
# number of rings (size 3 to 8) (size 9 to 14) (size 15 to 20)
#    0.000    0.800    2.000    2.400   14.000    1.600 
#    0.000    0.000    0.000    0.000    0.000    0.000 
#    0.000    0.000    0.000    0.000    0.000    0.000 
#
# Total GULP energy -112034.743601 kJ/mol
# GULP energy per Si atom -5601.737180 kJ/mol
# Density = 2.589346 g / cm^3
# Si number density = 25.952531 Si / 1000 Ang^3
#
#
#
# Elastic Constant Matrix: (Units=GPa)
#
#
# Indices 1 2 3 4 5 6 
#
# 1 113.7203 18.4442 16.1984 0.0000 0.0000 0.0000
# 2 18.4442 161.0639 29.0515 0.0000 0.0000 0.0000
# 3 16.1984 29.0515 43.6714 0.0000 0.0000 0.0000
# 4 0.0000 0.0000 0.0000 54.2096 0.0000 0.0000
# 5 0.0000 0.0000 0.0000 0.0000 38.5743 0.0000
# 6 0.0000 0.0000 0.0000 0.0000 0.0000 28.8944
#
#
#
# Elastic Compliance Matrix: (Units=1/GPa)
#
#
# Indices 1 2 3 4 5 6 
#
# 1 0.009320 -0.000504 -0.003121 0.000000 0.000000 0.000000
# 2 -0.000504 0.007083 -0.004524 0.000000 0.000000 0.000000
# 3 -0.003121 -0.004524 0.027066 0.000000 0.000000 0.000000
# 4 0.000000 0.000000 0.000000 0.018447 0.000000 0.000000
# 5 0.000000 0.000000 0.000000 0.000000 0.025924 0.000000
# 6 0.000000 0.000000 0.000000 0.000000 0.000000 0.034609
#
#
# Mechanical properties :
#
#
# Convention : Reuss Voigt Hill
#
# Bulk Modulus (GPa) = 36.80803 49.53820 43.17311
# Shear Modulus (GPa) = 33.82847 41.31976 37.57412
#
# Velocity S-wave (km/s) = 3.61428 3.99448 3.80913
# Velocity P-wave (km/s) = 5.62415 6.35641 6.00145
#
# Compressibility (1/GPa) = 0.02716799
#
# Stress axis : x y z
#
# Youngs Moduli (GPa) = 107.29716 141.19204 36.94682
#
# Poissons Ratio (x) = 0.07120 0.11533
# Poissons Ratio (y) = 0.05410 0.16717
# Poissons Ratio (z) = 0.33493 0.63882
#
# Static dielectric constant tensor:
#      x y z
#    x 1.976980 0.000000 0.000000 
#    y 0.000000 2.001190 0.000000 
#    z 0.000000 0.000000 2.176370 
# 
# From -- ./inp_files/840.got.cif
#   From: 2010.05.17/outbox.cif.g08.bks.cpg/sg19_1_cif.got.tgz:840.got - 2010.06.03 22:46:19.
