data_PCOD9315679
_publ_section_title
;
Structure prediction by ZEFSAII (Michael W. Deem and Ramdas Pophale) SiO2 
 PCOD9315679
Probable space group: P 21 21 21
;
_chemical_formula_sum "Si O2"
_cell_formula_units_Z 28
_cell_length_a 10.233466
_cell_length_b 11.180809
_cell_length_c 10.286971
_cell_angle_alpha 90.000000
_cell_angle_beta 90.000000
_cell_angle_gamma 90.000000
_cell_volume 1177.019058
_symmetry_space_group_name_H-M "P 21 21 21"
_symmetry_group_IT_number 19
_symmetry_cell_setting 'orthorhombic'
loop_
_space_group_symop_operation_xyz
x,y,z
1/2-x,-y,1/2+z
1/2+x,1/2-y,-z
-x,1/2+y,1/2-z
loop_
_atom_site_type_symbol
_atom_site_label
_atom_site_fract_x
_atom_site_fract_y
_atom_site_fract_z
Si Si1 0.549285 0.162752 0.488635
Si Si2 0.223214 0.827808 0.100465
Si Si3 0.420221 0.446597 0.221251
Si Si4 0.465678 0.591594 0.458570
Si Si5 0.178219 0.195142 0.850445
Si Si6 0.366001 0.656903 0.717727
Si Si7 0.253282 0.896077 0.613479
O O1 0.396481 0.192668 0.504893
O O2 0.644771 0.273496 0.458537
O O3 0.563765 0.061146 0.376789
O O4 0.589819 0.126948 0.636007
O O5 0.217732 0.767303 0.241941
O O6 0.231415 0.965469 0.147431
O O7 0.425692 0.478348 0.374291
O O8 0.541564 0.357752 0.200895
O O9 0.278347 0.394575 0.193387
O O10 0.353846 0.686421 0.428417
O O11 0.464614 0.595041 0.614044
O O12 0.599533 0.633394 0.388818
O O13 0.219207 0.102695 0.959473
O O14 0.343315 0.800165 0.688735
#
# Coordination Sequence:
#
# PCOD9315679 Si02
#       7
#     4   4   4   4   4   4   4
#     4  12  29  48  73 112 151 190 249 308 373 432
#     4  12  27  46  72 108 145 192 244 304 362 440
#     4  12  23  45  77 104 144 191 246 298 369 441
#     4  11  23  45  69 103 138 196 238 293 365 440
#     4  11  23  43  70 100 141 187 249 294 359 442
#     4  11  27  46  72 107 152 184 239 309 370 435
#     4  11  24  43  75  98 141 194 241 290 368 438
#
# _framework density 23.788907999999999
#
# number of rings (size 3 to 8) (size 9 to 14) (size 15 to 20)
#    0.000    0.571    5.714    1.714    6.000    1.143 
#    2.571    0.000    0.000    0.000    0.000    0.000 
#    0.000    0.000    0.000    0.000    0.000    0.000 
#
# Total GULP energy -156293.113415 kJ/mol
# GULP energy per Si atom -5581.896908 kJ/mol
# Density = 2.373476 g / cm^3
# Si number density = 23.788908 Si / 1000 Ang^3
#
#
#
# Elastic Constant Matrix: (Units=GPa)
#
#
# Indices 1 2 3 4 5 6 
#
# 1 83.7463 32.4643 8.5716 0.0000 0.0000 0.0000
# 2 32.4643 55.9775 26.7694 0.0000 0.0000 0.0000
# 3 8.5716 26.7694 108.6434 0.0000 0.0000 0.0000
# 4 0.0000 0.0000 0.0000 27.8455 0.0000 0.0000
# 5 0.0000 0.0000 0.0000 0.0000 37.4900 0.0000
# 6 0.0000 0.0000 0.0000 0.0000 0.0000 26.8071
#
#
#
# Elastic Compliance Matrix: (Units=1/GPa)
#
#
# Indices 1 2 3 4 5 6 
#
# 1 0.015525 -0.009542 0.001126 0.000000 0.000000 0.000000
# 2 -0.009542 0.026116 -0.005682 0.000000 0.000000 0.000000
# 3 0.001126 -0.005682 0.010516 0.000000 0.000000 0.000000
# 4 0.000000 0.000000 0.000000 0.035912 0.000000 0.000000
# 5 0.000000 0.000000 0.000000 0.000000 0.026674 0.000000
# 6 0.000000 0.000000 0.000000 0.000000 0.000000 0.037304
#
#
# Mechanical properties :
#
#
# Convention : Reuss Voigt Hill
#
# Bulk Modulus (GPa) = 41.73599 42.66419 42.20009
# Shear Modulus (GPa) = 26.56359 30.46599 28.51479
#
# Velocity S-wave (km/s) = 3.34524 3.58254 3.46592
# Velocity P-wave (km/s) = 5.70116 5.92336 5.81332
#
# Compressibility (1/GPa) = 0.02396014
#
# Stress axis : x y z
#
# Youngs Moduli (GPa) = 64.41410 38.29142 95.09700
#
# Poissons Ratio (x) = 0.36538 -0.10711
# Poissons Ratio (y) = 0.61465 0.54034
# Poissons Ratio (z) = -0.07255 0.21757
#
# Static dielectric constant tensor:
#      x y z
#    x 1.952660 0.000000 0.000000 
#    y 0.000000 1.936600 0.000000 
#    z 0.000000 0.000000 2.032400 
# 
# From -- ./inp_files/4582.got.cif
#   From: 2010.05.17/outbox.cif.g08.bks.cpg/sg19_3_cif.got.tgz:4582.got - 2010.06.03 22:46:19.
