data_PCOD9315574
_publ_section_title
;
Structure prediction by ZEFSAII (Michael W. Deem and Ramdas Pophale) SiO2 
 PCOD9315574
Probable space group: P 21 21 21
;
_chemical_formula_sum "Si O2"
_cell_formula_units_Z 32
_cell_length_a 19.000122
_cell_length_b 14.170398
_cell_length_c 5.235918
_cell_angle_alpha 90.000000
_cell_angle_beta 90.000000
_cell_angle_gamma 90.000000
_cell_volume 1409.714849
_symmetry_space_group_name_H-M "P 21 21 21"
_symmetry_group_IT_number 19
_symmetry_cell_setting 'orthorhombic'
loop_
_space_group_symop_operation_xyz
x,y,z
1/2-x,-y,1/2+z
1/2+x,1/2-y,-z
-x,1/2+y,1/2-z
loop_
_atom_site_type_symbol
_atom_site_label
_atom_site_fract_x
_atom_site_fract_y
_atom_site_fract_z
Si Si1 0.384037 0.272092 0.088214
Si Si2 0.405261 0.420767 0.728370
Si Si3 0.291148 0.529490 0.471731
Si Si4 0.483737 0.110448 0.105597
Si Si5 0.012284 0.115048 0.634101
Si Si6 0.271246 0.746469 0.597841
Si Si7 0.340820 0.784155 0.088406
Si Si8 0.068271 0.380869 0.412059
O O1 0.414356 0.168687 0.037515
O O2 0.449342 0.332281 0.209065
O O3 0.307564 0.262548 0.211725
O O4 0.363671 0.333984 0.841461
O O5 0.363326 0.470460 0.497400
O O6 0.480451 0.378530 0.651637
O O7 0.414220 0.508493 0.917110
O O8 0.256834 0.514398 0.197642
O O9 0.298539 0.638751 0.551211
O O10 0.508325 0.144176 0.384177
O O11 0.478005 0.998209 0.145982
O O12 0.538581 0.134202 0.875269
O O13 0.087715 0.162241 0.665091
O O14 0.285113 0.789750 0.317106
O O15 0.312267 0.808696 0.807649
O O16 0.366902 0.677746 0.023080
#
# Coordination Sequence:
#
# PCOD9315574 Si02
#       8
#     4   4   4   4   4   4   4   4
#     4  12  25  44  71 102 142 177 238 284 351 418
#     4  11  24  37  70 100 138 176 230 279 347 411
#     4  12  24  40  62  98 147 180 218 273 353 424
#     4  11  25  43  69 105 129 180 233 295 333 403
#     4  11  26  44  74  98 136 183 245 290 345 409
#     4  12  28  42  68 103 145 187 226 284 361 422
#     4  12  26  46  67 100 143 188 228 286 351 424
#     4  11  22  40  67 100 136 171 224 279 341 403
#
# _framework density 22.699625999999999
#
# number of rings (size 3 to 8) (size 9 to 14) (size 15 to 20)
#    0.000    0.500    5.000    3.000    5.250    0.000 
#    0.000    1.250    0.000    0.000    0.000    0.000 
#    0.000    0.000    0.000    0.000    0.000    0.000 
#
# Total GULP energy -178494.866315 kJ/mol
# GULP energy per Si atom -5577.964572 kJ/mol
# Density = 2.264796 g / cm^3
# Si number density = 22.699626 Si / 1000 Ang^3
#
#
#
# Elastic Constant Matrix: (Units=GPa)
#
#
# Indices 1 2 3 4 5 6 
#
# 1 89.3749 31.5116 24.6878 0.0000 0.0000 0.0000
# 2 31.5116 61.9016 23.4994 0.0000 0.0000 0.0000
# 3 24.6878 23.4994 93.5902 0.0000 0.0000 0.0000
# 4 0.0000 0.0000 0.0000 14.0233 0.0000 0.0000
# 5 0.0000 0.0000 0.0000 0.0000 35.6490 0.0000
# 6 0.0000 0.0000 0.0000 0.0000 0.0000 31.8980
#
#
#
# Elastic Compliance Matrix: (Units=1/GPa)
#
#
# Indices 1 2 3 4 5 6 
#
# 1 0.014001 -0.006329 -0.002104 0.000000 0.000000 0.000000
# 2 -0.006329 0.020717 -0.003532 0.000000 0.000000 0.000000
# 3 -0.002104 -0.003532 0.012127 0.000000 0.000000 0.000000
# 4 0.000000 0.000000 0.000000 0.071310 0.000000 0.000000
# 5 0.000000 0.000000 0.000000 0.000000 0.028051 0.000000
# 6 0.000000 0.000000 0.000000 0.000000 0.000000 0.031350
#
#
# Mechanical properties :
#
#
# Convention : Reuss Voigt Hill
#
# Bulk Modulus (GPa) = 43.63999 44.91824 44.27911
# Shear Modulus (GPa) = 23.90900 27.32525 25.61712
#
# Velocity S-wave (km/s) = 3.24894 3.47331 3.36300
# Velocity P-wave (km/s) = 5.77416 5.99302 5.88460
#
# Compressibility (1/GPa) = 0.02291476
#
# Stress axis : x y z
#
# Youngs Moduli (GPa) = 71.42113 48.26865 82.46108
#
# Poissons Ratio (x) = 0.30548 0.17352
# Poissons Ratio (y) = 0.45200 0.29129
# Poissons Ratio (z) = 0.15029 0.17051
#
# Static dielectric constant tensor:
#      x y z
#    x 1.931490 0.000000 0.000000 
#    y 0.000000 1.835840 0.000000 
#    z 0.000000 0.000000 1.947400 
# 
# From -- ./inp_files/1775.got.cif
#   From: 2010.05.17/outbox.cif.g08.bks.cpg/sg19_1_cif.got.tgz:1775.got - 2010.06.03 22:46:19.
