data_PCOD9315752
_publ_section_title
;
Structure prediction by ZEFSAII (Michael W. Deem and Ramdas Pophale) SiO2 
 PCOD9315752
Probable space group: P 21 21 21
;
_chemical_formula_sum "Si O2"
_cell_formula_units_Z 16
_cell_length_a 7.965265
_cell_length_b 7.792249
_cell_length_c 9.617681
_cell_angle_alpha 90.000000
_cell_angle_beta 90.000000
_cell_angle_gamma 90.000000
_cell_volume 596.943763
_symmetry_space_group_name_H-M "P 21 21 21"
_symmetry_group_IT_number 19
_symmetry_cell_setting 'orthorhombic'
loop_
_space_group_symop_operation_xyz
x,y,z
1/2-x,-y,1/2+z
1/2+x,1/2-y,-z
-x,1/2+y,1/2-z
loop_
_atom_site_type_symbol
_atom_site_label
_atom_site_fract_x
_atom_site_fract_y
_atom_site_fract_z
Si Si1 0.000661 0.227871 0.586873
Si Si2 0.664241 0.086176 0.662581
Si Si3 0.500660 0.227871 0.913127
Si Si4 0.664240 0.413824 0.162581
O O1 0.851042 0.091379 0.600978
O O2 0.919769 0.400697 0.652524
O O3 0.058573 0.287434 0.436567
O O4 0.152083 0.158863 0.681782
O O5 0.652082 0.158862 0.818219
O O6 0.580231 0.900697 0.652525
O O7 0.351041 0.091379 0.899022
O O8 0.558572 0.287435 0.063433
#
# Coordination Sequence:
#
# PCOD9315752 Si02
#       4
#     4   4   4   4
#     4  11  24  41  63  91 123 160 202 249 301 358
#     4  11  24  41  63  91 123 160 202 249 301 358
#     4  11  24  41  63  91 123 160 202 249 301 358
#     4  11  24  41  63  91 123 160 202 249 301 358
#
# _framework density 26.803194000000001
#
# number of rings (size 3 to 8) (size 9 to 14) (size 15 to 20)
#    0.000    1.000    0.000    6.000    0.000   16.000 
#    0.000    0.000    0.000    0.000    0.000    0.000 
#    0.000    0.000    0.000    0.000    0.000    0.000 
#
# Total GULP energy -89865.527134 kJ/mol
# GULP energy per Si atom -5616.595446 kJ/mol
# Density = 2.674219 g / cm^3
# Si number density = 26.803194 Si / 1000 Ang^3
#
#
#
# Elastic Constant Matrix: (Units=GPa)
#
#
# Indices 1 2 3 4 5 6 
#
# 1 93.1945 -19.5297 -2.7204 0.0000 0.0000 0.0000
# 2 -19.5297 119.0564 12.7263 0.0000 0.0000 0.0000
# 3 -2.7204 12.7263 87.5883 0.0000 0.0000 0.0000
# 4 0.0000 0.0000 0.0000 37.8074 0.0000 0.0000
# 5 0.0000 0.0000 0.0000 0.0000 46.4913 0.0000
# 6 0.0000 0.0000 0.0000 0.0000 0.0000 31.6903
#
#
#
# Elastic Compliance Matrix: (Units=1/GPa)
#
#
# Indices 1 2 3 4 5 6 
#
# 1 0.011113 0.001814 0.000082 0.000000 0.000000 0.000000
# 2 0.001814 0.008828 -0.001226 0.000000 0.000000 0.000000
# 3 0.000082 -0.001226 0.011598 0.000000 0.000000 0.000000
# 4 0.000000 0.000000 0.000000 0.026450 0.000000 0.000000
# 5 0.000000 0.000000 0.000000 0.000000 0.021509 0.000000
# 6 0.000000 0.000000 0.000000 0.000000 0.000000 0.031555
#
#
# Mechanical properties :
#
#
# Convention : Reuss Voigt Hill
#
# Bulk Modulus (GPa) = 30.41598 31.19907 30.80752
# Shear Modulus (GPa) = 41.43410 43.82202 42.62806
#
# Velocity S-wave (km/s) = 3.93601 4.04784 3.99232
# Velocity P-wave (km/s) = 5.65940 5.78896 5.72455
#
# Compressibility (1/GPa) = 0.03287746
#
# Stress axis : x y z
#
# Youngs Moduli (GPa) = 89.98630 113.27510 86.22355
#
# Poissons Ratio (x) = -0.20550 -0.00703
# Poissons Ratio (y) = -0.16325 0.10574
# Poissons Ratio (z) = -0.00734 0.13891
#
# Static dielectric constant tensor:
#      x y z
#    x 2.087870 0.000000 0.000000 
#    y 0.000000 2.062980 0.000000 
#    z 0.000000 0.000000 1.968310 
# 
# From -- ./inp_files/2530.got.cif
#   From: 2010.05.17/outbox.cif.g08.bks.cpg/sg19_2_cif.got.tgz:2530.got - 2010.06.03 22:46:19.
