data_PCOD9315200
_publ_section_title
;
Structure prediction by ZEFSAII (Michael W. Deem and Ramdas Pophale) SiO2 
 PCOD9315200
Probable space group: P 21 21 21
;
_chemical_formula_sum "Si O2"
_cell_formula_units_Z 28
_cell_length_a 23.009505
_cell_length_b 8.726923
_cell_length_c 5.163226
_cell_angle_alpha 90.000000
_cell_angle_beta 90.000000
_cell_angle_gamma 90.000000
_cell_volume 1036.787028
_symmetry_space_group_name_H-M "P 21 21 21"
_symmetry_group_IT_number 19
_symmetry_cell_setting 'orthorhombic'
loop_
_space_group_symop_operation_xyz
x,y,z
1/2-x,-y,1/2+z
1/2+x,1/2-y,-z
-x,1/2+y,1/2-z
loop_
_atom_site_type_symbol
_atom_site_label
_atom_site_fract_x
_atom_site_fract_y
_atom_site_fract_z
Si Si1 0.595476 0.316245 0.891861
Si Si2 0.208599 0.988332 0.264448
Si Si3 0.883180 0.000533 0.495198
Si Si4 0.329061 0.247680 0.123234
Si Si5 0.997259 0.156709 0.449349
Si Si6 0.060669 0.918057 0.763727
Si Si7 0.770426 0.927701 0.190722
O O1 0.655027 0.392290 0.782885
O O2 0.604717 0.174096 0.087311
O O3 0.547377 0.251010 0.695714
O O4 0.560205 0.457114 0.012899
O O5 0.179874 0.818211 0.329722
O O6 0.247443 0.019353 0.521946
O O7 0.835484 0.958457 0.277568
O O8 0.860287 0.106292 0.732298
O O9 0.934803 0.094412 0.354102
O O10 0.371486 0.115863 0.225611
O O11 0.263245 0.277754 0.215699
O O12 0.974949 0.267029 0.676773
O O13 0.031127 0.004454 0.530391
O O14 0.739187 0.049256 0.387896
#
# Coordination Sequence:
#
# PCOD9315200 Si02
#       7
#     4   4   4   4   4   4   4
#     4  12  25  47  76 117 160 214 283 354 430 516
#     4  12  27  48  85 123 166 222 282 351 434 515
#     4  10  24  47  72 115 156 214 278 346 420 511
#     4  10  23  48  75 110 156 212 264 348 415 499
#     4  11  24  47  73 114 154 222 280 360 431 525
#     4  11  24  47  75 107 164 208 288 349 439 513
#     4  10  23  46  70 108 152 202 263 328 413 491
#
# _framework density 27.006509999999999
#
# number of rings (size 3 to 8) (size 9 to 14) (size 15 to 20)
#    0.000    1.143    1.429    3.429    0.000    6.857 
#   25.714    1.429    0.000    0.000    0.000    0.000 
#    0.000    0.000    0.000    0.000    0.000    0.000 
#
# Total GULP energy -156172.414602 kJ/mol
# GULP energy per Si atom -5577.586236 kJ/mol
# Density = 2.694504 g / cm^3
# Si number density = 27.006510 Si / 1000 Ang^3
#
#
#
# Elastic Constant Matrix: (Units=GPa)
#
#
# Indices 1 2 3 4 5 6 
#
# 1 167.1677 39.1822 41.1412 0.0000 0.0000 0.0000
# 2 39.1822 132.8557 36.2909 0.0000 0.0000 0.0000
# 3 41.1412 36.2909 75.1115 0.0000 0.0000 0.0000
# 4 0.0000 0.0000 0.0000 52.6026 0.0000 0.0000
# 5 0.0000 0.0000 0.0000 0.0000 43.7449 0.0000
# 6 0.0000 0.0000 0.0000 0.0000 0.0000 46.6590
#
#
#
# Elastic Compliance Matrix: (Units=1/GPa)
#
#
# Indices 1 2 3 4 5 6 
#
# 1 0.007072 -0.001184 -0.003302 0.000000 0.000000 0.000000
# 2 -0.001184 0.008870 -0.003637 0.000000 0.000000 0.000000
# 3 -0.003302 -0.003637 0.016879 0.000000 0.000000 0.000000
# 4 0.000000 0.000000 0.000000 0.019010 0.000000 0.000000
# 5 0.000000 0.000000 0.000000 0.000000 0.022860 0.000000
# 6 0.000000 0.000000 0.000000 0.000000 0.000000 0.021432
#
#
# Mechanical properties :
#
#
# Convention : Reuss Voigt Hill
#
# Bulk Modulus (GPa) = 60.32848 67.59594 63.96221
# Shear Modulus (GPa) = 42.41117 45.83600 44.12359
#
# Velocity S-wave (km/s) = 3.96713 4.12420 4.04643
# Velocity P-wave (km/s) = 6.58568 6.91105 6.75032
#
# Compressibility (1/GPa) = 0.01657592
#
# Stress axis : x y z
#
# Youngs Moduli (GPa) = 141.40173 112.74482 59.24444
#
# Poissons Ratio (x) = 0.13347 0.19560
# Poissons Ratio (y) = 0.16740 0.21547
# Poissons Ratio (z) = 0.46686 0.41005
#
# Static dielectric constant tensor:
#      x y z
#    x 2.146930 0.000000 0.000000 
#    y 0.000000 2.275700 0.000000 
#    z 0.000000 0.000000 2.112140 
# 
# From -- ./inp_files/2138.got.cif
#   From: 2010.05.17/outbox.cif.g08.bks.cpg/sg19_2_cif.got.tgz:2138.got - 2010.06.03 22:46:19.
