data_PCOD9315106
_publ_section_title
;
Structure prediction by ZEFSAII (Michael W. Deem and Ramdas Pophale) SiO2 
 PCOD9315106
Probable space group: P 21 21 21
;
_chemical_formula_sum "Si O2"
_cell_formula_units_Z 32
_cell_length_a 16.900359
_cell_length_b 4.918685
_cell_length_c 14.893146
_cell_angle_alpha 90.000000
_cell_angle_beta 90.000000
_cell_angle_gamma 90.000000
_cell_volume 1238.030624
_symmetry_space_group_name_H-M "P 21 21 21"
_symmetry_group_IT_number 19
_symmetry_cell_setting 'orthorhombic'
loop_
_space_group_symop_operation_xyz
x,y,z
1/2-x,-y,1/2+z
1/2+x,1/2-y,-z
-x,1/2+y,1/2-z
loop_
_atom_site_type_symbol
_atom_site_label
_atom_site_fract_x
_atom_site_fract_y
_atom_site_fract_z
Si Si1 0.948582 0.604534 0.848186
Si Si2 0.113791 0.681195 0.292833
Si Si3 0.871087 0.211918 0.516851
Si Si4 0.679297 0.484915 0.851302
Si Si5 0.552974 0.391860 0.148618
Si Si6 0.681293 0.672987 0.464609
Si Si7 0.034238 0.417976 0.123641
Si Si8 0.289680 0.663766 0.920341
O O1 0.913692 0.557787 0.748294
O O2 0.891941 0.478849 0.920984
O O3 0.974253 0.917069 0.856509
O O4 0.028511 0.421926 0.852570
O O5 0.176312 0.882063 0.245999
O O6 0.055291 0.601955 0.210323
O O7 0.161069 0.426880 0.333266
O O8 0.054677 0.813783 0.365057
O O9 0.822991 0.277096 0.425504
O O10 0.896483 0.485956 0.568005
O O11 0.945977 0.065743 0.469919
O O12 0.803491 0.079004 0.579418
O O13 0.753192 0.313966 0.885399
O O14 0.597977 0.322491 0.866803
O O15 0.671132 0.971382 0.503765
O O16 0.706997 0.475357 0.547517
#
# Coordination Sequence:
#
# PCOD9315106 Si02
#       8
#     4   4   4   4   4   4   4   4
#     4  10  23  44  65 101 133 174 233 282 350 413
#     4  11  25  42  69 103 138 190 240 296 358 436
#     4  10  24  44  67 100 137 186 232 296 355 425
#     4  10  23  44  67  96 140 181 231 289 356 417
#     4  10  23  43  69  98 131 176 234 285 342 424
#     4  11  24  46  67  98 143 183 224 295 352 417
#     4  11  22  43  67  97 142 180 241 295 357 420
#     4  11  26  44  69 103 140 180 243 282 352 434
#
# _framework density 25.847501999999999
#
# number of rings (size 3 to 8) (size 9 to 14) (size 15 to 20)
#    0.000    1.500    2.500    0.750    5.250    2.000 
#    9.000    0.000    0.000    0.000    0.000    0.000 
#    0.000    0.000    0.000    0.000    0.000    0.000 
#
# Total GULP energy -178988.203834 kJ/mol
# GULP energy per Si atom -5593.381370 kJ/mol
# Density = 2.578867 g / cm^3
# Si number density = 25.847502 Si / 1000 Ang^3
#
#
#
# Elastic Constant Matrix: (Units=GPa)
#
#
# Indices 1 2 3 4 5 6 
#
# 1 74.4872 -6.1550 28.8603 0.0000 0.0000 0.0000
# 2 -6.1550 80.3384 7.3184 0.0000 0.0000 0.0000
# 3 28.8603 7.3184 94.2488 0.0000 0.0000 0.0000
# 4 0.0000 0.0000 0.0000 39.0546 0.0000 0.0000
# 5 0.0000 0.0000 0.0000 0.0000 41.4252 0.0000
# 6 0.0000 0.0000 0.0000 0.0000 0.0000 30.6135
#
#
#
# Elastic Compliance Matrix: (Units=1/GPa)
#
#
# Indices 1 2 3 4 5 6 
#
# 1 0.015440 0.001625 -0.004854 0.000000 0.000000 0.000000
# 2 0.001625 0.012707 -0.001484 0.000000 0.000000 0.000000
# 3 -0.004854 -0.001484 0.012212 0.000000 0.000000 0.000000
# 4 0.000000 0.000000 0.000000 0.025605 0.000000 0.000000
# 5 0.000000 0.000000 0.000000 0.000000 0.024140 0.000000
# 6 0.000000 0.000000 0.000000 0.000000 0.000000 0.032665
#
#
# Mechanical properties :
#
#
# Convention : Reuss Voigt Hill
#
# Bulk Modulus (GPa) = 32.32866 34.34689 33.33778
# Shear Modulus (GPa) = 35.08594 36.82202 35.95398
#
# Velocity S-wave (km/s) = 3.68832 3.77847 3.73366
# Velocity P-wave (km/s) = 5.53831 5.68796 5.61363
#
# Compressibility (1/GPa) = 0.03093230
#
# Stress axis : x y z
#
# Youngs Moduli (GPa) = 64.76610 78.69638 81.88732
#
# Poissons Ratio (x) = -0.12789 0.39750
# Poissons Ratio (y) = -0.10525 0.12155
# Poissons Ratio (z) = 0.31439 0.11681
#
# Static dielectric constant tensor:
#      x y z
#    x 2.051900 0.000000 0.000000 
#    y 0.000000 2.044650 0.000000 
#    z 0.000000 0.000000 2.075540 
# 
# From -- ./inp_files/1804.got.cif
#   From: 2010.05.17/outbox.cif.g08.bks.cpg/sg19_1_cif.got.tgz:1804.got - 2010.06.03 22:46:19.
