data_PCOD9315838
_publ_section_title
;
Structure prediction by ZEFSAII (Michael W. Deem and Ramdas Pophale) SiO2 
 PCOD9315838
Probable space group: P 21 21 21
;
_chemical_formula_sum "Si O2"
_cell_formula_units_Z 32
_cell_length_a 12.804653
_cell_length_b 5.154576
_cell_length_c 17.780032
_cell_angle_alpha 90.000000
_cell_angle_beta 90.000000
_cell_angle_gamma 90.000000
_cell_volume 1173.527576
_symmetry_space_group_name_H-M "P 21 21 21"
_symmetry_group_IT_number 19
_symmetry_cell_setting 'orthorhombic'
loop_
_space_group_symop_operation_xyz
x,y,z
1/2-x,-y,1/2+z
1/2+x,1/2-y,-z
-x,1/2+y,1/2-z
loop_
_atom_site_type_symbol
_atom_site_label
_atom_site_fract_x
_atom_site_fract_y
_atom_site_fract_z
Si Si1 0.048206 0.064858 0.583742
Si Si2 0.563043 0.143396 0.668716
Si Si3 0.436771 0.285029 0.964121
Si Si4 0.625408 0.562152 0.051529
Si Si5 0.749382 0.481306 0.191198
Si Si6 0.268446 0.589006 0.055647
Si Si7 0.857277 0.093376 0.308685
Si Si8 0.061436 0.752933 0.725351
O O1 0.054371 0.006378 0.494290
O O2 0.057561 0.815651 0.636534
O O3 0.147564 0.238731 0.600305
O O4 0.942441 0.220127 0.595200
O O5 0.575843 0.884347 0.619718
O O6 0.655299 0.350405 0.656782
O O7 0.445829 0.230138 0.654128
O O8 0.576638 0.098405 0.757282
O O9 0.541780 0.406011 0.001557
O O10 0.333482 0.393178 0.005204
O O11 0.683403 0.399359 0.116989
O O12 0.702677 0.719185 0.997253
O O13 0.788207 0.260962 0.249483
O O14 0.673196 0.670339 0.239814
O O15 0.201137 0.462768 0.121860
O O16 0.020973 0.467032 0.743063
#
# Coordination Sequence:
#
# PCOD9315838 Si02
#       8
#     4   4   4   4   4   4   4   4
#     4  11  26  43  70 108 141 199 251 325 390 473
#     4  12  27  46  72 108 144 204 250 318 384 474
#     4  11  26  46  72 105 147 187 257 311 391 465
#     4  11  24  47  72 101 148 187 248 317 388 462
#     4  12  26  46  72 109 149 197 252 320 392 462
#     4  11  25  46  69 104 144 195 241 325 386 461
#     4  12  27  46  73 103 147 193 258 314 390 470
#     4  12  27  48  78 116 160 202 263 328 403 479
#
# _framework density 27.268215999999999
#
# number of rings (size 3 to 8) (size 9 to 14) (size 15 to 20)
#    0.000    0.500    6.250    0.750    7.000    3.000 
#    0.000    0.000    0.000    0.000    0.000    0.000 
#    0.000    0.000    0.000    0.000    0.000    0.000 
#
# Total GULP energy -179502.193899 kJ/mol
# GULP energy per Si atom -5609.443559 kJ/mol
# Density = 2.720615 g / cm^3
# Si number density = 27.268216 Si / 1000 Ang^3
#
#
#
# Elastic Constant Matrix: (Units=GPa)
#
#
# Indices 1 2 3 4 5 6 
#
# 1 121.6252 19.3070 56.3864 0.0000 0.0000 0.0000
# 2 19.3070 39.5128 9.7179 0.0000 0.0000 0.0000
# 3 56.3864 9.7179 137.4722 0.0000 0.0000 0.0000
# 4 0.0000 0.0000 0.0000 50.2550 0.0000 0.0000
# 5 0.0000 0.0000 0.0000 0.0000 51.0658 0.0000
# 6 0.0000 0.0000 0.0000 0.0000 0.0000 32.7667
#
#
#
# Elastic Compliance Matrix: (Units=1/GPa)
#
#
# Indices 1 2 3 4 5 6 
#
# 1 0.010816 -0.004268 -0.004135 0.000000 0.000000 0.000000
# 2 -0.004268 0.027440 -0.000189 0.000000 0.000000 0.000000
# 3 -0.004135 -0.000189 0.008984 0.000000 0.000000 0.000000
# 4 0.000000 0.000000 0.000000 0.019899 0.000000 0.000000
# 5 0.000000 0.000000 0.000000 0.000000 0.019583 0.000000
# 6 0.000000 0.000000 0.000000 0.000000 0.000000 0.030519
#
#
# Mechanical properties :
#
#
# Convention : Reuss Voigt Hill
#
# Bulk Modulus (GPa) = 33.27118 52.15920 42.71519
# Shear Modulus (GPa) = 34.61568 41.03077 37.82322
#
# Velocity S-wave (km/s) = 3.56680 3.88327 3.72839
# Velocity P-wave (km/s) = 5.40284 6.26706 5.85093
#
# Compressibility (1/GPa) = 0.03005604
#
# Stress axis : x y z
#
# Youngs Moduli (GPa) = 92.45153 36.44267 111.31489
#
# Poissons Ratio (x) = 0.15555 0.46027
# Poissons Ratio (y) = 0.39461 0.02104
# Poissons Ratio (z) = 0.38227 0.00689
#
# Static dielectric constant tensor:
#      x y z
#    x 2.097880 0.000000 0.000000 
#    y 0.000000 2.156870 0.000000 
#    z 0.000000 0.000000 2.119550 
# 
# From -- ./inp_files/7194.got.cif
#   From: 2010.05.17/outbox.cif.g08.bks.cpg/sg19_4_cif.got.tgz:7194.got - 2010.06.03 22:46:19.
