data_PCOD9315814
_publ_section_title
;
Structure prediction by ZEFSAII (Michael W. Deem and Ramdas Pophale) SiO2 
 PCOD9315814
Probable space group: P 21 21 21
;
_chemical_formula_sum "Si O2"
_cell_formula_units_Z 20
_cell_length_a 4.801140
_cell_length_b 14.997789
_cell_length_c 10.023000
_cell_angle_alpha 90.000000
_cell_angle_beta 90.000000
_cell_angle_gamma 90.000000
_cell_volume 721.720996
_symmetry_space_group_name_H-M "P 21 21 21"
_symmetry_group_IT_number 19
_symmetry_cell_setting 'orthorhombic'
loop_
_space_group_symop_operation_xyz
x,y,z
1/2-x,-y,1/2+z
1/2+x,1/2-y,-z
-x,1/2+y,1/2-z
loop_
_atom_site_type_symbol
_atom_site_label
_atom_site_fract_x
_atom_site_fract_y
_atom_site_fract_z
Si Si1 0.116682 0.281778 0.424888
Si Si2 0.561419 0.686504 0.484292
Si Si3 0.430713 0.519111 0.919201
Si Si4 0.512720 0.859438 0.733311
Si Si5 0.713199 0.521906 0.658063
O O1 0.895518 0.273092 0.544660
O O2 0.199079 0.384120 0.404912
O O3 0.949408 0.234818 0.304368
O O4 0.735291 0.656955 0.354890
O O5 0.265368 0.733401 0.461952
O O6 0.567318 0.606546 0.590069
O O7 0.301263 0.429518 0.853839
O O8 0.700258 0.532248 0.818284
O O9 0.515166 0.493129 0.068667
O O10 0.445582 0.927805 0.854931
#
# Coordination Sequence:
#
# PCOD9315814 Si02
#       5
#     4   4   4   4   4
#     4  12  24  44  70 101 137 182 230 282 341 407
#     4  11  24  46  70 101 136 181 229 280 342 409
#     4   9  19  42  68 100 134 180 223 281 335 404
#     4   9  22  44  69 103 137 180 230 280 342 405
#     4   9  19  44  67  99 140 177 224 285 338 403
#
# _framework density 27.711541
#
# number of rings (size 3 to 8) (size 9 to 14) (size 15 to 20)
#    1.200    0.800    2.000    1.200    0.000    3.200 
#    7.200    4.000    0.000    0.000    0.000    0.000 
#    0.000    0.000    0.000    0.000    0.000    0.000 
#
# Total GULP energy -111594.558929 kJ/mol
# GULP energy per Si atom -5579.727946 kJ/mol
# Density = 2.764847 g / cm^3
# Si number density = 27.711541 Si / 1000 Ang^3
#
#
#
# Elastic Constant Matrix: (Units=GPa)
#
#
# Indices 1 2 3 4 5 6 
#
# 1 94.8787 -2.3650 24.9421 0.0000 0.0000 0.0000
# 2 -2.3650 158.7637 36.7092 0.0000 0.0000 0.0000
# 3 24.9421 36.7092 89.5364 0.0000 0.0000 0.0000
# 4 0.0000 0.0000 0.0000 50.7488 0.0000 0.0000
# 5 0.0000 0.0000 0.0000 0.0000 27.8402 0.0000
# 6 0.0000 0.0000 0.0000 0.0000 0.0000 19.7707
#
#
#
# Elastic Compliance Matrix: (Units=1/GPa)
#
#
# Indices 1 2 3 4 5 6 
#
# 1 0.011517 0.001009 -0.003622 0.000000 0.000000 0.000000
# 2 0.001009 0.007047 -0.003170 0.000000 0.000000 0.000000
# 3 -0.003622 -0.003170 0.013477 0.000000 0.000000 0.000000
# 4 0.000000 0.000000 0.000000 0.019705 0.000000 0.000000
# 5 0.000000 0.000000 0.000000 0.000000 0.035919 0.000000
# 6 0.000000 0.000000 0.000000 0.000000 0.000000 0.050580
#
#
# Mechanical properties :
#
#
# Convention : Reuss Voigt Hill
#
# Bulk Modulus (GPa) = 48.84036 51.30572 50.07304
# Shear Modulus (GPa) = 31.92104 38.59811 35.25958
#
# Velocity S-wave (km/s) = 3.39765 3.73614 3.57091
# Velocity P-wave (km/s) = 5.74934 6.09640 5.92541
#
# Compressibility (1/GPa) = 0.02047487
#
# Stress axis : x y z
#
# Youngs Moduli (GPa) = 86.82742 141.91021 74.19841
#
# Poissons Ratio (x) = -0.14319 0.26875
# Poissons Ratio (y) = -0.08761 0.23522
# Poissons Ratio (z) = 0.31449 0.44988
#
# Static dielectric constant tensor:
#      x y z
#    x 2.259420 0.000000 0.000000 
#    y 0.000000 2.171910 0.000000 
#    z 0.000000 0.000000 2.253380 
# 
# From -- ./inp_files/4428.got.cif
#   From: 2010.05.17/outbox.cif.g08.bks.cpg/sg19_3_cif.got.tgz:4428.got - 2010.06.03 22:46:19.
