data_PCOD9315250
_publ_section_title
;
Structure prediction by ZEFSAII (Michael W. Deem and Ramdas Pophale) SiO2 
 PCOD9315250
Probable space group: P 21 21 21
;
_chemical_formula_sum "Si O2"
_cell_formula_units_Z 28
_cell_length_a 10.574758
_cell_length_b 7.782511
_cell_length_c 15.050809
_cell_angle_alpha 90.000000
_cell_angle_beta 90.000000
_cell_angle_gamma 90.000000
_cell_volume 1238.654045
_symmetry_space_group_name_H-M "P 21 21 21"
_symmetry_group_IT_number 19
_symmetry_cell_setting 'orthorhombic'
loop_
_space_group_symop_operation_xyz
x,y,z
1/2-x,-y,1/2+z
1/2+x,1/2-y,-z
-x,1/2+y,1/2-z
loop_
_atom_site_type_symbol
_atom_site_label
_atom_site_fract_x
_atom_site_fract_y
_atom_site_fract_z
Si Si1 0.708758 0.654172 0.421517
Si Si2 0.666975 0.539358 0.779373
Si Si3 0.973320 0.680236 0.158093
Si Si4 0.773281 0.013426 0.354249
Si Si5 0.781979 0.819158 0.668805
Si Si6 0.652755 0.087857 0.529869
Si Si7 0.032529 0.194406 0.967412
O O1 0.725788 0.500337 0.352059
O O2 0.582916 0.669504 0.481361
O O3 0.838627 0.681790 0.476004
O O4 0.709165 0.829792 0.364892
O O5 0.609654 0.362228 0.743948
O O6 0.558960 0.651930 0.825374
O O7 0.706481 0.644715 0.691844
O O8 0.886330 0.735740 0.076475
O O9 0.074762 0.526334 0.151907
O O10 0.715899 0.097420 0.266299
O O11 0.744738 0.111030 0.446636
O O12 0.913011 0.755965 0.627298
O O13 0.714790 0.956233 0.602455
O O14 0.533403 0.987826 0.487030
#
# Coordination Sequence:
#
# PCOD9315250 Si02
#       7
#     4   4   4   4   4   4   4
#     4  11  23  43  68  98 134 179 235 276 348 412
#     4  11  23  39  67 102 129 183 229 284 344 413
#     4  11  22  39  67  94 142 172 234 280 337 413
#     4  10  24  41  64 100 134 185 224 284 344 407
#     4  11  24  44  68 100 143 179 230 288 344 408
#     4  11  23  44  66 100 138 179 235 285 340 407
#     4  11  23  42  72  94 136 183 223 281 349 414
#
# _framework density 22.605181999999999
#
# number of rings (size 3 to 8) (size 9 to 14) (size 15 to 20)
#    0.000    1.143    4.286    3.429    2.000    3.429 
#    5.143    2.857    0.000    0.000    0.000    0.000 
#    0.000    0.000    0.000    0.000    0.000    0.000 
#
# Total GULP energy -156131.753957 kJ/mol
# GULP energy per Si atom -5576.134070 kJ/mol
# Density = 2.255373 g / cm^3
# Si number density = 22.605182 Si / 1000 Ang^3
#
#
#
# Elastic Constant Matrix: (Units=GPa)
#
#
# Indices 1 2 3 4 5 6 
#
# 1 83.6036 -8.8803 29.8593 0.0000 0.0000 0.0000
# 2 -8.8803 46.7319 15.3411 0.0000 0.0000 0.0000
# 3 29.8593 15.3411 104.2203 0.0000 0.0000 0.0000
# 4 0.0000 0.0000 0.0000 37.1422 0.0000 0.0000
# 5 0.0000 0.0000 0.0000 0.0000 47.3106 0.0000
# 6 0.0000 0.0000 0.0000 0.0000 0.0000 25.0794
#
#
#
# Elastic Compliance Matrix: (Units=1/GPa)
#
#
# Indices 1 2 3 4 5 6 
#
# 1 0.014067 0.004199 -0.004648 0.000000 0.000000 0.000000
# 2 0.004199 0.023739 -0.004697 0.000000 0.000000 0.000000
# 3 -0.004648 -0.004697 0.011618 0.000000 0.000000 0.000000
# 4 0.000000 0.000000 0.000000 0.026924 0.000000 0.000000
# 5 0.000000 0.000000 0.000000 0.000000 0.021137 0.000000
# 6 0.000000 0.000000 0.000000 0.000000 0.000000 0.039873
#
#
# Mechanical properties :
#
#
# Convention : Reuss Voigt Hill
#
# Bulk Modulus (GPa) = 25.55511 34.13289 29.84400
# Shear Modulus (GPa) = 31.11478 35.12214 33.11846
#
# Velocity S-wave (km/s) = 3.71407 3.94600 3.83179
# Velocity P-wave (km/s) = 5.45179 5.99113 5.72781
#
# Compressibility (1/GPa) = 0.03913111
#
# Stress axis : x y z
#
# Youngs Moduli (GPa) = 71.08603 42.12534 86.07103
#
# Poissons Ratio (x) = -0.17689 0.40010
# Poissons Ratio (y) = -0.29850 0.40431
# Poissons Ratio (z) = 0.33044 0.19788
#
# Static dielectric constant tensor:
#      x y z
#    x 1.895530 0.000000 0.000000 
#    y 0.000000 1.872920 0.000000 
#    z 0.000000 0.000000 1.868410 
# 
# From -- ./inp_files/6083.got.cif
#   From: 2010.05.17/outbox.cif.g08.bks.cpg/sg19_4_cif.got.tgz:6083.got - 2010.06.03 22:46:19.
