data_PCOD9315854
_publ_section_title
;
Structure prediction by ZEFSAII (Michael W. Deem and Ramdas Pophale) SiO2 
 PCOD9315854
Probable space group: P 21 21 21
;
_chemical_formula_sum "Si O2"
_cell_formula_units_Z 28
_cell_length_a 19.019434
_cell_length_b 5.054940
_cell_length_c 12.037831
_cell_angle_alpha 90.000000
_cell_angle_beta 90.000000
_cell_angle_gamma 90.000000
_cell_volume 1157.342324
_symmetry_space_group_name_H-M "P 21 21 21"
_symmetry_group_IT_number 19
_symmetry_cell_setting 'orthorhombic'
loop_
_space_group_symop_operation_xyz
x,y,z
1/2-x,-y,1/2+z
1/2+x,1/2-y,-z
-x,1/2+y,1/2-z
loop_
_atom_site_type_symbol
_atom_site_label
_atom_site_fract_x
_atom_site_fract_y
_atom_site_fract_z
Si Si1 0.629356 0.915850 0.477535
Si Si2 0.454780 0.930763 0.722365
Si Si3 0.164245 0.417016 0.284113
Si Si4 0.351674 0.184816 0.581344
Si Si5 0.824500 0.236145 0.675743
Si Si6 0.699121 0.418462 0.370745
Si Si7 0.959995 0.977993 0.787548
O O1 0.653537 0.628320 0.439137
O O2 0.556028 0.988450 0.418231
O O3 0.633521 0.934768 0.608617
O O4 0.682395 0.133938 0.423209
O O5 0.501451 0.667146 0.722774
O O6 0.382184 0.849413 0.783170
O O7 0.423984 0.032905 0.605761
O O8 0.150787 0.572428 0.169181
O O9 0.247068 0.383995 0.304650
O O10 0.342261 0.249878 0.453151
O O11 0.281100 0.022124 0.611180
O O12 0.819065 0.515341 0.742740
O O13 0.887703 0.073211 0.730821
O O14 0.018128 0.184261 0.745246
#
# Coordination Sequence:
#
# PCOD9315854 Si02
#       7
#     4   4   4   4   4   4   4
#     4  11  26  47  81 109 155 198 260 323 404 463
#     4  12  28  54  74 110 164 212 264 322 405 492
#     4  12  27  50  83 116 158 210 272 338 400 470
#     4  12  26  49  79 116 159 205 269 330 408 477
#     4  11  26  49  83 117 155 205 272 337 395 476
#     4  11  24  48  73 121 145 192 255 331 393 463
#     4  11  25  53  73 111 156 204 254 315 397 473
#
# _framework density 24.193359000000001
#
# number of rings (size 3 to 8) (size 9 to 14) (size 15 to 20)
#    0.000    0.571    4.286    3.429    4.000    1.143 
#   12.857    0.000    0.000    0.000    0.000    0.000 
#    0.000    0.000    0.000    0.000    0.000    0.000 
#
# Total GULP energy -156739.669506 kJ/mol
# GULP energy per Si atom -5597.845340 kJ/mol
# Density = 2.413829 g / cm^3
# Si number density = 24.193359 Si / 1000 Ang^3
#
#
#
# Elastic Constant Matrix: (Units=GPa)
#
#
# Indices 1 2 3 4 5 6 
#
# 1 107.9174 12.3482 39.5070 0.0000 0.0000 0.0000
# 2 12.3482 73.6215 38.9801 0.0000 0.0000 0.0000
# 3 39.5070 38.9801 175.8938 0.0000 0.0000 0.0000
# 4 0.0000 0.0000 0.0000 23.1118 0.0000 0.0000
# 5 0.0000 0.0000 0.0000 0.0000 35.4971 0.0000
# 6 0.0000 0.0000 0.0000 0.0000 0.0000 52.8158
#
#
#
# Elastic Compliance Matrix: (Units=1/GPa)
#
#
# Indices 1 2 3 4 5 6 
#
# 1 0.010117 -0.000559 -0.002148 0.000000 0.000000 0.000000
# 2 -0.000559 0.015420 -0.003292 0.000000 0.000000 0.000000
# 3 -0.002148 -0.003292 0.006897 0.000000 0.000000 0.000000
# 4 0.000000 0.000000 0.000000 0.043268 0.000000 0.000000
# 5 0.000000 0.000000 0.000000 0.000000 0.028171 0.000000
# 6 0.000000 0.000000 0.000000 0.000000 0.000000 0.018934
#
#
# Mechanical properties :
#
#
# Convention : Reuss Voigt Hill
#
# Bulk Modulus (GPa) = 48.93533 59.90037 54.41785
# Shear Modulus (GPa) = 35.30655 40.05810 37.68233
#
# Velocity S-wave (km/s) = 3.82429 4.07350 3.95086
# Velocity P-wave (km/s) = 6.30642 6.85108 6.58438
#
# Compressibility (1/GPa) = 0.02043513
#
# Stress axis : x y z
#
# Youngs Moduli (GPa) = 98.84521 64.85275 144.98603
#
# Poissons Ratio (x) = 0.03628 0.31148
# Poissons Ratio (y) = 0.05529 0.47722
# Poissons Ratio (z) = 0.21235 0.21346
#
# Static dielectric constant tensor:
#      x y z
#    x 1.953740 0.000000 0.000000 
#    y 0.000000 1.963770 0.000000 
#    z 0.000000 0.000000 2.002920 
# 
# From -- ./inp_files/5350.got.cif
#   From: 2010.05.17/outbox.cif.g08.bks.cpg/sg19_3_cif.got.tgz:5350.got - 2010.06.03 22:46:19.
