data_PCOD9315693
_publ_section_title
;
Structure prediction by ZEFSAII (Michael W. Deem and Ramdas Pophale) SiO2 
 PCOD9315693
Probable space group: P 21 21 21
;
_chemical_formula_sum "Si O2"
_cell_formula_units_Z 20
_cell_length_a 19.901156
_cell_length_b 7.874028
_cell_length_c 5.092369
_cell_angle_alpha 90.000000
_cell_angle_beta 90.000000
_cell_angle_gamma 90.000000
_cell_volume 797.985729
_symmetry_space_group_name_H-M "P 21 21 21"
_symmetry_group_IT_number 19
_symmetry_cell_setting 'orthorhombic'
loop_
_space_group_symop_operation_xyz
x,y,z
1/2-x,-y,1/2+z
1/2+x,1/2-y,-z
-x,1/2+y,1/2-z
loop_
_atom_site_type_symbol
_atom_site_label
_atom_site_fract_x
_atom_site_fract_y
_atom_site_fract_z
Si Si1 0.033768 0.938677 0.999120
Si Si2 0.592729 0.890267 0.286690
Si Si3 0.642923 0.617654 0.645481
Si Si4 0.833576 0.567667 0.642336
Si Si5 0.212337 0.435599 0.988137
O O1 0.052994 0.760458 0.862526
O O2 0.085092 0.082223 0.886509
O O3 0.063561 0.921849 0.293439
O O4 0.958806 0.991813 0.943372
O O5 0.640164 0.794424 0.496902
O O6 0.638981 0.988824 0.081273
O O7 0.674916 0.487737 0.440434
O O8 0.676483 0.584386 0.928120
O O9 0.794928 0.734698 0.561718
O O10 0.261259 0.522102 0.775169
#
# Coordination Sequence:
#
# PCOD9315693 Si02
#       5
#     4   4   4   4   4
#     4   9  22  41  74 107 137 181 224 303 370 413
#     4  11  23  44  72 105 148 176 245 290 367 433
#     4   9  21  41  69 102 133 174 225 282 370 409
#     4   9  20  46  66  99 134 180 231 288 347 419
#     4  12  28  46  71  99 142 195 245 291 348 424
#
# _framework density 25.063106000000001
#
# number of rings (size 3 to 8) (size 9 to 14) (size 15 to 20)
#    1.200    0.800    0.000    2.400    2.800    4.800 
#    0.000   12.000    0.000    0.000    0.000    0.000 
#    0.000    0.000    0.000    0.000    0.000    0.000 
#
# Total GULP energy -111787.343881 kJ/mol
# GULP energy per Si atom -5589.367194 kJ/mol
# Density = 2.500606 g / cm^3
# Si number density = 25.063106 Si / 1000 Ang^3
#
#
#
# Elastic Constant Matrix: (Units=GPa)
#
#
# Indices 1 2 3 4 5 6 
#
# 1 67.2181 18.9278 -16.6821 0.0000 0.0000 0.0000
# 2 18.9278 96.6035 16.0990 0.0000 0.0000 0.0000
# 3 -16.6821 16.0990 99.8467 0.0000 0.0000 0.0000
# 4 0.0000 0.0000 0.0000 27.8268 0.0000 0.0000
# 5 0.0000 0.0000 0.0000 0.0000 23.2437 0.0000
# 6 0.0000 0.0000 0.0000 0.0000 0.0000 52.4913
#
#
#
# Elastic Compliance Matrix: (Units=1/GPa)
#
#
# Indices 1 2 3 4 5 6 
#
# 1 0.016818 -0.003867 0.003433 0.000000 0.000000 0.000000
# 2 -0.003867 0.011527 -0.002505 0.000000 0.000000 0.000000
# 3 0.003433 -0.002505 0.010993 0.000000 0.000000 0.000000
# 4 0.000000 0.000000 0.000000 0.035937 0.000000 0.000000
# 5 0.000000 0.000000 0.000000 0.000000 0.043022 0.000000
# 6 0.000000 0.000000 0.000000 0.000000 0.000000 0.019051
#
#
# Mechanical properties :
#
#
# Convention : Reuss Voigt Hill
#
# Bulk Modulus (GPa) = 29.88602 33.37308 31.62955
# Shear Modulus (GPa) = 32.38799 37.06727 34.72763
#
# Velocity S-wave (km/s) = 3.59870 3.84989 3.72641
# Velocity P-wave (km/s) = 5.40534 5.75385 5.58231
#
# Compressibility (1/GPa) = 0.03346046
#
# Stress axis : x y z
#
# Youngs Moduli (GPa) = 59.45984 86.75471 90.96811
#
# Poissons Ratio (x) = 0.33552 -0.31234
# Poissons Ratio (y) = 0.22996 0.22785
# Poissons Ratio (z) = -0.20415 0.21729
#
# Static dielectric constant tensor:
#      x y z
#    x 2.113680 0.000000 0.000000 
#    y 0.000000 1.949900 0.000000 
#    z 0.000000 0.000000 1.962110 
# 
# From -- ./inp_files/1682.got.cif
#   From: 2010.05.17/outbox.cif.g08.bks.cpg/sg19_1_cif.got.tgz:1682.got - 2010.06.03 22:46:19.
