data_PCOD9315163
_publ_section_title
;
Structure prediction by ZEFSAII (Michael W. Deem and Ramdas Pophale) SiO2 
 PCOD9315163
Probable space group: P 21 21 21
;
_chemical_formula_sum "Si O2"
_cell_formula_units_Z 24
_cell_length_a 4.931832
_cell_length_b 4.923903
_cell_length_c 30.425388
_cell_angle_alpha 90.000000
_cell_angle_beta 90.000000
_cell_angle_gamma 90.000000
_cell_volume 738.845935
_symmetry_space_group_name_H-M "P 21 21 21"
_symmetry_group_IT_number 19
_symmetry_cell_setting 'orthorhombic'
loop_
_space_group_symop_operation_xyz
x,y,z
1/2-x,-y,1/2+z
1/2+x,1/2-y,-z
-x,1/2+y,1/2-z
loop_
_atom_site_type_symbol
_atom_site_label
_atom_site_fract_x
_atom_site_fract_y
_atom_site_fract_z
Si Si1 0.976351 0.870936 0.678500
Si Si2 0.492606 0.807183 0.815272
Si Si3 0.061549 0.464010 0.098715
Si Si4 0.275830 0.596407 0.006103
Si Si5 0.689331 0.986804 0.088551
Si Si6 0.261715 0.918298 0.251333
O O1 0.739010 0.093963 0.677317
O O2 0.016958 0.888859 0.624293
O O3 0.011206 0.819619 0.739818
O O4 0.769907 0.590051 0.690970
O O5 0.658000 0.965350 0.852179
O O6 0.749823 0.565449 0.805644
O O7 0.516665 0.860688 0.761593
O O8 0.238803 0.510173 0.055986
O O9 0.949348 0.167408 0.097266
O O10 0.803191 0.677902 0.093520
O O11 0.089278 0.868802 0.005006
O O12 0.136710 0.459858 0.963317
#
# Coordination Sequence:
#
# PCOD9315163 Si02
#       6
#     4   4   4   4   4   4
#     4  11  23  39  63  96 135 177 233 285 350 415
#     4  11  23  39  63  96 135 177 233 285 350 415
#     4  10  23  44  71 101 141 183 234 296 362 430
#     4  10  24  48  78 110 148 190 242 304 368 434
#     4  10  23  44  71 101 141 183 234 296 362 430
#     4  12  22  38  64  94 132 180 232 288 342 420
#
# _framework density 32.483091999999999
#
# number of rings (size 3 to 8) (size 9 to 14) (size 15 to 20)
#    0.000    1.333    5.000    0.000    2.333    5.333 
#    0.000    0.000    7.333    0.000    0.000    0.000 
#    0.000    0.000    0.000    0.000    0.000    0.000 
#
# Total GULP energy -134124.555483 kJ/mol
# GULP energy per Si atom -5588.523145 kJ/mol
# Density = 3.240916 g / cm^3
# Si number density = 32.483092 Si / 1000 Ang^3
#
#
#
# Elastic Constant Matrix: (Units=GPa)
#
#
# Indices 1 2 3 4 5 6 
#
# 1 201.2463 13.1513 1.7682 0.0000 0.0000 0.0000
# 2 13.1513 157.4984 3.1830 0.0000 0.0000 0.0000
# 3 1.7682 3.1830 146.9058 0.0000 0.0000 0.0000
# 4 0.0000 0.0000 0.0000 46.0346 0.0000 0.0000
# 5 0.0000 0.0000 0.0000 0.0000 47.8769 0.0000
# 6 0.0000 0.0000 0.0000 0.0000 0.0000 35.6204
#
#
#
# Elastic Compliance Matrix: (Units=1/GPa)
#
#
# Indices 1 2 3 4 5 6 
#
# 1 0.004997 -0.000416 -0.000051 0.000000 0.000000 0.000000
# 2 -0.000416 0.006387 -0.000133 0.000000 0.000000 0.000000
# 3 -0.000051 -0.000133 0.006811 0.000000 0.000000 0.000000
# 4 0.000000 0.000000 0.000000 0.021723 0.000000 0.000000
# 5 0.000000 0.000000 0.000000 0.000000 0.020887 0.000000
# 6 0.000000 0.000000 0.000000 0.000000 0.000000 0.028074
#
#
# Mechanical properties :
#
#
# Convention : Reuss Voigt Hill
#
# Bulk Modulus (GPa) = 58.84910 60.20615 59.52762
# Shear Modulus (GPa) = 52.22310 58.40958 55.31634
#
# Velocity S-wave (km/s) = 4.01396 4.24506 4.13113
# Velocity P-wave (km/s) = 6.29593 6.52704 6.41253
#
# Compressibility (1/GPa) = 0.01699261
#
# Stress axis : x y z
#
# Youngs Moduli (GPa) = 200.13276 156.57490 146.83015
#
# Poissons Ratio (x) = 0.06517 0.00751
# Poissons Ratio (y) = 0.08329 0.01958
# Poissons Ratio (z) = 0.01023 0.02088
#
# Static dielectric constant tensor:
#      x y z
#    x 2.780730 0.000000 0.000000 
#    y 0.000000 2.928070 0.000000 
#    z 0.000000 0.000000 2.978550 
# 
# From -- ./inp_files/227.got.cif
#   From: 2010.05.17/outbox.cif.g08.bks.cpg/sg19_1_cif.got.tgz:227.got - 2010.06.03 22:46:19.
