data_PCOD9315134
_publ_section_title
;
Structure prediction by ZEFSAII (Michael W. Deem and Ramdas Pophale) SiO2 
 PCOD9315134
Probable space group: P 21 21 21
;
_chemical_formula_sum "Si O2"
_cell_formula_units_Z 32
_cell_length_a 5.278871
_cell_length_b 12.686489
_cell_length_c 17.474759
_cell_angle_alpha 90.000000
_cell_angle_beta 90.000000
_cell_angle_gamma 90.000000
_cell_volume 1170.290532
_symmetry_space_group_name_H-M "P 21 21 21"
_symmetry_group_IT_number 19
_symmetry_cell_setting 'orthorhombic'
loop_
_space_group_symop_operation_xyz
x,y,z
1/2-x,-y,1/2+z
1/2+x,1/2-y,-z
-x,1/2+y,1/2-z
loop_
_atom_site_type_symbol
_atom_site_label
_atom_site_fract_x
_atom_site_fract_y
_atom_site_fract_z
Si Si1 0.220617 0.001838 0.464412
Si Si2 0.076006 0.683807 0.594979
Si Si3 0.325731 0.125270 0.329734
Si Si4 0.523094 0.694543 0.966567
Si Si5 0.173224 0.385687 0.946106
Si Si6 0.780930 0.708907 0.808206
Si Si7 0.626178 0.946987 0.270564
Si Si8 0.041878 0.616483 0.302661
O O1 0.136048 0.076093 0.392566
O O2 0.434350 0.074934 0.503797
O O3 0.338932 0.893133 0.429948
O O4 0.000743 0.982539 0.526695
O O5 0.997669 0.803782 0.600254
O O6 0.265520 0.668946 0.525906
O O7 0.206680 0.646255 0.673209
O O8 0.469828 0.233564 0.342522
O O9 0.214511 0.120526 0.244974
O O10 0.545079 0.038094 0.329107
O O11 0.575556 0.698712 0.875262
O O12 0.257674 0.739723 0.996181
O O13 0.424164 0.385834 0.893613
O O14 0.887693 0.600596 0.774612
O O15 0.685683 0.785438 0.739958
O O16 0.824444 0.005081 0.218212
#
# Coordination Sequence:
#
# PCOD9315134 Si02
#       8
#     4   4   4   4   4   4   4   4
#     4  11  24  46  70  99 140 185 242 301 367 442
#     4  11  24  43  68  99 140 185 234 303 371 442
#     4  10  23  44  67  96 133 186 229 297 370 432
#     4  12  27  47  75 109 148 197 252 307 373 447
#     4  12  24  41  70 102 137 185 239 303 371 445
#     4  11  23  43  70  98 143 185 238 297 363 435
#     4  10  23  44  65  97 136 180 232 299 356 436
#     4  11  24  42  67 100 137 179 238 291 365 439
#
# _framework density 27.343639
#
# number of rings (size 3 to 8) (size 9 to 14) (size 15 to 20)
#    0.000    1.000    3.750    2.250    1.750    5.000 
#    0.000    0.000    0.000    0.000    0.000    0.000 
#    0.000    0.000    0.000    0.000    0.000    0.000 
#
# Total GULP energy -179145.016264 kJ/mol
# GULP energy per Si atom -5598.281758 kJ/mol
# Density = 2.728140 g / cm^3
# Si number density = 27.343639 Si / 1000 Ang^3
#
#
#
# Elastic Constant Matrix: (Units=GPa)
#
#
# Indices 1 2 3 4 5 6 
#
# 1 81.3863 21.9869 13.8316 0.0000 0.0000 0.0000
# 2 21.9869 66.5237 27.6479 0.0000 0.0000 0.0000
# 3 13.8316 27.6479 103.1396 0.0000 0.0000 0.0000
# 4 0.0000 0.0000 0.0000 50.1711 0.0000 0.0000
# 5 0.0000 0.0000 0.0000 0.0000 42.2469 0.0000
# 6 0.0000 0.0000 0.0000 0.0000 0.0000 42.6251
#
#
#
# Elastic Compliance Matrix: (Units=1/GPa)
#
#
# Indices 1 2 3 4 5 6 
#
# 1 0.013536 -0.004186 -0.000693 0.000000 0.000000 0.000000
# 2 -0.004186 0.018211 -0.004320 0.000000 0.000000 0.000000
# 3 -0.000693 -0.004320 0.010947 0.000000 0.000000 0.000000
# 4 0.000000 0.000000 0.000000 0.019932 0.000000 0.000000
# 5 0.000000 0.000000 0.000000 0.000000 0.023670 0.000000
# 6 0.000000 0.000000 0.000000 0.000000 0.000000 0.023460
#
#
# Mechanical properties :
#
#
# Convention : Reuss Voigt Hill
#
# Bulk Modulus (GPa) = 41.16053 41.99803 41.57928
# Shear Modulus (GPa) = 36.69644 39.51416 38.10530
#
# Velocity S-wave (km/s) = 3.66737 3.80556 3.73711
# Velocity P-wave (km/s) = 5.74618 5.89088 5.81898
#
# Compressibility (1/GPa) = 0.02429512
#
# Stress axis : x y z
#
# Youngs Moduli (GPa) = 73.87899 54.91117 91.35160
#
# Poissons Ratio (x) = 0.22984 0.06333
# Poissons Ratio (y) = 0.30923 0.39468
# Poissons Ratio (z) = 0.05121 0.23724
#
# Static dielectric constant tensor:
#      x y z
#    x 2.177170 0.000000 0.000000 
#    y 0.000000 2.144910 0.000000 
#    z 0.000000 0.000000 2.138800 
# 
# From -- ./inp_files/6480.got.cif
#   From: 2010.05.17/outbox.cif.g08.bks.cpg/sg19_4_cif.got.tgz:6480.got - 2010.06.03 22:46:19.
