data_PCOD9315560
_publ_section_title
;
Structure prediction by ZEFSAII (Michael W. Deem and Ramdas Pophale) SiO2 
 PCOD9315560
Probable space group: P 21 21 21
;
_chemical_formula_sum "Si O2"
_cell_formula_units_Z 20
_cell_length_a 13.141133
_cell_length_b 6.640551
_cell_length_c 9.781333
_cell_angle_alpha 90.000000
_cell_angle_beta 90.000000
_cell_angle_gamma 90.000000
_cell_volume 853.561802
_symmetry_space_group_name_H-M "P 21 21 21"
_symmetry_group_IT_number 19
_symmetry_cell_setting 'orthorhombic'
loop_
_space_group_symop_operation_xyz
x,y,z
1/2-x,-y,1/2+z
1/2+x,1/2-y,-z
-x,1/2+y,1/2-z
loop_
_atom_site_type_symbol
_atom_site_label
_atom_site_fract_x
_atom_site_fract_y
_atom_site_fract_z
Si Si1 0.730939 0.665515 0.245255
Si Si2 0.149837 0.071027 0.533897
Si Si3 0.869120 0.001885 0.321626
Si Si4 0.964742 0.205237 0.080598
Si Si5 0.950553 0.311166 0.548628
O O1 0.731465 0.477101 0.348958
O O2 0.768509 0.866419 0.322887
O O3 0.802086 0.626956 0.112421
O O4 0.619313 0.684747 0.181195
O O5 0.064417 0.230704 0.574107
O O6 0.089697 0.860861 0.518260
O O7 0.879649 0.109711 0.177063
O O8 0.895108 0.157378 0.442590
O O9 0.960584 0.838996 0.326314
O O10 0.032586 0.033571 0.011448
#
# Coordination Sequence:
#
# PCOD9315560 Si02
#       5
#     4   4   4   4   4
#     4  12  27  48  73 110 145 195 242 300 362 437
#     4  11  28  48  72 109 146 190 242 301 364 436
#     4  11  22  42  72 104 138 192 240 290 359 434
#     4  11  21  45  72 101 142 189 239 294 361 425
#     4  11  26  47  73 106 151 190 239 305 362 426
#
# _framework density 23.431227
#
# number of rings (size 3 to 8) (size 9 to 14) (size 15 to 20)
#    0.000    0.800    4.000    2.400    8.400    0.000 
#    0.000    0.000    0.000    0.000    0.000    0.000 
#    0.000    0.000    0.000    0.000    0.000    0.000 
#
# Total GULP energy -111956.501185 kJ/mol
# GULP energy per Si atom -5597.825059 kJ/mol
# Density = 2.337790 g / cm^3
# Si number density = 23.431227 Si / 1000 Ang^3
#
#
#
# Elastic Constant Matrix: (Units=GPa)
#
#
# Indices 1 2 3 4 5 6 
#
# 1 63.1467 15.1774 13.6375 0.0000 0.0000 0.0000
# 2 15.1774 81.9741 9.1846 0.0000 0.0000 0.0000
# 3 13.6375 9.1846 56.0296 0.0000 0.0000 0.0000
# 4 0.0000 0.0000 0.0000 23.0552 0.0000 0.0000
# 5 0.0000 0.0000 0.0000 0.0000 47.6808 0.0000
# 6 0.0000 0.0000 0.0000 0.0000 0.0000 42.5901
#
#
#
# Elastic Compliance Matrix: (Units=1/GPa)
#
#
# Indices 1 2 3 4 5 6 
#
# 1 0.017317 -0.002785 -0.003758 0.000000 0.000000 0.000000
# 2 -0.002785 0.012875 -0.001433 0.000000 0.000000 0.000000
# 3 -0.003758 -0.001433 0.018997 0.000000 0.000000 0.000000
# 4 0.000000 0.000000 0.000000 0.043374 0.000000 0.000000
# 5 0.000000 0.000000 0.000000 0.000000 0.020973 0.000000
# 6 0.000000 0.000000 0.000000 0.000000 0.000000 0.023480
#
#
# Mechanical properties :
#
#
# Convention : Reuss Voigt Hill
#
# Bulk Modulus (GPa) = 30.08669 30.79438 30.44053
# Shear Modulus (GPa) = 30.47891 33.54195 32.01043
#
# Velocity S-wave (km/s) = 3.61055 3.78763 3.70015
# Velocity P-wave (km/s) = 5.49997 5.68324 5.59236
#
# Compressibility (1/GPa) = 0.03323729
#
# Stress axis : x y z
#
# Youngs Moduli (GPa) = 57.74591 77.66895 52.63888
#
# Poissons Ratio (x) = 0.21632 0.19784
# Poissons Ratio (y) = 0.16083 0.07541
# Poissons Ratio (z) = 0.21703 0.11127
#
# Static dielectric constant tensor:
#      x y z
#    x 1.919880 0.000000 0.000000 
#    y 0.000000 1.861440 0.000000 
#    z 0.000000 0.000000 1.901920 
# 
# From -- ./inp_files/1378.got.cif
#   From: 2010.05.17/outbox.cif.g08.bks.cpg/sg19_1_cif.got.tgz:1378.got - 2010.06.03 22:46:19.
