data_PCOD9315566
_publ_section_title
;
Structure prediction by ZEFSAII (Michael W. Deem and Ramdas Pophale) SiO2 
 PCOD9315566
Probable space group: P 21 21 21
;
_chemical_formula_sum "Si O2"
_cell_formula_units_Z 28
_cell_length_a 14.777851
_cell_length_b 8.620966
_cell_length_c 9.090989
_cell_angle_alpha 90.000000
_cell_angle_beta 90.000000
_cell_angle_gamma 90.000000
_cell_volume 1158.186099
_symmetry_space_group_name_H-M "P 21 21 21"
_symmetry_group_IT_number 19
_symmetry_cell_setting 'orthorhombic'
loop_
_space_group_symop_operation_xyz
x,y,z
1/2-x,-y,1/2+z
1/2+x,1/2-y,-z
-x,1/2+y,1/2-z
loop_
_atom_site_type_symbol
_atom_site_label
_atom_site_fract_x
_atom_site_fract_y
_atom_site_fract_z
Si Si1 0.926354 0.552716 0.261438
Si Si2 0.989259 0.009186 0.751135
Si Si3 0.646259 0.427149 0.059155
Si Si4 0.726458 0.304438 0.597113
Si Si5 0.302669 0.666026 0.207650
Si Si6 0.114681 0.783231 0.660380
Si Si7 0.614755 0.806680 0.676625
O O1 0.883646 0.639570 0.405185
O O2 0.873843 0.645995 0.137715
O O3 0.900881 0.369046 0.243947
O O4 0.031708 0.587112 0.272902
O O5 0.890971 0.934368 0.761276
O O6 0.059325 0.943412 0.632129
O O7 0.962550 0.188691 0.749741
O O8 0.053862 0.987663 0.892452
O O9 0.726254 0.544637 0.025530
O O10 0.677050 0.320669 0.194229
O O11 0.716668 0.184059 0.465343
O O12 0.795231 0.281402 0.737652
O O13 0.206794 0.613732 0.270311
O O14 0.124940 0.710854 0.499697
#
# Coordination Sequence:
#
# PCOD9315566 Si02
#       7
#     4   4   4   4   4   4   4
#     4  12  26  44  72 101 142 186 244 292 360 417
#     4  11  24  44  75 102 141 186 236 297 354 435
#     4  11  21  48  68  99 135 189 234 290 351 429
#     4  11  25  41  75 101 137 189 242 290 352 439
#     4  12  25  43  74 104 142 185 243 291 363 424
#     4  11  26  46  73 102 146 187 239 289 368 419
#     4  12  27  46  71 105 145 192 232 303 348 435
#
# _framework density 24.175733999999999
#
# number of rings (size 3 to 8) (size 9 to 14) (size 15 to 20)
#    0.000    0.571    5.714    0.857    6.000    3.429 
#    0.000    0.000    0.000    0.000    0.000    0.000 
#    0.000    0.000    0.000    0.000    0.000    0.000 
#
# Total GULP energy -156223.474570 kJ/mol
# GULP energy per Si atom -5579.409806 kJ/mol
# Density = 2.412071 g / cm^3
# Si number density = 24.175734 Si / 1000 Ang^3
#
#
#
# Elastic Constant Matrix: (Units=GPa)
#
#
# Indices 1 2 3 4 5 6 
#
# 1 160.4633 12.8320 59.2867 0.0000 0.0000 0.0000
# 2 12.8320 28.9114 23.4658 0.0000 0.0000 0.0000
# 3 59.2867 23.4658 79.3735 0.0000 0.0000 0.0000
# 4 0.0000 0.0000 0.0000 16.7082 0.0000 0.0000
# 5 0.0000 0.0000 0.0000 0.0000 20.4830 0.0000
# 6 0.0000 0.0000 0.0000 0.0000 0.0000 41.5570
#
#
#
# Elastic Compliance Matrix: (Units=1/GPa)
#
#
# Indices 1 2 3 4 5 6 
#
# 1 0.008682 0.001855 -0.007034 0.000000 0.000000 0.000000
# 2 0.001855 0.045905 -0.014957 0.000000 0.000000 0.000000
# 3 -0.007034 -0.014957 0.022274 0.000000 0.000000 0.000000
# 4 0.000000 0.000000 0.000000 0.059851 0.000000 0.000000
# 5 0.000000 0.000000 0.000000 0.000000 0.048821 0.000000
# 6 0.000000 0.000000 0.000000 0.000000 0.000000 0.024063
#
#
# Mechanical properties :
#
#
# Convention : Reuss Voigt Hill
#
# Bulk Modulus (GPa) = 27.32942 51.10189 39.21565
# Shear Modulus (GPa) = 19.07935 27.29388 23.18661
#
# Velocity S-wave (km/s) = 2.81231 3.36367 3.10027
# Velocity P-wave (km/s) = 4.67701 6.02240 5.39183
#
# Compressibility (1/GPa) = 0.03659061
#
# Stress axis : x y z
#
# Youngs Moduli (GPa) = 115.17681 21.78430 44.89526
#
# Poissons Ratio (x) = -0.04041 0.31577
# Poissons Ratio (y) = -0.21368 0.67149
# Poissons Ratio (z) = 0.81010 0.32582
#
# Static dielectric constant tensor:
#      x y z
#    x 1.902900 0.000000 0.000000 
#    y 0.000000 2.052940 0.000000 
#    z 0.000000 0.000000 2.019980 
# 
# From -- ./inp_files/3853.got.cif
#   From: 2010.05.17/outbox.cif.g08.bks.cpg/sg19_2_cif.got.tgz:3853.got - 2010.06.03 22:46:19.
