data_PCOD9315865
_publ_section_title
;
Structure prediction by ZEFSAII (Michael W. Deem and Ramdas Pophale) SiO2 
 PCOD9315865
Probable space group: P 21 21 21
;
_chemical_formula_sum "Si O2"
_cell_formula_units_Z 24
_cell_length_a 5.122026
_cell_length_b 14.242833
_cell_length_c 13.382098
_cell_angle_alpha 90.000000
_cell_angle_beta 90.000000
_cell_angle_gamma 90.000000
_cell_volume 976.252967
_symmetry_space_group_name_H-M "P 21 21 21"
_symmetry_group_IT_number 19
_symmetry_cell_setting 'orthorhombic'
loop_
_space_group_symop_operation_xyz
x,y,z
1/2-x,-y,1/2+z
1/2+x,1/2-y,-z
-x,1/2+y,1/2-z
loop_
_atom_site_type_symbol
_atom_site_label
_atom_site_fract_x
_atom_site_fract_y
_atom_site_fract_z
Si Si1 0.964832 0.677862 0.126790
Si Si2 0.962427 0.475960 0.132203
Si Si3 0.457267 0.474679 0.994292
Si Si4 0.705815 0.323331 0.253443
Si Si5 0.266085 0.719584 0.443366
Si Si6 0.670162 0.859559 0.092729
O O1 0.913227 0.579112 0.179094
O O2 0.739171 0.753696 0.122787
O O3 0.188040 0.740661 0.176240
O O4 0.025229 0.650232 0.012821
O O5 0.741818 0.466263 0.044026
O O6 0.925211 0.392909 0.210372
O O7 0.251031 0.476942 0.086145
O O8 0.354898 0.384429 0.932879
O O9 0.406556 0.569871 0.932137
O O10 0.613984 0.268383 0.154631
O O11 0.511033 0.388875 0.315814
O O12 0.509212 0.723378 0.519653
#
# Coordination Sequence:
#
# PCOD9315865 Si02
#       6
#     4   4   4   4   4   4
#     4  11  25  47  71 105 154 195 250 319 372 455
#     4  11  26  47  75 106 148 198 253 311 379 456
#     4  11  24  49  74 104 151 197 249 316 382 444
#     4  12  27  45  76 111 148 203 256 308 385 465
#     4  12  25  49  74 111 151 197 250 321 383 448
#     4  11  25  45  74 103 154 198 248 313 381 452
#
# _framework density 24.583793
#
# number of rings (size 3 to 8) (size 9 to 14) (size 15 to 20)
#    0.000    0.667    5.000    1.000    9.333    2.667 
#    0.000    0.000    0.000    0.000    0.000    0.000 
#    0.000    0.000    0.000    0.000    0.000    0.000 
#
# Total GULP energy -134164.392781 kJ/mol
# GULP energy per Si atom -5590.183033 kJ/mol
# Density = 2.452784 g / cm^3
# Si number density = 24.583793 Si / 1000 Ang^3
#
#
#
# Elastic Constant Matrix: (Units=GPa)
#
#
# Indices 1 2 3 4 5 6 
#
# 1 85.6374 12.7824 26.8431 0.0000 0.0000 0.0000
# 2 12.7824 138.6838 12.0697 0.0000 0.0000 0.0000
# 3 26.8431 12.0697 87.9640 0.0000 0.0000 0.0000
# 4 0.0000 0.0000 0.0000 -4.2591 0.0000 0.0000
# 5 0.0000 0.0000 0.0000 0.0000 20.6234 0.0000
# 6 0.0000 0.0000 0.0000 0.0000 0.0000 39.7078
#
#
#
# Elastic Compliance Matrix: (Units=1/GPa)
#
#
# Indices 1 2 3 4 5 6 
#
# 1 0.013014 -0.000864 -0.003853 0.000000 0.000000 0.000000
# 2 -0.000864 0.007355 -0.000746 0.000000 0.000000 0.000000
# 3 -0.003853 -0.000746 0.012646 0.000000 0.000000 0.000000
# 4 0.000000 0.000000 0.000000 -0.234791 0.000000 0.000000
# 5 0.000000 0.000000 0.000000 0.000000 0.048489 0.000000
# 6 0.000000 0.000000 0.000000 0.000000 0.000000 0.025184
#
#
# Mechanical properties :
#
#
# Convention : Reuss Voigt Hill
#
# Bulk Modulus (GPa) = 45.26844 46.18618 45.72731
# Shear Modulus (GPa) = -45.53094 28.58710 -8.47192
#
# Velocity S-wave (km/s) = -4.30824 3.41375 -1.85839
# Velocity P-wave (km/s) = 2.50878 5.86228 3.74648
#
# Compressibility (1/GPa) = 0.02209044
#
# Stress axis : x y z
#
# Youngs Moduli (GPa) = 76.84173 135.95868 79.07470
#
# Poissons Ratio (x) = 0.11749 0.30465
# Poissons Ratio (y) = 0.06640 0.05895
# Poissons Ratio (z) = 0.29605 0.10136
#
# Static dielectric constant tensor:
#      x y z
#    x 1.982200 0.000000 0.000000 
#    y 0.000000 2.022810 0.000000 
#    z 0.000000 0.000000 2.043470 
# 
# From -- ./inp_files/938.got.cif
#   From: 2010.05.17/outbox.cif.g08.bks.cpg/sg19_1_cif.got.tgz:938.got - 2010.06.03 22:46:19.
