data_PCOD9315966
_publ_section_title
;
Structure prediction by ZEFSAII (Michael W. Deem and Ramdas Pophale) SiO2 
 PCOD9315966
Probable space group: P 21 21 21
;
_chemical_formula_sum "Si O2"
_cell_formula_units_Z 24
_cell_length_a 9.893005
_cell_length_b 11.981158
_cell_length_c 8.636144
_cell_angle_alpha 90.000000
_cell_angle_beta 90.000000
_cell_angle_gamma 90.000000
_cell_volume 1023.639177
_symmetry_space_group_name_H-M "P 21 21 21"
_symmetry_group_IT_number 19
_symmetry_cell_setting 'orthorhombic'
loop_
_space_group_symop_operation_xyz
x,y,z
1/2-x,-y,1/2+z
1/2+x,1/2-y,-z
-x,1/2+y,1/2-z
loop_
_atom_site_type_symbol
_atom_site_label
_atom_site_fract_x
_atom_site_fract_y
_atom_site_fract_z
Si Si1 0.385809 0.304889 0.818523
Si Si2 0.639064 0.592713 0.478415
Si Si3 0.176536 0.497017 0.546979
Si Si4 0.669223 0.377537 0.691978
Si Si5 0.924702 0.069832 0.634911
Si Si6 0.857474 0.760583 0.912822
O O1 0.518343 0.330974 0.719668
O O2 0.250937 0.272651 0.724496
O O3 0.410574 0.202943 0.935836
O O4 0.359397 0.416555 0.915034
O O5 0.673038 0.498780 0.608773
O O6 0.758351 0.618864 0.357450
O O7 0.523572 0.536270 0.375029
O O8 0.324552 0.448957 0.508788
O O9 0.160958 0.560272 0.708719
O O10 0.089087 0.383984 0.547692
O O11 0.720811 0.291885 0.560919
O O12 0.022484 0.176212 0.630746
#
# Coordination Sequence:
#
# PCOD9315966 Si02
#       6
#     4   4   4   4   4   4
#     4  12  29  48  82 116 163 212 271 344 411 497
#     4  11  27  50  78 116 159 213 277 334 420 486
#     4  12  28  48  78 114 166 207 274 334 417 476
#     4  11  28  50  82 115 161 209 276 344 409 494
#     4  11  28  50  79 117 160 221 268 342 408 489
#     4  11  26  52  77 116 159 214 274 330 415 490
#
# _framework density 23.445762999999999
#
# number of rings (size 3 to 8) (size 9 to 14) (size 15 to 20)
#    0.000    0.667    1.667    4.000   14.000    1.333 
#    3.000    0.000    0.000    0.000    0.000    0.000 
#    0.000    0.000    0.000    0.000    0.000    0.000 
#
# Total GULP energy -134373.411348 kJ/mol
# GULP energy per Si atom -5598.892140 kJ/mol
# Density = 2.339240 g / cm^3
# Si number density = 23.445763 Si / 1000 Ang^3
#
#
#
# Elastic Constant Matrix: (Units=GPa)
#
#
# Indices 1 2 3 4 5 6 
#
# 1 94.8168 42.2074 60.2979 0.0000 0.0000 0.0000
# 2 42.2074 165.0738 57.0729 0.0000 0.0000 0.0000
# 3 60.2979 57.0729 122.6255 0.0000 0.0000 0.0000
# 4 0.0000 0.0000 0.0000 18.4934 0.0000 0.0000
# 5 0.0000 0.0000 0.0000 0.0000 43.9433 0.0000
# 6 0.0000 0.0000 0.0000 0.0000 0.0000 33.1002
#
#
#
# Elastic Compliance Matrix: (Units=1/GPa)
#
#
# Indices 1 2 3 4 5 6 
#
# 1 0.015693 -0.001602 -0.006971 0.000000 0.000000 0.000000
# 2 -0.001602 0.007383 -0.002648 0.000000 0.000000 0.000000
# 3 -0.006971 -0.002648 0.012815 0.000000 0.000000 0.000000
# 4 0.000000 0.000000 0.000000 0.054073 0.000000 0.000000
# 5 0.000000 0.000000 0.000000 0.000000 0.022757 0.000000
# 6 0.000000 0.000000 0.000000 0.000000 0.000000 0.030211
#
#
# Mechanical properties :
#
#
# Convention : Reuss Voigt Hill
#
# Bulk Modulus (GPa) = 74.35913 77.96362 76.16138
# Shear Modulus (GPa) = 29.43620 33.96991 31.70306
#
# Velocity S-wave (km/s) = 3.54715 3.81053 3.68120
# Velocity P-wave (km/s) = 6.96854 7.25846 7.11498
#
# Compressibility (1/GPa) = 0.01344825
#
# Stress axis : x y z
#
# Youngs Moduli (GPa) = 63.72271 135.44121 78.03192
#
# Poissons Ratio (x) = 0.21703 0.54395
# Poissons Ratio (y) = 0.10211 0.20666
# Poissons Ratio (z) = 0.44420 0.35870
#
# Static dielectric constant tensor:
#      x y z
#    x 1.905710 0.000000 0.000000 
#    y 0.000000 1.892560 0.000000 
#    z 0.000000 0.000000 1.911680 
# 
# From -- ./inp_files/2675.got.cif
#   From: 2010.05.17/outbox.cif.g08.bks.cpg/sg19_2_cif.got.tgz:2675.got - 2010.06.03 22:46:19.
