data_PCOD9315567
_publ_section_title
;
Structure prediction by ZEFSAII (Michael W. Deem and Ramdas Pophale) SiO2 
 PCOD9315567
Probable space group: P 21 21 21
;
_chemical_formula_sum "Si O2"
_cell_formula_units_Z 32
_cell_length_a 9.312615
_cell_length_b 13.316701
_cell_length_c 11.442407
_cell_angle_alpha 90.000000
_cell_angle_beta 90.000000
_cell_angle_gamma 90.000000
_cell_volume 1419.010761
_symmetry_space_group_name_H-M "P 21 21 21"
_symmetry_group_IT_number 19
_symmetry_cell_setting 'orthorhombic'
loop_
_space_group_symop_operation_xyz
x,y,z
1/2-x,-y,1/2+z
1/2+x,1/2-y,-z
-x,1/2+y,1/2-z
loop_
_atom_site_type_symbol
_atom_site_label
_atom_site_fract_x
_atom_site_fract_y
_atom_site_fract_z
Si Si1 0.558622 0.946868 0.905854
Si Si2 0.319345 0.425385 0.057288
Si Si3 0.898669 0.323001 0.610844
Si Si4 0.600887 0.446579 0.190437
Si Si5 0.354393 0.820996 0.073246
Si Si6 0.775957 0.281665 0.844973
Si Si7 0.865697 0.362253 0.072319
Si Si8 0.961981 0.151123 0.167150
O O1 0.595759 0.892072 0.786583
O O2 0.705164 0.987972 0.958238
O O3 0.458454 0.044114 0.885575
O O4 0.465425 0.875105 0.986050
O O5 0.433312 0.434260 0.161739
O O6 0.240097 0.320016 0.084272
O O7 0.410297 0.414940 0.940367
O O8 0.878755 0.435061 0.664181
O O9 0.797860 0.313442 0.495418
O O10 0.837843 0.257246 0.718189
O O11 0.062850 0.284975 0.595736
O O12 0.647198 0.394135 0.312633
O O13 0.699867 0.388480 0.096524
O O14 0.633004 0.344811 0.826121
O O15 0.882221 0.339920 0.933788
O O16 0.906996 0.263102 0.142542
#
# Coordination Sequence:
#
# PCOD9315567 Si02
#       8
#     4   4   4   4   4   4   4   4
#     4  12  26  47  69 109 145 192 241 310 375 442
#     4  11  26  44  71 106 140 189 247 303 363 442
#     4  12  28  48  76 107 155 192 249 311 371 451
#     4  12  26  47  71 105 145 197 241 298 372 450
#     4  12  29  49  74 113 151 195 246 313 387 435
#     4  11  21  48  72 104 139 190 246 309 357 438
#     4  11  24  45  78 102 141 197 252 297 364 453
#     4  11  24  44  75 104 146 188 248 303 375 441
#
# _framework density 22.550922
#
# number of rings (size 3 to 8) (size 9 to 14) (size 15 to 20)
#    0.000    0.500    6.250    0.750    5.250    1.000 
#    2.250    0.000    0.000    0.000    0.000    0.000 
#    0.000    0.000    0.000    0.000    0.000    0.000 
#
# Total GULP energy -178871.304490 kJ/mol
# GULP energy per Si atom -5589.728265 kJ/mol
# Density = 2.249959 g / cm^3
# Si number density = 22.550922 Si / 1000 Ang^3
#
#
#
# Elastic Constant Matrix: (Units=GPa)
#
#
# Indices 1 2 3 4 5 6 
#
# 1 68.4662 26.0565 -7.0301 0.0000 0.0000 0.0000
# 2 26.0565 66.6451 18.5209 0.0000 0.0000 0.0000
# 3 -7.0301 18.5209 70.3795 0.0000 0.0000 0.0000
# 4 0.0000 0.0000 0.0000 24.9213 0.0000 0.0000
# 5 0.0000 0.0000 0.0000 0.0000 28.1126 0.0000
# 6 0.0000 0.0000 0.0000 0.0000 0.0000 41.5129
#
#
#
# Elastic Compliance Matrix: (Units=1/GPa)
#
#
# Indices 1 2 3 4 5 6 
#
# 1 0.018130 -0.008191 0.003966 0.000000 0.000000 0.000000
# 2 -0.008191 0.019889 -0.006052 0.000000 0.000000 0.000000
# 3 0.003966 -0.006052 0.016198 0.000000 0.000000 0.000000
# 4 0.000000 0.000000 0.000000 0.040126 0.000000 0.000000
# 5 0.000000 0.000000 0.000000 0.000000 0.035571 0.000000
# 6 0.000000 0.000000 0.000000 0.000000 0.000000 0.024089
#
#
# Mechanical properties :
#
#
# Convention : Reuss Voigt Hill
#
# Bulk Modulus (GPa) = 29.70529 31.17618 30.44073
# Shear Modulus (GPa) = 26.91389 30.10557 28.50973
#
# Velocity S-wave (km/s) = 3.45841 3.65773 3.55947
# Velocity P-wave (km/s) = 5.39895 5.62970 5.51553
#
# Compressibility (1/GPa) = 0.03366404
#
# Stress axis : x y z
#
# Youngs Moduli (GPa) = 55.15649 50.27868 61.73774
#
# Poissons Ratio (x) = 0.41182 -0.24488
# Poissons Ratio (y) = 0.45177 0.37365
# Poissons Ratio (z) = -0.21878 0.30429
#
# Static dielectric constant tensor:
#      x y z
#    x 1.852760 0.000000 0.000000 
#    y 0.000000 1.890350 0.000000 
#    z 0.000000 0.000000 1.838680 
# 
# From -- ./inp_files/4693.got.cif
#   From: 2010.05.17/outbox.cif.g08.bks.cpg/sg19_3_cif.got.tgz:4693.got - 2010.06.03 22:46:19.
