data_PCOD9315617
_publ_section_title
;
Structure prediction by ZEFSAII (Michael W. Deem and Ramdas Pophale) SiO2 
 PCOD9315617
Probable space group: P 21 21 21
;
_chemical_formula_sum "Si O2"
_cell_formula_units_Z 24
_cell_length_a 15.416260
_cell_length_b 5.140011
_cell_length_c 11.733836
_cell_angle_alpha 90.000000
_cell_angle_beta 90.000000
_cell_angle_gamma 90.000000
_cell_volume 929.786184
_symmetry_space_group_name_H-M "P 21 21 21"
_symmetry_group_IT_number 19
_symmetry_cell_setting 'orthorhombic'
loop_
_space_group_symop_operation_xyz
x,y,z
1/2-x,-y,1/2+z
1/2+x,1/2-y,-z
-x,1/2+y,1/2-z
loop_
_atom_site_type_symbol
_atom_site_label
_atom_site_fract_x
_atom_site_fract_y
_atom_site_fract_z
Si Si1 0.644205 0.245171 0.716359
Si Si2 0.006919 0.436062 0.108432
Si Si3 0.383978 0.423655 0.994361
Si Si4 0.441757 0.543825 0.232968
Si Si5 0.265828 0.908691 0.566050
Si Si6 0.144187 0.593436 0.956836
O O1 0.582231 0.076844 0.798511
O O2 0.666768 0.067607 0.607967
O O3 0.578612 0.457628 0.667414
O O4 0.714233 0.378727 0.799014
O O5 0.976538 0.162975 0.056282
O O6 0.046348 0.607909 0.007860
O O7 0.396860 0.580621 0.110526
O O8 0.332004 0.166453 0.034567
O O9 0.486980 0.810828 0.274090
O O10 0.370575 0.439884 0.322932
O O11 0.319017 0.675841 0.505940
O O12 0.302348 0.170797 0.511386
#
# Coordination Sequence:
#
# PCOD9315617 Si02
#       6
#     4   4   4   4   4   4
#     4  11  24  45  74 107 146 192 255 310 368 438
#     4  11  22  44  77 103 137 193 261 307 353 442
#     4  12  28  45  73 113 147 198 248 308 379 450
#     4  12  26  46  74 107 148 191 250 307 362 442
#     4  11  29  46  74 108 153 195 236 310 381 443
#     4  11  25  50  72 106 149 197 248 300 371 439
#
# _framework density 25.812383000000001
#
# number of rings (size 3 to 8) (size 9 to 14) (size 15 to 20)
#    0.000    0.667    3.333    3.000   11.667    0.000 
#    0.000    0.000    0.000    0.000    0.000    0.000 
#    0.000    0.000    0.000    0.000    0.000    0.000 
#
# Total GULP energy -134432.848273 kJ/mol
# GULP energy per Si atom -5601.368678 kJ/mol
# Density = 2.575363 g / cm^3
# Si number density = 25.812383 Si / 1000 Ang^3
#
#
#
# Elastic Constant Matrix: (Units=GPa)
#
#
# Indices 1 2 3 4 5 6 
#
# 1 56.8939 11.9697 32.1846 0.0000 0.0000 0.0000
# 2 11.9697 88.3605 7.3083 0.0000 0.0000 0.0000
# 3 32.1846 7.3083 167.1393 0.0000 0.0000 0.0000
# 4 0.0000 0.0000 0.0000 37.0177 0.0000 0.0000
# 5 0.0000 0.0000 0.0000 0.0000 46.8628 0.0000
# 6 0.0000 0.0000 0.0000 0.0000 0.0000 46.9990
#
#
#
# Elastic Compliance Matrix: (Units=1/GPa)
#
#
# Indices 1 2 3 4 5 6 
#
# 1 0.020231 -0.002427 -0.003790 0.000000 0.000000 0.000000
# 2 -0.002427 0.011650 -0.000042 0.000000 0.000000 0.000000
# 3 -0.003790 -0.000042 0.006715 0.000000 0.000000 0.000000
# 4 0.000000 0.000000 0.000000 0.027014 0.000000 0.000000
# 5 0.000000 0.000000 0.000000 0.000000 0.021339 0.000000
# 6 0.000000 0.000000 0.000000 0.000000 0.000000 0.021277
#
#
# Mechanical properties :
#
#
# Convention : Reuss Voigt Hill
#
# Bulk Modulus (GPa) = 38.34702 46.14655 42.24679
# Shear Modulus (GPa) = 38.62938 43.57130 41.10034
#
# Velocity S-wave (km/s) = 3.87272 4.11298 3.99466
# Velocity P-wave (km/s) = 5.90640 6.36176 6.13830
#
# Compressibility (1/GPa) = 0.02607764
#
# Stress axis : x y z
#
# Youngs Moduli (GPa) = 49.42917 85.84028 148.92924
#
# Poissons Ratio (x) = 0.20835 0.56438
# Poissons Ratio (y) = 0.11997 0.00626
# Poissons Ratio (z) = 0.18732 0.00361
#
# Static dielectric constant tensor:
#      x y z
#    x 2.097080 0.000000 0.000000 
#    y 0.000000 2.039520 0.000000 
#    z 0.000000 0.000000 2.069740 
# 
# From -- ./inp_files/5163.got.cif
#   From: 2010.05.17/outbox.cif.g08.bks.cpg/sg19_3_cif.got.tgz:5163.got - 2010.06.03 22:46:19.
