data_PCOD9315917
_publ_section_title
;
Structure prediction by ZEFSAII (Michael W. Deem and Ramdas Pophale) SiO2 
 PCOD9315917
Probable space group: P 21 21 21
;
_chemical_formula_sum "Si O2"
_cell_formula_units_Z 20
_cell_length_a 4.898928
_cell_length_b 24.139361
_cell_length_c 6.067975
_cell_angle_alpha 90.000000
_cell_angle_beta 90.000000
_cell_angle_gamma 90.000000
_cell_volume 717.580468
_symmetry_space_group_name_H-M "P 21 21 21"
_symmetry_group_IT_number 19
_symmetry_cell_setting 'orthorhombic'
loop_
_space_group_symop_operation_xyz
x,y,z
1/2-x,-y,1/2+z
1/2+x,1/2-y,-z
-x,1/2+y,1/2-z
loop_
_atom_site_type_symbol
_atom_site_label
_atom_site_fract_x
_atom_site_fract_y
_atom_site_fract_z
Si Si1 0.101631 0.665457 0.468581
Si Si2 0.700235 0.881686 0.067308
Si Si3 0.586789 0.608047 0.297781
Si Si4 0.916716 0.724244 0.116324
Si Si5 0.613569 0.496666 0.440930
O O1 0.396003 0.659642 0.355371
O O2 0.495516 0.604404 0.039910
O O3 0.196026 0.654848 0.715630
O O4 0.956879 0.721254 0.379475
O O5 0.506777 0.839610 0.927814
O O6 0.558915 0.941090 0.081314
O O7 0.372344 0.882841 0.577094
O O8 0.452467 0.554603 0.417234
O O9 0.724526 0.497346 0.698931
O O10 0.632134 0.736866 0.004712
#
# Coordination Sequence:
#
# PCOD9315917 Si02
#       5
#     4   4   4   4   4
#     4  11  25  49  74 113 149 209 266 329 411 491
#     4  11  27  45  79 111 161 213 270 339 412 502
#     4  11  26  46  73 113 160 203 266 323 401 495
#     4  11  25  48  74 107 149 201 269 347 408 484
#     4  12  27  48  82 120 169 220 273 334 416 504
#
# _framework density 27.871437
#
# number of rings (size 3 to 8) (size 9 to 14) (size 15 to 20)
#    0.000    0.800    2.000    4.800    5.600    6.400 
#    0.000    0.000    0.000    0.000    0.000    0.000 
#    0.000    0.000    0.000    0.000    0.000    0.000 
#
# Total GULP energy -111388.528818 kJ/mol
# GULP energy per Si atom -5569.426441 kJ/mol
# Density = 2.780800 g / cm^3
# Si number density = 27.871437 Si / 1000 Ang^3
#
#
#
# Elastic Constant Matrix: (Units=GPa)
#
#
# Indices 1 2 3 4 5 6 
#
# 1 111.1625 5.2793 30.9275 0.0000 0.0000 0.0000
# 2 5.2793 93.1242 -16.5252 0.0000 0.0000 0.0000
# 3 30.9275 -16.5252 118.5300 0.0000 0.0000 0.0000
# 4 0.0000 0.0000 0.0000 64.8973 0.0000 0.0000
# 5 0.0000 0.0000 0.0000 0.0000 44.8252 0.0000
# 6 0.0000 0.0000 0.0000 0.0000 0.0000 36.2828
#
#
#
# Elastic Compliance Matrix: (Units=1/GPa)
#
#
# Indices 1 2 3 4 5 6 
#
# 1 0.009796 -0.001035 -0.002700 0.000000 0.000000 0.000000
# 2 -0.001035 0.011120 0.001820 0.000000 0.000000 0.000000
# 3 -0.002700 0.001820 0.009395 0.000000 0.000000 0.000000
# 4 0.000000 0.000000 0.000000 0.015409 0.000000 0.000000
# 5 0.000000 0.000000 0.000000 0.000000 0.022309 0.000000
# 6 0.000000 0.000000 0.000000 0.000000 0.000000 0.027561
#
#
# Mechanical properties :
#
#
# Convention : Reuss Voigt Hill
#
# Bulk Modulus (GPa) = 37.76133 40.24220 39.00176
# Shear Modulus (GPa) = 46.19066 49.41006 47.80036
#
# Velocity S-wave (km/s) = 4.07538 4.21501 4.14579
# Velocity P-wave (km/s) = 5.97685 6.17724 6.07787
#
# Compressibility (1/GPa) = 0.02648212
#
# Stress axis : x y z
#
# Youngs Moduli (GPa) = 102.07978 89.92796 106.43905
#
# Poissons Ratio (x) = 0.09303 0.28742
# Poissons Ratio (y) = 0.10561 -0.19375
# Poissons Ratio (z) = 0.27565 -0.16369
#
# Static dielectric constant tensor:
#      x y z
#    x 2.161480 0.000000 0.000000 
#    y 0.000000 2.275380 0.000000 
#    z 0.000000 0.000000 2.920340 
# 
# From -- ./inp_files/158.got.cif
#   From: 2010.05.17/outbox.cif.g08.bks.cpg/sg19_1_cif.got.tgz:158.got - 2010.06.03 22:46:19.
