data_PCOD9315035
_publ_section_title
;
Structure prediction by ZEFSAII (Michael W. Deem and Ramdas Pophale) SiO2 
 PCOD9315035
Probable space group: P 21 21 21
;
_chemical_formula_sum "Si O2"
_cell_formula_units_Z 28
_cell_length_a 5.478075
_cell_length_b 21.755767
_cell_length_c 8.814053
_cell_angle_alpha 90.000000
_cell_angle_beta 90.000000
_cell_angle_gamma 90.000000
_cell_volume 1050.456398
_symmetry_space_group_name_H-M "P 21 21 21"
_symmetry_group_IT_number 19
_symmetry_cell_setting 'orthorhombic'
loop_
_space_group_symop_operation_xyz
x,y,z
1/2-x,-y,1/2+z
1/2+x,1/2-y,-z
-x,1/2+y,1/2-z
loop_
_atom_site_type_symbol
_atom_site_label
_atom_site_fract_x
_atom_site_fract_y
_atom_site_fract_z
Si Si1 0.991610 0.013299 0.809943
Si Si2 0.268012 0.260881 0.091245
Si Si3 0.386203 0.606038 0.673579
Si Si4 0.706385 0.245711 0.404364
Si Si5 0.958241 0.654983 0.216473
Si Si6 0.725879 0.378027 0.384787
Si Si7 0.736066 0.565757 0.428418
O O1 0.075064 0.071238 0.705359
O O2 0.725940 0.038013 0.852155
O O3 0.052618 0.957009 0.702054
O O4 0.147152 0.013198 0.964859
O O5 0.258636 0.331562 0.146019
O O6 0.212193 0.210569 0.222092
O O7 0.526088 0.248062 0.012689
O O8 0.494685 0.607168 0.843421
O O9 0.600011 0.608364 0.548506
O O10 0.958610 0.256444 0.500157
O O11 0.777445 0.185054 0.312475
O O12 0.691885 0.309594 0.315865
O O13 0.947929 0.602671 0.342848
O O14 0.857195 0.628628 0.057801
#
# Coordination Sequence:
#
# PCOD9315035 Si02
#       7
#     4   4   4   4   4   4   4
#     4  11  26  48  76 103 153 196 261 329 381 466
#     4  12  26  46  74 115 159 204 253 318 389 466
#     4  11  25  46  74 108 150 200 257 320 387 458
#     4  10  23  41  68 114 159 196 246 306 381 462
#     4  11  23  44  74 109 153 199 248 317 386 460
#     4  10  24  43  69 111 147 196 252 309 384 462
#     4  11  25  50  71 110 145 203 261 323 390 466
#
# _framework density 26.655083000000001
#
# number of rings (size 3 to 8) (size 9 to 14) (size 15 to 20)
#    0.000    1.143    2.857    1.714    6.000    5.714 
#    5.143    1.429    0.000    0.000    0.000    0.000 
#    0.000    0.000    0.000    0.000    0.000    0.000 
#
# Total GULP energy -156730.396378 kJ/mol
# GULP energy per Si atom -5597.514156 kJ/mol
# Density = 2.659441 g / cm^3
# Si number density = 26.655083 Si / 1000 Ang^3
#
#
#
# Elastic Constant Matrix: (Units=GPa)
#
#
# Indices 1 2 3 4 5 6 
#
# 1 117.8341 6.4644 46.2187 0.0000 0.0000 0.0000
# 2 6.4644 76.0856 25.5199 0.0000 0.0000 0.0000
# 3 46.2187 25.5199 132.2557 0.0000 0.0000 0.0000
# 4 0.0000 0.0000 0.0000 61.6503 0.0000 0.0000
# 5 0.0000 0.0000 0.0000 0.0000 45.6535 0.0000
# 6 0.0000 0.0000 0.0000 0.0000 0.0000 40.2313
#
#
#
# Elastic Compliance Matrix: (Units=1/GPa)
#
#
# Indices 1 2 3 4 5 6 
#
# 1 0.009843 0.000339 -0.003505 0.000000 0.000000 0.000000
# 2 0.000339 0.014064 -0.002832 0.000000 0.000000 0.000000
# 3 -0.003505 -0.002832 0.009333 0.000000 0.000000 0.000000
# 4 0.000000 0.000000 0.000000 0.016221 0.000000 0.000000
# 5 0.000000 0.000000 0.000000 0.000000 0.021904 0.000000
# 6 0.000000 0.000000 0.000000 0.000000 0.000000 0.024856
#
#
# Mechanical properties :
#
#
# Convention : Reuss Voigt Hill
#
# Bulk Modulus (GPa) = 47.07390 53.62015 50.34703
# Shear Modulus (GPa) = 43.36589 46.03851 44.70220
#
# Velocity S-wave (km/s) = 4.03789 4.16046 4.09964
# Velocity P-wave (km/s) = 6.27998 6.57565 6.42952
#
# Compressibility (1/GPa) = 0.02124319
#
# Stress axis : x y z
#
# Youngs Moduli (GPa) = 101.59765 71.10214 107.15135
#
# Poissons Ratio (x) = -0.02413 0.37559
# Poissons Ratio (y) = -0.03448 0.30350
# Poissons Ratio (z) = 0.35612 0.20139
#
# Static dielectric constant tensor:
#      x y z
#    x 2.264330 0.000000 0.000000 
#    y 0.000000 2.114300 0.000000 
#    z 0.000000 0.000000 2.094620 
# 
# From -- ./inp_files/2442.got.cif
#   From: 2010.05.17/outbox.cif.g08.bks.cpg/sg19_2_cif.got.tgz:2442.got - 2010.06.03 22:46:19.
