data_PCOD9315839
_publ_section_title
;
Structure prediction by ZEFSAII (Michael W. Deem and Ramdas Pophale) SiO2 
 PCOD9315839
Probable space group: P 21 21 21
;
_chemical_formula_sum "Si O2"
_cell_formula_units_Z 20
_cell_length_a 7.557560
_cell_length_b 12.213859
_cell_length_c 8.091494
_cell_angle_alpha 90.000000
_cell_angle_beta 90.000000
_cell_angle_gamma 90.000000
_cell_volume 746.901312
_symmetry_space_group_name_H-M "P 21 21 21"
_symmetry_group_IT_number 19
_symmetry_cell_setting 'orthorhombic'
loop_
_space_group_symop_operation_xyz
x,y,z
1/2-x,-y,1/2+z
1/2+x,1/2-y,-z
-x,1/2+y,1/2-z
loop_
_atom_site_type_symbol
_atom_site_label
_atom_site_fract_x
_atom_site_fract_y
_atom_site_fract_z
Si Si1 0.576343 0.620656 0.455533
Si Si2 0.358662 0.036755 0.673148
Si Si3 0.961067 0.241058 0.437404
Si Si4 0.685652 0.817064 0.258628
Si Si5 0.716530 0.936258 0.708275
O O1 0.689723 0.538621 0.342801
O O2 0.613430 0.581657 0.641227
O O3 0.639318 0.743046 0.415444
O O4 0.374180 0.608293 0.402721
O O5 0.361957 0.142624 0.558832
O O6 0.529834 0.965470 0.624102
O O7 0.971898 0.201758 0.625850
O O8 0.841220 0.149415 0.348570
O O9 0.136926 0.266969 0.330344
O O10 0.716758 0.945926 0.275373
#
# Coordination Sequence:
#
# PCOD9315839 Si02
#       5
#     4   4   4   4   4
#     4  12  26  47  75 106 150 189 249 303 374 437
#     4  11  27  47  73 110 142 197 247 307 366 442
#     4  11  24  47  73 104 151 191 252 301 367 444
#     4  11  25  46  75 108 147 198 247 302 374 439
#     4  11  26  47  72 106 146 195 245 301 363 440
#
# _framework density 26.777298999999999
#
# number of rings (size 3 to 8) (size 9 to 14) (size 15 to 20)
#    0.000    0.800    2.000    3.600    5.600    9.600 
#    0.000    0.000    0.000    0.000    0.000    0.000 
#    0.000    0.000    0.000    0.000    0.000    0.000 
#
# Total GULP energy -112283.484808 kJ/mol
# GULP energy per Si atom -5614.174240 kJ/mol
# Density = 2.671635 g / cm^3
# Si number density = 26.777299 Si / 1000 Ang^3
#
#
#
# Elastic Constant Matrix: (Units=GPa)
#
#
# Indices 1 2 3 4 5 6 
#
# 1 144.3851 49.4158 25.5778 0.0000 0.0000 0.0000
# 2 49.4158 164.6969 13.5531 0.0000 0.0000 0.0000
# 3 25.5778 13.5531 70.5183 0.0000 0.0000 0.0000
# 4 0.0000 0.0000 0.0000 42.7370 0.0000 0.0000
# 5 0.0000 0.0000 0.0000 0.0000 40.6371 0.0000
# 6 0.0000 0.0000 0.0000 0.0000 0.0000 53.1713
#
#
#
# Elastic Compliance Matrix: (Units=1/GPa)
#
#
# Indices 1 2 3 4 5 6 
#
# 1 0.008137 -0.002234 -0.002522 0.000000 0.000000 0.000000
# 2 -0.002234 0.006783 -0.000493 0.000000 0.000000 0.000000
# 3 -0.002522 -0.000493 0.015190 0.000000 0.000000 0.000000
# 4 0.000000 0.000000 0.000000 0.023399 0.000000 0.000000
# 5 0.000000 0.000000 0.000000 0.000000 0.024608 0.000000
# 6 0.000000 0.000000 0.000000 0.000000 0.000000 0.018807
#
#
# Mechanical properties :
#
#
# Convention : Reuss Voigt Hill
#
# Bulk Modulus (GPa) = 50.99058 61.85486 56.42272
# Shear Modulus (GPa) = 43.87493 46.71266 45.29380
#
# Velocity S-wave (km/s) = 4.05225 4.18124 4.11725
# Velocity P-wave (km/s) = 6.40141 6.81617 6.61204
#
# Compressibility (1/GPa) = 0.01961147
#
# Stress axis : x y z
#
# Youngs Moduli (GPa) = 122.89092 147.43531 65.83133
#
# Poissons Ratio (x) = 0.32937 0.16604
# Poissons Ratio (y) = 0.27453 0.03247
# Poissons Ratio (z) = 0.30995 0.07273
#
# Static dielectric constant tensor:
#      x y z
#    x 2.103830 0.000000 0.000000 
#    y 0.000000 2.028330 0.000000 
#    z 0.000000 0.000000 2.103020 
# 
# From -- ./inp_files/2644.got.cif
#   From: 2010.05.17/outbox.cif.g08.bks.cpg/sg19_2_cif.got.tgz:2644.got - 2010.06.03 22:46:19.
