data_PCOD9315388
_publ_section_title
;
Structure prediction by ZEFSAII (Michael W. Deem and Ramdas Pophale) SiO2 
 PCOD9315388
Probable space group: P 21 21 21
;
_chemical_formula_sum "Si O2"
_cell_formula_units_Z 32
_cell_length_a 16.893368
_cell_length_b 9.539425
_cell_length_c 7.045345
_cell_angle_alpha 90.000000
_cell_angle_beta 90.000000
_cell_angle_gamma 90.000000
_cell_volume 1135.378603
_symmetry_space_group_name_H-M "P 21 21 21"
_symmetry_group_IT_number 19
_symmetry_cell_setting 'orthorhombic'
loop_
_space_group_symop_operation_xyz
x,y,z
1/2-x,-y,1/2+z
1/2+x,1/2-y,-z
-x,1/2+y,1/2-z
loop_
_atom_site_type_symbol
_atom_site_label
_atom_site_fract_x
_atom_site_fract_y
_atom_site_fract_z
Si Si1 0.545864 0.712163 0.684766
Si Si2 0.717058 0.771443 0.517500
Si Si3 0.822455 0.927048 0.040515
Si Si4 0.689611 0.462561 0.916870
Si Si5 0.031426 0.314816 0.600818
Si Si6 0.370457 0.239618 0.368971
Si Si7 0.929847 0.012651 0.357275
Si Si8 0.334751 0.873866 0.006593
O O1 0.640059 0.714392 0.634556
O O2 0.531666 0.879751 0.699999
O O3 0.493866 0.598839 0.571070
O O4 0.581665 0.329649 0.407746
O O5 0.795343 0.678213 0.538456
O O6 0.689197 0.771152 0.299915
O O7 0.728411 0.934972 0.556976
O O8 0.788044 0.776203 0.988975
O O9 0.864081 0.922538 0.246148
O O10 0.898838 0.930186 0.895493
O O11 0.781091 0.512957 0.892749
O O12 0.655755 0.419644 0.713076
O O13 0.512044 0.671452 0.895306
O O14 0.955567 0.294360 0.728587
O O15 0.888404 0.122023 0.502146
O O16 0.347164 0.094738 0.476695
#
# Coordination Sequence:
#
# PCOD9315388 Si02
#       8
#     4   4   4   4   4   4   4   4
#     4   9  19  36  67 101 134 181 242 289 359 418
#     4  11  24  40  67 105 145 187 237 310 366 427
#     4   8  20  45  66  96 135 185 243 291 360 428
#     4  12  26  45  70 103 146 193 237 302 365 449
#     4   8  20  42  70  96 136 193 241 298 346 452
#     4  11  24  40  64 108 145 182 248 299 372 424
#     4   9  19  37  65  98 130 189 230 300 340 440
#     4  10  24  49  69 101 143 192 244 295 372 436
#
# _framework density 28.184431
#
# number of rings (size 3 to 8) (size 9 to 14) (size 15 to 20)
#    0.750    1.500    1.250    0.000    8.750    4.000 
#    2.250    2.500    0.000    0.000    0.000    0.000 
#    0.000    0.000    0.000    0.000    0.000    0.000 
#
# Total GULP energy -178583.239205 kJ/mol
# GULP energy per Si atom -5580.726225 kJ/mol
# Density = 2.812028 g / cm^3
# Si number density = 28.184431 Si / 1000 Ang^3
#
#
#
# Elastic Constant Matrix: (Units=GPa)
#
#
# Indices 1 2 3 4 5 6 
#
# 1 102.2580 27.6730 11.2228 0.0000 0.0000 0.0000
# 2 27.6730 175.5631 17.8596 0.0000 0.0000 0.0000
# 3 11.2228 17.8596 44.0312 0.0000 0.0000 0.0000
# 4 0.0000 0.0000 0.0000 36.8428 0.0000 0.0000
# 5 0.0000 0.0000 0.0000 0.0000 30.2336 0.0000
# 6 0.0000 0.0000 0.0000 0.0000 0.0000 66.1974
#
#
#
# Elastic Compliance Matrix: (Units=1/GPa)
#
#
# Indices 1 2 3 4 5 6 
#
# 1 0.010393 -0.001428 -0.002070 0.000000 0.000000 0.000000
# 2 -0.001428 0.006137 -0.002125 0.000000 0.000000 0.000000
# 3 -0.002070 -0.002125 0.024101 0.000000 0.000000 0.000000
# 4 0.000000 0.000000 0.000000 0.027142 0.000000 0.000000
# 5 0.000000 0.000000 0.000000 0.000000 0.033076 0.000000
# 6 0.000000 0.000000 0.000000 0.000000 0.000000 0.015106
#
#
# Mechanical properties :
#
#
# Convention : Reuss Voigt Hill
#
# Bulk Modulus (GPa) = 34.03107 48.37368 41.20238
# Shear Modulus (GPa) = 36.49742 44.32789 40.41266
#
# Velocity S-wave (km/s) = 3.60244 3.97013 3.79075
# Velocity P-wave (km/s) = 5.42256 6.18194 5.81466
#
# Compressibility (1/GPa) = 0.02938491
#
# Stress axis : x y z
#
# Youngs Moduli (GPa) = 96.22155 162.94089 41.49231
#
# Poissons Ratio (x) = 0.23261 0.08588
# Poissons Ratio (y) = 0.13736 0.08819
# Poissons Ratio (z) = 0.19917 0.34632
#
# Static dielectric constant tensor:
#      x y z
#    x 2.369750 0.000000 0.000000 
#    y 0.000000 2.204200 0.000000 
#    z 0.000000 0.000000 2.332020 
# 
# From -- ./inp_files/5399.got.cif
#   From: 2010.05.17/outbox.cif.g08.bks.cpg/sg19_3_cif.got.tgz:5399.got - 2010.06.03 22:46:19.
