data_PCOD9315037
_publ_section_title
;
Structure prediction by ZEFSAII (Michael W. Deem and Ramdas Pophale) SiO2 
 PCOD9315037
Probable space group: P 21 21 21
;
_chemical_formula_sum "Si O2"
_cell_formula_units_Z 28
_cell_length_a 5.046612
_cell_length_b 10.940970
_cell_length_c 18.950695
_cell_angle_alpha 90.000000
_cell_angle_beta 90.000000
_cell_angle_gamma 90.000000
_cell_volume 1046.359412
_symmetry_space_group_name_H-M "P 21 21 21"
_symmetry_group_IT_number 19
_symmetry_cell_setting 'orthorhombic'
loop_
_space_group_symop_operation_xyz
x,y,z
1/2-x,-y,1/2+z
1/2+x,1/2-y,-z
-x,1/2+y,1/2-z
loop_
_atom_site_type_symbol
_atom_site_label
_atom_site_fract_x
_atom_site_fract_y
_atom_site_fract_z
Si Si1 0.827623 0.210916 0.092431
Si Si2 0.835563 0.140326 0.928668
Si Si3 0.554501 0.896084 0.930076
Si Si4 0.634022 0.077280 0.229284
Si Si5 0.770107 0.262574 0.678756
Si Si6 0.874665 0.431850 0.284992
Si Si7 0.841902 0.635127 0.923536
O O1 0.124073 0.262597 0.103858
O O2 0.694192 0.122851 0.149891
O O3 0.631874 0.327432 0.092743
O O4 0.816672 0.156129 0.013675
O O5 0.749616 0.004219 0.910218
O O6 0.341438 0.867838 0.870945
O O7 0.705629 0.766195 0.939667
O O8 0.413820 0.927052 0.003777
O O9 0.501811 0.186932 0.272231
O O10 0.920299 0.025919 0.248451
O O11 0.417888 0.968871 0.239187
O O12 0.529906 0.196809 0.720362
O O13 0.900896 0.168589 0.622860
O O14 0.840950 0.441869 0.370599
#
# Coordination Sequence:
#
# PCOD9315037 Si02
#       7
#     4   4   4   4   4   4   4
#     4  10  23  44  63 100 132 177 236 286 331 434
#     4  10  23  41  68  96 133 176 233 286 352 395
#     4  11  24  40  74 100 148 182 233 304 361 409
#     4  12  26  46  74  97 144 193 229 289 364 423
#     4  11  27  46  69 110 142 180 246 291 352 435
#     4  11  26  46  72 101 136 192 232 286 353 438
#     4  11  23  47  68 112 137 186 243 296 355 432
#
# _framework density 26.759446000000001
#
# number of rings (size 3 to 8) (size 9 to 14) (size 15 to 20)
#    0.000    1.143    2.857    1.714    6.000    4.571 
#    0.000    0.000    0.000    0.000    0.000    0.000 
#    0.000    0.000    0.000    0.000    0.000    0.000 
#
# Total GULP energy -156966.768116 kJ/mol
# GULP energy per Si atom -5605.956004 kJ/mol
# Density = 2.669854 g / cm^3
# Si number density = 26.759446 Si / 1000 Ang^3
#
#
#
# Elastic Constant Matrix: (Units=GPa)
#
#
# Indices 1 2 3 4 5 6 
#
# 1 132.0979 10.4531 19.0262 0.0000 0.0000 0.0000
# 2 10.4531 70.5133 16.4358 0.0000 0.0000 0.0000
# 3 19.0262 16.4358 81.8174 0.0000 0.0000 0.0000
# 4 0.0000 0.0000 0.0000 35.4861 0.0000 0.0000
# 5 0.0000 0.0000 0.0000 0.0000 28.9199 0.0000
# 6 0.0000 0.0000 0.0000 0.0000 0.0000 44.9736
#
#
#
# Elastic Compliance Matrix: (Units=1/GPa)
#
#
# Indices 1 2 3 4 5 6 
#
# 1 0.007873 -0.000777 -0.001675 0.000000 0.000000 0.000000
# 2 -0.000777 0.014955 -0.002824 0.000000 0.000000 0.000000
# 3 -0.001675 -0.002824 0.013179 0.000000 0.000000 0.000000
# 4 0.000000 0.000000 0.000000 0.028180 0.000000 0.000000
# 5 0.000000 0.000000 0.000000 0.000000 0.034578 0.000000
# 6 0.000000 0.000000 0.000000 0.000000 0.000000 0.022235
#
#
# Mechanical properties :
#
#
# Convention : Reuss Voigt Hill
#
# Bulk Modulus (GPa) = 39.28241 41.80655 40.54448
# Shear Modulus (GPa) = 35.70508 37.77683 36.74096
#
# Velocity S-wave (km/s) = 3.65677 3.76136 3.70943
# Velocity P-wave (km/s) = 5.70447 5.87544 5.79059
#
# Compressibility (1/GPa) = 0.02545669
#
# Stress axis : x y z
#
# Youngs Moduli (GPa) = 127.01926 66.86716 75.87827
#
# Poissons Ratio (x) = 0.05194 0.12708
# Poissons Ratio (y) = 0.09866 0.21425
# Poissons Ratio (z) = 0.21273 0.18881
#
# Static dielectric constant tensor:
#      x y z
#    x 2.059660 0.000000 0.000000 
#    y 0.000000 2.132010 0.000000 
#    z 0.000000 0.000000 2.074050 
# 
# From -- ./inp_files/6419.got.cif
#   From: 2010.05.17/outbox.cif.g08.bks.cpg/sg19_4_cif.got.tgz:6419.got - 2010.06.03 22:46:19.
