data_PCOD9315187
_publ_section_title
;
Structure prediction by ZEFSAII (Michael W. Deem and Ramdas Pophale) SiO2 
 PCOD9315187
Probable space group: P 21 21 21
;
_chemical_formula_sum "Si O2"
_cell_formula_units_Z 24
_cell_length_a 11.659829
_cell_length_b 5.021383
_cell_length_c 15.480119
_cell_angle_alpha 90.000000
_cell_angle_beta 90.000000
_cell_angle_gamma 90.000000
_cell_volume 906.337238
_symmetry_space_group_name_H-M "P 21 21 21"
_symmetry_group_IT_number 19
_symmetry_cell_setting 'orthorhombic'
loop_
_space_group_symop_operation_xyz
x,y,z
1/2-x,-y,1/2+z
1/2+x,1/2-y,-z
-x,1/2+y,1/2-z
loop_
_atom_site_type_symbol
_atom_site_label
_atom_site_fract_x
_atom_site_fract_y
_atom_site_fract_z
Si Si1 0.829379 0.628144 0.684543
Si Si2 0.773734 0.598051 0.330566
Si Si3 0.482268 0.273499 0.690465
Si Si4 0.970596 0.735879 0.001441
Si Si5 0.372533 0.755307 0.494765
Si Si6 0.405874 0.499720 0.160355
O O1 0.740976 0.418930 0.725925
O O2 0.793349 0.739240 0.590620
O O3 0.957730 0.507635 0.675732
O O4 0.847082 0.852964 0.758526
O O5 0.857546 0.341443 0.337080
O O6 0.826470 0.776622 0.408433
O O7 0.643234 0.701757 0.346620
O O8 0.473763 0.553463 0.740355
O O9 0.556558 0.279490 0.602823
O O10 0.029877 0.459996 0.978426
O O11 0.068505 0.958715 0.995554
O O12 0.882480 0.834788 0.928367
#
# Coordination Sequence:
#
# PCOD9315187 Si02
#       6
#     4   4   4   4   4   4
#     4  11  23  43  72 106 153 193 247 322 391 461
#     4  11  26  44  71 107 151 200 256 316 386 467
#     4  11  25  48  73 102 150 205 260 316 378 469
#     4  10  23  45  71 100 140 196 249 316 381 447
#     4  10  24  44  69 100 146 193 250 306 380 455
#     4  11  23  42  72 107 150 191 246 324 390 459
#
# _framework density 26.480211000000001
#
# number of rings (size 3 to 8) (size 9 to 14) (size 15 to 20)
#    0.000    1.333    1.667    3.000   11.667    1.333 
#    3.000    0.000    0.000    0.000    0.000    0.000 
#    0.000    0.000    0.000    0.000    0.000    0.000 
#
# Total GULP energy -133676.186704 kJ/mol
# GULP energy per Si atom -5569.841113 kJ/mol
# Density = 2.641994 g / cm^3
# Si number density = 26.480211 Si / 1000 Ang^3
#
#
#
# Elastic Constant Matrix: (Units=GPa)
#
#
# Indices 1 2 3 4 5 6 
#
# 1 66.0582 10.1857 62.0540 0.0000 0.0000 0.0000
# 2 10.1857 195.1565 34.5918 0.0000 0.0000 0.0000
# 3 62.0540 34.5918 252.3491 0.0000 0.0000 0.0000
# 4 0.0000 0.0000 0.0000 43.2982 0.0000 0.0000
# 5 0.0000 0.0000 0.0000 0.0000 42.9555 0.0000
# 6 0.0000 0.0000 0.0000 0.0000 0.0000 24.1326
#
#
#
# Elastic Compliance Matrix: (Units=1/GPa)
#
#
# Indices 1 2 3 4 5 6 
#
# 1 0.019691 -0.000174 -0.004818 0.000000 0.000000 0.000000
# 2 -0.000174 0.005253 -0.000677 0.000000 0.000000 0.000000
# 3 -0.004818 -0.000677 0.005240 0.000000 0.000000 0.000000
# 4 0.000000 0.000000 0.000000 0.023096 0.000000 0.000000
# 5 0.000000 0.000000 0.000000 0.000000 0.023280 0.000000
# 6 0.000000 0.000000 0.000000 0.000000 0.000000 0.041438
#
#
# Mechanical properties :
#
#
# Convention : Reuss Voigt Hill
#
# Bulk Modulus (GPa) = 53.06145 80.80297 66.93221
# Shear Modulus (GPa) = 36.86796 49.19276 43.03036
#
# Velocity S-wave (km/s) = 3.73538 4.31480 4.03550
# Velocity P-wave (km/s) = 6.21979 7.44339 6.85893
#
# Compressibility (1/GPa) = 0.01884607
#
# Stress axis : x y z
#
# Youngs Moduli (GPa) = 50.78394 190.35918 190.82184
#
# Poissons Ratio (x) = 0.03306 0.91945
# Poissons Ratio (y) = 0.00882 0.12926
# Poissons Ratio (z) = 0.24470 0.12895
#
# Static dielectric constant tensor:
#      x y z
#    x 2.080530 0.000000 0.000000 
#    y 0.000000 2.090030 0.000000 
#    z 0.000000 0.000000 2.162020 
# 
# From -- ./inp_files/5661.got.cif
#   From: 2010.05.17/outbox.cif.g08.bks.cpg/sg19_3_cif.got.tgz:5661.got - 2010.06.03 22:46:19.
