data_PCOD9315824
_publ_section_title
;
Structure prediction by ZEFSAII (Michael W. Deem and Ramdas Pophale) SiO2 
 PCOD9315824
Probable space group: P 21 21 21
;
_chemical_formula_sum "Si O2"
_cell_formula_units_Z 24
_cell_length_a 5.680587
_cell_length_b 12.385520
_cell_length_c 14.018177
_cell_angle_alpha 90.000000
_cell_angle_beta 90.000000
_cell_angle_gamma 90.000000
_cell_volume 986.277214
_symmetry_space_group_name_H-M "P 21 21 21"
_symmetry_group_IT_number 19
_symmetry_cell_setting 'orthorhombic'
loop_
_space_group_symop_operation_xyz
x,y,z
1/2-x,-y,1/2+z
1/2+x,1/2-y,-z
-x,1/2+y,1/2-z
loop_
_atom_site_type_symbol
_atom_site_label
_atom_site_fract_x
_atom_site_fract_y
_atom_site_fract_z
Si Si1 0.748510 0.915738 0.969632
Si Si2 0.040053 0.252231 0.058312
Si Si3 0.930054 0.398970 0.235865
Si Si4 0.574832 0.257285 0.621562
Si Si5 0.572418 0.594550 0.211499
Si Si6 0.291336 0.437648 0.859672
O O1 0.515252 0.867808 0.924104
O O2 0.921699 0.933881 0.882376
O O3 0.854633 0.821609 0.036671
O O4 0.709316 0.014240 0.040084
O O5 0.007751 0.348626 0.135298
O O6 0.007219 0.141178 0.118435
O O7 0.795836 0.250942 0.993924
O O8 0.726813 0.487487 0.229133
O O9 0.884458 0.301686 0.311110
O O10 0.135826 0.464870 0.289913
O O11 0.785692 0.296958 0.687167
O O12 0.414167 0.619725 0.303025
#
# Coordination Sequence:
#
# PCOD9315824 Si02
#       6
#     4   4   4   4   4   4
#     4  11  24  46  74 110 143 194 249 314 385 461
#     4  12  30  52  79 113 163 210 262 325 402 473
#     4  11  27  47  74 110 154 197 266 319 391 460
#     4  11  25  45  75 110 146 196 256 316 387 465
#     4  12  25  45  78 105 154 193 260 323 386 466
#     4  11  29  47  76 112 154 202 263 319 397 465
#
# _framework density 24.333926999999999
#
# number of rings (size 3 to 8) (size 9 to 14) (size 15 to 20)
#    0.000    0.667    1.667    4.000   14.000    1.333 
#    0.000    0.000    0.000    0.000    0.000    0.000 
#    0.000    0.000    0.000    0.000    0.000    0.000 
#
# Total GULP energy -134381.937697 kJ/mol
# GULP energy per Si atom -5599.247404 kJ/mol
# Density = 2.427854 g / cm^3
# Si number density = 24.333927 Si / 1000 Ang^3
#
#
#
# Elastic Constant Matrix: (Units=GPa)
#
#
# Indices 1 2 3 4 5 6 
#
# 1 65.5275 6.8271 50.2239 0.0000 0.0000 0.0000
# 2 6.8271 70.2269 46.5612 0.0000 0.0000 0.0000
# 3 50.2239 46.5612 116.5100 0.0000 0.0000 0.0000
# 4 0.0000 0.0000 0.0000 64.4228 0.0000 0.0000
# 5 0.0000 0.0000 0.0000 0.0000 43.5510 0.0000
# 6 0.0000 0.0000 0.0000 0.0000 0.0000 35.0633
#
#
#
# Elastic Compliance Matrix: (Units=1/GPa)
#
#
# Indices 1 2 3 4 5 6 
#
# 1 0.024704 0.006338 -0.013182 0.000000 0.000000 0.000000
# 2 0.006338 0.020999 -0.011124 0.000000 0.000000 0.000000
# 3 -0.013182 -0.011124 0.018711 0.000000 0.000000 0.000000
# 4 0.000000 0.000000 0.000000 0.015522 0.000000 0.000000
# 5 0.000000 0.000000 0.000000 0.000000 0.022962 0.000000
# 6 0.000000 0.000000 0.000000 0.000000 0.000000 0.028520
#
#
# Mechanical properties :
#
#
# Convention : Reuss Voigt Hill
#
# Bulk Modulus (GPa) = 35.11501 51.05431 43.08466
# Shear Modulus (GPa) = 28.27324 38.51755 33.39539
#
# Velocity S-wave (km/s) = 3.41234 3.98285 3.70858
# Velocity P-wave (km/s) = 5.47606 6.49439 6.00684
#
# Compressibility (1/GPa) = 0.02847785
#
# Stress axis : x y z
#
# Youngs Moduli (GPa) = 40.47946 47.62191 53.44488
#
# Poissons Ratio (x) = -0.30184 0.70451
# Poissons Ratio (y) = -0.25657 0.59452
# Poissons Ratio (z) = 0.53360 0.52975
#
# Static dielectric constant tensor:
#      x y z
#    x 1.949530 0.000000 0.000000 
#    y 0.000000 1.956260 0.000000 
#    z 0.000000 0.000000 1.920220 
# 
# From -- ./inp_files/934.got.cif
#   From: 2010.05.17/outbox.cif.g08.bks.cpg/sg19_1_cif.got.tgz:934.got - 2010.06.03 22:46:19.
