data_PCOD9315427
_publ_section_title
;
Structure prediction by ZEFSAII (Michael W. Deem and Ramdas Pophale) SiO2 
 PCOD9315427
Probable space group: P 21 21 21
;
_chemical_formula_sum "Si O2"
_cell_formula_units_Z 32
_cell_length_a 11.549318
_cell_length_b 10.810516
_cell_length_c 11.530535
_cell_angle_alpha 90.000000
_cell_angle_beta 90.000000
_cell_angle_gamma 90.000000
_cell_volume 1439.634420
_symmetry_space_group_name_H-M "P 21 21 21"
_symmetry_group_IT_number 19
_symmetry_cell_setting 'orthorhombic'
loop_
_space_group_symop_operation_xyz
x,y,z
1/2-x,-y,1/2+z
1/2+x,1/2-y,-z
-x,1/2+y,1/2-z
loop_
_atom_site_type_symbol
_atom_site_label
_atom_site_fract_x
_atom_site_fract_y
_atom_site_fract_z
Si Si1 0.226352 0.794209 0.845582
Si Si2 0.434780 0.776295 0.679929
Si Si3 0.087504 0.628051 0.668292
Si Si4 0.320359 0.209226 0.607331
Si Si5 0.245130 0.564872 0.260212
Si Si6 0.248405 0.269058 0.979585
Si Si7 0.682016 0.421626 0.190453
Si Si8 0.481693 0.559663 0.817278
O O1 0.354260 0.788393 0.792971
O O2 0.138951 0.708809 0.773339
O O3 0.185576 0.933054 0.821146
O O4 0.228050 0.766551 0.980790
O O5 0.352325 0.741764 0.573680
O O6 0.509804 0.652663 0.707776
O O7 0.481656 0.915773 0.667727
O O8 0.150118 0.495900 0.689411
O O9 0.138052 0.685882 0.548948
O O10 0.950194 0.622314 0.675293
O O11 0.322936 0.338661 0.677347
O O12 0.238417 0.123558 0.688528
O O13 0.442330 0.136608 0.590704
O O14 0.282099 0.637483 0.375475
O O15 0.155590 0.461049 0.304202
O O16 0.254585 0.138564 0.914801
#
# Coordination Sequence:
#
# PCOD9315427 Si02
#       8
#     4   4   4   4   4   4   4   4
#     4  11  25  46  70 102 145 184 240 296 359 435
#     4  11  24  46  68 106 143 186 240 298 359 435
#     4  11  27  47  72 105 147 188 244 296 370 435
#     4  11  26  44  70 105 144 185 238 296 366 427
#     4  11  25  46  70 104 144 186 240 296 358 441
#     4  10  25  46  71 101 141 191 237 292 364 432
#     4  11  26  47  71 105 143 190 239 302 363 438
#     4  12  22  44  70 102 141 184 242 294 355 431
#
# _framework density 22.227865999999999
#
# number of rings (size 3 to 8) (size 9 to 14) (size 15 to 20)
#    0.000    1.000    5.000    0.750   10.500    1.000 
#    2.250    0.000    0.000    0.000    0.000    0.000 
#    0.000    0.000    0.000    0.000    0.000    0.000 
#
# Total GULP energy -178617.389363 kJ/mol
# GULP energy per Si atom -5581.793418 kJ/mol
# Density = 2.217727 g / cm^3
# Si number density = 22.227866 Si / 1000 Ang^3
#
#
#
# Elastic Constant Matrix: (Units=GPa)
#
#
# Indices 1 2 3 4 5 6 
#
# 1 99.4391 17.3825 20.9679 0.0000 0.0000 0.0000
# 2 17.3825 112.9503 22.3694 0.0000 0.0000 0.0000
# 3 20.9679 22.3694 112.2757 0.0000 0.0000 0.0000
# 4 0.0000 0.0000 0.0000 24.8845 0.0000 0.0000
# 5 0.0000 0.0000 0.0000 0.0000 13.6420 0.0000
# 6 0.0000 0.0000 0.0000 0.0000 0.0000 34.3805
#
#
#
# Elastic Compliance Matrix: (Units=1/GPa)
#
#
# Indices 1 2 3 4 5 6 
#
# 1 0.010648 -0.001296 -0.001730 0.000000 0.000000 0.000000
# 2 -0.001296 0.009375 -0.001626 0.000000 0.000000 0.000000
# 3 -0.001730 -0.001626 0.009554 0.000000 0.000000 0.000000
# 4 0.000000 0.000000 0.000000 0.040186 0.000000 0.000000
# 5 0.000000 0.000000 0.000000 0.000000 0.073303 0.000000
# 6 0.000000 0.000000 0.000000 0.000000 0.000000 0.029086
#
#
# Mechanical properties :
#
#
# Convention : Reuss Voigt Hill
#
# Bulk Modulus (GPa) = 49.32851 49.56719 49.44785
# Shear Modulus (GPa) = 26.56565 32.17776 29.37170
#
# Velocity S-wave (km/s) = 3.46085 3.80890 3.63904
# Velocity P-wave (km/s) = 6.18145 6.45691 6.32068
#
# Compressibility (1/GPa) = 0.02027225
#
# Stress axis : x y z
#
# Youngs Moduli (GPa) = 93.91607 106.66807 104.67148
#
# Poissons Ratio (x) = 0.13824 0.18111
# Poissons Ratio (y) = 0.12171 0.17017
# Poissons Ratio (z) = 0.16250 0.17342
#
# Static dielectric constant tensor:
#      x y z
#    x 1.873910 0.000000 0.000000 
#    y 0.000000 1.900450 0.000000 
#    z 0.000000 0.000000 1.795250 
# 
# From -- ./inp_files/5051.got.cif
#   From: 2010.05.17/outbox.cif.g08.bks.cpg/sg19_3_cif.got.tgz:5051.got - 2010.06.03 22:46:19.
