data_PCOD9315488
_publ_section_title
;
Structure prediction by ZEFSAII (Michael W. Deem and Ramdas Pophale) SiO2 
 PCOD9315488
Probable space group: P 21 21 21
;
_chemical_formula_sum "Si O2"
_cell_formula_units_Z 16
_cell_length_a 10.213339
_cell_length_b 11.369411
_cell_length_c 4.992788
_cell_angle_alpha 90.000000
_cell_angle_beta 90.000000
_cell_angle_gamma 90.000000
_cell_volume 579.760789
_symmetry_space_group_name_H-M "P 21 21 21"
_symmetry_group_IT_number 19
_symmetry_cell_setting 'orthorhombic'
loop_
_space_group_symop_operation_xyz
x,y,z
1/2-x,-y,1/2+z
1/2+x,1/2-y,-z
-x,1/2+y,1/2-z
loop_
_atom_site_type_symbol
_atom_site_label
_atom_site_fract_x
_atom_site_fract_y
_atom_site_fract_z
Si Si1 0.449216 0.066343 0.163242
Si Si2 0.675496 0.036375 0.819153
Si Si3 0.558590 0.254268 0.509558
Si Si4 0.814924 0.365468 0.342402
O O1 0.550812 0.990695 0.991086
O O2 0.334769 0.103619 0.964200
O O3 0.536083 0.182281 0.233830
O O4 0.390949 0.043950 0.457523
O O5 0.636671 0.164274 0.705364
O O6 0.712213 0.968059 0.545796
O O7 0.666863 0.350974 0.437101
O O8 0.408043 0.249971 0.615172
#
# Coordination Sequence:
#
# PCOD9315488 Si02
#       4
#     4   4   4   4
#     4   9  19  29  47  74 102 130 161 201 254 290
#     4  11  18  31  50  74 106 131 168 208 250 288
#     4   9  20  32  51  77 105 130 163 208 254 299
#     4   9  19  30  50  71 109 127 164 203 256 301
#
# _framework density 27.59759
#
# number of rings (size 3 to 8) (size 9 to 14) (size 15 to 20)
#    1.500    1.000    2.500    0.000    7.000    0.000 
#    0.000    0.000    0.000    0.000    0.000   21.000 
#    0.000    0.000    0.000    0.000    0.000    0.000 
#
# Total GULP energy -89161.790236 kJ/mol
# GULP energy per Si atom -5572.611890 kJ/mol
# Density = 2.753478 g / cm^3
# Si number density = 27.597590 Si / 1000 Ang^3
#
#
#
# Elastic Constant Matrix: (Units=GPa)
#
#
# Indices 1 2 3 4 5 6 
#
# 1 132.6629 16.4323 24.0749 0.0000 0.0000 0.0000
# 2 16.4323 40.4360 3.5295 0.0000 0.0000 0.0000
# 3 24.0749 3.5295 194.9532 0.0000 0.0000 0.0000
# 4 0.0000 0.0000 0.0000 96.1419 0.0000 0.0000
# 5 0.0000 0.0000 0.0000 0.0000 8.7081 0.0000
# 6 0.0000 0.0000 0.0000 0.0000 0.0000 40.5540
#
#
#
# Elastic Compliance Matrix: (Units=1/GPa)
#
#
# Indices 1 2 3 4 5 6 
#
# 1 0.008107 -0.003212 -0.000943 0.000000 0.000000 0.000000
# 2 -0.003212 0.026042 -0.000075 0.000000 0.000000 0.000000
# 3 -0.000943 -0.000075 0.005247 0.000000 0.000000 0.000000
# 4 0.000000 0.000000 0.000000 0.010401 0.000000 0.000000
# 5 0.000000 0.000000 0.000000 0.000000 0.114836 0.000000
# 6 0.000000 0.000000 0.000000 0.000000 0.000000 0.024658
#
#
# Mechanical properties :
#
#
# Convention : Reuss Voigt Hill
#
# Bulk Modulus (GPa) = 32.32421 50.68062 41.50242
# Shear Modulus (GPa) = 24.03108 50.68182 37.35645
#
# Velocity S-wave (km/s) = 2.95408 4.29004 3.68314
# Velocity P-wave (km/s) = 4.83462 6.55311 5.75833
#
# Compressibility (1/GPa) = 0.03093656
#
# Stress axis : x y z
#
# Youngs Moduli (GPa) = 123.35173 38.39907 190.57646
#
# Poissons Ratio (x) = 0.12334 0.17971
# Poissons Ratio (y) = 0.39622 0.01426
# Poissons Ratio (z) = 0.11632 0.00287
#
# Static dielectric constant tensor:
#      x y z
#    x 2.224140 0.000000 0.000000 
#    y 0.000000 2.560620 0.000000 
#    z 0.000000 0.000000 2.016830 
# 
# From -- ./inp_files/321.got.cif
#   From: 2010.05.17/outbox.cif.g08.bks.cpg/sg19_1_cif.got.tgz:321.got - 2010.06.03 22:46:19.
