data_PCOD9315132
_publ_section_title
;
Structure prediction by ZEFSAII (Michael W. Deem and Ramdas Pophale) SiO2 
 PCOD9315132
Probable space group: P 21 21 21
;
_chemical_formula_sum "Si O2"
_cell_formula_units_Z 24
_cell_length_a 11.485085
_cell_length_b 8.811655
_cell_length_c 9.840932
_cell_angle_alpha 90.000000
_cell_angle_beta 90.000000
_cell_angle_gamma 90.000000
_cell_volume 995.927970
_symmetry_space_group_name_H-M "P 21 21 21"
_symmetry_group_IT_number 19
_symmetry_cell_setting 'orthorhombic'
loop_
_space_group_symop_operation_xyz
x,y,z
1/2-x,-y,1/2+z
1/2+x,1/2-y,-z
-x,1/2+y,1/2-z
loop_
_atom_site_type_symbol
_atom_site_label
_atom_site_fract_x
_atom_site_fract_y
_atom_site_fract_z
Si Si1 0.559147 0.085028 0.583087
Si Si2 0.772737 0.354006 0.925818
Si Si3 0.885940 0.841965 0.778126
Si Si4 0.980367 0.742974 0.510321
Si Si5 0.827226 0.310304 0.384806
Si Si6 0.690409 0.843055 0.171886
O O1 0.573573 0.161124 0.434107
O O2 0.456957 0.163387 0.667108
O O3 0.678757 0.094207 0.659634
O O4 0.520145 0.916101 0.550037
O O5 0.802404 0.298257 0.773609
O O6 0.898260 0.341015 0.003845
O O7 0.658730 0.247470 0.965082
O O8 0.728743 0.527289 0.925739
O O9 0.960094 0.747016 0.672583
O O10 0.882164 0.014170 0.725610
O O11 0.757476 0.771838 0.782025
O O12 0.839179 0.210092 0.520639
#
# Coordination Sequence:
#
# PCOD9315132 Si02
#       6
#     4   4   4   4   4   4
#     4  10  23  44  65 102 136 178 237 288 349 409
#     4  11  25  45  70 101 141 182 235 290 350 412
#     4  11  24  41  74  93 140 188 229 290 351 417
#     4  11  24  43  71 103 136 186 233 284 350 419
#     4  10  26  43  68 106 135 180 241 289 341 422
#     4  11  24  46  68  99 144 184 233 287 353 423
#
# _framework density 24.098130000000001
#
# number of rings (size 3 to 8) (size 9 to 14) (size 15 to 20)
#    0.000    1.333    1.667    2.000    9.333    5.333 
#    3.000    0.000    0.000    0.000    0.000    0.000 
#    0.000    0.000    0.000    0.000    0.000    0.000 
#
# Total GULP energy -133970.459421 kJ/mol
# GULP energy per Si atom -5582.102476 kJ/mol
# Density = 2.404328 g / cm^3
# Si number density = 24.098130 Si / 1000 Ang^3
#
#
#
# Elastic Constant Matrix: (Units=GPa)
#
#
# Indices 1 2 3 4 5 6 
#
# 1 114.9059 23.4082 13.0446 0.0000 0.0000 0.0000
# 2 23.4082 77.5198 5.5101 0.0000 0.0000 0.0000
# 3 13.0446 5.5101 51.2763 0.0000 0.0000 0.0000
# 4 0.0000 0.0000 0.0000 33.7571 0.0000 0.0000
# 5 0.0000 0.0000 0.0000 0.0000 27.3451 0.0000
# 6 0.0000 0.0000 0.0000 0.0000 0.0000 19.2916
#
#
#
# Elastic Compliance Matrix: (Units=1/GPa)
#
#
# Indices 1 2 3 4 5 6 
#
# 1 0.009497 -0.002717 -0.002124 0.000000 0.000000 0.000000
# 2 -0.002717 0.013776 -0.000789 0.000000 0.000000 0.000000
# 3 -0.002124 -0.000789 0.020127 0.000000 0.000000 0.000000
# 4 0.000000 0.000000 0.000000 0.029623 0.000000 0.000000
# 5 0.000000 0.000000 0.000000 0.000000 0.036570 0.000000
# 6 0.000000 0.000000 0.000000 0.000000 0.000000 0.051836
#
#
# Mechanical properties :
#
#
# Convention : Reuss Voigt Hill
#
# Bulk Modulus (GPa) = 31.11325 36.40308 33.75817
# Shear Modulus (GPa) = 27.26217 29.52805 28.39511
#
# Velocity S-wave (km/s) = 3.36713 3.50426 3.43638
# Velocity P-wave (km/s) = 5.29677 5.61357 5.45747
#
# Compressibility (1/GPa) = 0.03214065
#
# Stress axis : x y z
#
# Youngs Moduli (GPa) = 105.29211 72.58779 49.68357
#
# Poissons Ratio (x) = 0.19721 0.10554
# Poissons Ratio (y) = 0.28607 0.03921
# Poissons Ratio (z) = 0.22366 0.05729
#
# Static dielectric constant tensor:
#      x y z
#    x 2.076580 0.000000 0.000000 
#    y 0.000000 1.878820 0.000000 
#    z 0.000000 0.000000 1.895230 
# 
# From -- ./inp_files/3367.got.cif
#   From: 2010.05.17/outbox.cif.g08.bks.cpg/sg19_2_cif.got.tgz:3367.got - 2010.06.03 22:46:19.
