data_PCOD9315591
_publ_section_title
;
Structure prediction by ZEFSAII (Michael W. Deem and Ramdas Pophale) SiO2 
 PCOD9315591
Probable space group: P 21 21 21
;
_chemical_formula_sum "Si O2"
_cell_formula_units_Z 20
_cell_length_a 18.002097
_cell_length_b 5.190337
_cell_length_c 8.034364
_cell_angle_alpha 90.000000
_cell_angle_beta 90.000000
_cell_angle_gamma 90.000000
_cell_volume 750.706468
_symmetry_space_group_name_H-M "P 21 21 21"
_symmetry_group_IT_number 19
_symmetry_cell_setting 'orthorhombic'
loop_
_space_group_symop_operation_xyz
x,y,z
1/2-x,-y,1/2+z
1/2+x,1/2-y,-z
-x,1/2+y,1/2-z
loop_
_atom_site_type_symbol
_atom_site_label
_atom_site_fract_x
_atom_site_fract_y
_atom_site_fract_z
Si Si1 0.218388 0.985744 0.369638
Si Si2 0.368067 0.029978 0.513699
Si Si3 0.502269 0.812849 0.344352
Si Si4 0.042180 0.600201 0.192681
Si Si5 0.647330 0.018340 0.526296
O O1 0.177713 0.989576 0.188997
O O2 0.182546 0.203432 0.488609
O O3 0.305759 0.043705 0.372279
O O4 0.206712 0.708657 0.456343
O O5 0.430515 0.820441 0.466581
O O6 0.421098 0.279477 0.529515
O O7 0.520637 0.522635 0.294538
O O8 0.578121 0.942348 0.412213
O O9 0.108810 0.477721 0.294048
O O10 0.980645 0.375504 0.213088
#
# Coordination Sequence:
#
# PCOD9315591 Si02
#       5
#     4   4   4   4   4
#     4  11  28  47  77 109 150 198 241 311 378 450
#     4  11  28  50  78 110 154 194 253 303 380 443
#     4  12  29  45  77 108 152 194 253 315 364 435
#     4  11  22  42  77 107 138 189 251 306 357 433
#     4  11  25  46  73 106 148 193 254 299 377 435
#
# _framework density 26.641570000000002
#
# number of rings (size 3 to 8) (size 9 to 14) (size 15 to 20)
#    0.000    0.800    2.000    3.600    8.400    8.000 
#    0.000    0.000    0.000    0.000    0.000    0.000 
#    0.000    0.000    0.000    0.000    0.000    0.000 
#
# Total GULP energy -111752.924650 kJ/mol
# GULP energy per Si atom -5587.646233 kJ/mol
# Density = 2.658093 g / cm^3
# Si number density = 26.641570 Si / 1000 Ang^3
#
#
#
# Elastic Constant Matrix: (Units=GPa)
#
#
# Indices 1 2 3 4 5 6 
#
# 1 128.2004 29.7758 42.7888 0.0000 0.0000 0.0000
# 2 29.7758 146.9708 32.9235 0.0000 0.0000 0.0000
# 3 42.7888 32.9235 65.7979 0.0000 0.0000 0.0000
# 4 0.0000 0.0000 0.0000 43.7357 0.0000 0.0000
# 5 0.0000 0.0000 0.0000 0.0000 57.6608 0.0000
# 6 0.0000 0.0000 0.0000 0.0000 0.0000 29.4287
#
#
#
# Elastic Compliance Matrix: (Units=1/GPa)
#
#
# Indices 1 2 3 4 5 6 
#
# 1 0.010016 -0.000642 -0.006192 0.000000 0.000000 0.000000
# 2 -0.000642 0.007704 -0.003437 0.000000 0.000000 0.000000
# 3 -0.006192 -0.003437 0.020945 0.000000 0.000000 0.000000
# 4 0.000000 0.000000 0.000000 0.022865 0.000000 0.000000
# 5 0.000000 0.000000 0.000000 0.000000 0.017343 0.000000
# 6 0.000000 0.000000 0.000000 0.000000 0.000000 0.033980
#
#
# Mechanical properties :
#
#
# Convention : Reuss Voigt Hill
#
# Bulk Modulus (GPa) = 55.18245 61.32724 58.25484
# Shear Modulus (GPa) = 35.85837 41.86375 38.86106
#
# Velocity S-wave (km/s) = 3.67271 3.96835 3.82339
# Velocity P-wave (km/s) = 6.22438 6.63826 6.43465
#
# Compressibility (1/GPa) = 0.01812170
#
# Stress axis : x y z
#
# Youngs Moduli (GPa) = 99.83829 129.79952 47.74417
#
# Poissons Ratio (x) = 0.08334 0.29565
# Poissons Ratio (y) = 0.06410 0.16412
# Poissons Ratio (z) = 0.61823 0.44618
#
# Static dielectric constant tensor:
#      x y z
#    x 2.108750 0.000000 0.000000 
#    y 0.000000 2.247910 0.000000 
#    z 0.000000 0.000000 2.336070 
# 
# From -- ./inp_files/4088.got.cif
#   From: 2010.05.17/outbox.cif.g08.bks.cpg/sg19_3_cif.got.tgz:4088.got - 2010.06.03 22:46:19.
