data_PCOD9315521
_publ_section_title
;
Structure prediction by ZEFSAII (Michael W. Deem and Ramdas Pophale) SiO2 
 PCOD9315521
Probable space group: P 21 21 21
;
_chemical_formula_sum "Si O2"
_cell_formula_units_Z 24
_cell_length_a 7.355821
_cell_length_b 19.047964
_cell_length_c 8.041982
_cell_angle_alpha 90.000000
_cell_angle_beta 90.000000
_cell_angle_gamma 90.000000
_cell_volume 1126.789550
_symmetry_space_group_name_H-M "P 21 21 21"
_symmetry_group_IT_number 19
_symmetry_cell_setting 'orthorhombic'
loop_
_space_group_symop_operation_xyz
x,y,z
1/2-x,-y,1/2+z
1/2+x,1/2-y,-z
-x,1/2+y,1/2-z
loop_
_atom_site_type_symbol
_atom_site_label
_atom_site_fract_x
_atom_site_fract_y
_atom_site_fract_z
Si Si1 0.353236 0.171645 0.452645
Si Si2 0.530167 0.297995 0.314875
Si Si3 0.192172 0.032789 0.286238
Si Si4 0.795877 0.991668 0.325294
Si Si5 0.778470 0.890852 0.024819
Si Si6 0.053173 0.080292 0.924780
O O1 0.423617 0.224377 0.309081
O O2 0.264041 0.100311 0.385615
O O3 0.536308 0.150562 0.548845
O O4 0.213820 0.208534 0.578352
O O5 0.395572 0.346511 0.425566
O O6 0.569572 0.340984 0.146519
O O7 0.009414 0.998914 0.365328
O O8 0.344635 0.972266 0.295361
O O9 0.137569 0.060197 0.102777
O O10 0.726747 0.071788 0.345653
O O11 0.783229 0.957809 0.144604
O O12 0.659640 0.939265 0.420743
#
# Coordination Sequence:
#
# PCOD9315521 Si02
#       6
#     4   4   4   4   4   4
#     4  12  23  43  66  92 128 178 218 260 324 385
#     4  11  24  42  65  90 132 173 218 259 321 395
#     4  12  23  40  69  98 128 164 214 275 322 378
#     4  11  21  37  62  96 124 158 204 263 324 372
#     4  11  22  39  63  95 125 165 210 263 321 383
#     4  11  25  41  65  99 131 166 214 270 328 379
#
# _framework density 21.299453
#
# number of rings (size 3 to 8) (size 9 to 14) (size 15 to 20)
#    0.000    0.667    6.667    2.000    2.333    0.000 
#    0.000    3.333    0.000    0.000    0.000    0.000 
#    0.000    0.000    0.000    0.000    0.000    0.000 
#
# Total GULP energy -133877.153431 kJ/mol
# GULP energy per Si atom -5578.214726 kJ/mol
# Density = 2.125097 g / cm^3
# Si number density = 21.299453 Si / 1000 Ang^3
#
#
#
# Elastic Constant Matrix: (Units=GPa)
#
#
# Indices 1 2 3 4 5 6 
#
# 1 112.2316 19.1509 10.2468 0.0000 0.0000 0.0000
# 2 19.1509 42.4069 -12.4697 0.0000 0.0000 0.0000
# 3 10.2468 -12.4697 29.7865 0.0000 0.0000 0.0000
# 4 0.0000 0.0000 0.0000 26.5943 0.0000 0.0000
# 5 0.0000 0.0000 0.0000 0.0000 20.3850 0.0000
# 6 0.0000 0.0000 0.0000 0.0000 0.0000 38.9108
#
#
#
# Elastic Compliance Matrix: (Units=1/GPa)
#
#
# Indices 1 2 3 4 5 6 
#
# 1 0.010646 -0.006711 -0.006472 0.000000 0.000000 0.000000
# 2 -0.006711 0.031122 0.015337 0.000000 0.000000 0.000000
# 3 -0.006472 0.015337 0.042219 0.000000 0.000000 0.000000
# 4 0.000000 0.000000 0.000000 0.037602 0.000000 0.000000
# 5 0.000000 0.000000 0.000000 0.000000 0.049056 0.000000
# 6 0.000000 0.000000 0.000000 0.000000 0.000000 0.025700
#
#
# Mechanical properties :
#
#
# Convention : Reuss Voigt Hill
#
# Bulk Modulus (GPa) = 11.32551 24.25344 17.78948
# Shear Modulus (GPa) = 22.57672 28.34451 25.46062
#
# Velocity S-wave (km/s) = 3.25925 3.65192 3.46116
# Velocity P-wave (km/s) = 4.41502 5.40311 4.93386
#
# Compressibility (1/GPa) = 0.08829623
#
# Stress axis : x y z
#
# Youngs Moduli (GPa) = 93.93090 32.13208 23.68589
#
# Poissons Ratio (x) = 0.21563 0.15329
# Poissons Ratio (y) = 0.63035 -0.36327
# Poissons Ratio (z) = 0.60789 -0.49282
#
# Static dielectric constant tensor:
#      x y z
#    x 1.804590 0.000000 0.000000 
#    y 0.000000 1.789920 0.000000 
#    z 0.000000 0.000000 1.840660 
# 
# From -- ./inp_files/2905.got.cif
#   From: 2010.05.17/outbox.cif.g08.bks.cpg/sg19_2_cif.got.tgz:2905.got - 2010.06.03 22:46:19.
