data_PCOD9315997
_publ_section_title
;
Structure prediction by ZEFSAII (Michael W. Deem and Ramdas Pophale) SiO2 
 PCOD9315997
Probable space group: P 21 21 21
;
_chemical_formula_sum "Si O2"
_cell_formula_units_Z 32
_cell_length_a 8.724072
_cell_length_b 26.850973
_cell_length_c 5.264766
_cell_angle_alpha 90.000000
_cell_angle_beta 90.000000
_cell_angle_gamma 90.000000
_cell_volume 1233.270497
_symmetry_space_group_name_H-M "P 21 21 21"
_symmetry_group_IT_number 19
_symmetry_cell_setting 'orthorhombic'
loop_
_space_group_symop_operation_xyz
x,y,z
1/2-x,-y,1/2+z
1/2+x,1/2-y,-z
-x,1/2+y,1/2-z
loop_
_atom_site_type_symbol
_atom_site_label
_atom_site_fract_x
_atom_site_fract_y
_atom_site_fract_z
Si Si1 0.234536 0.352102 0.836501
Si Si2 0.078443 0.527882 0.755086
Si Si3 0.931453 0.213064 0.856891
Si Si4 0.504137 0.373224 0.520767
Si Si5 0.086888 0.437117 0.137069
Si Si6 0.464870 0.707598 0.017691
Si Si7 0.724205 0.300011 0.350302
Si Si8 0.653343 0.510773 0.901501
O O1 0.394387 0.378491 0.763403
O O2 0.122072 0.340977 0.604925
O O3 0.301218 0.300214 0.945160
O O4 0.137621 0.384150 0.030962
O O5 0.994039 0.574347 0.883800
O O6 0.256842 0.542245 0.763547
O O7 0.995739 0.521402 0.484461
O O8 0.060275 0.476034 0.905092
O O9 0.912624 0.170584 0.636515
O O10 0.938739 0.268503 0.752063
O O11 0.113292 0.200616 0.899755
O O12 0.671119 0.348418 0.512263
O O13 0.933354 0.439595 0.304290
O O14 0.595620 0.702067 0.810724
O O15 0.343226 0.752365 0.991381
O O16 0.746645 0.489572 0.659707
#
# Coordination Sequence:
#
# PCOD9315997 Si02
#       8
#     4   4   4   4   4   4   4   4
#     4  12  22  41  71 113 145 183 260 322 368 464
#     4  12  23  47  78 109 144 206 256 308 382 466
#     4   8  21  39  64  98 141 190 240 305 377 441
#     4   9  22  39  70 103 148 186 248 312 373 446
#     4  12  25  43  79 109 144 203 260 314 385 456
#     4   9  19  39  73 100 144 200 241 312 376 458
#     4   8  18  42  64 102 142 193 239 295 384 444
#     4  12  28  52  75 110 158 201 250 320 387 453
#
# _framework density 25.947268000000001
#
# number of rings (size 3 to 8) (size 9 to 14) (size 15 to 20)
#    1.500    0.000    3.750    2.250    0.000    1.000 
#    4.500    1.250    5.500    0.000    0.000    0.000 
#    0.000    0.000    0.000    0.000    0.000    0.000 
#
# Total GULP energy -178423.574616 kJ/mol
# GULP energy per Si atom -5575.736707 kJ/mol
# Density = 2.588821 g / cm^3
# Si number density = 25.947268 Si / 1000 Ang^3
#
#
#
# Elastic Constant Matrix: (Units=GPa)
#
#
# Indices 1 2 3 4 5 6 
#
# 1 99.0123 15.9732 16.0154 0.0000 0.0000 0.0000
# 2 15.9732 61.1005 15.2702 0.0000 0.0000 0.0000
# 3 16.0154 15.2702 69.7952 0.0000 0.0000 0.0000
# 4 0.0000 0.0000 0.0000 26.7240 0.0000 0.0000
# 5 0.0000 0.0000 0.0000 0.0000 52.9520 0.0000
# 6 0.0000 0.0000 0.0000 0.0000 0.0000 29.6485
#
#
#
# Elastic Compliance Matrix: (Units=1/GPa)
#
#
# Indices 1 2 3 4 5 6 
#
# 1 0.010794 -0.002330 -0.001967 0.000000 0.000000 0.000000
# 2 -0.002330 0.017816 -0.003363 0.000000 0.000000 0.000000
# 3 -0.001967 -0.003363 0.015515 0.000000 0.000000 0.000000
# 4 0.000000 0.000000 0.000000 0.037420 0.000000 0.000000
# 5 0.000000 0.000000 0.000000 0.000000 0.018885 0.000000
# 6 0.000000 0.000000 0.000000 0.000000 0.000000 0.033728
#
#
# Mechanical properties :
#
#
# Convention : Reuss Voigt Hill
#
# Bulk Modulus (GPa) = 34.71738 36.04730 35.38234
# Shear Modulus (GPa) = 31.43073 34.04153 32.73613
#
# Velocity S-wave (km/s) = 3.48419 3.62602 3.55581
# Velocity P-wave (km/s) = 5.44014 5.60833 5.52488
#
# Compressibility (1/GPa) = 0.02880402
#
# Stress axis : x y z
#
# Youngs Moduli (GPa) = 92.64546 56.12874 64.45458
#
# Poissons Ratio (x) = 0.13079 0.12678
# Poissons Ratio (y) = 0.21588 0.21678
# Poissons Ratio (z) = 0.18223 0.18877
#
# Static dielectric constant tensor:
#      x y z
#    x 2.099180 0.000000 0.000000 
#    y 0.000000 2.047050 0.000000 
#    z 0.000000 0.000000 2.120990 
# 
# From -- ./inp_files/737.got.cif
#   From: 2010.05.17/outbox.cif.g08.bks.cpg/sg19_1_cif.got.tgz:737.got - 2010.06.03 22:46:19.
