data_PCOD9315219
_publ_section_title
;
Structure prediction by ZEFSAII (Michael W. Deem and Ramdas Pophale) SiO2 
 PCOD9315219
Probable space group: P 21 21 21
;
_chemical_formula_sum "Si O2"
_cell_formula_units_Z 32
_cell_length_a 13.224785
_cell_length_b 5.508174
_cell_length_c 17.921969
_cell_angle_alpha 90.000000
_cell_angle_beta 90.000000
_cell_angle_gamma 90.000000
_cell_volume 1305.515381
_symmetry_space_group_name_H-M "P 21 21 21"
_symmetry_group_IT_number 19
_symmetry_cell_setting 'orthorhombic'
loop_
_space_group_symop_operation_xyz
x,y,z
1/2-x,-y,1/2+z
1/2+x,1/2-y,-z
-x,1/2+y,1/2-z
loop_
_atom_site_type_symbol
_atom_site_label
_atom_site_fract_x
_atom_site_fract_y
_atom_site_fract_z
Si Si1 0.714880 0.254354 0.917829
Si Si2 0.899652 0.079866 0.242311
Si Si3 0.133916 0.642826 0.710116
Si Si4 0.925419 0.823067 0.650248
Si Si5 0.738574 0.499632 0.061106
Si Si6 0.579498 0.886084 0.009098
Si Si7 0.707959 0.421338 0.715182
Si Si8 0.957310 0.383684 0.374545
O O1 0.788693 0.118177 0.860048
O O2 0.652113 0.482303 0.883228
O O3 0.777477 0.358056 0.988880
O O4 0.627195 0.090176 0.954941
O O5 0.828937 0.312522 0.234447
O O6 0.954628 0.151857 0.318817
O O7 0.847682 0.818917 0.246013
O O8 0.970554 0.065737 0.169862
O O9 0.123506 0.451795 0.777601
O O10 0.178854 0.878127 0.753854
O O11 0.022794 0.677354 0.677215
O O12 0.840163 0.673525 0.605840
O O13 0.964041 0.010837 0.585980
O O14 0.675476 0.727677 0.033391
O O15 0.808528 0.594354 0.126509
O O16 0.513972 0.708537 0.956769
#
# Coordination Sequence:
#
# PCOD9315219 Si02
#       8
#     4   4   4   4   4   4   4   4
#     4  10  24  47  75 103 151 199 258 314 386 469
#     4  12  27  43  76 110 151 197 260 319 387 453
#     4  12  24  47  74 113 144 204 260 315 390 462
#     4  11  25  46  77 107 157 200 260 326 387 467
#     4  10  23  49  68 104 151 197 246 316 387 455
#     4  10  23  47  74 101 147 208 239 325 388 462
#     4  12  25  45  73 111 148 200 252 324 373 469
#     4  11  25  46  71 107 149 199 255 317 392 455
#
# _framework density 24.511393999999999
#
# number of rings (size 3 to 8) (size 9 to 14) (size 15 to 20)
#    0.000    1.000    2.500    3.000    5.250    1.000 
#    9.000    0.000    0.000    0.000    0.000    0.000 
#    0.000    0.000    0.000    0.000    0.000    0.000 
#
# Total GULP energy -178797.239196 kJ/mol
# GULP energy per Si atom -5587.413725 kJ/mol
# Density = 2.445561 g / cm^3
# Si number density = 24.511394 Si / 1000 Ang^3
#
#
#
# Elastic Constant Matrix: (Units=GPa)
#
#
# Indices 1 2 3 4 5 6 
#
# 1 66.5996 32.9168 34.4622 0.0000 0.0000 0.0000
# 2 32.9168 107.0094 47.6841 0.0000 0.0000 0.0000
# 3 34.4622 47.6841 149.1652 0.0000 0.0000 0.0000
# 4 0.0000 0.0000 0.0000 60.6686 0.0000 0.0000
# 5 0.0000 0.0000 0.0000 0.0000 37.3450 0.0000
# 6 0.0000 0.0000 0.0000 0.0000 0.0000 31.5498
#
#
#
# Elastic Compliance Matrix: (Units=1/GPa)
#
#
# Indices 1 2 3 4 5 6 
#
# 1 0.018723 -0.004468 -0.002897 0.000000 0.000000 0.000000
# 2 -0.004468 0.011964 -0.002792 0.000000 0.000000 0.000000
# 3 -0.002897 -0.002792 0.008266 0.000000 0.000000 0.000000
# 4 0.000000 0.000000 0.000000 0.016483 0.000000 0.000000
# 5 0.000000 0.000000 0.000000 0.000000 0.026777 0.000000
# 6 0.000000 0.000000 0.000000 0.000000 0.000000 0.031696
#
#
# Mechanical properties :
#
#
# Convention : Reuss Voigt Hill
#
# Bulk Modulus (GPa) = 53.65640 61.43337 57.54488
# Shear Modulus (GPa) = 35.60340 39.76007 37.68174
#
# Velocity S-wave (km/s) = 3.81533 4.03191 3.92511
# Velocity P-wave (km/s) = 6.43016 6.84051 6.63851
#
# Compressibility (1/GPa) = 0.01863711
#
# Stress axis : x y z
#
# Youngs Moduli (GPa) = 53.41112 83.58671 120.97886
#
# Poissons Ratio (x) = 0.37348 0.35050
# Poissons Ratio (y) = 0.23865 0.33779
# Poissons Ratio (z) = 0.15474 0.23339
#
# Static dielectric constant tensor:
#      x y z
#    x 2.040010 0.000000 0.000000 
#    y 0.000000 1.959260 0.000000 
#    z 0.000000 0.000000 2.033170 
# 
# From -- ./inp_files/6789.got.cif
#   From: 2010.05.17/outbox.cif.g08.bks.cpg/sg19_4_cif.got.tgz:6789.got - 2010.06.03 22:46:19.
