data_PCOD9315125
_publ_section_title
;
Structure prediction by ZEFSAII (Michael W. Deem and Ramdas Pophale) SiO2 
 PCOD9315125
Probable space group: P 21 21 21
;
_chemical_formula_sum "Si O2"
_cell_formula_units_Z 24
_cell_length_a 5.597819
_cell_length_b 26.906816
_cell_length_c 7.427649
_cell_angle_alpha 90.000000
_cell_angle_beta 90.000000
_cell_angle_gamma 90.000000
_cell_volume 1118.748673
_symmetry_space_group_name_H-M "P 21 21 21"
_symmetry_group_IT_number 19
_symmetry_cell_setting 'orthorhombic'
loop_
_space_group_symop_operation_xyz
x,y,z
1/2-x,-y,1/2+z
1/2+x,1/2-y,-z
-x,1/2+y,1/2-z
loop_
_atom_site_type_symbol
_atom_site_label
_atom_site_fract_x
_atom_site_fract_y
_atom_site_fract_z
Si Si1 0.049535 0.520129 0.231150
Si Si2 0.154689 0.785820 0.681263
Si Si3 0.426918 0.646919 0.035524
Si Si4 0.565308 0.540633 0.057113
Si Si5 0.949141 0.129058 0.174733
Si Si6 0.839520 0.820726 0.361723
O O1 0.327963 0.523903 0.170510
O O2 0.986861 0.570950 0.342035
O O3 0.827435 0.517704 0.091897
O O4 0.016378 0.472924 0.357380
O O5 0.002212 0.804968 0.851004
O O6 0.374969 0.824023 0.680296
O O7 0.187125 0.727242 0.696510
O O8 0.040332 0.795987 0.486690
O O9 0.592741 0.599808 0.080170
O O10 0.180539 0.631269 0.130708
O O11 0.420106 0.654886 0.823756
O O12 0.784639 0.141715 0.001480
#
# Coordination Sequence:
#
# PCOD9315125 Si02
#       6
#     4   4   4   4   4   4
#     4  11  24  44  70  97 138 170 223 281 335 402
#     4  11  22  41  60  94 130 163 217 274 318 396
#     4  10  25  41  64  93 130 168 221 270 334 395
#     4  11  24  45  68 102 130 178 220 277 341 401
#     4  10  23  44  61  92 133 164 217 279 322 393
#     4  11  24  39  65  94 125 177 216 265 340 395
#
# _framework density 21.452539999999999
#
# number of rings (size 3 to 8) (size 9 to 14) (size 15 to 20)
#    0.000    1.333    3.333    1.000    4.667    2.667 
#    0.000    0.000    0.000    0.000    0.000    0.000 
#    0.000    0.000    0.000    0.000    0.000    0.000 
#
# Total GULP energy -133697.506373 kJ/mol
# GULP energy per Si atom -5570.729432 kJ/mol
# Density = 2.140371 g / cm^3
# Si number density = 21.452540 Si / 1000 Ang^3
#
#
#
# Elastic Constant Matrix: (Units=GPa)
#
#
# Indices 1 2 3 4 5 6 
#
# 1 39.0946 -2.5162 -3.7975 0.0000 0.0000 0.0000
# 2 -2.5162 18.3119 1.1678 0.0000 0.0000 0.0000
# 3 -3.7975 1.1678 58.1466 0.0000 0.0000 0.0000
# 4 0.0000 0.0000 0.0000 26.4416 0.0000 0.0000
# 5 0.0000 0.0000 0.0000 0.0000 6.9157 0.0000
# 6 0.0000 0.0000 0.0000 0.0000 0.0000 27.4803
#
#
#
# Elastic Compliance Matrix: (Units=1/GPa)
#
#
# Indices 1 2 3 4 5 6 
#
# 1 0.025960 0.003463 0.001626 0.000000 0.000000 0.000000
# 2 0.003463 0.055141 -0.000881 0.000000 0.000000 0.000000
# 3 0.001626 -0.000881 0.017322 0.000000 0.000000 0.000000
# 4 0.000000 0.000000 0.000000 0.037819 0.000000 0.000000
# 5 0.000000 0.000000 0.000000 0.000000 0.144599 0.000000
# 6 0.000000 0.000000 0.000000 0.000000 0.000000 0.036390
#
#
# Mechanical properties :
#
#
# Convention : Reuss Voigt Hill
#
# Bulk Modulus (GPa) = 9.35989 11.69571 10.52780
# Shear Modulus (GPa) = 14.51684 20.21413 17.36549
#
# Velocity S-wave (km/s) = 2.60416 3.07298 2.84823
# Velocity P-wave (km/s) = 3.66261 4.24908 3.96670
#
# Compressibility (1/GPa) = 0.10683885
#
# Stress axis : x y z
#
# Youngs Moduli (GPa) = 38.52112 18.13523 57.73078
#
# Poissons Ratio (x) = -0.06281 -0.09386
# Poissons Ratio (y) = -0.13341 0.05087
# Poissons Ratio (z) = -0.06263 0.01598
#
# Static dielectric constant tensor:
#      x y z
#    x 1.870770 0.000000 0.000000 
#    y 0.000000 1.842380 0.000000 
#    z 0.000000 0.000000 1.767100 
# 
# From -- ./inp_files/193.got.cif
#   From: 2010.05.17/outbox.cif.g08.bks.cpg/sg19_1_cif.got.tgz:193.got - 2010.06.03 22:46:19.
