data_PCOD9315038
_publ_section_title
;
Structure prediction by ZEFSAII (Michael W. Deem and Ramdas Pophale) SiO2 
 PCOD9315038
Probable space group: P 21 21 21
;
_chemical_formula_sum "Si O2"
_cell_formula_units_Z 32
_cell_length_a 11.821857
_cell_length_b 5.431150
_cell_length_c 20.445347
_cell_angle_alpha 90.000000
_cell_angle_beta 90.000000
_cell_angle_gamma 90.000000
_cell_volume 1312.719646
_symmetry_space_group_name_H-M "P 21 21 21"
_symmetry_group_IT_number 19
_symmetry_cell_setting 'orthorhombic'
loop_
_space_group_symop_operation_xyz
x,y,z
1/2-x,-y,1/2+z
1/2+x,1/2-y,-z
-x,1/2+y,1/2-z
loop_
_atom_site_type_symbol
_atom_site_label
_atom_site_fract_x
_atom_site_fract_y
_atom_site_fract_z
Si Si1 0.201006 0.301299 0.107174
Si Si2 0.282987 0.034054 0.494754
Si Si3 0.622441 0.252913 0.203499
Si Si4 0.002059 0.889055 0.294297
Si Si5 0.865850 0.926450 0.989406
Si Si6 0.305032 0.324066 0.885481
Si Si7 0.604142 0.511287 0.323421
Si Si8 0.446285 0.150969 0.401075
O O1 0.104161 0.395121 0.155319
O O2 0.259226 0.485938 0.055295
O O3 0.305829 0.197966 0.148769
O O4 0.163298 0.074605 0.060088
O O5 0.158324 0.135575 0.509214
O O6 0.352853 0.235315 0.453344
O O7 0.263367 0.827945 0.440221
O O8 0.709596 0.078125 0.164902
O O9 0.667731 0.330389 0.273686
O O10 0.604450 0.493180 0.157977
O O11 0.497538 0.148553 0.213628
O O12 0.990591 0.644930 0.247080
O O13 0.111770 0.836909 0.340143
O O14 0.974139 0.013266 0.948871
O O15 0.872491 0.999448 0.065533
O O16 0.531413 0.352534 0.373975
#
# Coordination Sequence:
#
# PCOD9315038 Si02
#       8
#     4   4   4   4   4   4   4   4
#     4  11  25  44  69 102 139 182 247 291 369 431
#     4  10  23  41  69 102 136 189 230 308 363 430
#     4  11  23  40  64  95 132 174 219 283 348 415
#     4  12  30  51  76 106 149 204 249 306 364 446
#     4  11  22  41  69  96 137 182 228 309 354 425
#     4  10  25  45  66 101 138 182 247 288 363 430
#     4  12  22  39  65  98 132 175 223 289 350 430
#     4  11  22  39  64  96 133 168 231 280 363 419
#
# _framework density 24.376873
#
# number of rings (size 3 to 8) (size 9 to 14) (size 15 to 20)
#    0.000    1.000    3.750    2.250    3.500    3.000 
#    0.000    0.000    0.000    0.000    0.000    0.000 
#    0.000    0.000    0.000    0.000    0.000    0.000 
#
# Total GULP energy -178557.029432 kJ/mol
# GULP energy per Si atom -5579.907170 kJ/mol
# Density = 2.432139 g / cm^3
# Si number density = 24.376873 Si / 1000 Ang^3
#
#
#
# Elastic Constant Matrix: (Units=GPa)
#
#
# Indices 1 2 3 4 5 6 
#
# 1 53.3286 -16.3966 9.8243 0.0000 0.0000 0.0000
# 2 -16.3966 36.2724 8.8592 0.0000 0.0000 0.0000
# 3 9.8243 8.8592 86.8148 0.0000 0.0000 0.0000
# 4 0.0000 0.0000 0.0000 37.2643 0.0000 0.0000
# 5 0.0000 0.0000 0.0000 0.0000 44.1251 0.0000
# 6 0.0000 0.0000 0.0000 0.0000 0.0000 23.2515
#
#
#
# Elastic Compliance Matrix: (Units=1/GPa)
#
#
# Indices 1 2 3 4 5 6 
#
# 1 0.022906 0.011268 -0.003742 0.000000 0.000000 0.000000
# 2 0.011268 0.033817 -0.004726 0.000000 0.000000 0.000000
# 3 -0.003742 -0.004726 0.012425 0.000000 0.000000 0.000000
# 4 0.000000 0.000000 0.000000 0.026835 0.000000 0.000000
# 5 0.000000 0.000000 0.000000 0.000000 0.022663 0.000000
# 6 0.000000 0.000000 0.000000 0.000000 0.000000 0.043008
#
#
# Mechanical properties :
#
#
# Convention : Reuss Voigt Hill
#
# Bulk Modulus (GPa) = 13.37839 20.10996 16.74417
# Shear Modulus (GPa) = 27.62906 32.53678 30.08292
#
# Velocity S-wave (km/s) = 3.37027 3.65737 3.51675
# Velocity P-wave (km/s) = 4.54368 5.10908 4.83465
#
# Compressibility (1/GPa) = 0.07474741
#
# Stress axis : x y z
#
# Youngs Moduli (GPa) = 43.65753 29.57084 80.48611
#
# Poissons Ratio (x) = -0.33321 0.30118
# Poissons Ratio (y) = -0.49194 0.38038
# Poissons Ratio (z) = 0.16336 0.13975
#
# Static dielectric constant tensor:
#      x y z
#    x 2.053560 0.000000 0.000000 
#    y 0.000000 2.081770 0.000000 
#    z 0.000000 0.000000 1.989420 
# 
# From -- ./inp_files/6911.got.cif
#   From: 2010.05.17/outbox.cif.g08.bks.cpg/sg19_4_cif.got.tgz:6911.got - 2010.06.03 22:46:19.
