data_PCOD9315442
_publ_section_title
;
Structure prediction by ZEFSAII (Michael W. Deem and Ramdas Pophale) SiO2 
 PCOD9315442
Probable space group: P 21 21 21
;
_chemical_formula_sum "Si O2"
_cell_formula_units_Z 24
_cell_length_a 14.998962
_cell_length_b 4.983952
_cell_length_c 10.169024
_cell_angle_alpha 90.000000
_cell_angle_beta 90.000000
_cell_angle_gamma 90.000000
_cell_volume 760.176305
_symmetry_space_group_name_H-M "P 21 21 21"
_symmetry_group_IT_number 19
_symmetry_cell_setting 'orthorhombic'
loop_
_space_group_symop_operation_xyz
x,y,z
1/2-x,-y,1/2+z
1/2+x,1/2-y,-z
-x,1/2+y,1/2-z
loop_
_atom_site_type_symbol
_atom_site_label
_atom_site_fract_x
_atom_site_fract_y
_atom_site_fract_z
Si Si1 0.776941 0.385623 0.485574
Si Si2 0.116721 0.150831 0.615643
Si Si3 0.302017 0.208043 0.265960
Si Si4 0.539856 0.638734 0.117537
Si Si5 0.643407 0.872842 0.743358
Si Si6 0.493537 0.649270 0.567693
O O1 0.688939 0.188728 0.474031
O O2 0.762389 0.523943 0.631510
O O3 0.859123 0.207654 0.587340
O O4 0.840452 0.345105 0.357801
O O5 0.062188 0.400264 0.682880
O O6 0.205254 0.918564 0.612151
O O7 0.020666 0.107788 0.528076
O O8 0.406230 0.060981 0.242191
O O9 0.232437 0.449640 0.260986
O O10 0.546102 0.377866 0.024048
O O11 0.569141 0.067342 0.814169
O O12 0.586571 0.749627 0.625005
#
# Coordination Sequence:
#
# PCOD9315442 Si02
#       6
#     4   4   4   4   4   4
#     4  10  25  48  70 110 153 184 263 305 379 451
#     4  12  26  46  78 107 150 205 246 319 377 457
#     4  10  27  44  74 107 152 192 251 315 379 443
#     4  10  25  49  68 108 150 188 261 300 380 457
#     4  12  26  47  81 111 149 204 253 321 378 461
#     4  12  27  48  81 105 152 201 256 314 387 455
#
# _framework density 31.571625000000001
#
# number of rings (size 3 to 8) (size 9 to 14) (size 15 to 20)
#    1.000    0.000    1.667    3.000   11.667    0.000 
#    6.000    0.000    0.000    0.000    0.000    0.000 
#    0.000    0.000    0.000    0.000    0.000    0.000 
#
# Total GULP energy -133617.020702 kJ/mol
# GULP energy per Si atom -5567.375863 kJ/mol
# Density = 3.149977 g / cm^3
# Si number density = 31.571625 Si / 1000 Ang^3
#
#
#
# Elastic Constant Matrix: (Units=GPa)
#
#
# Indices 1 2 3 4 5 6 
#
# 1 194.9278 16.4341 24.3799 0.0000 0.0000 0.0000
# 2 16.4341 128.9900 32.3391 0.0000 0.0000 0.0000
# 3 24.3799 32.3391 181.6362 0.0000 0.0000 0.0000
# 4 0.0000 0.0000 0.0000 57.5149 0.0000 0.0000
# 5 0.0000 0.0000 0.0000 0.0000 94.5329 0.0000
# 6 0.0000 0.0000 0.0000 0.0000 0.0000 52.1900
#
#
#
# Elastic Compliance Matrix: (Units=1/GPa)
#
#
# Indices 1 2 3 4 5 6 
#
# 1 0.005250 -0.000515 -0.000613 0.000000 0.000000 0.000000
# 2 -0.000515 0.008165 -0.001385 0.000000 0.000000 0.000000
# 3 -0.000613 -0.001385 0.005834 0.000000 0.000000 0.000000
# 4 0.000000 0.000000 0.000000 0.017387 0.000000 0.000000
# 5 0.000000 0.000000 0.000000 0.000000 0.010578 0.000000
# 6 0.000000 0.000000 0.000000 0.000000 0.000000 0.019161
#
#
# Mechanical properties :
#
#
# Convention : Reuss Voigt Hill
#
# Bulk Modulus (GPa) = 70.30277 72.42891 71.36584
# Shear Modulus (GPa) = 65.66613 69.67430 67.67022
#
# Velocity S-wave (km/s) = 4.56555 4.70282 4.63470
# Velocity P-wave (km/s) = 7.07873 7.24429 7.16199
#
# Compressibility (1/GPa) = 0.01422419
#
# Stress axis : x y z
#
# Youngs Moduli (GPa) = 190.46868 122.46913 171.39995
#
# Poissons Ratio (x) = 0.06310 0.10506
# Poissons Ratio (y) = 0.09813 0.23732
# Poissons Ratio (z) = 0.11675 0.16957
#
# Static dielectric constant tensor:
#      x y z
#    x 2.508760 0.000000 0.000000 
#    y 0.000000 2.363580 0.000000 
#    z 0.000000 0.000000 2.535990 
# 
# From -- ./inp_files/5327.got.cif
#   From: 2010.05.17/outbox.cif.g08.bks.cpg/sg19_3_cif.got.tgz:5327.got - 2010.06.03 22:46:19.
