data_PCOD9315737
_publ_section_title
;
Structure prediction by ZEFSAII (Michael W. Deem and Ramdas Pophale) SiO2 
 PCOD9315737
Probable space group: P 21 21 21
;
_chemical_formula_sum "Si O2"
_cell_formula_units_Z 28
_cell_length_a 12.360724
_cell_length_b 9.397936
_cell_length_c 11.066446
_cell_angle_alpha 90.000000
_cell_angle_beta 90.000000
_cell_angle_gamma 90.000000
_cell_volume 1285.536943
_symmetry_space_group_name_H-M "P 21 21 21"
_symmetry_group_IT_number 19
_symmetry_cell_setting 'orthorhombic'
loop_
_space_group_symop_operation_xyz
x,y,z
1/2-x,-y,1/2+z
1/2+x,1/2-y,-z
-x,1/2+y,1/2-z
loop_
_atom_site_type_symbol
_atom_site_label
_atom_site_fract_x
_atom_site_fract_y
_atom_site_fract_z
Si Si1 0.233505 0.065693 0.858582
Si Si2 0.521766 0.616066 0.557729
Si Si3 0.024726 0.581572 0.386467
Si Si4 0.110462 0.529063 0.653421
Si Si5 0.182756 0.907416 0.105897
Si Si6 0.534747 0.230305 0.195033
Si Si7 0.158125 0.577975 0.156586
O O1 0.354867 0.109461 0.897461
O O2 0.243404 0.027147 0.714995
O O3 0.141228 0.187298 0.855167
O O4 0.203228 0.958605 0.968215
O O5 0.474168 0.760292 0.618202
O O6 0.515183 0.640693 0.414955
O O7 0.447581 0.482956 0.590481
O O8 0.065635 0.557469 0.520855
O O9 0.123923 0.579095 0.295860
O O10 0.936578 0.462684 0.359786
O O11 0.070299 0.377549 0.701968
O O12 0.239008 0.523791 0.645079
O O13 0.054342 0.652765 0.732196
O O14 0.187787 0.737102 0.115532
#
# Coordination Sequence:
#
# PCOD9315737 Si02
#       7
#     4   4   4   4   4   4   4
#     4  12  25  50  72 107 150 197 246 309 370 445
#     4  11  25  44  78  97 144 194 244 305 378 431
#     4  11  23  49  69 109 146 195 242 306 375 444
#     4  11  26  46  73 102 150 191 246 310 374 446
#     4  12  26  47  78 105 158 192 252 306 377 445
#     4  11  26  48  69 107 150 190 248 310 376 440
#     4  12  25  46  73 111 140 193 250 310 360 453
#
# _framework density 21.780781000000001
#
# number of rings (size 3 to 8) (size 9 to 14) (size 15 to 20)
#    0.000    0.571    7.143    0.000    8.000    2.286 
#    2.571    0.000    0.000    0.000    0.000    0.000 
#    0.000    0.000    0.000    0.000    0.000    0.000 
#
# Total GULP energy -156395.830130 kJ/mol
# GULP energy per Si atom -5585.565362 kJ/mol
# Density = 2.173121 g / cm^3
# Si number density = 21.780781 Si / 1000 Ang^3
#
#
#
# Elastic Constant Matrix: (Units=GPa)
#
#
# Indices 1 2 3 4 5 6 
#
# 1 78.7878 38.7439 15.9960 0.0000 0.0000 0.0000
# 2 38.7439 69.2997 38.9531 0.0000 0.0000 0.0000
# 3 15.9960 38.9531 83.8247 0.0000 0.0000 0.0000
# 4 0.0000 0.0000 0.0000 29.2637 0.0000 0.0000
# 5 0.0000 0.0000 0.0000 0.0000 33.9595 0.0000
# 6 0.0000 0.0000 0.0000 0.0000 0.0000 26.6570
#
#
#
# Elastic Compliance Matrix: (Units=1/GPa)
#
#
# Indices 1 2 3 4 5 6 
#
# 1 0.017672 -0.010807 0.001650 0.000000 0.000000 0.000000
# 2 -0.010807 0.026141 -0.010085 0.000000 0.000000 0.000000
# 3 0.001650 -0.010085 0.016301 0.000000 0.000000 0.000000
# 4 0.000000 0.000000 0.000000 0.034172 0.000000 0.000000
# 5 0.000000 0.000000 0.000000 0.000000 0.029447 0.000000
# 6 0.000000 0.000000 0.000000 0.000000 0.000000 0.037514
#
#
# Mechanical properties :
#
#
# Convention : Reuss Voigt Hill
#
# Bulk Modulus (GPa) = 46.23468 46.58870 46.41169
# Shear Modulus (GPa) = 24.16133 27.19067 25.67600
#
# Velocity S-wave (km/s) = 3.33422 3.53707 3.43715
# Velocity P-wave (km/s) = 6.00800 6.17393 6.09153
#
# Compressibility (1/GPa) = 0.02162879
#
# Stress axis : x y z
#
# Youngs Moduli (GPa) = 56.58716 38.25379 61.34412
#
# Poissons Ratio (x) = 0.41342 -0.10121
# Poissons Ratio (y) = 0.61156 0.61868
# Poissons Ratio (z) = -0.09336 0.38581
#
# Static dielectric constant tensor:
#      x y z
#    x 1.803400 0.000000 0.000000 
#    y 0.000000 1.827490 0.000000 
#    z 0.000000 0.000000 1.825250 
# 
# From -- ./inp_files/4937.got.cif
#   From: 2010.05.17/outbox.cif.g08.bks.cpg/sg19_3_cif.got.tgz:4937.got - 2010.06.03 22:46:19.
