data_PCOD9315199
_publ_section_title
;
Structure prediction by ZEFSAII (Michael W. Deem and Ramdas Pophale) SiO2 
 PCOD9315199
Probable space group: P 21 21 21
;
_chemical_formula_sum "Si O2"
_cell_formula_units_Z 28
_cell_length_a 11.006760
_cell_length_b 5.541931
_cell_length_c 17.627467
_cell_angle_alpha 90.000000
_cell_angle_beta 90.000000
_cell_angle_gamma 90.000000
_cell_volume 1075.252650
_symmetry_space_group_name_H-M "P 21 21 21"
_symmetry_group_IT_number 19
_symmetry_cell_setting 'orthorhombic'
loop_
_space_group_symop_operation_xyz
x,y,z
1/2-x,-y,1/2+z
1/2+x,1/2-y,-z
-x,1/2+y,1/2-z
loop_
_atom_site_type_symbol
_atom_site_label
_atom_site_fract_x
_atom_site_fract_y
_atom_site_fract_z
Si Si1 0.011990 0.376437 0.034700
Si Si2 0.966201 0.135361 0.178439
Si Si3 0.246972 0.633192 0.881203
Si Si4 0.187373 0.821397 0.194368
Si Si5 0.660920 0.634640 0.971678
Si Si6 0.109151 0.951430 0.774299
Si Si7 0.518965 0.205386 0.121352
O O1 0.062183 0.647230 0.026841
O O2 0.956186 0.353797 0.118559
O O3 0.103285 0.135979 0.031796
O O4 0.941834 0.327066 0.955188
O O5 0.906010 0.153012 0.260862
O O6 0.883866 0.944273 0.133069
O O7 0.104959 0.062621 0.190341
O O8 0.150619 0.414639 0.896006
O O9 0.195523 0.742872 0.803400
O O10 0.236604 0.815550 0.952131
O O11 0.226239 0.794314 0.107638
O O12 0.300644 0.836604 0.249675
O O13 0.034280 0.022032 0.849134
O O14 0.036116 0.906301 0.697910
#
# Coordination Sequence:
#
# PCOD9315199 Si02
#       7
#     4   4   4   4   4   4   4
#     4  10  23  46  72 102 143 189 236 296 353 429
#     4  11  23  45  70 109 143 189 232 302 362 438
#     4  11  23  44  71  99 145 188 234 300 362 424
#     4  11  24  44  70 111 139 188 241 293 367 435
#     4  10  23  46  70 101 145 185 240 291 352 430
#     4  12  23  44  72 100 143 187 240 304 356 428
#     4  11  23  45  69 100 140 186 245 294 360 422
#
# _framework density 26.040391
#
# number of rings (size 3 to 8) (size 9 to 14) (size 15 to 20)
#    0.000    1.143    4.286    1.714    0.000    2.286 
#   28.286    0.000    0.000    0.000    0.000    0.000 
#    0.000    0.000    0.000    0.000    0.000    0.000 
#
# Total GULP energy -156195.503675 kJ/mol
# GULP energy per Si atom -5578.410846 kJ/mol
# Density = 2.598112 g / cm^3
# Si number density = 26.040391 Si / 1000 Ang^3
#
#
#
# Elastic Constant Matrix: (Units=GPa)
#
#
# Indices 1 2 3 4 5 6 
#
# 1 39.6060 7.9407 33.7386 0.0000 0.0000 0.0000
# 2 7.9407 67.2590 32.1206 0.0000 0.0000 0.0000
# 3 33.7386 32.1206 160.9278 0.0000 0.0000 0.0000
# 4 0.0000 0.0000 0.0000 52.0944 0.0000 0.0000
# 5 0.0000 0.0000 0.0000 0.0000 33.2995 0.0000
# 6 0.0000 0.0000 0.0000 0.0000 0.0000 32.1179
#
#
#
# Elastic Compliance Matrix: (Units=1/GPa)
#
#
# Indices 1 2 3 4 5 6 
#
# 1 0.030761 -0.000610 -0.006327 0.000000 0.000000 0.000000
# 2 -0.000610 0.016447 -0.003155 0.000000 0.000000 0.000000
# 3 -0.006327 -0.003155 0.008170 0.000000 0.000000 0.000000
# 4 0.000000 0.000000 0.000000 0.019196 0.000000 0.000000
# 5 0.000000 0.000000 0.000000 0.000000 0.030030 0.000000
# 6 0.000000 0.000000 0.000000 0.000000 0.000000 0.031135
#
#
# Mechanical properties :
#
#
# Convention : Reuss Voigt Hill
#
# Bulk Modulus (GPa) = 28.41435 46.15474 37.28455
# Shear Modulus (GPa) = 29.82322 36.43522 33.12922
#
# Velocity S-wave (km/s) = 3.38785 3.74462 3.57069
# Velocity P-wave (km/s) = 5.12237 6.03813 5.59901
#
# Compressibility (1/GPa) = 0.03519348
#
# Stress axis : x y z
#
# Youngs Moduli (GPa) = 32.50877 60.80309 122.39653
#
# Poissons Ratio (x) = 0.03709 0.77444
# Poissons Ratio (y) = 0.01983 0.38613
# Poissons Ratio (z) = 0.20569 0.19182
#
# Static dielectric constant tensor:
#      x y z
#    x 2.052940 0.000000 0.000000 
#    y 0.000000 2.148810 0.000000 
#    z 0.000000 0.000000 2.160960 
# 
# From -- ./inp_files/1022.got.cif
#   From: 2010.05.17/outbox.cif.g08.bks.cpg/sg19_1_cif.got.tgz:1022.got - 2010.06.03 22:46:19.
