data_PCOD9315207
_publ_section_title
;
Structure prediction by ZEFSAII (Michael W. Deem and Ramdas Pophale) SiO2 
 PCOD9315207
Probable space group: P 21 21 21
;
_chemical_formula_sum "Si O2"
_cell_formula_units_Z 20
_cell_length_a 4.922769
_cell_length_b 12.383255
_cell_length_c 13.149981
_cell_angle_alpha 90.000000
_cell_angle_beta 90.000000
_cell_angle_gamma 90.000000
_cell_volume 801.621577
_symmetry_space_group_name_H-M "P 21 21 21"
_symmetry_group_IT_number 19
_symmetry_cell_setting 'orthorhombic'
loop_
_space_group_symop_operation_xyz
x,y,z
1/2-x,-y,1/2+z
1/2+x,1/2-y,-z
-x,1/2+y,1/2-z
loop_
_atom_site_type_symbol
_atom_site_label
_atom_site_fract_x
_atom_site_fract_y
_atom_site_fract_z
Si Si1 0.908928 0.997037 0.584961
Si Si2 0.865765 0.189072 0.967312
Si Si3 0.146838 0.185746 0.460972
Si Si4 0.855466 0.433136 0.720563
Si Si5 0.338707 0.571651 0.717460
O O1 0.083188 0.069084 0.509848
O O2 0.755388 0.075686 0.665144
O O3 0.700696 0.921142 0.527063
O O4 0.091854 0.921924 0.659286
O O5 0.752187 0.168532 0.854027
O O6 0.676607 0.277792 0.022677
O O7 0.880198 0.256921 0.474227
O O8 0.241902 0.163181 0.346152
O O9 0.648020 0.534141 0.710878
O O10 0.150186 0.470222 0.680456
#
# Coordination Sequence:
#
# PCOD9315207 Si02
#       5
#     4   4   4   4   4
#     4  10  28  48  76  96 156 190 226 306 360 406
#     4  12  27  46  75 109 143 188 243 294 354 426
#     4  12  27  46  75 109 143 188 243 294 354 426
#     4  10  23  46  73  98 139 192 234 280 364 416
#     4  10  23  46  73  98 139 192 234 280 364 416
#
# _framework density 24.949432000000002
#
# number of rings (size 3 to 8) (size 9 to 14) (size 15 to 20)
#    1.200    0.000    2.000    2.400    5.600    1.600 
#    0.000    0.000    0.000    0.000    0.000    0.000 
#    0.000    0.000    0.000    0.000    0.000    0.000 
#
# Total GULP energy -111907.585493 kJ/mol
# GULP energy per Si atom -5595.379275 kJ/mol
# Density = 2.489265 g / cm^3
# Si number density = 24.949432 Si / 1000 Ang^3
#
#
#
# Elastic Constant Matrix: (Units=GPa)
#
#
# Indices 1 2 3 4 5 6 
#
# 1 74.3823 8.6879 -5.0836 0.0000 0.0000 0.0000
# 2 8.6879 66.4933 23.0844 0.0000 0.0000 0.0000
# 3 -5.0836 23.0844 114.6647 0.0000 0.0000 0.0000
# 4 0.0000 0.0000 0.0000 36.1542 0.0000 0.0000
# 5 0.0000 0.0000 0.0000 0.0000 32.1185 0.0000
# 6 0.0000 0.0000 0.0000 0.0000 0.0000 47.7268
#
#
#
# Elastic Compliance Matrix: (Units=1/GPa)
#
#
# Indices 1 2 3 4 5 6 
#
# 1 0.013768 -0.002162 0.001046 0.000000 0.000000 0.000000
# 2 -0.002162 0.016509 -0.003419 0.000000 0.000000 0.000000
# 3 0.001046 -0.003419 0.009456 0.000000 0.000000 0.000000
# 4 0.000000 0.000000 0.000000 0.027659 0.000000 0.000000
# 5 0.000000 0.000000 0.000000 0.000000 0.031135 0.000000
# 6 0.000000 0.000000 0.000000 0.000000 0.000000 0.020953
#
#
# Mechanical properties :
#
#
# Convention : Reuss Voigt Hill
#
# Bulk Modulus (GPa) = 32.61449 34.32418 33.46934
# Shear Modulus (GPa) = 36.03060 38.45666 37.24363
#
# Velocity S-wave (km/s) = 3.80431 3.93031 3.86782
# Velocity P-wave (km/s) = 5.69190 5.86377 5.77847
#
# Compressibility (1/GPa) = 0.03066122
#
# Stress axis : x y z
#
# Youngs Moduli (GPa) = 72.63200 60.57422 105.75484
#
# Poissons Ratio (x) = 0.13096 -0.11058
# Poissons Ratio (y) = 0.15702 0.36162
# Poissons Ratio (z) = -0.07595 0.20713
#
# Static dielectric constant tensor:
#      x y z
#    x 1.876380 0.000000 0.000000 
#    y 0.000000 1.984690 0.000000 
#    z 0.000000 0.000000 1.988080 
# 
# From -- ./inp_files/5651.got.cif
#   From: 2010.05.17/outbox.cif.g08.bks.cpg/sg19_3_cif.got.tgz:5651.got - 2010.06.03 22:46:19.
