data_PCOD9315136
_publ_section_title
;
Structure prediction by ZEFSAII (Michael W. Deem and Ramdas Pophale) SiO2 
 PCOD9315136
Probable space group: P 21 21 21
;
_chemical_formula_sum "Si O2"
_cell_formula_units_Z 28
_cell_length_a 17.689424
_cell_length_b 8.857980
_cell_length_c 7.904136
_cell_angle_alpha 90.000000
_cell_angle_beta 90.000000
_cell_angle_gamma 90.000000
_cell_volume 1238.519336
_symmetry_space_group_name_H-M "P 21 21 21"
_symmetry_group_IT_number 19
_symmetry_cell_setting 'orthorhombic'
loop_
_space_group_symop_operation_xyz
x,y,z
1/2-x,-y,1/2+z
1/2+x,1/2-y,-z
-x,1/2+y,1/2-z
loop_
_atom_site_type_symbol
_atom_site_label
_atom_site_fract_x
_atom_site_fract_y
_atom_site_fract_z
Si Si1 0.841249 0.461707 0.594124
Si Si2 0.500506 0.047649 0.283530
Si Si3 0.034796 0.806969 0.433696
Si Si4 0.440978 0.551358 0.867382
Si Si5 0.654581 0.878006 0.224566
Si Si6 0.311120 0.119589 0.783111
Si Si7 0.285141 0.439248 0.902177
O O1 0.841641 0.289509 0.656229
O O2 0.839086 0.453086 0.391341
O O3 0.765080 0.541295 0.654806
O O4 0.919400 0.526339 0.669631
O O5 0.526787 0.124887 0.460313
O O6 0.569592 0.937567 0.238658
O O7 0.490555 0.153995 0.121946
O O8 0.041900 0.628710 0.390957
O O9 0.117359 0.882767 0.408380
O O10 0.979982 0.880987 0.295926
O O11 0.350421 0.560003 0.858350
O O12 0.693434 0.885296 0.409554
O O13 0.703401 0.989029 0.108770
O O14 0.291745 0.298046 0.774779
#
# Coordination Sequence:
#
# PCOD9315136 Si02
#       7
#     4   4   4   4   4   4   4
#     4  12  24  45  68 101 137 181 232 283 345 412
#     4  11  24  43  68 101 142 177 230 284 346 411
#     4  11  24  43  72 100 139 182 229 286 350 408
#     4  10  24  44  67 103 137 183 229 286 340 422
#     4  11  25  43  71 100 138 183 227 288 342 411
#     4  11  24  44  72  98 138 180 228 288 343 412
#     4  10  23  44  66 101 135 174 233 277 348 406
#
# _framework density 22.607641000000001
#
# number of rings (size 3 to 8) (size 9 to 14) (size 15 to 20)
#    0.000    1.143    1.429    5.143    6.000    4.571 
#    0.000    4.286    0.000    0.000    0.000    0.000 
#    0.000    0.000    0.000    0.000    0.000    0.000 
#
# Total GULP energy -156685.194285 kJ/mol
# GULP energy per Si atom -5595.899796 kJ/mol
# Density = 2.255618 g / cm^3
# Si number density = 22.607641 Si / 1000 Ang^3
#
#
#
# Elastic Constant Matrix: (Units=GPa)
#
#
# Indices 1 2 3 4 5 6 
#
# 1 131.3080 48.7064 52.3748 0.0000 0.0000 0.0000
# 2 48.7064 39.9378 43.7153 0.0000 0.0000 0.0000
# 3 52.3748 43.7153 127.6287 0.0000 0.0000 0.0000
# 4 0.0000 0.0000 0.0000 33.6364 0.0000 0.0000
# 5 0.0000 0.0000 0.0000 0.0000 40.7041 0.0000
# 6 0.0000 0.0000 0.0000 0.0000 0.0000 29.4723
#
#
#
# Elastic Compliance Matrix: (Units=1/GPa)
#
#
# Indices 1 2 3 4 5 6 
#
# 1 0.013909 -0.017142 0.000164 0.000000 0.000000 0.000000
# 2 -0.017142 0.061183 -0.013922 0.000000 0.000000 0.000000
# 3 0.000164 -0.013922 0.012537 0.000000 0.000000 0.000000
# 4 0.000000 0.000000 0.000000 0.029730 0.000000 0.000000
# 5 0.000000 0.000000 0.000000 0.000000 0.024568 0.000000
# 6 0.000000 0.000000 0.000000 0.000000 0.000000 0.033930
#
#
# Mechanical properties :
#
#
# Convention : Reuss Voigt Hill
#
# Bulk Modulus (GPa) = 38.71707 65.38528 52.05117
# Shear Modulus (GPa) = 20.30329 31.03443 25.66886
#
# Velocity S-wave (km/s) = 3.00004 3.70907 3.37323
# Velocity P-wave (km/s) = 5.40029 6.87950 6.18428
#
# Compressibility (1/GPa) = 0.02582840
#
# Stress axis : x y z
#
# Youngs Moduli (GPa) = 71.89659 16.34439 79.76645
#
# Poissons Ratio (x) = 0.28017 -0.01305
# Poissons Ratio (y) = 1.23244 1.11050
# Poissons Ratio (z) = -0.01176 0.22755
#
# Static dielectric constant tensor:
#      x y z
#    x 1.845770 0.000000 0.000000 
#    y 0.000000 1.836870 0.000000 
#    z 0.000000 0.000000 1.854520 
# 
# From -- ./inp_files/4142.got.cif
#   From: 2010.05.17/outbox.cif.g08.bks.cpg/sg19_3_cif.got.tgz:4142.got - 2010.06.03 22:46:19.
