data_PCOD9315794
_publ_section_title
;
Structure prediction by ZEFSAII (Michael W. Deem and Ramdas Pophale) SiO2 
 PCOD9315794
Probable space group: P 21 21 21
;
_chemical_formula_sum "Si O2"
_cell_formula_units_Z 24
_cell_length_a 4.860601
_cell_length_b 16.033179
_cell_length_c 10.922354
_cell_angle_alpha 90.000000
_cell_angle_beta 90.000000
_cell_angle_gamma 90.000000
_cell_volume 851.188723
_symmetry_space_group_name_H-M "P 21 21 21"
_symmetry_group_IT_number 19
_symmetry_cell_setting 'orthorhombic'
loop_
_space_group_symop_operation_xyz
x,y,z
1/2-x,-y,1/2+z
1/2+x,1/2-y,-z
-x,1/2+y,1/2-z
loop_
_atom_site_type_symbol
_atom_site_label
_atom_site_fract_x
_atom_site_fract_y
_atom_site_fract_z
Si Si1 0.426099 0.722000 0.424205
Si Si2 0.975452 0.580932 0.201906
Si Si3 0.704737 0.588638 0.950658
Si Si4 0.584263 0.725038 0.802741
Si Si5 0.359261 0.419724 0.229916
Si Si6 0.928479 0.065690 0.044058
O O1 0.232635 0.763791 0.529284
O O2 0.332987 0.761768 0.295026
O O3 0.325007 0.626038 0.424597
O O4 0.005434 0.679483 0.181053
O O5 0.213105 0.510793 0.214552
O O6 0.865734 0.580616 0.341628
O O7 0.825340 0.557252 0.077561
O O8 0.649555 0.686137 0.935353
O O9 0.905435 0.577186 0.833443
O O10 0.422749 0.534941 0.948487
O O11 0.366918 0.654731 0.752177
O O12 0.490744 0.409055 0.094482
#
# Coordination Sequence:
#
# PCOD9315794 Si02
#       6
#     4   4   4   4   4   4
#     4  11  24  44  75 113 154 201 268 336 400 467
#     4  11  27  47  77 111 151 204 259 321 399 489
#     4  12  27  48  78 107 162 202 260 323 414 487
#     4  11  27  48  72 115 155 210 262 323 414 476
#     4  12  25  51  77 111 157 204 262 338 397 483
#     4  11  24  46  75 113 145 205 263 327 394 480
#
# _framework density 28.195865999999999
#
# number of rings (size 3 to 8) (size 9 to 14) (size 15 to 20)
#    0.000    0.667    3.333    3.000    4.667    2.667 
#    3.000    0.000    0.000    0.000    0.000    0.000 
#    0.000    0.000    0.000    0.000    0.000    0.000 
#
# Total GULP energy -134036.678679 kJ/mol
# GULP energy per Si atom -5584.861612 kJ/mol
# Density = 2.813169 g / cm^3
# Si number density = 28.195866 Si / 1000 Ang^3
#
#
#
# Elastic Constant Matrix: (Units=GPa)
#
#
# Indices 1 2 3 4 5 6 
#
# 1 90.9795 51.8863 47.2877 0.0000 0.0000 0.0000
# 2 51.8863 184.8088 -0.7957 0.0000 0.0000 0.0000
# 3 47.2877 -0.7957 148.6715 0.0000 0.0000 0.0000
# 4 0.0000 0.0000 0.0000 39.7198 0.0000 0.0000
# 5 0.0000 0.0000 0.0000 0.0000 25.5076 0.0000
# 6 0.0000 0.0000 0.0000 0.0000 0.0000 35.9073
#
#
#
# Elastic Compliance Matrix: (Units=1/GPa)
#
#
# Indices 1 2 3 4 5 6 
#
# 1 0.016332 -0.004608 -0.005219 0.000000 0.000000 0.000000
# 2 -0.004608 0.006711 0.001502 0.000000 0.000000 0.000000
# 3 -0.005219 0.001502 0.008394 0.000000 0.000000 0.000000
# 4 0.000000 0.000000 0.000000 0.025176 0.000000 0.000000
# 5 0.000000 0.000000 0.000000 0.000000 0.039204 0.000000
# 6 0.000000 0.000000 0.000000 0.000000 0.000000 0.027849
#
#
# Mechanical properties :
#
#
# Convention : Reuss Voigt Hill
#
# Bulk Modulus (GPa) = 67.63023 69.02406 68.32715
# Shear Modulus (GPa) = 34.42390 41.96572 38.19481
#
# Velocity S-wave (km/s) = 3.49791 3.86212 3.68452
# Velocity P-wave (km/s) = 6.35230 6.66493 6.51049
#
# Compressibility (1/GPa) = 0.01478629
#
# Stress axis : x y z
#
# Youngs Moduli (GPa) = 61.22857 149.00575 119.12689
#
# Poissons Ratio (x) = 0.68660 0.62177
# Poissons Ratio (y) = 0.28213 -0.17887
# Poissons Ratio (z) = 0.31958 -0.22374
#
# Static dielectric constant tensor:
#      x y z
#    x 2.215560 0.000000 0.000000 
#    y 0.000000 2.322730 0.000000 
#    z 0.000000 0.000000 2.218730 
# 
# From -- ./inp_files/4438.got.cif
#   From: 2010.05.17/outbox.cif.g08.bks.cpg/sg19_3_cif.got.tgz:4438.got - 2010.06.03 22:46:19.
