data_PCOD9315456
_publ_section_title
;
Structure prediction by ZEFSAII (Michael W. Deem and Ramdas Pophale) SiO2 
 PCOD9315456
Probable space group: P 21 21 21
;
_chemical_formula_sum "Si O2"
_cell_formula_units_Z 32
_cell_length_a 15.988714
_cell_length_b 10.896306
_cell_length_c 7.297861
_cell_angle_alpha 90.000000
_cell_angle_beta 90.000000
_cell_angle_gamma 90.000000
_cell_volume 1271.418166
_symmetry_space_group_name_H-M "P 21 21 21"
_symmetry_group_IT_number 19
_symmetry_cell_setting 'orthorhombic'
loop_
_space_group_symop_operation_xyz
x,y,z
1/2-x,-y,1/2+z
1/2+x,1/2-y,-z
-x,1/2+y,1/2-z
loop_
_atom_site_type_symbol
_atom_site_label
_atom_site_fract_x
_atom_site_fract_y
_atom_site_fract_z
Si Si1 0.450773 0.758337 0.966425
Si Si2 0.297362 0.393003 0.912031
Si Si3 0.649612 0.946188 0.214694
Si Si4 0.166316 0.247613 0.161870
Si Si5 0.612460 0.523441 0.463984
Si Si6 0.137267 0.767933 0.075775
Si Si7 0.230519 0.965643 0.849473
Si Si8 0.540064 0.177413 0.116731
O O1 0.375032 0.701555 0.849283
O O2 0.436366 0.906123 0.953430
O O3 0.539113 0.709357 0.893146
O O4 0.450138 0.729452 0.180586
O O5 0.242186 0.500493 0.822127
O O6 0.328976 0.310351 0.745630
O O7 0.363756 0.433903 0.066908
O O8 0.231036 0.321716 0.039362
O O9 0.640597 0.820573 0.103836
O O10 0.587226 0.045773 0.128058
O O11 0.217695 0.131052 0.227680
O O12 0.085657 0.236256 0.029943
O O13 0.694607 0.551780 0.583438
O O14 0.553798 0.639694 0.434800
O O15 0.653835 0.484504 0.269264
O O16 0.190732 0.886168 0.015818
#
# Coordination Sequence:
#
# PCOD9315456 Si02
#       8
#     4   4   4   4   4   4   4   4
#     4  11  26  48  71 104 145 188 244 299 360 433
#     4  11  24  39  71 103 144 183 231 291 359 422
#     4  11  23  40  69 109 140 178 237 289 362 429
#     4  10  26  43  70 102 139 188 231 292 364 424
#     4  11  26  48  69 106 144 194 243 296 367 439
#     4  12  24  45  71 106 141 188 237 302 356 430
#     4  11  26  46  72 104 148 188 247 299 364 440
#     4  11  25  47  75  98 147 191 238 298 368 425
#
# _framework density 25.168745999999999
#
# number of rings (size 3 to 8) (size 9 to 14) (size 15 to 20)
#    0.000    1.000    5.000    0.000   10.500    3.000 
#    0.000    0.000    0.000    0.000    0.000    0.000 
#    0.000    0.000    0.000    0.000    0.000    0.000 
#
# Total GULP energy -179109.158202 kJ/mol
# GULP energy per Si atom -5597.161194 kJ/mol
# Density = 2.511146 g / cm^3
# Si number density = 25.168746 Si / 1000 Ang^3
#
#
#
# Elastic Constant Matrix: (Units=GPa)
#
#
# Indices 1 2 3 4 5 6 
#
# 1 121.8663 37.8977 37.6402 0.0000 0.0000 0.0000
# 2 37.8977 38.9155 15.1044 0.0000 0.0000 0.0000
# 3 37.6402 15.1044 134.3059 0.0000 0.0000 0.0000
# 4 0.0000 0.0000 0.0000 47.8241 0.0000 0.0000
# 5 0.0000 0.0000 0.0000 0.0000 48.6121 0.0000
# 6 0.0000 0.0000 0.0000 0.0000 0.0000 13.9524
#
#
#
# Elastic Compliance Matrix: (Units=1/GPa)
#
#
# Indices 1 2 3 4 5 6 
#
# 1 0.012366 -0.011186 -0.002208 0.000000 0.000000 0.000000
# 2 -0.011186 0.036988 -0.001025 0.000000 0.000000 0.000000
# 3 -0.002208 -0.001025 0.008180 0.000000 0.000000 0.000000
# 4 0.000000 0.000000 0.000000 0.020910 0.000000 0.000000
# 5 0.000000 0.000000 0.000000 0.000000 0.020571 0.000000
# 6 0.000000 0.000000 0.000000 0.000000 0.000000 0.071672
#
#
# Mechanical properties :
#
#
# Convention : Reuss Voigt Hill
#
# Bulk Modulus (GPa) = 34.84708 52.93027 43.88867
# Shear Modulus (GPa) = 23.91325 35.70743 29.81034
#
# Velocity S-wave (km/s) = 3.08574 3.77068 3.44527
# Velocity P-wave (km/s) = 5.15472 6.32718 5.77080
#
# Compressibility (1/GPa) = 0.02869681
#
# Stress axis : x y z
#
# Youngs Moduli (GPa) = 80.86604 27.03599 122.25431
#
# Poissons Ratio (x) = 0.30242 0.26990
# Poissons Ratio (y) = 0.90455 0.12529
# Poissons Ratio (z) = 0.17853 0.02771
#
# Static dielectric constant tensor:
#      x y z
#    x 2.011550 0.000000 0.000000 
#    y 0.000000 1.971620 0.000000 
#    z 0.000000 0.000000 2.050790 
# 
# From -- ./inp_files/1777.got.cif
#   From: 2010.05.17/outbox.cif.g08.bks.cpg/sg19_1_cif.got.tgz:1777.got - 2010.06.03 22:46:19.
