data_PCOD9315937
_publ_section_title
;
Structure prediction by ZEFSAII (Michael W. Deem and Ramdas Pophale) SiO2 
 PCOD9315937
Probable space group: P 21 21 21
;
_chemical_formula_sum "Si O2"
_cell_formula_units_Z 28
_cell_length_a 4.929562
_cell_length_b 8.365339
_cell_length_c 25.468185
_cell_angle_alpha 90.000000
_cell_angle_beta 90.000000
_cell_angle_gamma 90.000000
_cell_volume 1050.243190
_symmetry_space_group_name_H-M "P 21 21 21"
_symmetry_group_IT_number 19
_symmetry_cell_setting 'orthorhombic'
loop_
_space_group_symop_operation_xyz
x,y,z
1/2-x,-y,1/2+z
1/2+x,1/2-y,-z
-x,1/2+y,1/2-z
loop_
_atom_site_type_symbol
_atom_site_label
_atom_site_fract_x
_atom_site_fract_y
_atom_site_fract_z
Si Si1 0.746952 0.334079 0.867664
Si Si2 0.741327 0.121138 0.259247
Si Si3 0.767117 0.157946 0.482269
Si Si4 0.526964 0.175872 0.021911
Si Si5 0.748048 0.964871 0.157771
Si Si6 0.036176 0.133864 0.370297
Si Si7 0.611014 0.408647 0.185483
O O1 0.861605 0.303598 0.924932
O O2 0.444625 0.401505 0.867960
O O3 0.938613 0.477816 0.846226
O O4 0.834934 0.178967 0.834123
O O5 0.826132 0.979044 0.219338
O O6 0.740953 0.275572 0.222713
O O7 0.884574 0.144017 0.314437
O O8 0.446623 0.063194 0.278757
O O9 0.957405 0.298898 0.505541
O O10 0.843173 0.134765 0.421002
O O11 0.856695 0.999628 0.512620
O O12 0.789479 0.287974 0.019710
O O13 0.791257 0.797476 0.129677
O O14 0.221628 0.976638 0.363540
#
# Coordination Sequence:
#
# PCOD9315937 Si02
#       7
#     4   4   4   4   4   4   4
#     4  11  26  47  71 104 147 195 245 301 373 440
#     4  11  27  43  72 106 152 194 246 305 370 458
#     4  12  28  50  76 111 149 196 255 318 376 441
#     4  12  25  45  76 106 148 190 253 310 373 434
#     4  11  26  45  70 101 145 193 241 298 370 447
#     4  12  27  44  77 103 149 196 252 306 379 443
#     4  11  27  44  72 107 152 194 250 300 377 449
#
# _framework density 26.660492999999999
#
# number of rings (size 3 to 8) (size 9 to 14) (size 15 to 20)
#    0.000    0.571    0.000    6.000   20.000    0.000 
#    0.000    0.000    0.000    0.000    0.000    0.000 
#    0.000    0.000    0.000    0.000    0.000    0.000 
#
# Total GULP energy -156976.624066 kJ/mol
# GULP energy per Si atom -5606.308002 kJ/mol
# Density = 2.659981 g / cm^3
# Si number density = 26.660493 Si / 1000 Ang^3
#
#
#
# Elastic Constant Matrix: (Units=GPa)
#
#
# Indices 1 2 3 4 5 6 
#
# 1 68.0666 12.1658 8.1256 0.0000 0.0000 0.0000
# 2 12.1658 96.3301 25.4568 0.0000 0.0000 0.0000
# 3 8.1256 25.4568 111.2999 0.0000 0.0000 0.0000
# 4 0.0000 0.0000 0.0000 34.6038 0.0000 0.0000
# 5 0.0000 0.0000 0.0000 0.0000 36.2079 0.0000
# 6 0.0000 0.0000 0.0000 0.0000 0.0000 35.4490
#
#
#
# Elastic Compliance Matrix: (Units=1/GPa)
#
#
# Indices 1 2 3 4 5 6 
#
# 1 0.015083 -0.001718 -0.000708 0.000000 0.000000 0.000000
# 2 -0.001718 0.011244 -0.002446 0.000000 0.000000 0.000000
# 3 -0.000708 -0.002446 0.009596 0.000000 0.000000 0.000000
# 4 0.000000 0.000000 0.000000 0.028899 0.000000 0.000000
# 5 0.000000 0.000000 0.000000 0.000000 0.027618 0.000000
# 6 0.000000 0.000000 0.000000 0.000000 0.000000 0.028210
#
#
# Mechanical properties :
#
#
# Convention : Reuss Voigt Hill
#
# Bulk Modulus (GPa) = 38.19913 40.79921 39.49917
# Shear Modulus (GPa) = 35.93997 36.58204 36.26100
#
# Velocity S-wave (km/s) = 3.67558 3.70827 3.69196
# Velocity P-wave (km/s) = 5.68966 5.80271 5.74646
#
# Compressibility (1/GPa) = 0.02617861
#
# Stress axis : x y z
#
# Youngs Moduli (GPa) = 66.29960 88.93300 104.21004
#
# Poissons Ratio (x) = 0.15276 0.07381
# Poissons Ratio (y) = 0.11388 0.25494
# Poissons Ratio (z) = 0.04696 0.21757
#
# Static dielectric constant tensor:
#      x y z
#    x 2.111820 0.000000 0.000000 
#    y 0.000000 2.093700 0.000000 
#    z 0.000000 0.000000 2.102580 
# 
# From -- ./inp_files/512.got.cif
#   From: 2010.05.17/outbox.cif.g08.bks.cpg/sg19_1_cif.got.tgz:512.got - 2010.06.03 22:46:19.
