data_PCOD9315480
_publ_section_title
;
Structure prediction by ZEFSAII (Michael W. Deem and Ramdas Pophale) SiO2 
 PCOD9315480
Probable space group: P 21 21 21
;
_chemical_formula_sum "Si O2"
_cell_formula_units_Z 32
_cell_length_a 20.530282
_cell_length_b 5.033409
_cell_length_c 12.571638
_cell_angle_alpha 90.000000
_cell_angle_beta 90.000000
_cell_angle_gamma 90.000000
_cell_volume 1299.119205
_symmetry_space_group_name_H-M "P 21 21 21"
_symmetry_group_IT_number 19
_symmetry_cell_setting 'orthorhombic'
loop_
_space_group_symop_operation_xyz
x,y,z
1/2-x,-y,1/2+z
1/2+x,1/2-y,-z
-x,1/2+y,1/2-z
loop_
_atom_site_type_symbol
_atom_site_label
_atom_site_fract_x
_atom_site_fract_y
_atom_site_fract_z
Si Si1 0.598693 0.883738 0.714296
Si Si2 0.002797 0.645401 0.474586
Si Si3 0.069229 0.733841 0.876167
Si Si4 0.373739 0.511635 0.559136
Si Si5 0.749621 0.683305 0.350438
Si Si6 0.825099 0.820623 0.916337
Si Si7 0.328891 0.873367 0.845546
Si Si8 0.060205 0.975022 0.656107
O O1 0.534467 0.868697 0.642348
O O2 0.607644 0.825324 0.839834
O O3 0.649788 0.679637 0.659487
O O4 0.615323 0.196012 0.709683
O O5 0.976284 0.389888 0.538175
O O6 0.055684 0.783893 0.552790
O O7 0.938303 0.818195 0.460952
O O8 0.017318 0.523335 0.828566
O O9 0.087658 0.889277 0.770394
O O10 0.130211 0.639830 0.946391
O O11 0.311894 0.694575 0.586706
O O12 0.730462 0.382006 0.374636
O O13 0.766798 0.685156 0.226550
O O14 0.692466 0.883618 0.382509
O O15 0.894497 0.721723 0.874559
O O16 0.824248 0.757842 0.040482
#
# Coordination Sequence:
#
# PCOD9315480 Si02
#       8
#     4   4   4   4   4   4   4   4
#     4  11  24  43  75 102 143 177 233 289 367 426
#     4  11  24  42  73 103 138 190 226 302 360 432
#     4  11  24  44  71 104 148 180 233 310 362 430
#     4  10  27  43  67 104 144 182 231 298 365 418
#     4  11  27  48  70 103 142 189 239 295 347 422
#     4  12  26  47  77  99 140 194 247 284 351 437
#     4  11  24  48  70 102 140 180 233 303 343 418
#     4  11  24  45  71 107 139 188 244 293 363 425
#
# _framework density 24.632072000000001
#
# number of rings (size 3 to 8) (size 9 to 14) (size 15 to 20)
#    0.000    1.000    2.500    3.000   10.500    1.000 
#    2.250    0.000    0.000    0.000    0.000    0.000 
#    0.000    0.000    0.000    0.000    0.000    0.000 
#
# Total GULP energy -178855.435249 kJ/mol
# GULP energy per Si atom -5589.232352 kJ/mol
# Density = 2.457601 g / cm^3
# Si number density = 24.632072 Si / 1000 Ang^3
#
#
#
# Elastic Constant Matrix: (Units=GPa)
#
#
# Indices 1 2 3 4 5 6 
#
# 1 78.5078 2.7276 14.9875 0.0000 0.0000 0.0000
# 2 2.7276 44.6325 2.4439 0.0000 0.0000 0.0000
# 3 14.9875 2.4439 111.7263 0.0000 0.0000 0.0000
# 4 0.0000 0.0000 0.0000 34.4155 0.0000 0.0000
# 5 0.0000 0.0000 0.0000 0.0000 33.4393 0.0000
# 6 0.0000 0.0000 0.0000 0.0000 0.0000 37.1151
#
#
#
# Elastic Compliance Matrix: (Units=1/GPa)
#
#
# Indices 1 2 3 4 5 6 
#
# 1 0.013094 -0.000705 -0.001741 0.000000 0.000000 0.000000
# 2 -0.000705 0.022470 -0.000397 0.000000 0.000000 0.000000
# 3 -0.001741 -0.000397 0.009193 0.000000 0.000000 0.000000
# 4 0.000000 0.000000 0.000000 0.029057 0.000000 0.000000
# 5 0.000000 0.000000 0.000000 0.000000 0.029905 0.000000
# 6 0.000000 0.000000 0.000000 0.000000 0.000000 0.026943
#
#
# Mechanical properties :
#
#
# Convention : Reuss Voigt Hill
#
# Bulk Modulus (GPa) = 25.59430 30.57609 28.08520
# Shear Modulus (GPa) = 33.47351 35.30779 34.39065
#
# Velocity S-wave (km/s) = 3.69038 3.79014 3.74059
# Velocity P-wave (km/s) = 5.34525 5.62082 5.48477
#
# Compressibility (1/GPa) = 0.03907119
#
# Stress axis : x y z
#
# Youngs Moduli (GPa) = 76.36807 44.50371 108.78209
#
# Poissons Ratio (x) = 0.03137 0.18940
# Poissons Ratio (y) = 0.05383 0.04318
# Poissons Ratio (z) = 0.13297 0.01767
#
# Static dielectric constant tensor:
#      x y z
#    x 1.968560 0.000000 0.000000 
#    y 0.000000 2.062400 0.000000 
#    z 0.000000 0.000000 2.074550 
# 
# From -- ./inp_files/5469.got.cif
#   From: 2010.05.17/outbox.cif.g08.bks.cpg/sg19_3_cif.got.tgz:5469.got - 2010.06.03 22:46:19.
