data_PCOD9315320
_publ_section_title
;
Structure prediction by ZEFSAII (Michael W. Deem and Ramdas Pophale) SiO2 
 PCOD9315320
Probable space group: P 21 21 21
;
_chemical_formula_sum "Si O2"
_cell_formula_units_Z 32
_cell_length_a 11.333296
_cell_length_b 5.092190
_cell_length_c 21.049679
_cell_angle_alpha 90.000000
_cell_angle_beta 90.000000
_cell_angle_gamma 90.000000
_cell_volume 1214.804267
_symmetry_space_group_name_H-M "P 21 21 21"
_symmetry_group_IT_number 19
_symmetry_cell_setting 'orthorhombic'
loop_
_space_group_symop_operation_xyz
x,y,z
1/2-x,-y,1/2+z
1/2+x,1/2-y,-z
-x,1/2+y,1/2-z
loop_
_atom_site_type_symbol
_atom_site_label
_atom_site_fract_x
_atom_site_fract_y
_atom_site_fract_z
Si Si1 0.692127 0.131407 0.507666
Si Si2 0.848471 0.129143 0.736561
Si Si3 0.552033 0.430409 0.360352
Si Si4 0.949816 0.350115 0.996480
Si Si5 0.258101 0.564323 0.140697
Si Si6 0.892665 0.488678 0.563233
Si Si7 0.507540 0.996372 0.795085
Si Si8 0.256702 0.144703 0.826152
O O1 0.588593 0.355441 0.514768
O O2 0.730705 0.070568 0.435114
O O3 0.803092 0.261176 0.541251
O O4 0.640097 0.853605 0.528229
O O5 0.840094 0.113162 0.812427
O O6 0.754629 0.912348 0.712435
O O7 0.970273 0.040629 0.702075
O O8 0.805522 0.405926 0.710909
O O9 0.558536 0.631319 0.419020
O O10 0.684247 0.345927 0.343124
O O11 0.490290 0.177265 0.397037
O O12 0.068695 0.172954 0.996061
O O13 0.124275 0.521726 0.162270
O O14 0.822702 0.670106 0.612012
O O15 0.485662 0.728000 0.756918
O O16 0.391521 0.064208 0.835924
#
# Coordination Sequence:
#
# PCOD9315320 Si02
#       8
#     4   4   4   4   4   4   4   4
#     4  11  28  41  72 105 140 190 229 292 369 422
#     4  11  23  41  72 103 138 185 233 293 360 422
#     4  10  24  44  73 107 142 192 237 306 364 424
#     4  11  22  46  67 101 143 178 235 297 354 424
#     4  11  24  46  69 106 147 184 236 296 360 435
#     4  11  24  48  74 101 149 178 247 304 354 433
#     4  12  24  45  67  99 147 187 233 288 349 439
#     4  11  23  43  72 100 136 192 236 286 356 421
#
# _framework density 26.341692999999999
#
# number of rings (size 3 to 8) (size 9 to 14) (size 15 to 20)
#    0.000    1.000    6.250    0.000    1.750    8.000 
#    0.000    1.250    0.000    0.000    0.000    0.000 
#    0.000    0.000    0.000    0.000    0.000    0.000 
#
# Total GULP energy -178948.982600 kJ/mol
# GULP energy per Si atom -5592.155706 kJ/mol
# Density = 2.628174 g / cm^3
# Si number density = 26.341693 Si / 1000 Ang^3
#
#
#
# Elastic Constant Matrix: (Units=GPa)
#
#
# Indices 1 2 3 4 5 6 
#
# 1 91.8811 -5.7585 2.0643 0.0000 0.0000 0.0000
# 2 -5.7585 138.3542 12.7813 0.0000 0.0000 0.0000
# 3 2.0643 12.7813 50.8444 0.0000 0.0000 0.0000
# 4 0.0000 0.0000 0.0000 40.7658 0.0000 0.0000
# 5 0.0000 0.0000 0.0000 0.0000 45.8845 0.0000
# 6 0.0000 0.0000 0.0000 0.0000 0.0000 37.6425
#
#
#
# Elastic Compliance Matrix: (Units=1/GPa)
#
#
# Indices 1 2 3 4 5 6 
#
# 1 0.010928 0.000508 -0.000571 0.000000 0.000000 0.000000
# 2 0.000508 0.007423 -0.001887 0.000000 0.000000 0.000000
# 3 -0.000571 -0.001887 0.020165 0.000000 0.000000 0.000000
# 4 0.000000 0.000000 0.000000 0.024530 0.000000 0.000000
# 5 0.000000 0.000000 0.000000 0.000000 0.021794 0.000000
# 6 0.000000 0.000000 0.000000 0.000000 0.000000 0.026566
#
#
# Mechanical properties :
#
#
# Convention : Reuss Voigt Hill
#
# Bulk Modulus (GPa) = 28.88821 33.25040 31.06930
# Shear Modulus (GPa) = 39.41781 42.99140 41.20461
#
# Velocity S-wave (km/s) = 3.87253 4.04427 3.95933
# Velocity P-wave (km/s) = 5.56650 5.87012 5.72032
#
# Compressibility (1/GPa) = 0.03461620
#
# Stress axis : x y z
#
# Youngs Moduli (GPa) = 91.50568 134.71199 49.59007
#
# Poissons Ratio (x) = -0.06838 0.02833
# Poissons Ratio (y) = -0.04645 0.09356
# Poissons Ratio (z) = 0.05228 0.25416
#
# Static dielectric constant tensor:
#      x y z
#    x 2.159430 0.000000 0.000000 
#    y 0.000000 2.150190 0.000000 
#    z 0.000000 0.000000 2.091540 
# 
# From -- ./inp_files/7399.got.cif
#   From: 2010.05.17/outbox.cif.g08.bks.cpg/sg19_4_cif.got.tgz:7399.got - 2010.06.03 22:46:19.
