data_PCOD9315140
_publ_section_title
;
Structure prediction by ZEFSAII (Michael W. Deem and Ramdas Pophale) SiO2 
 PCOD9315140
Probable space group: P 21 21 21
;
_chemical_formula_sum "Si O2"
_cell_formula_units_Z 24
_cell_length_a 9.682019
_cell_length_b 17.670950
_cell_length_c 5.390804
_cell_angle_alpha 90.000000
_cell_angle_beta 90.000000
_cell_angle_gamma 90.000000
_cell_volume 922.315210
_symmetry_space_group_name_H-M "P 21 21 21"
_symmetry_group_IT_number 19
_symmetry_cell_setting 'orthorhombic'
loop_
_space_group_symop_operation_xyz
x,y,z
1/2-x,-y,1/2+z
1/2+x,1/2-y,-z
-x,1/2+y,1/2-z
loop_
_atom_site_type_symbol
_atom_site_label
_atom_site_fract_x
_atom_site_fract_y
_atom_site_fract_z
Si Si1 0.072582 0.047285 0.802331
Si Si2 0.656900 0.606510 0.743082
Si Si3 0.978689 0.702364 0.998013
Si Si4 0.694364 0.698560 0.240497
Si Si5 0.389160 0.546556 0.535169
Si Si6 0.135818 0.602801 0.310677
O O1 0.236271 0.037968 0.805653
O O2 0.003004 0.075071 0.054613
O O3 0.053341 0.120206 0.621405
O O4 0.984135 0.978370 0.696663
O O5 0.672533 0.638575 0.017740
O O6 0.499932 0.581874 0.717138
O O7 0.696214 0.663708 0.516578
O O8 0.844688 0.731259 0.149467
O O9 0.055686 0.751179 0.790049
O O10 0.102047 0.681872 0.187745
O O11 0.265465 0.604010 0.490815
O O12 0.326720 0.466853 0.628593
#
# Coordination Sequence:
#
# PCOD9315140 Si02
#       6
#     4   4   4   4   4   4
#     4  10  23  44  66  94 141 173 225 281 341 400
#     4  11  27  44  69 104 135 180 231 282 340 411
#     4  10  25  44  68  96 135 184 224 286 335 402
#     4  11  26  46  69 101 136 181 234 277 343 405
#     4  11  25  39  71 101 135 183 226 279 352 410
#     4  11  22  43  63 100 138 175 226 283 339 404
#
# _framework density 26.021470999999998
#
# number of rings (size 3 to 8) (size 9 to 14) (size 15 to 20)
#    0.000    1.333    3.333    0.000    9.333    1.333 
#    0.000    0.000    0.000    0.000    0.000    0.000 
#    0.000    0.000    0.000    0.000    0.000    0.000 
#
# Total GULP energy -134229.449852 kJ/mol
# GULP energy per Si atom -5592.893744 kJ/mol
# Density = 2.596225 g / cm^3
# Si number density = 26.021471 Si / 1000 Ang^3
#
#
#
# Elastic Constant Matrix: (Units=GPa)
#
#
# Indices 1 2 3 4 5 6 
#
# 1 137.8750 21.6506 -4.6582 0.0000 0.0000 0.0000
# 2 21.6506 31.0572 22.5627 0.0000 0.0000 0.0000
# 3 -4.6582 22.5627 89.7458 0.0000 0.0000 0.0000
# 4 0.0000 0.0000 0.0000 50.8250 0.0000 0.0000
# 5 0.0000 0.0000 0.0000 0.0000 34.9464 0.0000
# 6 0.0000 0.0000 0.0000 0.0000 0.0000 36.4957
#
#
#
# Elastic Compliance Matrix: (Units=1/GPa)
#
#
# Indices 1 2 3 4 5 6 
#
# 1 0.008539 -0.007676 0.002373 0.000000 0.000000 0.000000
# 2 -0.007676 0.046295 -0.012037 0.000000 0.000000 0.000000
# 3 0.002373 -0.012037 0.014292 0.000000 0.000000 0.000000
# 4 0.000000 0.000000 0.000000 0.019675 0.000000 0.000000
# 5 0.000000 0.000000 0.000000 0.000000 0.028615 0.000000
# 6 0.000000 0.000000 0.000000 0.000000 0.000000 0.027400
#
#
# Mechanical properties :
#
#
# Convention : Reuss Voigt Hill
#
# Bulk Modulus (GPa) = 29.03237 37.53202 33.28219
# Shear Modulus (GPa) = 26.18078 39.06160 32.62119
#
# Velocity S-wave (km/s) = 3.17538 3.87864 3.54450
# Velocity P-wave (km/s) = 4.96240 5.87480 5.43777
#
# Compressibility (1/GPa) = 0.03444432
#
# Stress axis : x y z
#
# Youngs Moduli (GPa) = 117.11572 21.60053 69.96903
#
# Poissons Ratio (x) = 0.16582 -0.16604
# Poissons Ratio (y) = 0.89903 0.84224
# Poissons Ratio (z) = -0.27793 0.26001
#
# Static dielectric constant tensor:
#      x y z
#    x 2.096980 0.000000 0.000000 
#    y 0.000000 2.078860 0.000000 
#    z 0.000000 0.000000 2.115240 
# 
# From -- ./inp_files/471.got.cif
#   From: 2010.05.17/outbox.cif.g08.bks.cpg/sg19_1_cif.got.tgz:471.got - 2010.06.03 22:46:19.
