data_PCOD9315003
_publ_section_title
;
Structure prediction by ZEFSAII (Michael W. Deem and Ramdas Pophale) SiO2 
 PCOD9315003
Probable space group: P 21 21 21
;
_chemical_formula_sum "Si O2"
_cell_formula_units_Z 24
_cell_length_a 19.185669
_cell_length_b 10.861216
_cell_length_c 4.967827
_cell_angle_alpha 90.000000
_cell_angle_beta 90.000000
_cell_angle_gamma 90.000000
_cell_volume 1035.194276
_symmetry_space_group_name_H-M "P 21 21 21"
_symmetry_group_IT_number 19
_symmetry_cell_setting 'orthorhombic'
loop_
_space_group_symop_operation_xyz
x,y,z
1/2-x,-y,1/2+z
1/2+x,1/2-y,-z
-x,1/2+y,1/2-z
loop_
_atom_site_type_symbol
_atom_site_label
_atom_site_fract_x
_atom_site_fract_y
_atom_site_fract_z
Si Si1 0.983263 0.982476 0.344218
Si Si2 0.143532 0.529438 0.413119
Si Si3 0.103694 0.325047 0.818491
Si Si4 0.737990 0.174130 0.863026
Si Si5 0.425303 0.947989 0.332810
Si Si6 0.780250 0.552909 0.353952
O O1 0.040435 0.984956 0.579734
O O2 0.940381 0.857109 0.412024
O O3 0.025508 0.017366 0.081078
O O4 0.913016 0.068056 0.312147
O O5 0.102111 0.441388 0.621231
O O6 0.204343 0.440251 0.297249
O O7 0.184219 0.639525 0.554466
O O8 0.075606 0.193944 0.731133
O O9 0.185387 0.313891 0.885272
O O10 0.729254 0.308821 0.738006
O O11 0.349596 0.966894 0.467451
O O12 0.722769 0.530379 0.587578
#
# Coordination Sequence:
#
# PCOD9315003 Si02
#       6
#     4   4   4   4   4   4
#     4  11  24  44  64 102 131 178 227 275 341 418
#     4  11  21  43  69 111 135 172 243 292 349 403
#     4  10  23  43  70  97 133 181 226 278 356 403
#     4  10  23  39  74  97 142 177 226 301 339 400
#     4  11  25  45  69  91 142 183 223 280 350 419
#     4  11  26  48  68 100 137 189 235 274 351 421
#
# _framework density 23.184054
#
# number of rings (size 3 to 8) (size 9 to 14) (size 15 to 20)
#    0.000    1.333    3.333    1.000   11.667    0.000 
#    9.000    0.000    0.000    0.000    0.000    0.000 
#    0.000    0.000    0.000    0.000    0.000    0.000 
#
# Total GULP energy -133632.484772 kJ/mol
# GULP energy per Si atom -5568.020199 kJ/mol
# Density = 2.313129 g / cm^3
# Si number density = 23.184054 Si / 1000 Ang^3
#
#
#
# Elastic Constant Matrix: (Units=GPa)
#
#
# Indices 1 2 3 4 5 6 
#
# 1 65.0906 10.2007 12.8045 0.0000 0.0000 0.0000
# 2 10.2007 14.6384 1.4362 0.0000 0.0000 0.0000
# 3 12.8045 1.4362 82.6806 0.0000 0.0000 0.0000
# 4 0.0000 0.0000 0.0000 21.3267 0.0000 0.0000
# 5 0.0000 0.0000 0.0000 0.0000 41.0942 0.0000
# 6 0.0000 0.0000 0.0000 0.0000 0.0000 9.6691
#
#
#
# Elastic Compliance Matrix: (Units=1/GPa)
#
#
# Indices 1 2 3 4 5 6 
#
# 1 0.017764 -0.012129 -0.002540 0.000000 0.000000 0.000000
# 2 -0.012129 0.076712 0.000546 0.000000 0.000000 0.000000
# 3 -0.002540 0.000546 0.012479 0.000000 0.000000 0.000000
# 4 0.000000 0.000000 0.000000 0.046890 0.000000 0.000000
# 5 0.000000 0.000000 0.000000 0.000000 0.024334 0.000000
# 6 0.000000 0.000000 0.000000 0.000000 0.000000 0.103422
#
#
# Mechanical properties :
#
#
# Convention : Reuss Voigt Hill
#
# Bulk Modulus (GPa) = 12.70537 23.47694 18.09115
# Shear Modulus (GPa) = 14.87727 23.61589 19.24658
#
# Velocity S-wave (km/s) = 2.53593 3.19506 2.88438
# Velocity P-wave (km/s) = 3.75056 4.87437 4.34892
#
# Compressibility (1/GPa) = 0.07870686
#
# Stress axis : x y z
#
# Youngs Moduli (GPa) = 56.29440 13.03579 80.13678
#
# Poissons Ratio (x) = 0.15811 0.20357
# Poissons Ratio (y) = 0.68281 -0.04374
# Poissons Ratio (z) = 0.14301 -0.00712
#
# Static dielectric constant tensor:
#      x y z
#    x 1.931250 0.000000 0.000000 
#    y 0.000000 1.925090 0.000000 
#    z 0.000000 0.000000 1.974070 
# 
# From -- ./inp_files/994.got.cif
#   From: 2010.05.17/outbox.cif.g08.bks.cpg/sg19_1_cif.got.tgz:994.got - 2010.06.03 22:46:19.
