data_PCOD9315147
_publ_section_title
;
Structure prediction by ZEFSAII (Michael W. Deem and Ramdas Pophale) SiO2 
 PCOD9315147
Probable space group: P 21 21 21
;
_chemical_formula_sum "Si O2"
_cell_formula_units_Z 32
_cell_length_a 15.020796
_cell_length_b 8.105293
_cell_length_c 10.959304
_cell_angle_alpha 90.000000
_cell_angle_beta 90.000000
_cell_angle_gamma 90.000000
_cell_volume 1334.272825
_symmetry_space_group_name_H-M "P 21 21 21"
_symmetry_group_IT_number 19
_symmetry_cell_setting 'orthorhombic'
loop_
_space_group_symop_operation_xyz
x,y,z
1/2-x,-y,1/2+z
1/2+x,1/2-y,-z
-x,1/2+y,1/2-z
loop_
_atom_site_type_symbol
_atom_site_label
_atom_site_fract_x
_atom_site_fract_y
_atom_site_fract_z
Si Si1 0.895980 0.438666 0.223284
Si Si2 0.560044 0.773907 0.126539
Si Si3 0.542520 0.171492 0.143048
Si Si4 0.459422 0.764697 0.625230
Si Si5 0.240219 0.630628 0.881419
Si Si6 0.285700 0.810248 0.218027
Si Si7 0.710679 0.028654 0.874335
Si Si8 0.601926 0.321083 0.514735
O O1 0.920483 0.560520 0.332760
O O2 0.789442 0.420398 0.220576
O O3 0.957152 0.276877 0.213160
O O4 0.924833 0.529336 0.098838
O O5 0.532541 0.702301 0.255863
O O6 0.660315 0.744261 0.086604
O O7 0.482973 0.723285 0.034161
O O8 0.553519 0.974486 0.129733
O O9 0.635296 0.245869 0.195088
O O10 0.517927 0.260478 0.017608
O O11 0.382935 0.622575 0.636126
O O12 0.230329 0.604940 0.735816
O O13 0.235465 0.480775 0.981228
O O14 0.335947 0.705918 0.904771
O O15 0.224370 0.661209 0.165343
O O16 0.339545 0.878089 0.101327
#
# Coordination Sequence:
#
# PCOD9315147 Si02
#       8
#     4   4   4   4   4   4   4   4
#     4  12  25  45  69 100 144 183 236 300 366 426
#     4  11  23  48  73 101 149 190 240 302 360 442
#     4  11  24  48  71 105 141 188 246 295 364 443
#     4  12  25  47  69 102 144 188 239 302 367 440
#     4  11  22  42  75 105 140 195 237 302 369 435
#     4  10  24  42  69 102 137 183 239 295 359 435
#     4  11  20  44  70 101 141 183 243 290 367 433
#     4  10  23  44  68 102 142 182 234 296 358 430
#
# _framework density 23.983103
#
# number of rings (size 3 to 8) (size 9 to 14) (size 15 to 20)
#    0.000    1.000    5.000    0.750    1.750    3.000 
#   13.500    0.000    0.000    0.000    0.000    0.000 
#    0.000    0.000    0.000    0.000    0.000    0.000 
#
# Total GULP energy -178734.028013 kJ/mol
# GULP energy per Si atom -5585.438375 kJ/mol
# Density = 2.392852 g / cm^3
# Si number density = 23.983103 Si / 1000 Ang^3
#
#
#
# Elastic Constant Matrix: (Units=GPa)
#
#
# Indices 1 2 3 4 5 6 
#
# 1 83.3982 0.2783 10.6120 0.0000 0.0000 0.0000
# 2 0.2783 21.4849 7.4243 0.0000 0.0000 0.0000
# 3 10.6120 7.4243 70.5946 0.0000 0.0000 0.0000
# 4 0.0000 0.0000 0.0000 21.9889 0.0000 0.0000
# 5 0.0000 0.0000 0.0000 0.0000 35.0658 0.0000
# 6 0.0000 0.0000 0.0000 0.0000 0.0000 38.2771
#
#
#
# Elastic Compliance Matrix: (Units=1/GPa)
#
#
# Indices 1 2 3 4 5 6 
#
# 1 0.012230 0.000495 -0.001890 0.000000 0.000000 0.000000
# 2 0.000495 0.048320 -0.005156 0.000000 0.000000 0.000000
# 3 -0.001890 -0.005156 0.014992 0.000000 0.000000 0.000000
# 4 0.000000 0.000000 0.000000 0.045478 0.000000 0.000000
# 5 0.000000 0.000000 0.000000 0.000000 0.028518 0.000000
# 6 0.000000 0.000000 0.000000 0.000000 0.000000 0.026125
#
#
# Mechanical properties :
#
#
# Convention : Reuss Voigt Hill
#
# Bulk Modulus (GPa) = 16.01598 23.56742 19.79170
# Shear Modulus (GPa) = 23.85753 29.54388 26.70070
#
# Velocity S-wave (km/s) = 3.15741 3.51360 3.34025
# Velocity P-wave (km/s) = 4.47044 5.12918 4.81110
#
# Compressibility (1/GPa) = 0.06243763
#
# Stress axis : x y z
#
# Youngs Moduli (GPa) = 81.76904 20.69557 66.70304
#
# Poissons Ratio (x) = -0.01024 0.12610
# Poissons Ratio (y) = -0.04046 0.34392
# Poissons Ratio (z) = 0.15458 0.10671
#
# Static dielectric constant tensor:
#      x y z
#    x 1.933670 0.000000 0.000000 
#    y 0.000000 1.980670 0.000000 
#    z 0.000000 0.000000 1.948730 
# 
# From -- ./inp_files/5286.got.cif
#   From: 2010.05.17/outbox.cif.g08.bks.cpg/sg19_3_cif.got.tgz:5286.got - 2010.06.03 22:46:19.
