data_PCOD9315369
_publ_section_title
;
Structure prediction by ZEFSAII (Michael W. Deem and Ramdas Pophale) SiO2 
 PCOD9315369
Probable space group: P 21 21 21
;
_chemical_formula_sum "Si O2"
_cell_formula_units_Z 32
_cell_length_a 11.366694
_cell_length_b 5.179441
_cell_length_c 19.788893
_cell_angle_alpha 90.000000
_cell_angle_beta 90.000000
_cell_angle_gamma 90.000000
_cell_volume 1165.033891
_symmetry_space_group_name_H-M "P 21 21 21"
_symmetry_group_IT_number 19
_symmetry_cell_setting 'orthorhombic'
loop_
_space_group_symop_operation_xyz
x,y,z
1/2-x,-y,1/2+z
1/2+x,1/2-y,-z
-x,1/2+y,1/2-z
loop_
_atom_site_type_symbol
_atom_site_label
_atom_site_fract_x
_atom_site_fract_y
_atom_site_fract_z
Si Si1 0.299986 0.610342 0.888518
Si Si2 0.388258 0.101656 0.448171
Si Si3 0.468343 0.455802 0.793250
Si Si4 0.674798 0.309912 0.867126
Si Si5 0.515947 0.898156 0.926366
Si Si6 0.827078 0.275804 0.000492
Si Si7 0.476473 0.409974 0.164566
Si Si8 0.641286 0.416924 0.283612
O O1 0.166006 0.687544 0.896790
O O2 0.336512 0.440643 0.823889
O O3 0.400275 0.830707 0.882083
O O4 0.329207 0.502459 0.963822
O O5 0.418911 0.214826 0.520352
O O6 0.499308 0.975725 0.412534
O O7 0.280459 0.906459 0.456970
O O8 0.494288 0.699554 0.746442
O O9 0.551488 0.463934 0.860397
O O10 0.737891 0.439618 0.802171
O O11 0.617976 0.028602 0.880853
O O12 0.773239 0.318586 0.925944
O O13 0.450462 0.094806 0.979676
O O14 0.596113 0.444296 0.207529
O O15 0.445508 0.114316 0.177391
O O16 0.381334 0.622868 0.191420
#
# Coordination Sequence:
#
# PCOD9315369 Si02
#       8
#     4   4   4   4   4   4   4   4
#     4  11  25  46  67 107 146 184 250 297 369 444
#     4  11  25  40  75  99 140 190 228 300 372 427
#     4  12  29  50  75 106 152 197 246 311 360 445
#     4  12  25  47  76 106 143 199 244 302 382 447
#     4  11  24  44  69 110 148 184 242 311 366 448
#     4  11  25  43  70 107 139 187 243 300 369 446
#     4  10  24  47  68 107 142 188 243 306 347 431
#     4  10  25  45  72 102 144 187 248 293 357 434
#
# _framework density 27.467012
#
# number of rings (size 3 to 8) (size 9 to 14) (size 15 to 20)
#    0.000    1.000    2.500    2.250    7.000    3.000 
#    2.250    0.000    0.000    0.000    0.000    0.000 
#    0.000    0.000    0.000    0.000    0.000    0.000 
#
# Total GULP energy -178730.415090 kJ/mol
# GULP energy per Si atom -5585.325472 kJ/mol
# Density = 2.740450 g / cm^3
# Si number density = 27.467012 Si / 1000 Ang^3
#
#
#
# Elastic Constant Matrix: (Units=GPa)
#
#
# Indices 1 2 3 4 5 6 
#
# 1 85.1746 13.8999 12.5516 0.0000 0.0000 0.0000
# 2 13.8999 60.3791 5.7661 0.0000 0.0000 0.0000
# 3 12.5516 5.7661 88.8397 0.0000 0.0000 0.0000
# 4 0.0000 0.0000 0.0000 37.4226 0.0000 0.0000
# 5 0.0000 0.0000 0.0000 0.0000 51.9105 0.0000
# 6 0.0000 0.0000 0.0000 0.0000 0.0000 49.9710
#
#
#
# Elastic Compliance Matrix: (Units=1/GPa)
#
#
# Indices 1 2 3 4 5 6 
#
# 1 0.012415 -0.002707 -0.001578 0.000000 0.000000 0.000000
# 2 -0.002707 0.017256 -0.000737 0.000000 0.000000 0.000000
# 3 -0.001578 -0.000737 0.011527 0.000000 0.000000 0.000000
# 4 0.000000 0.000000 0.000000 0.026722 0.000000 0.000000
# 5 0.000000 0.000000 0.000000 0.000000 0.019264 0.000000
# 6 0.000000 0.000000 0.000000 0.000000 0.000000 0.020012
#
#
# Mechanical properties :
#
#
# Convention : Reuss Voigt Hill
#
# Bulk Modulus (GPa) = 32.10115 33.20319 32.65217
# Shear Modulus (GPa) = 39.17720 41.33921 40.25821
#
# Velocity S-wave (km/s) = 3.78078 3.88371 3.83259
# Velocity P-wave (km/s) = 5.54722 5.67675 5.61236
#
# Compressibility (1/GPa) = 0.03115153
#
# Stress axis : x y z
#
# Youngs Moduli (GPa) = 80.54772 57.95180 86.75223
#
# Poissons Ratio (x) = 0.15690 0.13692
# Poissons Ratio (y) = 0.21807 0.06398
# Poissons Ratio (z) = 0.12713 0.04274
#
# Static dielectric constant tensor:
#      x y z
#    x 2.152330 0.000000 0.000000 
#    y 0.000000 2.402870 0.000000 
#    z 0.000000 0.000000 2.170530 
# 
# From -- ./inp_files/7153.got.cif
#   From: 2010.05.17/outbox.cif.g08.bks.cpg/sg19_4_cif.got.tgz:7153.got - 2010.06.03 22:46:19.
