data_PCOD9315980
_publ_section_title
;
Structure prediction by ZEFSAII (Michael W. Deem and Ramdas Pophale) SiO2 
 PCOD9315980
Probable space group: P 21 21 21
;
_chemical_formula_sum "Si O2"
_cell_formula_units_Z 24
_cell_length_a 4.788972
_cell_length_b 15.278131
_cell_length_c 11.951739
_cell_angle_alpha 90.000000
_cell_angle_beta 90.000000
_cell_angle_gamma 90.000000
_cell_volume 874.467408
_symmetry_space_group_name_H-M "P 21 21 21"
_symmetry_group_IT_number 19
_symmetry_cell_setting 'orthorhombic'
loop_
_space_group_symop_operation_xyz
x,y,z
1/2-x,-y,1/2+z
1/2+x,1/2-y,-z
-x,1/2+y,1/2-z
loop_
_atom_site_type_symbol
_atom_site_label
_atom_site_fract_x
_atom_site_fract_y
_atom_site_fract_z
Si Si1 0.056144 0.609053 0.000548
Si Si2 0.951392 0.701065 0.699289
Si Si3 0.144864 0.367784 0.925237
Si Si4 0.674304 0.480801 0.857684
Si Si5 0.931175 0.771841 0.149564
Si Si6 0.179413 0.453596 0.147509
O O1 0.216749 0.545438 0.085762
O O2 0.928451 0.688721 0.069566
O O3 0.278928 0.649915 0.915694
O O4 0.820312 0.551684 0.939259
O O5 0.851641 0.765463 0.601380
O O6 0.517701 0.524703 0.752466
O O7 0.735854 0.710678 0.801467
O O8 0.241279 0.742060 0.742503
O O9 0.940436 0.417480 0.837857
O O10 0.955747 0.101145 0.822081
O O11 0.046670 0.390961 0.051135
O O12 0.440502 0.417227 0.911843
#
# Coordination Sequence:
#
# PCOD9315980 Si02
#       6
#     4   4   4   4   4   4
#     4  11  28  57  92 132 174 240 288 374 437 524
#     4  12  29  51  85 131 172 238 280 372 437 537
#     4  11  27  54  86 125 179 226 297 359 447 523
#     4  11  28  53  87 129 170 231 295 361 432 528
#     4  12  29  52  90 127 185 219 309 357 449 516
#     4  11  29  53  92 120 182 226 295 353 446 530
#
# _framework density 27.445273
#
# number of rings (size 3 to 8) (size 9 to 14) (size 15 to 20)
#    0.000    0.667    0.000    4.000    9.333   12.000 
#    0.000    0.000    3.667    0.000    0.000    0.000 
#    0.000    0.000    0.000    0.000    0.000    0.000 
#
# Total GULP energy -134671.591158 kJ/mol
# GULP energy per Si atom -5611.316298 kJ/mol
# Density = 2.738281 g / cm^3
# Si number density = 27.445273 Si / 1000 Ang^3
#
#
#
# Elastic Constant Matrix: (Units=GPa)
#
#
# Indices 1 2 3 4 5 6 
#
# 1 153.0434 85.7710 35.9184 0.0000 0.0000 0.0000
# 2 85.7710 182.0599 77.5295 0.0000 0.0000 0.0000
# 3 35.9184 77.5295 121.0246 0.0000 0.0000 0.0000
# 4 0.0000 0.0000 0.0000 63.7564 0.0000 0.0000
# 5 0.0000 0.0000 0.0000 0.0000 36.2700 0.0000
# 6 0.0000 0.0000 0.0000 0.0000 0.0000 62.9253
#
#
#
# Elastic Compliance Matrix: (Units=1/GPa)
#
#
# Indices 1 2 3 4 5 6 
#
# 1 0.008879 -0.004209 0.000061 0.000000 0.000000 0.000000
# 2 -0.004209 0.009548 -0.004868 0.000000 0.000000 0.000000
# 3 0.000061 -0.004868 0.011363 0.000000 0.000000 0.000000
# 4 0.000000 0.000000 0.000000 0.015685 0.000000 0.000000
# 5 0.000000 0.000000 0.000000 0.000000 0.027571 0.000000
# 6 0.000000 0.000000 0.000000 0.000000 0.000000 0.015892
#
#
# Mechanical properties :
#
#
# Convention : Reuss Voigt Hill
#
# Bulk Modulus (GPa) = 85.03983 94.95173 89.99578
# Shear Modulus (GPa) = 45.09062 49.71762 47.40412
#
# Velocity S-wave (km/s) = 4.05770 4.26081 4.16050
# Velocity P-wave (km/s) = 7.28051 7.67319 7.47943
#
# Compressibility (1/GPa) = 0.01175920
#
# Stress axis : x y z
#
# Youngs Moduli (GPa) = 112.63124 104.72914 88.00572
#
# Poissons Ratio (x) = 0.44079 -0.00539
# Poissons Ratio (y) = 0.47405 0.42838
# Poissons Ratio (z) = -0.00690 0.50979
#
# Static dielectric constant tensor:
#      x y z
#    x 2.105510 0.000000 0.000000 
#    y 0.000000 2.191340 0.000000 
#    z 0.000000 0.000000 2.172110 
# 
# From -- ./inp_files/5665.got.cif
#   From: 2010.05.17/outbox.cif.g08.bks.cpg/sg19_3_cif.got.tgz:5665.got - 2010.06.03 22:46:19.
