data_PCOD9315413
_publ_section_title
;
Structure prediction by ZEFSAII (Michael W. Deem and Ramdas Pophale) SiO2 
 PCOD9315413
Probable space group: P 21 21 21
;
_chemical_formula_sum "Si O2"
_cell_formula_units_Z 32
_cell_length_a 9.018071
_cell_length_b 15.699370
_cell_length_c 10.741210
_cell_angle_alpha 90.000000
_cell_angle_beta 90.000000
_cell_angle_gamma 90.000000
_cell_volume 1520.719387
_symmetry_space_group_name_H-M "P 21 21 21"
_symmetry_group_IT_number 19
_symmetry_cell_setting 'orthorhombic'
loop_
_space_group_symop_operation_xyz
x,y,z
1/2-x,-y,1/2+z
1/2+x,1/2-y,-z
-x,1/2+y,1/2-z
loop_
_atom_site_type_symbol
_atom_site_label
_atom_site_fract_x
_atom_site_fract_y
_atom_site_fract_z
Si Si1 0.882756 0.998021 0.571476
Si Si2 0.005245 0.268948 0.526015
Si Si3 0.446782 0.099222 0.688505
Si Si4 0.093500 0.585744 0.334708
Si Si5 0.395634 0.885361 0.183793
Si Si6 0.395649 0.815667 0.463616
Si Si7 0.278811 0.346020 0.591790
Si Si8 0.442374 0.149868 0.965723
O O1 0.008963 0.944192 0.503566
O O2 0.758062 0.935229 0.619705
O O3 0.803175 0.066102 0.481581
O O4 0.971622 0.047040 0.678543
O O5 0.072322 0.177665 0.568087
O O6 0.106593 0.325686 0.622294
O O7 0.016166 0.336021 0.412026
O O8 0.839250 0.231282 0.496981
O O9 0.524739 0.007335 0.694923
O O10 0.271811 0.082406 0.665788
O O11 0.455722 0.149424 0.817506
O O12 0.116947 0.645169 0.213272
O O13 0.998755 0.629655 0.443336
O O14 0.405635 0.842490 0.319265
O O15 0.225267 0.828570 0.502258
O O16 0.449142 0.719507 0.477721
#
# Coordination Sequence:
#
# PCOD9315413 Si02
#       8
#     4   4   4   4   4   4   4   4
#     4  11  24  42  69  99 138 171 229 283 341 412
#     4  11  22  43  68  99 134 173 229 281 341 412
#     4  11  22  43  70  95 137 179 226 288 340 417
#     4  12  25  43  70  99 138 182 230 285 351 408
#     4  10  25  44  65  99 137 176 232 284 344 410
#     4  11  26  45  68  97 138 183 229 284 346 405
#     4  11  24  44  67 104 132 182 227 287 343 414
#     4  11  24  46  67  98 138 180 230 284 344 414
#
# _framework density 21.042672
#
# number of rings (size 3 to 8) (size 9 to 14) (size 15 to 20)
#    0.000    1.000    3.750    2.250    5.250    1.000 
#    4.500    1.250    0.000    0.000    0.000    0.000 
#    0.000    0.000    0.000    0.000    0.000    0.000 
#
# Total GULP energy -178187.970752 kJ/mol
# GULP energy per Si atom -5568.374086 kJ/mol
# Density = 2.099478 g / cm^3
# Si number density = 21.042672 Si / 1000 Ang^3
#
#
#
# Elastic Constant Matrix: (Units=GPa)
#
#
# Indices 1 2 3 4 5 6 
#
# 1 90.2647 34.9034 35.3042 0.0000 0.0000 0.0000
# 2 34.9034 81.8378 16.7389 0.0000 0.0000 0.0000
# 3 35.3042 16.7389 47.7932 0.0000 0.0000 0.0000
# 4 0.0000 0.0000 0.0000 27.4542 0.0000 0.0000
# 5 0.0000 0.0000 0.0000 0.0000 32.3264 0.0000
# 6 0.0000 0.0000 0.0000 0.0000 0.0000 46.5055
#
#
#
# Elastic Compliance Matrix: (Units=1/GPa)
#
#
# Indices 1 2 3 4 5 6 
#
# 1 0.017391 -0.005159 -0.011040 0.000000 0.000000 0.000000
# 2 -0.005159 0.014693 -0.001335 0.000000 0.000000 0.000000
# 3 -0.011040 -0.001335 0.029546 0.000000 0.000000 0.000000
# 4 0.000000 0.000000 0.000000 0.036424 0.000000 0.000000
# 5 0.000000 0.000000 0.000000 0.000000 0.030935 0.000000
# 6 0.000000 0.000000 0.000000 0.000000 0.000000 0.021503
#
#
# Mechanical properties :
#
#
# Convention : Reuss Voigt Hill
#
# Bulk Modulus (GPa) = 37.64749 43.75432 40.70090
# Shear Modulus (GPa) = 25.71836 30.12050 27.91943
#
# Velocity S-wave (km/s) = 3.49979 3.78749 3.64648
# Velocity P-wave (km/s) = 5.85331 6.32179 6.09206
#
# Compressibility (1/GPa) = 0.02656220
#
# Stress axis : x y z
#
# Youngs Moduli (GPa) = 57.49975 68.06095 33.84554
#
# Poissons Ratio (x) = 0.35114 0.37365
# Poissons Ratio (y) = 0.29666 0.04518
# Poissons Ratio (z) = 0.63479 0.09085
#
# Static dielectric constant tensor:
#      x y z
#    x 1.791640 0.000000 0.000000 
#    y 0.000000 1.766610 0.000000 
#    z 0.000000 0.000000 1.773240 
# 
# From -- ./inp_files/4681.got.cif
#   From: 2010.05.17/outbox.cif.g08.bks.cpg/sg19_3_cif.got.tgz:4681.got - 2010.06.03 22:46:19.
