data_PCOD9315807
_publ_section_title
;
Structure prediction by ZEFSAII (Michael W. Deem and Ramdas Pophale) SiO2 
 PCOD9315807
Probable space group: P 21 21 21
;
_chemical_formula_sum "Si O2"
_cell_formula_units_Z 32
_cell_length_a 10.567271
_cell_length_b 6.167663
_cell_length_c 19.361973
_cell_angle_alpha 90.000000
_cell_angle_beta 90.000000
_cell_angle_gamma 90.000000
_cell_volume 1261.923684
_symmetry_space_group_name_H-M "P 21 21 21"
_symmetry_group_IT_number 19
_symmetry_cell_setting 'orthorhombic'
loop_
_space_group_symop_operation_xyz
x,y,z
1/2-x,-y,1/2+z
1/2+x,1/2-y,-z
-x,1/2+y,1/2-z
loop_
_atom_site_type_symbol
_atom_site_label
_atom_site_fract_x
_atom_site_fract_y
_atom_site_fract_z
Si Si1 0.933834 0.241648 0.258358
Si Si2 0.548618 0.940054 0.315496
Si Si3 0.226156 0.922269 0.010650
Si Si4 0.727087 0.901837 0.886806
Si Si5 0.675825 0.553987 0.634792
Si Si6 0.837761 0.231063 0.680358
Si Si7 0.007342 0.953055 0.582827
Si Si8 0.930245 0.762420 0.440069
O O1 0.864278 0.215072 0.332073
O O2 0.826419 0.277382 0.198489
O O3 0.002024 0.492347 0.254338
O O4 0.631128 0.907372 0.247281
O O5 0.531344 0.720338 0.357013
O O6 0.630824 0.105709 0.360565
O O7 0.412660 0.044515 0.303387
O O8 0.355479 0.986615 0.050903
O O9 0.099827 0.013954 0.046979
O O10 0.220133 0.674984 0.033943
O O11 0.236290 0.012625 0.933160
O O12 0.684027 0.149888 0.893080
O O13 0.695058 0.312467 0.667412
O O14 0.549444 0.638315 0.598163
O O15 0.908518 0.122550 0.615914
O O16 0.939874 0.846676 0.517576
#
# Coordination Sequence:
#
# PCOD9315807 Si02
#       8
#     4   4   4   4   4   4   4   4
#     4  12  29  54  83 125 169 219 285 351 431 513
#     4  12  26  43  72 109 146 211 266 341 410 496
#     4  11  24  48  74 108 158 204 271 334 421 498
#     4  12  26  44  79 105 155 210 267 343 417 503
#     4  11  27  48  77 118 159 215 271 351 422 504
#     4  12  26  46  70 110 155 199 271 330 417 492
#     4  11  24  45  73 106 150 199 263 333 409 493
#     4  11  24  48  72 111 150 203 262 335 415 495
#
# _framework density 25.358108000000001
#
# number of rings (size 3 to 8) (size 9 to 14) (size 15 to 20)
#    0.000    0.500    5.000    2.250    5.250    1.000 
#    2.250    0.000    0.000    0.000    0.000    0.000 
#    0.000    0.000    0.000    0.000    0.000    0.000 
#
# Total GULP energy -178140.056387 kJ/mol
# GULP energy per Si atom -5566.876762 kJ/mol
# Density = 2.530039 g / cm^3
# Si number density = 25.358108 Si / 1000 Ang^3
#
#
#
# Elastic Constant Matrix: (Units=GPa)
#
#
# Indices 1 2 3 4 5 6 
#
# 1 56.4685 28.9482 2.3668 0.0000 0.0000 0.0000
# 2 28.9482 46.4461 -5.4782 0.0000 0.0000 0.0000
# 3 2.3668 -5.4782 86.8225 0.0000 0.0000 0.0000
# 4 0.0000 0.0000 0.0000 27.3523 0.0000 0.0000
# 5 0.0000 0.0000 0.0000 0.0000 29.9108 0.0000
# 6 0.0000 0.0000 0.0000 0.0000 0.0000 40.0287
#
#
#
# Elastic Compliance Matrix: (Units=1/GPa)
#
#
# Indices 1 2 3 4 5 6 
#
# 1 0.026289 -0.016593 -0.001764 0.000000 0.000000 0.000000
# 2 -0.016593 0.032165 0.002482 0.000000 0.000000 0.000000
# 3 -0.001764 0.002482 0.011722 0.000000 0.000000 0.000000
# 4 0.000000 0.000000 0.000000 0.036560 0.000000 0.000000
# 5 0.000000 0.000000 0.000000 0.000000 0.033433 0.000000
# 6 0.000000 0.000000 0.000000 0.000000 0.000000 0.024982
#
#
# Mechanical properties :
#
#
# Convention : Reuss Voigt Hill
#
# Bulk Modulus (GPa) = 26.02353 26.82341 26.42347
# Shear Modulus (GPa) = 23.84237 30.38504 27.11371
#
# Velocity S-wave (km/s) = 3.06964 3.46531 3.27346
# Velocity P-wave (km/s) = 4.77999 5.15868 4.97294
#
# Compressibility (1/GPa) = 0.03842677
#
# Stress axis : x y z
#
# Youngs Moduli (GPa) = 38.03821 31.08961 85.30660
#
# Poissons Ratio (x) = 0.51588 0.15045
# Poissons Ratio (y) = 0.63118 -0.21172
# Poissons Ratio (z) = 0.06709 -0.07716
#
# Static dielectric constant tensor:
#      x y z
#    x 2.056710 0.000000 0.000000 
#    y 0.000000 2.093980 0.000000 
#    z 0.000000 0.000000 2.028090 
# 
# From -- ./inp_files/7148.got.cif
#   From: 2010.05.17/outbox.cif.g08.bks.cpg/sg19_4_cif.got.tgz:7148.got - 2010.06.03 22:46:19.
