data_PCOD9315224
_publ_section_title
;
Structure prediction by ZEFSAII (Michael W. Deem and Ramdas Pophale) SiO2 
 PCOD9315224
Probable space group: P 21 21 21
;
_chemical_formula_sum "Si O2"
_cell_formula_units_Z 24
_cell_length_a 5.096789
_cell_length_b 20.657232
_cell_length_c 8.189736
_cell_angle_alpha 90.000000
_cell_angle_beta 90.000000
_cell_angle_gamma 90.000000
_cell_volume 862.260882
_symmetry_space_group_name_H-M "P 21 21 21"
_symmetry_group_IT_number 19
_symmetry_cell_setting 'orthorhombic'
loop_
_space_group_symop_operation_xyz
x,y,z
1/2-x,-y,1/2+z
1/2+x,1/2-y,-z
-x,1/2+y,1/2-z
loop_
_atom_site_type_symbol
_atom_site_label
_atom_site_fract_x
_atom_site_fract_y
_atom_site_fract_z
Si Si1 0.776891 0.707941 0.740128
Si Si2 0.894891 0.138255 0.541199
Si Si3 0.564848 0.113029 0.238731
Si Si4 0.041588 0.178590 0.108401
Si Si5 0.771913 0.473505 0.559560
Si Si6 0.027528 0.427926 0.243565
O O1 0.677441 0.651357 0.339276
O O2 0.628435 0.639532 0.742404
O O3 0.971842 0.702923 0.892997
O O4 0.567465 0.764948 0.725720
O O5 0.654163 0.142724 0.415715
O O6 0.810988 0.097346 0.702767
O O7 0.096901 0.091492 0.448598
O O8 0.815899 0.123736 0.122912
O O9 0.477051 0.041346 0.293992
O O10 0.060141 0.208352 0.928301
O O11 0.935172 0.473603 0.393630
O O12 0.574305 0.532206 0.589304
#
# Coordination Sequence:
#
# PCOD9315224 Si02
#       6
#     4   4   4   4   4   4
#     4  11  28  50  72 116 151 207 255 328 377 458
#     4  10  24  50  73 114 156 194 263 312 390 456
#     4  11  25  50  77 114 145 204 254 314 376 471
#     4  12  27  49  81 108 159 200 264 310 387 458
#     4  10  23  48  70 115 152 198 254 316 385 458
#     4  10  25  45  75 107 155 199 254 316 381 457
#
# _framework density 27.833807
#
# number of rings (size 3 to 8) (size 9 to 14) (size 15 to 20)
#    0.000    1.333    1.667    1.000    9.333    5.333 
#    9.000    0.000    0.000    0.000    0.000    0.000 
#    0.000    0.000    0.000    0.000    0.000    0.000 
#
# Total GULP energy -134505.324937 kJ/mol
# GULP energy per Si atom -5604.388539 kJ/mol
# Density = 2.777046 g / cm^3
# Si number density = 27.833807 Si / 1000 Ang^3
#
#
#
# Elastic Constant Matrix: (Units=GPa)
#
#
# Indices 1 2 3 4 5 6 
#
# 1 134.8357 18.4953 16.2977 0.0000 0.0000 0.0000
# 2 18.4953 81.6528 6.5000 0.0000 0.0000 0.0000
# 3 16.2977 6.5000 75.1882 0.0000 0.0000 0.0000
# 4 0.0000 0.0000 0.0000 42.0356 0.0000 0.0000
# 5 0.0000 0.0000 0.0000 0.0000 52.0462 0.0000
# 6 0.0000 0.0000 0.0000 0.0000 0.0000 46.9562
#
#
#
# Elastic Compliance Matrix: (Units=1/GPa)
#
#
# Indices 1 2 3 4 5 6 
#
# 1 0.007831 -0.001650 -0.001555 0.000000 0.000000 0.000000
# 2 -0.001650 0.012680 -0.000738 0.000000 0.000000 0.000000
# 3 -0.001555 -0.000738 0.013701 0.000000 0.000000 0.000000
# 4 0.000000 0.000000 0.000000 0.023789 0.000000 0.000000
# 5 0.000000 0.000000 0.000000 0.000000 0.019214 0.000000
# 6 0.000000 0.000000 0.000000 0.000000 0.000000 0.021296
#
#
# Mechanical properties :
#
#
# Convention : Reuss Voigt Hill
#
# Bulk Modulus (GPa) = 37.98730 41.58474 39.78602
# Shear Modulus (GPa) = 43.41341 44.89983 44.15662
#
# Velocity S-wave (km/s) = 3.95363 4.02075 3.98733
# Velocity P-wave (km/s) = 5.87530 6.04384 5.96017
#
# Compressibility (1/GPa) = 0.02632459
#
# Stress axis : x y z
#
# Youngs Moduli (GPa) = 127.70283 78.86744 72.98844
#
# Poissons Ratio (x) = 0.13013 0.11348
# Poissons Ratio (y) = 0.21071 0.05390
# Poissons Ratio (z) = 0.19854 0.05824
#
# Static dielectric constant tensor:
#      x y z
#    x 2.159340 0.000000 0.000000 
#    y 0.000000 2.144450 0.000000 
#    z 0.000000 0.000000 2.240110 
# 
# From -- ./inp_files/2403.got.cif
#   From: 2010.05.17/outbox.cif.g08.bks.cpg/sg19_2_cif.got.tgz:2403.got - 2010.06.03 22:46:19.
