data_PCOD9315628
_publ_section_title
;
Structure prediction by ZEFSAII (Michael W. Deem and Ramdas Pophale) SiO2 
 PCOD9315628
Probable space group: P 21 21 21
;
_chemical_formula_sum "Si O2"
_cell_formula_units_Z 16
_cell_length_a 9.220956
_cell_length_b 5.097515
_cell_length_c 13.120728
_cell_angle_alpha 90.000000
_cell_angle_beta 90.000000
_cell_angle_gamma 90.000000
_cell_volume 616.726194
_symmetry_space_group_name_H-M "P 21 21 21"
_symmetry_group_IT_number 19
_symmetry_cell_setting 'orthorhombic'
loop_
_space_group_symop_operation_xyz
x,y,z
1/2-x,-y,1/2+z
1/2+x,1/2-y,-z
-x,1/2+y,1/2-z
loop_
_atom_site_type_symbol
_atom_site_label
_atom_site_fract_x
_atom_site_fract_y
_atom_site_fract_z
Si Si1 0.888935 0.671864 0.615147
Si Si2 0.152008 0.462779 0.495186
Si Si3 0.243459 0.687274 0.199409
Si Si4 0.836942 0.680696 0.192940
O O1 0.887280 0.790631 0.729342
O O2 0.815875 0.388312 0.635780
O O3 0.772268 0.847874 0.554259
O O4 0.035321 0.639621 0.554518
O O5 0.219091 0.279452 0.582791
O O6 0.078742 0.295837 0.404008
O O7 0.181994 0.400508 0.221996
O O8 0.138942 0.903339 0.251797
#
# Coordination Sequence:
#
# PCOD9315628 Si02
#       4
#     4   4   4   4
#     4   9  24  40  74 108 139 188 248 283 370 420
#     4  11  22  45  76 105 152 182 238 316 350 426
#     4   9  22  40  69 104 137 187 241 283 347 434
#     4   9  22  41  63 107 132 181 247 278 351 420
#
# _framework density 25.943444
#
# number of rings (size 3 to 8) (size 9 to 14) (size 15 to 20)
#    1.500    1.000    0.000    0.000    7.000    4.000 
#    0.000    0.000   33.000    0.000    0.000    0.000 
#    0.000    0.000    0.000    0.000    0.000    0.000 
#
# Total GULP energy -89357.621167 kJ/mol
# GULP energy per Si atom -5584.851323 kJ/mol
# Density = 2.588440 g / cm^3
# Si number density = 25.943444 Si / 1000 Ang^3
#
#
#
# Elastic Constant Matrix: (Units=GPa)
#
#
# Indices 1 2 3 4 5 6 
#
# 1 86.5877 9.7319 34.4273 0.0000 0.0000 0.0000
# 2 9.7319 126.0499 26.1967 0.0000 0.0000 0.0000
# 3 34.4273 26.1967 184.2656 0.0000 0.0000 0.0000
# 4 0.0000 0.0000 0.0000 19.1097 0.0000 0.0000
# 5 0.0000 0.0000 0.0000 0.0000 39.2605 0.0000
# 6 0.0000 0.0000 0.0000 0.0000 0.0000 -2.4661
#
#
#
# Elastic Compliance Matrix: (Units=1/GPa)
#
#
# Indices 1 2 3 4 5 6 
#
# 1 0.012506 -0.000495 -0.002266 0.000000 0.000000 0.000000
# 2 -0.000495 0.008194 -0.001073 0.000000 0.000000 0.000000
# 3 -0.002266 -0.001073 0.006003 0.000000 0.000000 0.000000
# 4 0.000000 0.000000 0.000000 0.052330 0.000000 0.000000
# 5 0.000000 0.000000 0.000000 0.000000 0.025471 0.000000
# 6 0.000000 0.000000 0.000000 0.000000 0.000000 -0.405494
#
#
# Mechanical properties :
#
#
# Convention : Reuss Voigt Hill
#
# Bulk Modulus (GPa) = 52.53127 59.73499 56.13313
# Shear Modulus (GPa) = -17.42293 32.95064 7.76386
#
# Velocity S-wave (km/s) = -2.59428 3.56771 1.73179
# Velocity P-wave (km/s) = 3.36431 6.32822 5.06779
#
# Compressibility (1/GPa) = 0.01903628
#
# Stress axis : x y z
#
# Youngs Moduli (GPa) = 79.96414 122.03367 166.58786
#
# Poissons Ratio (x) = 0.06035 0.37752
# Poissons Ratio (y) = 0.03955 0.17868
# Poissons Ratio (z) = 0.18121 0.13089
#
# Static dielectric constant tensor:
#      x y z
#    x 2.143590 0.000000 0.000000 
#    y 0.000000 2.012090 0.000000 
#    z 0.000000 0.000000 1.973060 
# 
# From -- ./inp_files/4864.got.cif
#   From: 2010.05.17/outbox.cif.g08.bks.cpg/sg19_3_cif.got.tgz:4864.got - 2010.06.03 22:46:19.
