data_PCOD9315330
_publ_section_title
;
Structure prediction by ZEFSAII (Michael W. Deem and Ramdas Pophale) SiO2 
 PCOD9315330
Probable space group: P 21 21 21
;
_chemical_formula_sum "Si O2"
_cell_formula_units_Z 28
_cell_length_a 5.307734
_cell_length_b 16.923633
_cell_length_c 12.087738
_cell_angle_alpha 90.000000
_cell_angle_beta 90.000000
_cell_angle_gamma 90.000000
_cell_volume 1085.794873
_symmetry_space_group_name_H-M "P 21 21 21"
_symmetry_group_IT_number 19
_symmetry_cell_setting 'orthorhombic'
loop_
_space_group_symop_operation_xyz
x,y,z
1/2-x,-y,1/2+z
1/2+x,1/2-y,-z
-x,1/2+y,1/2-z
loop_
_atom_site_type_symbol
_atom_site_label
_atom_site_fract_x
_atom_site_fract_y
_atom_site_fract_z
Si Si1 0.203972 0.122975 0.826290
Si Si2 0.220688 0.371249 0.520177
Si Si3 0.448481 0.260436 0.334597
Si Si4 0.643206 0.005564 0.334476
Si Si5 0.032936 0.302446 0.994991
Si Si6 0.482027 0.020774 0.648559
Si Si7 0.801182 0.375093 0.788861
O O1 0.438839 0.143434 0.903580
O O2 0.292206 0.069001 0.725281
O O3 0.091295 0.199597 0.767479
O O4 0.990103 0.070733 0.886604
O O5 0.359952 0.327235 0.419989
O O6 0.342596 0.440847 0.596042
O O7 0.121882 0.299375 0.595216
O O8 0.013517 0.427721 0.460953
O O9 0.232544 0.205172 0.277551
O O10 0.433856 0.069559 0.300941
O O11 0.763699 0.977975 0.219751
O O12 0.804117 0.237542 0.991449
O O13 0.003125 0.351104 0.882247
O O14 0.399090 0.929509 0.648235
#
# Coordination Sequence:
#
# PCOD9315330 Si02
#       7
#     4   4   4   4   4   4   4
#     4  11  24  46  69 103 144 190 253 312 378 456
#     4  11  24  41  70 102 142 188 240 306 383 442
#     4  11  23  45  69 107 144 186 253 315 372 449
#     4  10  24  45  67 104 142 195 243 312 378 464
#     4  12  28  45  75 107 147 198 249 313 385 444
#     4  11  24  43  73  97 146 191 243 311 379 458
#     4  10  25  45  69 102 145 190 253 307 377 455
#
# _framework density 25.787558000000001
#
# number of rings (size 3 to 8) (size 9 to 14) (size 15 to 20)
#    0.000    1.143    2.857    1.714    8.000    1.143 
#    2.571    0.000    0.000    0.000    0.000    0.000 
#    0.000    0.000    0.000    0.000    0.000    0.000 
#
# Total GULP energy -156517.565043 kJ/mol
# GULP energy per Si atom -5589.913037 kJ/mol
# Density = 2.572886 g / cm^3
# Si number density = 25.787558 Si / 1000 Ang^3
#
#
#
# Elastic Constant Matrix: (Units=GPa)
#
#
# Indices 1 2 3 4 5 6 
#
# 1 52.0841 30.2844 8.9432 0.0000 0.0000 0.0000
# 2 30.2844 114.3065 50.2492 0.0000 0.0000 0.0000
# 3 8.9432 50.2492 112.6577 0.0000 0.0000 0.0000
# 4 0.0000 0.0000 0.0000 58.6027 0.0000 0.0000
# 5 0.0000 0.0000 0.0000 0.0000 29.9436 0.0000
# 6 0.0000 0.0000 0.0000 0.0000 0.0000 36.8328
#
#
#
# Elastic Compliance Matrix: (Units=1/GPa)
#
#
# Indices 1 2 3 4 5 6 
#
# 1 0.022805 -0.006526 0.001100 0.000000 0.000000 0.000000
# 2 -0.006526 0.012750 -0.005169 0.000000 0.000000 0.000000
# 3 0.001100 -0.005169 0.011095 0.000000 0.000000 0.000000
# 4 0.000000 0.000000 0.000000 0.017064 0.000000 0.000000
# 5 0.000000 0.000000 0.000000 0.000000 0.033396 0.000000
# 6 0.000000 0.000000 0.000000 0.000000 0.000000 0.027150
#
#
# Mechanical properties :
#
#
# Convention : Reuss Voigt Hill
#
# Bulk Modulus (GPa) = 39.27565 50.88909 45.08237
# Shear Modulus (GPa) = 32.48141 37.71393 35.09767
#
# Velocity S-wave (km/s) = 3.55290 3.82839 3.69322
# Velocity P-wave (km/s) = 5.66519 6.27048 5.97550
#
# Compressibility (1/GPa) = 0.02546107
#
# Stress axis : x y z
#
# Youngs Moduli (GPa) = 43.84965 78.43444 90.13467
#
# Poissons Ratio (x) = 0.51184 -0.09918
# Poissons Ratio (y) = 0.28615 0.46588
# Poissons Ratio (z) = -0.04825 0.40540
#
# Static dielectric constant tensor:
#      x y z
#    x 2.066630 0.000000 0.000000 
#    y 0.000000 2.089470 0.000000 
#    z 0.000000 0.000000 2.091400 
# 
# From -- ./inp_files/1732.got.cif
#   From: 2010.05.17/outbox.cif.g08.bks.cpg/sg19_1_cif.got.tgz:1732.got - 2010.06.03 22:46:19.
