data_PCOD9315668
_publ_section_title
;
Structure prediction by ZEFSAII (Michael W. Deem and Ramdas Pophale) SiO2 
 PCOD9315668
Probable space group: P 21 21 21
;
_chemical_formula_sum "Si O2"
_cell_formula_units_Z 28
_cell_length_a 6.615010
_cell_length_b 18.927580
_cell_length_c 9.904128
_cell_angle_alpha 90.000000
_cell_angle_beta 90.000000
_cell_angle_gamma 90.000000
_cell_volume 1240.057548
_symmetry_space_group_name_H-M "P 21 21 21"
_symmetry_group_IT_number 19
_symmetry_cell_setting 'orthorhombic'
loop_
_space_group_symop_operation_xyz
x,y,z
1/2-x,-y,1/2+z
1/2+x,1/2-y,-z
-x,1/2+y,1/2-z
loop_
_atom_site_type_symbol
_atom_site_label
_atom_site_fract_x
_atom_site_fract_y
_atom_site_fract_z
Si Si1 0.619118 0.431176 0.287499
Si Si2 0.484874 0.176816 0.680153
Si Si3 0.327786 0.477512 0.518168
Si Si4 0.148375 0.074071 0.267736
Si Si5 0.028047 0.363402 0.605458
Si Si6 0.297064 0.373334 0.096073
Si Si7 0.844270 0.183278 0.169061
O O1 0.794553 0.376637 0.326834
O O2 0.436216 0.442351 0.391592
O O3 0.718972 0.508818 0.283398
O O4 0.512093 0.400077 0.153713
O O5 0.550958 0.187508 0.524195
O O6 0.657068 0.144022 0.775898
O O7 0.420500 0.247659 0.755192
O O8 0.479274 0.461738 0.639870
O O9 0.120495 0.437404 0.551445
O O10 0.295402 0.560664 0.512984
O O11 0.298806 0.124135 0.351602
O O12 0.021708 0.124260 0.170018
O O13 0.157749 0.341709 0.736362
O O14 0.296284 0.309448 0.989156
#
# Coordination Sequence:
#
# PCOD9315668 Si02
#       7
#     4   4   4   4   4   4   4
#     4  12  25  42  75 105 141 189 240 293 365 430
#     4  12  28  48  72 105 146 195 239 295 367 439
#     4  11  23  42  70 111 131 181 237 301 357 415
#     4  11  24  44  72 103 137 185 241 294 354 419
#     4  11  24  47  74 102 140 182 244 302 350 426
#     4  12  27  47  71 105 154 181 243 306 364 428
#     4  11  31  46  72 105 147 195 240 295 365 437
#
# _framework density 22.579595999999999
#
# number of rings (size 3 to 8) (size 9 to 14) (size 15 to 20)
#    0.000    0.571    5.714    0.857   10.000    2.286 
#    0.000    0.000    0.000    0.000    0.000    0.000 
#    0.000    0.000    0.000    0.000    0.000    0.000 
#
# Total GULP energy -156560.493968 kJ/mol
# GULP energy per Si atom -5591.446213 kJ/mol
# Density = 2.252820 g / cm^3
# Si number density = 22.579596 Si / 1000 Ang^3
#
#
#
# Elastic Constant Matrix: (Units=GPa)
#
#
# Indices 1 2 3 4 5 6 
#
# 1 81.4122 -0.0726 25.8764 0.0000 0.0000 0.0000
# 2 -0.0726 29.2049 -16.1219 0.0000 0.0000 0.0000
# 3 25.8764 -16.1219 73.2432 0.0000 0.0000 0.0000
# 4 0.0000 0.0000 0.0000 -9.5003 0.0000 0.0000
# 5 0.0000 0.0000 0.0000 0.0000 31.0184 0.0000
# 6 0.0000 0.0000 0.0000 0.0000 0.0000 20.6434
#
#
#
# Elastic Compliance Matrix: (Units=1/GPa)
#
#
# Indices 1 2 3 4 5 6 
#
# 1 0.014077 -0.003085 -0.005652 0.000000 0.000000 0.000000
# 2 -0.003085 0.039653 0.009818 0.000000 0.000000 0.000000
# 3 -0.005652 0.009818 0.017811 0.000000 0.000000 0.000000
# 4 0.000000 0.000000 0.000000 -0.105260 0.000000 0.000000
# 5 0.000000 0.000000 0.000000 0.000000 0.032239 0.000000
# 6 0.000000 0.000000 0.000000 0.000000 0.000000 0.048442
#
#
# Mechanical properties :
#
#
# Convention : Reuss Voigt Hill
#
# Bulk Modulus (GPa) = 13.56809 22.58045 18.07427
# Shear Modulus (GPa) = 72.07897 20.04420 46.06158
#
# Velocity S-wave (km/s) = 5.65610 2.98268 4.52150
# Velocity P-wave (km/s) = 6.97692 4.67803 5.93975
#
# Compressibility (1/GPa) = 0.07370234
#
# Stress axis : x y z
#
# Youngs Moduli (GPa) = 71.03787 25.21872 56.14432
#
# Poissons Ratio (x) = 0.07781 0.31735
# Poissons Ratio (y) = 0.21917 -0.55124
# Poissons Ratio (z) = 0.40154 -0.24760
#
# Static dielectric constant tensor:
#      x y z
#    x 1.817180 0.000000 0.000000 
#    y 0.000000 1.859610 0.000000 
#    z 0.000000 0.000000 1.875640 
# 
# From -- ./inp_files/4484.got.cif
#   From: 2010.05.17/outbox.cif.g08.bks.cpg/sg19_3_cif.got.tgz:4484.got - 2010.06.03 22:46:19.
