data_PCOD9315151
_publ_section_title
;
Structure prediction by ZEFSAII (Michael W. Deem and Ramdas Pophale) SiO2 
 PCOD9315151
Probable space group: P 21 21 21
;
_chemical_formula_sum "Si O2"
_cell_formula_units_Z 28
_cell_length_a 12.719076
_cell_length_b 11.744890
_cell_length_c 9.555994
_cell_angle_alpha 90.000000
_cell_angle_beta 90.000000
_cell_angle_gamma 90.000000
_cell_volume 1427.514027
_symmetry_space_group_name_H-M "P 21 21 21"
_symmetry_group_IT_number 19
_symmetry_cell_setting 'orthorhombic'
loop_
_space_group_symop_operation_xyz
x,y,z
1/2-x,-y,1/2+z
1/2+x,1/2-y,-z
-x,1/2+y,1/2-z
loop_
_atom_site_type_symbol
_atom_site_label
_atom_site_fract_x
_atom_site_fract_y
_atom_site_fract_z
Si Si1 0.374760 0.695318 0.802742
Si Si2 0.320175 0.290055 0.117675
Si Si3 0.196033 0.555911 0.351862
Si Si4 0.422065 0.441510 0.350448
Si Si5 0.238558 0.870778 0.973276
Si Si6 0.912503 0.201672 0.377669
Si Si7 0.145750 0.959205 0.683219
O O1 0.301767 0.707645 0.666127
O O2 0.368808 0.562262 0.842009
O O3 0.489138 0.749769 0.791432
O O4 0.315381 0.769824 0.920868
O O5 0.386621 0.340882 0.246492
O O6 0.352158 0.160089 0.099778
O O7 0.333566 0.372177 0.987536
O O8 0.318647 0.520812 0.357437
O O9 0.168929 0.634338 0.219694
O O10 0.445563 0.387169 0.501646
O O11 0.525893 0.502665 0.296062
O O12 0.141118 0.807722 0.045281
O O13 0.294095 0.949778 0.087413
O O14 0.201964 0.936695 0.832688
#
# Coordination Sequence:
#
# PCOD9315151 Si02
#       7
#     4   4   4   4   4   4   4
#     4  10  23  44  68  95 144 172 232 283 345 406
#     4  10  24  44  61 104 137 171 234 285 322 425
#     4  11  25  41  70 101 138 178 233 283 337 416
#     4  11  22  44  70  94 132 183 228 279 341 403
#     4  11  25  45  66 100 136 180 227 288 340 420
#     4  12  24  43  72 101 136 187 223 285 355 399
#     4  11  25  45  69  95 143 175 225 283 350 405
#
# _framework density 19.614518
#
# number of rings (size 3 to 8) (size 9 to 14) (size 15 to 20)
#    0.000    1.143    5.714    1.714    4.000    5.714 
#    0.000    0.000    0.000    0.000    0.000    0.000 
#    0.000    0.000    0.000    0.000    0.000    0.000 
#
# Total GULP energy -156429.221933 kJ/mol
# GULP energy per Si atom -5586.757926 kJ/mol
# Density = 1.956987 g / cm^3
# Si number density = 19.614518 Si / 1000 Ang^3
#
#
#
# Elastic Constant Matrix: (Units=GPa)
#
#
# Indices 1 2 3 4 5 6 
#
# 1 67.6824 24.2293 3.0571 0.0000 0.0000 0.0000
# 2 24.2293 81.1052 33.4482 0.0000 0.0000 0.0000
# 3 3.0571 33.4482 69.2368 0.0000 0.0000 0.0000
# 4 0.0000 0.0000 0.0000 29.8916 0.0000 0.0000
# 5 0.0000 0.0000 0.0000 0.0000 11.2426 0.0000
# 6 0.0000 0.0000 0.0000 0.0000 0.0000 17.3255
#
#
#
# Elastic Compliance Matrix: (Units=1/GPa)
#
#
# Indices 1 2 3 4 5 6 
#
# 1 0.016785 -0.005880 0.002100 0.000000 0.000000 0.000000
# 2 -0.005880 0.017457 -0.008174 0.000000 0.000000 0.000000
# 3 0.002100 -0.008174 0.018299 0.000000 0.000000 0.000000
# 4 0.000000 0.000000 0.000000 0.033454 0.000000 0.000000
# 5 0.000000 0.000000 0.000000 0.000000 0.088947 0.000000
# 6 0.000000 0.000000 0.000000 0.000000 0.000000 0.057718
#
#
# Mechanical properties :
#
#
# Convention : Reuss Voigt Hill
#
# Bulk Modulus (GPa) = 34.92535 37.72150 36.32342
# Shear Modulus (GPa) = 18.78889 22.17794 20.48342
#
# Velocity S-wave (km/s) = 3.09837 3.36622 3.23507
# Velocity P-wave (km/s) = 5.53573 5.86360 5.70202
#
# Compressibility (1/GPa) = 0.02863250
#
# Stress axis : x y z
#
# Youngs Moduli (GPa) = 59.57672 57.28255 54.64681
#
# Poissons Ratio (x) = 0.33684 -0.11474
# Poissons Ratio (y) = 0.35033 0.44668
# Poissons Ratio (z) = -0.12509 0.46823
#
# Static dielectric constant tensor:
#      x y z
#    x 1.692360 0.000000 0.000000 
#    y 0.000000 1.680380 0.000000 
#    z 0.000000 0.000000 1.693520 
# 
# From -- ./inp_files/3472.got.cif
#   From: 2010.05.17/outbox.cif.g08.bks.cpg/sg19_2_cif.got.tgz:3472.got - 2010.06.03 22:46:19.
