data_PCOD9315071
_publ_section_title
;
Structure prediction by ZEFSAII (Michael W. Deem and Ramdas Pophale) SiO2 
 PCOD9315071
Probable space group: P 21 21 21
;
_chemical_formula_sum "Si O2"
_cell_formula_units_Z 28
_cell_length_a 9.356784
_cell_length_b 9.519386
_cell_length_c 15.036972
_cell_angle_alpha 90.000000
_cell_angle_beta 90.000000
_cell_angle_gamma 90.000000
_cell_volume 1339.355706
_symmetry_space_group_name_H-M "P 21 21 21"
_symmetry_group_IT_number 19
_symmetry_cell_setting 'orthorhombic'
loop_
_space_group_symop_operation_xyz
x,y,z
1/2-x,-y,1/2+z
1/2+x,1/2-y,-z
-x,1/2+y,1/2-z
loop_
_atom_site_type_symbol
_atom_site_label
_atom_site_fract_x
_atom_site_fract_y
_atom_site_fract_z
Si Si1 0.377454 0.783750 0.089150
Si Si2 0.862084 0.377208 0.073443
Si Si3 0.188170 0.163222 0.243179
Si Si4 0.274796 0.678450 0.279110
Si Si5 0.456315 0.543900 0.721889
Si Si6 0.327399 0.136020 0.436942
Si Si7 0.942494 0.389251 0.888590
O O1 0.318968 0.754577 0.187863
O O2 0.506716 0.677434 0.065755
O O3 0.433876 0.944206 0.091154
O O4 0.254948 0.778785 0.013991
O O5 0.811774 0.272323 0.150162
O O6 0.725368 0.474819 0.049453
O O7 0.989484 0.466773 0.119875
O O8 0.927685 0.314475 0.984075
O O9 0.084738 0.296679 0.240704
O O10 0.264852 0.165643 0.338752
O O11 0.309128 0.162568 0.169273
O O12 0.091898 0.024589 0.228824
O O13 0.179743 0.547549 0.248204
O O14 0.416737 0.636605 0.332014
#
# Coordination Sequence:
#
# PCOD9315071 Si02
#       7
#     4   4   4   4   4   4   4
#     4  11  24  42  68 103 136 186 233 293 351 419
#     4  10  25  45  68 102 143 179 238 293 347 423
#     4  11  23  45  66  98 140 179 228 294 343 420
#     4  12  25  43  74  98 139 189 232 287 360 423
#     4  11  24  43  71  98 136 184 232 281 356 413
#     4  10  23  42  68  98 141 177 234 291 341 419
#     4  11  26  44  69 101 147 180 239 289 356 419
#
# _framework density 20.905576
#
# number of rings (size 3 to 8) (size 9 to 14) (size 15 to 20)
#    0.000    1.143    2.857    2.571    8.000    1.143 
#    0.000    1.429    0.000    0.000    0.000    0.000 
#    0.000    0.000    0.000    0.000    0.000    0.000 
#
# Total GULP energy -156352.944266 kJ/mol
# GULP energy per Si atom -5584.033724 kJ/mol
# Density = 2.085799 g / cm^3
# Si number density = 20.905576 Si / 1000 Ang^3
#
#
#
# Elastic Constant Matrix: (Units=GPa)
#
#
# Indices 1 2 3 4 5 6 
#
# 1 101.3053 18.9323 57.3969 0.0000 0.0000 0.0000
# 2 18.9323 50.5901 6.7259 0.0000 0.0000 0.0000
# 3 57.3969 6.7259 113.7216 0.0000 0.0000 0.0000
# 4 0.0000 0.0000 0.0000 21.4884 0.0000 0.0000
# 5 0.0000 0.0000 0.0000 0.0000 39.0269 0.0000
# 6 0.0000 0.0000 0.0000 0.0000 0.0000 30.6602
#
#
#
# Elastic Compliance Matrix: (Units=1/GPa)
#
#
# Indices 1 2 3 4 5 6 
#
# 1 0.014809 -0.004584 -0.007203 0.000000 0.000000 0.000000
# 2 -0.004584 0.021343 0.001051 0.000000 0.000000 0.000000
# 3 -0.007203 0.001051 0.012367 0.000000 0.000000 0.000000
# 4 0.000000 0.000000 0.000000 0.046537 0.000000 0.000000
# 5 0.000000 0.000000 0.000000 0.000000 0.025623 0.000000
# 6 0.000000 0.000000 0.000000 0.000000 0.000000 0.032616
#
#
# Mechanical properties :
#
#
# Convention : Reuss Voigt Hill
#
# Bulk Modulus (GPa) = 36.97365 47.96968 42.47167
# Shear Modulus (GPa) = 27.20624 30.40589 28.80606
#
# Velocity S-wave (km/s) = 3.61139 3.81785 3.71605
# Velocity P-wave (km/s) = 5.92570 6.51386 6.22673
#
# Compressibility (1/GPa) = 0.02704629
#
# Stress axis : x y z
#
# Youngs Moduli (GPa) = 67.52643 46.85485 80.86191
#
# Poissons Ratio (x) = 0.21480 0.58246
# Poissons Ratio (y) = 0.30956 -0.08503
# Poissons Ratio (z) = 0.48641 -0.04927
#
# Static dielectric constant tensor:
#      x y z
#    x 1.752330 0.000000 0.000000 
#    y 0.000000 1.796020 0.000000 
#    z 0.000000 0.000000 1.742660 
# 
# From -- ./inp_files/5851.got.cif
#   From: 2010.05.17/outbox.cif.g08.bks.cpg/sg19_3_cif.got.tgz:5851.got - 2010.06.03 22:46:19.
