data_PCOD9315239
_publ_section_title
;
Structure prediction by ZEFSAII (Michael W. Deem and Ramdas Pophale) SiO2 
 PCOD9315239
Probable space group: P 21 21 21
;
_chemical_formula_sum "Si O2"
_cell_formula_units_Z 20
_cell_length_a 4.867242
_cell_length_b 5.417116
_cell_length_c 30.827536
_cell_angle_alpha 90.000000
_cell_angle_beta 90.000000
_cell_angle_gamma 90.000000
_cell_volume 812.811593
_symmetry_space_group_name_H-M "P 21 21 21"
_symmetry_group_IT_number 19
_symmetry_cell_setting 'orthorhombic'
loop_
_space_group_symop_operation_xyz
x,y,z
1/2-x,-y,1/2+z
1/2+x,1/2-y,-z
-x,1/2+y,1/2-z
loop_
_atom_site_type_symbol
_atom_site_label
_atom_site_fract_x
_atom_site_fract_y
_atom_site_fract_z
Si Si1 0.113174 0.803335 0.861465
Si Si2 0.669710 0.869676 0.302624
Si Si3 0.614008 0.713496 0.918930
Si Si4 0.622315 0.218353 0.971044
Si Si5 0.701938 0.366792 0.281804
O O1 0.920945 0.709651 0.900274
O O2 0.044829 0.654517 0.817631
O O3 0.416966 0.779301 0.878667
O O4 0.986775 0.070941 0.847368
O O5 0.835788 0.620587 0.296517
O O6 0.851574 0.108803 0.290440
O O7 0.437224 0.867302 0.265022
O O8 0.550401 0.447405 0.939520
O O9 0.582802 0.945905 0.951296
O O10 0.434053 0.248558 0.013453
#
# Coordination Sequence:
#
# PCOD9315239 Si02
#       5
#     4   4   4   4   4
#     4  10  24  39  62  95 132 158 214 259 302 355
#     4   8  16  32  58  80 124 168 212 246 298 348
#     4  12  26  41  70  97 124 160 200 261 316 357
#     4  12  26  48  70  94 124 160 200 246 316 400
#     4   8  16  32  58  80 124 168 212 246 298 348
#
# _framework density 24.605948999999999
#
# number of rings (size 3 to 8) (size 9 to 14) (size 15 to 20)
#    1.200    0.800    0.000    3.600    5.600    0.000 
#    0.000    2.000    0.000    0.000    0.000    0.000 
#    0.000    0.000    0.000    0.000    0.000    0.000 
#
# Total GULP energy -111672.658667 kJ/mol
# GULP energy per Si atom -5583.632933 kJ/mol
# Density = 2.454994 g / cm^3
# Si number density = 24.605949 Si / 1000 Ang^3
#
#
#
# Elastic Constant Matrix: (Units=GPa)
#
#
# Indices 1 2 3 4 5 6 
#
# 1 51.4148 14.0518 -1.5826 0.0000 0.0000 0.0000
# 2 14.0518 138.7423 -4.1299 0.0000 0.0000 0.0000
# 3 -1.5826 -4.1299 53.3121 0.0000 0.0000 0.0000
# 4 0.0000 0.0000 0.0000 39.4965 0.0000 0.0000
# 5 0.0000 0.0000 0.0000 0.0000 45.3428 0.0000
# 6 0.0000 0.0000 0.0000 0.0000 0.0000 10.5210
#
#
#
# Elastic Compliance Matrix: (Units=1/GPa)
#
#
# Indices 1 2 3 4 5 6 
#
# 1 0.020014 -0.002014 0.000438 0.000000 0.000000 0.000000
# 2 -0.002014 0.007427 0.000516 0.000000 0.000000 0.000000
# 3 0.000438 0.000516 0.018810 0.000000 0.000000 0.000000
# 4 0.000000 0.000000 0.000000 0.025319 0.000000 0.000000
# 5 0.000000 0.000000 0.000000 0.000000 0.022054 0.000000
# 6 0.000000 0.000000 0.000000 0.000000 0.000000 0.095048
#
#
# Mechanical properties :
#
#
# Convention : Reuss Voigt Hill
#
# Bulk Modulus (GPa) = 22.66013 28.90530 25.78272
# Shear Modulus (GPa) = 24.33060 34.74739 29.53900
#
# Velocity S-wave (km/s) = 3.14795 3.76194 3.46856
# Velocity P-wave (km/s) = 4.73729 5.53556 5.15191
#
# Compressibility (1/GPa) = 0.04413037
#
# Stress axis : x y z
#
# Youngs Moduli (GPa) = 49.96612 134.64527 53.16206
#
# Poissons Ratio (x) = 0.27117 -0.02329
# Poissons Ratio (y) = 0.10063 -0.02741
# Poissons Ratio (z) = -0.02189 -0.06942
#
# Static dielectric constant tensor:
#      x y z
#    x 1.837730 0.000000 0.000000 
#    y 0.000000 2.136920 0.000000 
#    z 0.000000 0.000000 1.943680 
# 
# From -- ./inp_files/7434.got.cif
#   From: 2010.05.17/outbox.cif.g08.bks.cpg/sg19_4_cif.got.tgz:7434.got - 2010.06.03 22:46:19.
