data_PCOD9315778
_publ_section_title
;
Structure prediction by ZEFSAII (Michael W. Deem and Ramdas Pophale) SiO2 
 PCOD9315778
Probable space group: P 21 21 21
;
_chemical_formula_sum "Si O2"
_cell_formula_units_Z 20
_cell_length_a 6.608735
_cell_length_b 17.583459
_cell_length_c 7.724841
_cell_angle_alpha 90.000000
_cell_angle_beta 90.000000
_cell_angle_gamma 90.000000
_cell_volume 897.660675
_symmetry_space_group_name_H-M "P 21 21 21"
_symmetry_group_IT_number 19
_symmetry_cell_setting 'orthorhombic'
loop_
_space_group_symop_operation_xyz
x,y,z
1/2-x,-y,1/2+z
1/2+x,1/2-y,-z
-x,1/2+y,1/2-z
loop_
_atom_site_type_symbol
_atom_site_label
_atom_site_fract_x
_atom_site_fract_y
_atom_site_fract_z
Si Si1 0.226836 0.857173 0.941613
Si Si2 0.659420 0.085075 0.279834
Si Si3 0.007295 0.190621 0.125986
Si Si4 0.009396 0.990854 0.446570
Si Si5 0.294708 0.157960 0.825494
O O1 0.331347 0.813903 0.782452
O O2 0.990942 0.869707 0.904652
O O3 0.335280 0.939450 0.947252
O O4 0.259436 0.820783 0.129277
O O5 0.814295 0.141770 0.184961
O O6 0.797149 0.024036 0.379300
O O7 0.522763 0.043750 0.136350
O O8 0.940417 0.277027 0.099016
O O9 0.104689 0.155872 0.953727
O O10 0.094272 0.922990 0.328913
#
# Coordination Sequence:
#
# PCOD9315778 Si02
#       5
#     4   4   4   4   4
#     4  11  26  47  72 104 147 188 245 302 364 439
#     4  11  24  46  70 109 144 190 246 299 366 438
#     4  11  28  47  68 107 147 189 246 298 365 449
#     4  11  24  43  74 105 144 187 247 299 366 432
#     4  12  26  47  76 101 150 194 236 308 369 428
#
# _framework density 22.280131999999998
#
# number of rings (size 3 to 8) (size 9 to 14) (size 15 to 20)
#    0.000    0.800    2.000    3.600   11.200    0.000 
#    3.600    0.000    0.000    0.000    0.000    0.000 
#    0.000    0.000    0.000    0.000    0.000    0.000 
#
# Total GULP energy -112050.156632 kJ/mol
# GULP energy per Si atom -5602.507832 kJ/mol
# Density = 2.222942 g / cm^3
# Si number density = 22.280132 Si / 1000 Ang^3
#
#
#
# Elastic Constant Matrix: (Units=GPa)
#
#
# Indices 1 2 3 4 5 6 
#
# 1 94.3913 11.6270 36.5153 0.0000 0.0000 0.0000
# 2 11.6270 34.3074 -20.0798 0.0000 0.0000 0.0000
# 3 36.5153 -20.0798 119.2797 0.0000 0.0000 0.0000
# 4 0.0000 0.0000 0.0000 14.0394 0.0000 0.0000
# 5 0.0000 0.0000 0.0000 0.0000 34.6291 0.0000
# 6 0.0000 0.0000 0.0000 0.0000 0.0000 32.1356
#
#
#
# Elastic Compliance Matrix: (Units=1/GPa)
#
#
# Indices 1 2 3 4 5 6 
#
# 1 0.013699 -0.007873 -0.005519 0.000000 0.000000 0.000000
# 2 -0.007873 0.036859 0.008615 0.000000 0.000000 0.000000
# 3 -0.005519 0.008615 0.011523 0.000000 0.000000 0.000000
# 4 0.000000 0.000000 0.000000 0.071228 0.000000 0.000000
# 5 0.000000 0.000000 0.000000 0.000000 0.028877 0.000000
# 6 0.000000 0.000000 0.000000 0.000000 0.000000 0.031118
#
#
# Mechanical properties :
#
#
# Convention : Reuss Voigt Hill
#
# Bulk Modulus (GPa) = 19.03774 33.78925 26.41349
# Shear Modulus (GPa) = 22.68936 30.82189 26.75562
#
# Velocity S-wave (km/s) = 3.19465 3.72342 3.46912
# Velocity P-wave (km/s) = 4.70861 5.80376 5.28463
#
# Compressibility (1/GPa) = 0.05252726
#
# Stress axis : x y z
#
# Youngs Moduli (GPa) = 72.99799 27.13069 86.77938
#
# Poissons Ratio (x) = 0.21360 0.47894
# Poissons Ratio (y) = 0.57471 -0.74760
# Poissons Ratio (z) = 0.40288 -0.23373
#
# Static dielectric constant tensor:
#      x y z
#    x 1.806430 0.000000 0.000000 
#    y 0.000000 1.804940 0.000000 
#    z 0.000000 0.000000 1.836760 
# 
# From -- ./inp_files/315.got.cif
#   From: 2010.05.17/outbox.cif.g08.bks.cpg/sg19_1_cif.got.tgz:315.got - 2010.06.03 22:46:19.
