data_PCOD9315548
_publ_section_title
;
Structure prediction by ZEFSAII (Michael W. Deem and Ramdas Pophale) SiO2 
 PCOD9315548
Probable space group: P 21 21 21
;
_chemical_formula_sum "Si O2"
_cell_formula_units_Z 24
_cell_length_a 10.347022
_cell_length_b 16.753235
_cell_length_c 5.519245
_cell_angle_alpha 90.000000
_cell_angle_beta 90.000000
_cell_angle_gamma 90.000000
_cell_volume 956.739547
_symmetry_space_group_name_H-M "P 21 21 21"
_symmetry_group_IT_number 19
_symmetry_cell_setting 'orthorhombic'
loop_
_space_group_symop_operation_xyz
x,y,z
1/2-x,-y,1/2+z
1/2+x,1/2-y,-z
-x,1/2+y,1/2-z
loop_
_atom_site_type_symbol
_atom_site_label
_atom_site_fract_x
_atom_site_fract_y
_atom_site_fract_z
Si Si1 0.155329 0.402462 0.827112
Si Si2 0.071363 0.976958 0.952209
Si Si3 0.224550 0.822986 0.990076
Si Si4 0.666289 0.762279 0.524829
Si Si5 0.912273 0.030695 0.344056
Si Si6 0.017478 0.136531 0.708007
O O1 0.281669 0.458394 0.804319
O O2 0.055244 0.421426 0.611733
O O3 0.212294 0.318007 0.899926
O O4 0.082477 0.442795 0.047560
O O5 0.079321 0.049891 0.765808
O O6 0.185136 0.915181 0.965896
O O7 0.040133 0.029557 0.186875
O O8 0.147197 0.788178 0.227275
O O9 0.374124 0.814559 0.067480
O O10 0.196421 0.784961 0.725736
O O11 0.547029 0.818191 0.434508
O O12 0.905929 0.105623 0.527119
#
# Coordination Sequence:
#
# PCOD9315548 Si02
#       6
#     4   4   4   4   4   4
#     4  11  22  44  76 111 150 198 260 332 376 470
#     4  11  27  47  81 114 154 211 274 321 397 464
#     4  12  33  50  80 115 164 211 259 330 407 482
#     4  12  29  52  75 119 158 213 259 327 407 465
#     4  11  21  42  79 113 144 198 266 325 384 450
#     4  11  28  51  79 112 160 207 266 327 389 481
#
# _framework density 25.085198999999999
#
# number of rings (size 3 to 8) (size 9 to 14) (size 15 to 20)
#    0.000    0.667    3.333    2.000   14.000    0.000 
#    0.000    0.000    0.000    0.000    0.000    0.000 
#    0.000    0.000    0.000    0.000    0.000    0.000 
#
# Total GULP energy -133929.902469 kJ/mol
# GULP energy per Si atom -5580.412603 kJ/mol
# Density = 2.502810 g / cm^3
# Si number density = 25.085199 Si / 1000 Ang^3
#
#
#
# Elastic Constant Matrix: (Units=GPa)
#
#
# Indices 1 2 3 4 5 6 
#
# 1 67.5766 24.7973 14.9549 0.0000 0.0000 0.0000
# 2 24.7973 73.1091 40.6114 0.0000 0.0000 0.0000
# 3 14.9549 40.6114 123.1206 0.0000 0.0000 0.0000
# 4 0.0000 0.0000 0.0000 26.0252 0.0000 0.0000
# 5 0.0000 0.0000 0.0000 0.0000 26.5442 0.0000
# 6 0.0000 0.0000 0.0000 0.0000 0.0000 44.9957
#
#
#
# Elastic Compliance Matrix: (Units=1/GPa)
#
#
# Indices 1 2 3 4 5 6 
#
# 1 0.016906 -0.005624 -0.000198 0.000000 0.000000 0.000000
# 2 -0.005624 0.018618 -0.005458 0.000000 0.000000 0.000000
# 3 -0.000198 -0.005458 0.009947 0.000000 0.000000 0.000000
# 4 0.000000 0.000000 0.000000 0.038424 0.000000 0.000000
# 5 0.000000 0.000000 0.000000 0.000000 0.037673 0.000000
# 6 0.000000 0.000000 0.000000 0.000000 0.000000 0.022224
#
#
# Mechanical properties :
#
#
# Convention : Reuss Voigt Hill
#
# Bulk Modulus (GPa) = 43.65044 47.17040 45.41042
# Shear Modulus (GPa) = 28.73758 31.74251 30.24005
#
# Velocity S-wave (km/s) = 3.38834 3.56109 3.47579
# Velocity P-wave (km/s) = 5.72245 5.97941 5.85234
#
# Compressibility (1/GPa) = 0.02290928
#
# Stress axis : x y z
#
# Youngs Moduli (GPa) = 59.15195 53.71284 100.53777
#
# Poissons Ratio (x) = 0.30207 0.01995
# Poissons Ratio (y) = 0.33266 0.54872
# Poissons Ratio (z) = 0.01174 0.29316
#
# Static dielectric constant tensor:
#      x y z
#    x 2.008380 0.000000 0.000000 
#    y 0.000000 1.980310 0.000000 
#    z 0.000000 0.000000 2.072070 
# 
# From -- ./inp_files/429.got.cif
#   From: 2010.05.17/outbox.cif.g08.bks.cpg/sg19_1_cif.got.tgz:429.got - 2010.06.03 22:46:19.
