data_PCOD9315380
_publ_section_title
;
Structure prediction by ZEFSAII (Michael W. Deem and Ramdas Pophale) SiO2 
 PCOD9315380
Probable space group: P 21 21 21
;
_chemical_formula_sum "Si O2"
_cell_formula_units_Z 28
_cell_length_a 16.520839
_cell_length_b 5.719355
_cell_length_c 12.106766
_cell_angle_alpha 90.000000
_cell_angle_beta 90.000000
_cell_angle_gamma 90.000000
_cell_volume 1143.950681
_symmetry_space_group_name_H-M "P 21 21 21"
_symmetry_group_IT_number 19
_symmetry_cell_setting 'orthorhombic'
loop_
_space_group_symop_operation_xyz
x,y,z
1/2-x,-y,1/2+z
1/2+x,1/2-y,-z
-x,1/2+y,1/2-z
loop_
_atom_site_type_symbol
_atom_site_label
_atom_site_fract_x
_atom_site_fract_y
_atom_site_fract_z
Si Si1 0.332078 0.535127 0.534595
Si Si2 0.862732 0.530607 0.549936
Si Si3 0.213696 0.166951 0.420035
Si Si4 0.082777 0.827973 0.167809
Si Si5 0.594311 0.960771 0.633452
Si Si6 0.836744 0.278179 0.923098
Si Si7 0.542092 0.690019 0.228551
O O1 0.284121 0.333081 0.469889
O O2 0.396197 0.428694 0.619158
O O3 0.253652 0.671434 0.583167
O O4 0.381650 0.695161 0.450053
O O5 0.777787 0.527927 0.618682
O O6 0.865511 0.484452 0.416716
O O7 0.929279 0.369401 0.604836
O O8 0.157946 0.328511 0.346199
O O9 0.167284 0.033520 0.518546
O O10 0.104620 0.776700 0.294653
O O11 0.993335 0.930730 0.156860
O O12 0.612355 0.884668 0.507868
O O13 0.880057 0.283728 0.807089
O O14 0.502185 0.440373 0.264416
#
# Coordination Sequence:
#
# PCOD9315380 Si02
#       7
#     4   4   4   4   4   4   4
#     4   9  22  47  71 101 137 193 245 308 360 441
#     4  10  24  48  71 103 145 192 250 304 367 452
#     4   9  22  46  71  97 135 192 243 308 361 441
#     4  11  26  41  70 105 146 189 241 301 375 439
#     4  11  26  41  69 108 146 190 240 306 374 449
#     4  10  24  49  73 102 146 191 254 304 375 446
#     4  12  30  46  77 114 151 205 249 315 382 444
#
# _framework density 24.476576999999999
#
# number of rings (size 3 to 8) (size 9 to 14) (size 15 to 20)
#    0.000    1.714    0.000    0.857   16.000    0.000 
#   20.571    0.000    0.000    0.000    0.000    0.000 
#    0.000    0.000    0.000    0.000    0.000    0.000 
#
# Total GULP energy -156022.675414 kJ/mol
# GULP energy per Si atom -5572.238408 kJ/mol
# Density = 2.442087 g / cm^3
# Si number density = 24.476577 Si / 1000 Ang^3
#
#
#
# Elastic Constant Matrix: (Units=GPa)
#
#
# Indices 1 2 3 4 5 6 
#
# 1 79.3152 23.2547 16.7393 0.0000 0.0000 0.0000
# 2 23.2547 71.0023 7.8182 0.0000 0.0000 0.0000
# 3 16.7393 7.8182 62.9479 0.0000 0.0000 0.0000
# 4 0.0000 0.0000 0.0000 46.1398 0.0000 0.0000
# 5 0.0000 0.0000 0.0000 0.0000 31.8207 0.0000
# 6 0.0000 0.0000 0.0000 0.0000 0.0000 53.8139
#
#
#
# Elastic Compliance Matrix: (Units=1/GPa)
#
#
# Indices 1 2 3 4 5 6 
#
# 1 0.014607 -0.004417 -0.003336 0.000000 0.000000 0.000000
# 2 -0.004417 0.015615 -0.000765 0.000000 0.000000 0.000000
# 3 -0.003336 -0.000765 0.016868 0.000000 0.000000 0.000000
# 4 0.000000 0.000000 0.000000 0.021673 0.000000 0.000000
# 5 0.000000 0.000000 0.000000 0.000000 0.031426 0.000000
# 6 0.000000 0.000000 0.000000 0.000000 0.000000 0.018583
#
#
# Mechanical properties :
#
#
# Convention : Reuss Voigt Hill
#
# Bulk Modulus (GPa) = 33.27211 34.32111 33.79661
# Shear Modulus (GPa) = 34.28768 37.38508 35.83638
#
# Velocity S-wave (km/s) = 3.74684 3.91241 3.83052
# Velocity P-wave (km/s) = 5.68694 5.87041 5.77941
#
# Compressibility (1/GPa) = 0.03005520
#
# Stress axis : x y z
#
# Youngs Moduli (GPa) = 68.46084 64.04162 59.28318
#
# Poissons Ratio (x) = 0.28286 0.19775
# Poissons Ratio (y) = 0.30237 0.04534
# Poissons Ratio (z) = 0.22837 0.04898
#
# Static dielectric constant tensor:
#      x y z
#    x 2.060700 0.000000 0.000000 
#    y 0.000000 2.227130 0.000000 
#    z 0.000000 0.000000 1.950720 
# 
# From -- ./inp_files/5343.got.cif
#   From: 2010.05.17/outbox.cif.g08.bks.cpg/sg19_3_cif.got.tgz:5343.got - 2010.06.03 22:46:19.
