data_PCOD9315893
_publ_section_title
;
Structure prediction by ZEFSAII (Michael W. Deem and Ramdas Pophale) SiO2 
 PCOD9315893
Probable space group: P 21 21 21
;
_chemical_formula_sum "Si O2"
_cell_formula_units_Z 24
_cell_length_a 11.731993
_cell_length_b 10.059114
_cell_length_c 10.061606
_cell_angle_alpha 90.000000
_cell_angle_beta 90.000000
_cell_angle_gamma 90.000000
_cell_volume 1187.404887
_symmetry_space_group_name_H-M "P 21 21 21"
_symmetry_group_IT_number 19
_symmetry_cell_setting 'orthorhombic'
loop_
_space_group_symop_operation_xyz
x,y,z
1/2-x,-y,1/2+z
1/2+x,1/2-y,-z
-x,1/2+y,1/2-z
loop_
_atom_site_type_symbol
_atom_site_label
_atom_site_fract_x
_atom_site_fract_y
_atom_site_fract_z
Si Si1 0.201910 0.222849 0.894736
Si Si2 0.576814 0.544064 0.027431
Si Si3 0.284203 0.797420 0.864304
Si Si4 0.414690 0.063519 0.785957
Si Si5 0.346180 0.646045 0.127089
Si Si6 0.674611 0.086987 0.862994
O O1 0.132560 0.100910 0.958744
O O2 0.138901 0.274807 0.763364
O O3 0.324622 0.166635 0.848669
O O4 0.209627 0.339351 0.001756
O O5 0.659652 0.643322 0.107211
O O6 0.452497 0.553102 0.090776
O O7 0.574015 0.583504 0.872393
O O8 0.362145 0.917429 0.810616
O O9 0.284542 0.677906 0.759821
O O10 0.331220 0.746153 0.004721
O O11 0.538449 0.075758 0.851119
O O12 0.234305 0.555484 0.142011
#
# Coordination Sequence:
#
# PCOD9315893 Si02
#       6
#     4   4   4   4   4   4
#     4  11  27  46  70 107 141 177 239 288 347 413
#     4  11  25  47  72  99 142 190 225 290 349 407
#     4  11  25  46  71 101 137 184 233 278 351 414
#     4  11  25  47  76  96 139 193 226 284 356 408
#     4  12  27  43  71 106 139 177 237 288 337 413
#     4  12  27  43  76 105 138 183 232 290 344 415
#
# _framework density 20.212145
#
# number of rings (size 3 to 8) (size 9 to 14) (size 15 to 20)
#    0.000    0.667    5.000    1.000    9.333    1.333 
#    0.000    0.000    0.000    0.000    0.000    0.000 
#    0.000    0.000    0.000    0.000    0.000    0.000 
#
# Total GULP energy -134321.636574 kJ/mol
# GULP energy per Si atom -5596.734857 kJ/mol
# Density = 2.016614 g / cm^3
# Si number density = 20.212145 Si / 1000 Ang^3
#
#
#
# Elastic Constant Matrix: (Units=GPa)
#
#
# Indices 1 2 3 4 5 6 
#
# 1 103.8979 24.3726 18.8593 0.0000 0.0000 0.0000
# 2 24.3726 26.9707 3.1186 0.0000 0.0000 0.0000
# 3 18.8593 3.1186 103.0545 0.0000 0.0000 0.0000
# 4 0.0000 0.0000 0.0000 29.8744 0.0000 0.0000
# 5 0.0000 0.0000 0.0000 0.0000 24.1829 0.0000
# 6 0.0000 0.0000 0.0000 0.0000 0.0000 11.1637
#
#
#
# Elastic Compliance Matrix: (Units=1/GPa)
#
#
# Indices 1 2 3 4 5 6 
#
# 1 0.012600 -0.011158 -0.001968 0.000000 0.000000 0.000000
# 2 -0.011158 0.047089 0.000617 0.000000 0.000000 0.000000
# 3 -0.001968 0.000617 0.010045 0.000000 0.000000 0.000000
# 4 0.000000 0.000000 0.000000 0.033474 0.000000 0.000000
# 5 0.000000 0.000000 0.000000 0.000000 0.041351 0.000000
# 6 0.000000 0.000000 0.000000 0.000000 0.000000 0.089576
#
#
# Mechanical properties :
#
#
# Convention : Reuss Voigt Hill
#
# Bulk Modulus (GPa) = 22.36373 36.29155 29.32764
# Shear Modulus (GPa) = 18.24425 25.54905 21.89665
#
# Velocity S-wave (km/s) = 3.00765 3.55920 3.29499
# Velocity P-wave (km/s) = 4.81143 5.90634 5.38677
#
# Compressibility (1/GPa) = 0.04471526
#
# Stress axis : x y z
#
# Youngs Moduli (GPa) = 79.36744 21.23622 99.55102
#
# Poissons Ratio (x) = 0.23696 0.19593
# Poissons Ratio (y) = 0.88561 -0.06142
# Poissons Ratio (z) = 0.15620 -0.01310
#
# Static dielectric constant tensor:
#      x y z
#    x 1.692330 0.000000 0.000000 
#    y 0.000000 1.693060 0.000000 
#    z 0.000000 0.000000 1.680530 
# 
# From -- ./inp_files/2674.got.cif
#   From: 2010.05.17/outbox.cif.g08.bks.cpg/sg19_2_cif.got.tgz:2674.got - 2010.06.03 22:46:19.
