data_PCOD9315702
_publ_section_title
;
Structure prediction by ZEFSAII (Michael W. Deem and Ramdas Pophale) SiO2 
 PCOD9315702
Probable space group: P 21 21 21
;
_chemical_formula_sum "Si O2"
_cell_formula_units_Z 28
_cell_length_a 12.572333
_cell_length_b 9.061306
_cell_length_c 11.699910
_cell_angle_alpha 90.000000
_cell_angle_beta 90.000000
_cell_angle_gamma 90.000000
_cell_volume 1332.874297
_symmetry_space_group_name_H-M "P 21 21 21"
_symmetry_group_IT_number 19
_symmetry_cell_setting 'orthorhombic'
loop_
_space_group_symop_operation_xyz
x,y,z
1/2-x,-y,1/2+z
1/2+x,1/2-y,-z
-x,1/2+y,1/2-z
loop_
_atom_site_type_symbol
_atom_site_label
_atom_site_fract_x
_atom_site_fract_y
_atom_site_fract_z
Si Si1 0.461009 0.357269 0.378264
Si Si2 0.739356 0.075741 0.519292
Si Si3 0.743180 0.246179 0.082574
Si Si4 0.353258 0.044682 0.083024
Si Si5 0.804845 0.306562 0.327472
Si Si6 0.003616 0.411405 0.472978
Si Si7 0.996505 0.687358 0.628023
O O1 0.338682 0.391830 0.399428
O O2 0.544693 0.448347 0.456120
O O3 0.480331 0.189588 0.415858
O O4 0.491963 0.392971 0.249121
O O5 0.762434 0.172667 0.406846
O O6 0.623931 0.119313 0.566376
O O7 0.738736 0.899035 0.506285
O O8 0.811582 0.248881 0.198664
O O9 0.620558 0.243662 0.120394
O O10 0.775398 0.393483 0.014713
O O11 0.411568 0.189724 0.130725
O O12 0.281122 0.939563 0.162184
O O13 0.914638 0.367083 0.381136
O O14 0.001593 0.577767 0.520323
#
# Coordination Sequence:
#
# PCOD9315702 Si02
#       7
#     4   4   4   4   4   4   4
#     4  11  24  41  70 100 132 182 230 284 335 404
#     4  11  24  44  69 100 134 181 236 281 333 420
#     4  12  25  43  71 102 140 181 230 283 347 410
#     4  12  23  42  67 104 137 172 229 290 330 405
#     4  11  26  47  67 101 147 181 221 288 356 400
#     4  11  23  45  64  98 143 176 223 285 343 413
#     4  12  23  40  72 103 131 181 235 279 336 404
#
# _framework density 21.007231000000001
#
# number of rings (size 3 to 8) (size 9 to 14) (size 15 to 20)
#    0.000    0.571    7.143    0.857    2.000    0.000 
#    5.143    1.429    0.000    0.000    0.000    0.000 
#    0.000    0.000    0.000    0.000    0.000    0.000 
#
# Total GULP energy -156297.624675 kJ/mol
# GULP energy per Si atom -5582.058024 kJ/mol
# Density = 2.095942 g / cm^3
# Si number density = 21.007231 Si / 1000 Ang^3
#
#
#
# Elastic Constant Matrix: (Units=GPa)
#
#
# Indices 1 2 3 4 5 6 
#
# 1 119.2877 11.6894 -0.2896 0.0000 0.0000 0.0000
# 2 11.6894 95.7664 15.8149 0.0000 0.0000 0.0000
# 3 -0.2896 15.8149 25.2879 0.0000 0.0000 0.0000
# 4 0.0000 0.0000 0.0000 16.8559 0.0000 0.0000
# 5 0.0000 0.0000 0.0000 0.0000 20.5132 0.0000
# 6 0.0000 0.0000 0.0000 0.0000 0.0000 37.6811
#
#
#
# Elastic Compliance Matrix: (Units=1/GPa)
#
#
# Indices 1 2 3 4 5 6 
#
# 1 0.008500 -0.001175 0.000832 0.000000 0.000000 0.000000
# 2 -0.001175 0.011807 -0.007398 0.000000 0.000000 0.000000
# 3 0.000832 -0.007398 0.044180 0.000000 0.000000 0.000000
# 4 0.000000 0.000000 0.000000 0.059326 0.000000 0.000000
# 5 0.000000 0.000000 0.000000 0.000000 0.048749 0.000000
# 6 0.000000 0.000000 0.000000 0.000000 0.000000 0.026539
#
#
# Mechanical properties :
#
#
# Convention : Reuss Voigt Hill
#
# Bulk Modulus (GPa) = 20.40519 32.75238 26.57879
# Shear Modulus (GPa) = 21.65269 29.21853 25.43561
#
# Velocity S-wave (km/s) = 3.21397 3.73350 3.48343
# Velocity P-wave (km/s) = 4.84844 5.84895 5.37203
#
# Compressibility (1/GPa) = 0.04900714
#
# Stress axis : x y z
#
# Youngs Moduli (GPa) = 117.64351 84.69460 22.63442
#
# Poissons Ratio (x) = 0.09951 -0.01884
# Poissons Ratio (y) = 0.13823 0.16744
# Poissons Ratio (z) = -0.09790 0.62653
#
# Static dielectric constant tensor:
#      x y z
#    x 1.771610 0.000000 0.000000 
#    y 0.000000 1.807950 0.000000 
#    z 0.000000 0.000000 1.720450 
# 
# From -- ./inp_files/3420.got.cif
#   From: 2010.05.17/outbox.cif.g08.bks.cpg/sg19_2_cif.got.tgz:3420.got - 2010.06.03 22:46:19.
