data_PCOD9315506
_publ_section_title
;
Structure prediction by ZEFSAII (Michael W. Deem and Ramdas Pophale) SiO2 
 PCOD9315506
Probable space group: P 21 21 21
;
_chemical_formula_sum "Si O2"
_cell_formula_units_Z 16
_cell_length_a 13.131860
_cell_length_b 5.885839
_cell_length_c 7.722907
_cell_angle_alpha 90.000000
_cell_angle_beta 90.000000
_cell_angle_gamma 90.000000
_cell_volume 596.919034
_symmetry_space_group_name_H-M "P 21 21 21"
_symmetry_group_IT_number 19
_symmetry_cell_setting 'orthorhombic'
loop_
_space_group_symop_operation_xyz
x,y,z
1/2-x,-y,1/2+z
1/2+x,1/2-y,-z
-x,1/2+y,1/2-z
loop_
_atom_site_type_symbol
_atom_site_label
_atom_site_fract_x
_atom_site_fract_y
_atom_site_fract_z
Si Si1 0.357271 0.863076 0.895031
Si Si2 0.581728 0.019893 0.894935
Si Si3 0.363697 0.131130 0.363943
Si Si4 0.903879 0.915515 0.774840
O O1 0.371667 0.648658 0.766050
O O2 0.247861 0.975735 0.869345
O O3 0.459605 0.008787 0.873791
O O4 0.361085 0.757413 0.087163
O O5 0.605649 0.152672 0.073360
O O6 0.619107 0.768810 0.953326
O O7 0.476858 0.046842 0.317710
O O8 0.353035 0.337091 0.222343
#
# Coordination Sequence:
#
# PCOD9315506 Si02
#       4
#     4   4   4   4
#     4  11  20  40  60  85 119 151 198 232 297 348
#     4   9  23  36  59  88 114 152 194 241 283 350
#     4   9  20  40  59  82 117 157 184 243 293 332
#     4   9  21  40  56  85 122 144 200 240 283 348
#
# _framework density 26.804304999999999
#
# number of rings (size 3 to 8) (size 9 to 14) (size 15 to 20)
#    1.500    1.000    0.000    1.500    3.500    0.000 
#    9.000    0.000    0.000    0.000    0.000    0.000 
#    0.000    0.000    0.000    0.000    0.000    0.000 
#
# Total GULP energy -89384.400265 kJ/mol
# GULP energy per Si atom -5586.525017 kJ/mol
# Density = 2.674330 g / cm^3
# Si number density = 26.804305 Si / 1000 Ang^3
#
#
#
# Elastic Constant Matrix: (Units=GPa)
#
#
# Indices 1 2 3 4 5 6 
#
# 1 245.4660 21.0485 29.6203 0.0000 0.0000 0.0000
# 2 21.0485 1.3120 -0.3061 0.0000 0.0000 0.0000
# 3 29.6203 -0.3061 124.9572 0.0000 0.0000 0.0000
# 4 0.0000 0.0000 0.0000 43.4875 0.0000 0.0000
# 5 0.0000 0.0000 0.0000 0.0000 19.7430 0.0000
# 6 0.0000 0.0000 0.0000 0.0000 0.0000 27.8165
#
#
#
# Elastic Compliance Matrix: (Units=1/GPa)
#
#
# Indices 1 2 3 4 5 6 
#
# 1 -0.009827 0.158284 0.002717 0.000000 0.000000 0.000000
# 2 0.158284 -1.786934 -0.041898 0.000000 0.000000 0.000000
# 3 0.002717 -0.041898 0.007256 0.000000 0.000000 0.000000
# 4 0.000000 0.000000 0.000000 0.022995 0.000000 0.000000
# 5 0.000000 0.000000 0.000000 0.000000 0.050651 0.000000
# 6 0.000000 0.000000 0.000000 0.000000 0.000000 0.035950
#
#
# Mechanical properties :
#
#
# Convention : Reuss Voigt Hill
#
# Bulk Modulus (GPa) = -0.64462 52.49559 25.92548
# Shear Modulus (GPa) = -2.05321 39.63424 18.79052
#
# Velocity S-wave (km/s) = -0.87616 3.84950 2.65056
# Velocity P-wave (km/s) = 1.12453 6.27578 4.36583
#
# Compressibility (1/GPa) = -1.55129939
#
# Stress axis : x y z
#
# Youngs Moduli (GPa) = -101.76380 -0.55962 137.81677
#
# Poissons Ratio (x) = 0.08858 -0.37447
# Poissons Ratio (y) = 16.10756 5.77426
# Poissons Ratio (z) = 0.27651 -0.02345
#
# Static dielectric constant tensor:
#      x y z
#    x 2.007640 0.000000 0.000000 
#    y 0.000000 2.289920 0.000000 
#    z 0.000000 0.000000 2.064380 
# 
# From -- ./inp_files/2540.got.cif
#   From: 2010.05.17/outbox.cif.g08.bks.cpg/sg19_2_cif.got.tgz:2540.got - 2010.06.03 22:46:19.
