data_PCOD9315873
_publ_section_title
;
Structure prediction by ZEFSAII (Michael W. Deem and Ramdas Pophale) SiO2 
 PCOD9315873
Probable space group: P 21 21 21
;
_chemical_formula_sum "Si O2"
_cell_formula_units_Z 24
_cell_length_a 16.084569
_cell_length_b 4.976391
_cell_length_c 11.845483
_cell_angle_alpha 90.000000
_cell_angle_beta 90.000000
_cell_angle_gamma 90.000000
_cell_volume 948.149233
_symmetry_space_group_name_H-M "P 21 21 21"
_symmetry_group_IT_number 19
_symmetry_cell_setting 'orthorhombic'
loop_
_space_group_symop_operation_xyz
x,y,z
1/2-x,-y,1/2+z
1/2+x,1/2-y,-z
-x,1/2+y,1/2-z
loop_
_atom_site_type_symbol
_atom_site_label
_atom_site_fract_x
_atom_site_fract_y
_atom_site_fract_z
Si Si1 0.137068 0.610228 0.078232
Si Si2 0.455053 0.776821 0.202120
Si Si3 0.691226 0.974412 0.174191
Si Si4 0.652176 0.714634 0.577567
Si Si5 0.953572 0.770390 0.067424
Si Si6 0.240276 0.114619 0.143140
O O1 0.146524 0.603197 0.942614
O O2 0.163483 0.317042 0.119458
O O3 0.045119 0.702159 0.111245
O O4 0.204886 0.819688 0.123951
O O5 0.524482 0.565888 0.245712
O O6 0.370512 0.650344 0.249911
O O7 0.454471 0.785765 0.067355
O O8 0.719830 0.711232 0.240877
O O9 0.772124 0.147436 0.142440
O O10 0.614992 0.432422 0.617785
O O11 0.690566 0.672194 0.452920
O O12 0.576711 0.925988 0.580128
#
# Coordination Sequence:
#
# PCOD9315873 Si02
#       6
#     4   4   4   4   4   4
#     4  11  26  44  72 103 145 185 238 301 358 426
#     4  12  26  41  72 113 144 183 237 308 371 424
#     4  11  26  47  74 107 147 192 243 296 370 431
#     4  11  25  43  70 102 145 189 236 295 356 434
#     4  12  24  46  67 106 143 187 238 301 357 421
#     4  11  25  45  69 107 142 190 236 299 360 432
#
# _framework density 25.312473000000001
#
# number of rings (size 3 to 8) (size 9 to 14) (size 15 to 20)
#    0.000    0.667    3.333    4.000    4.667    5.333 
#    0.000    3.333    0.000    0.000    0.000    0.000 
#    0.000    0.000    0.000    0.000    0.000    0.000 
#
# Total GULP energy -134794.585961 kJ/mol
# GULP energy per Si atom -5616.441082 kJ/mol
# Density = 2.525486 g / cm^3
# Si number density = 25.312473 Si / 1000 Ang^3
#
#
#
# Elastic Constant Matrix: (Units=GPa)
#
#
# Indices 1 2 3 4 5 6 
#
# 1 123.8271 3.0709 18.0415 0.0000 0.0000 0.0000
# 2 3.0709 87.7919 15.7478 0.0000 0.0000 0.0000
# 3 18.0415 15.7478 52.3555 0.0000 0.0000 0.0000
# 4 0.0000 0.0000 0.0000 27.9591 0.0000 0.0000
# 5 0.0000 0.0000 0.0000 0.0000 20.7502 0.0000
# 6 0.0000 0.0000 0.0000 0.0000 0.0000 59.6090
#
#
#
# Elastic Compliance Matrix: (Units=1/GPa)
#
#
# Indices 1 2 3 4 5 6 
#
# 1 0.008508 0.000241 -0.003004 0.000000 0.000000 0.000000
# 2 0.000241 0.012047 -0.003707 0.000000 0.000000 0.000000
# 3 -0.003004 -0.003707 0.021250 0.000000 0.000000 0.000000
# 4 0.000000 0.000000 0.000000 0.035767 0.000000 0.000000
# 5 0.000000 0.000000 0.000000 0.000000 0.048192 0.000000
# 6 0.000000 0.000000 0.000000 0.000000 0.000000 0.016776
#
#
# Mechanical properties :
#
#
# Convention : Reuss Voigt Hill
#
# Bulk Modulus (GPa) = 34.64335 37.52167 36.08251
# Shear Modulus (GPa) = 30.28448 36.80460 33.54454
#
# Velocity S-wave (km/s) = 3.46269 3.81729 3.64430
# Velocity P-wave (km/s) = 5.45004 5.85529 5.65630
#
# Compressibility (1/GPa) = 0.02886557
#
# Stress axis : x y z
#
# Youngs Moduli (GPa) = 117.54330 83.00799 47.05803
#
# Poissons Ratio (x) = -0.02003 0.14137
# Poissons Ratio (y) = -0.02836 0.17443
# Poissons Ratio (z) = 0.35313 0.30769
#
# Static dielectric constant tensor:
#      x y z
#    x 1.981610 0.000000 0.000000 
#    y 0.000000 1.929360 0.000000 
#    z 0.000000 0.000000 2.004040 
# 
# From -- ./inp_files/5169.got.cif
#   From: 2010.05.17/outbox.cif.g08.bks.cpg/sg19_3_cif.got.tgz:5169.got - 2010.06.03 22:46:19.
