data_PCOD9315298
_publ_section_title
;
Structure prediction by ZEFSAII (Michael W. Deem and Ramdas Pophale) SiO2 
 PCOD9315298
Probable space group: P 21 21 21
;
_chemical_formula_sum "Si O2"
_cell_formula_units_Z 32
_cell_length_a 15.813292
_cell_length_b 8.149168
_cell_length_c 12.406176
_cell_angle_alpha 90.000000
_cell_angle_beta 90.000000
_cell_angle_gamma 90.000000
_cell_volume 1598.724018
_symmetry_space_group_name_H-M "P 21 21 21"
_symmetry_group_IT_number 19
_symmetry_cell_setting 'orthorhombic'
loop_
_space_group_symop_operation_xyz
x,y,z
1/2-x,-y,1/2+z
1/2+x,1/2-y,-z
-x,1/2+y,1/2-z
loop_
_atom_site_type_symbol
_atom_site_label
_atom_site_fract_x
_atom_site_fract_y
_atom_site_fract_z
Si Si1 0.865448 0.588312 0.040563
Si Si2 0.736780 0.364058 0.162755
Si Si3 0.520276 0.055664 0.855012
Si Si4 0.104266 0.644051 0.327050
Si Si5 0.088650 0.588749 0.758640
Si Si6 0.099638 0.966013 0.690415
Si Si7 0.660798 0.079466 0.032569
Si Si8 0.338624 0.543117 0.037705
O O1 0.787642 0.511430 0.106003
O O2 0.848682 0.768885 0.996982
O O3 0.948835 0.578247 0.114338
O O4 0.884200 0.473047 0.937336
O O5 0.808744 0.237373 0.204016
O O6 0.674153 0.432717 0.252208
O O7 0.683925 0.259866 0.075837
O O8 0.468317 0.219209 0.829812
O O9 0.577193 0.993917 0.756894
O O10 0.579680 0.081787 0.957407
O O11 0.117571 0.567331 0.445061
O O12 0.098996 0.780638 0.733625
O O13 0.141743 0.531071 0.862450
O O14 0.120827 0.491558 0.653439
O O15 0.990877 0.546565 0.782607
O O16 0.740627 0.008796 0.967719
#
# Coordination Sequence:
#
# PCOD9315298 Si02
#       8
#     4   4   4   4   4   4   4   4
#     4  11  23  46  65  98 134 173 219 274 330 395
#     4  10  24  44  65  98 132 174 221 271 330 396
#     4  11  23  44  68  95 133 175 219 274 324 403
#     4  10  24  45  66  97 133 174 224 271 335 390
#     4  12  25  43  70 100 134 177 222 277 334 393
#     4  12  24  43  66 100 134 174 224 275 332 396
#     4  11  24  42  68  98 132 176 218 273 333 394
#     4  11  25  43  70  96 134 173 221 273 330 397
#
# _framework density 20.015961000000001
#
# number of rings (size 3 to 8) (size 9 to 14) (size 15 to 20)
#    0.000    1.000    1.250    6.000    7.000    0.000 
#   11.250    0.000    0.000    0.000    0.000    0.000 
#    0.000    0.000    0.000    0.000    0.000    0.000 
#
# Total GULP energy -179062.709573 kJ/mol
# GULP energy per Si atom -5595.709674 kJ/mol
# Density = 1.997040 g / cm^3
# Si number density = 20.015961 Si / 1000 Ang^3
#
#
#
# Elastic Constant Matrix: (Units=GPa)
#
#
# Indices 1 2 3 4 5 6 
#
# 1 70.0996 11.4837 34.5936 0.0000 0.0000 0.0000
# 2 11.4837 64.6374 -8.4507 0.0000 0.0000 0.0000
# 3 34.5936 -8.4507 67.4653 0.0000 0.0000 0.0000
# 4 0.0000 0.0000 0.0000 27.2255 0.0000 0.0000
# 5 0.0000 0.0000 0.0000 0.0000 14.7189 0.0000
# 6 0.0000 0.0000 0.0000 0.0000 0.0000 22.3831
#
#
#
# Elastic Compliance Matrix: (Units=1/GPa)
#
#
# Indices 1 2 3 4 5 6 
#
# 1 0.020650 -0.005137 -0.011232 0.000000 0.000000 0.000000
# 2 -0.005137 0.017007 0.004764 0.000000 0.000000 0.000000
# 3 -0.011232 0.004764 0.021179 0.000000 0.000000 0.000000
# 4 0.000000 0.000000 0.000000 0.036730 0.000000 0.000000
# 5 0.000000 0.000000 0.000000 0.000000 0.067940 0.000000
# 6 0.000000 0.000000 0.000000 0.000000 0.000000 0.044676
#
#
# Mechanical properties :
#
#
# Convention : Reuss Voigt Hill
#
# Bulk Modulus (GPa) = 28.06985 30.82839 29.44912
# Shear Modulus (GPa) = 20.55363 23.83723 22.19543
#
# Velocity S-wave (km/s) = 3.20794 3.45470 3.33361
# Velocity P-wave (km/s) = 5.27024 5.59898 5.43710
#
# Compressibility (1/GPa) = 0.03562541
#
# Stress axis : x y z
#
# Youngs Moduli (GPa) = 48.42650 58.80100 47.21769
#
# Poissons Ratio (x) = 0.30207 0.53035
# Poissons Ratio (y) = 0.24878 -0.22496
# Poissons Ratio (z) = 0.54392 -0.28015
#
# Static dielectric constant tensor:
#      x y z
#    x 1.684320 0.000000 0.000000 
#    y 0.000000 1.695220 0.000000 
#    z 0.000000 0.000000 1.672630 
# 
# From -- ./inp_files/5259.got.cif
#   From: 2010.05.17/outbox.cif.g08.bks.cpg/sg19_3_cif.got.tgz:5259.got - 2010.06.03 22:46:19.
