data_PCOD9315438
_publ_section_title
;
Structure prediction by ZEFSAII (Michael W. Deem and Ramdas Pophale) SiO2 
 PCOD9315438
Probable space group: P 21 21 21
;
_chemical_formula_sum "Si O2"
_cell_formula_units_Z 20
_cell_length_a 8.128380
_cell_length_b 8.731513
_cell_length_c 11.145252
_cell_angle_alpha 90.000000
_cell_angle_beta 90.000000
_cell_angle_gamma 90.000000
_cell_volume 791.012590
_symmetry_space_group_name_H-M "P 21 21 21"
_symmetry_group_IT_number 19
_symmetry_cell_setting 'orthorhombic'
loop_
_space_group_symop_operation_xyz
x,y,z
1/2-x,-y,1/2+z
1/2+x,1/2-y,-z
-x,1/2+y,1/2-z
loop_
_atom_site_type_symbol
_atom_site_label
_atom_site_fract_x
_atom_site_fract_y
_atom_site_fract_z
Si Si1 0.963790 0.621783 0.108988
Si Si2 0.497047 0.281091 0.105147
Si Si3 0.139605 0.665105 0.345895
Si Si4 0.724803 0.862581 0.071120
Si Si5 0.371900 0.077299 0.291278
O O1 0.863864 0.743803 0.027730
O O2 0.813056 0.527500 0.168115
O O3 0.049019 0.701716 0.222886
O O4 0.112382 0.558380 0.029328
O O5 0.679879 0.232074 0.139274
O O6 0.495897 0.453629 0.163267
O O7 0.387077 0.138659 0.155340
O O8 0.464294 0.298022 0.964537
O O9 0.178711 0.483725 0.349597
O O10 0.614082 0.744189 0.146241
#
# Coordination Sequence:
#
# PCOD9315438 Si02
#       5
#     4   4   4   4   4
#     4  10  26  46  75 108 148 195 241 314 368 454
#     4  12  27  48  74 114 147 202 243 321 365 464
#     4  12  28  45  77 109 156 187 259 307 382 438
#     4  10  25  47  76 105 148 197 246 303 379 443
#     4  10  26  48  76 104 155 189 257 297 384 437
#
# _framework density 25.284047000000001
#
# number of rings (size 3 to 8) (size 9 to 14) (size 15 to 20)
#    1.200    0.000    0.000    3.600   14.000    0.000 
#    7.200    0.000    0.000    0.000    0.000    0.000 
#    0.000    0.000    0.000    0.000    0.000    0.000 
#
# Total GULP energy -111485.614994 kJ/mol
# GULP energy per Si atom -5574.280750 kJ/mol
# Density = 2.522650 g / cm^3
# Si number density = 25.284047 Si / 1000 Ang^3
#
#
#
# Elastic Constant Matrix: (Units=GPa)
#
#
# Indices 1 2 3 4 5 6 
#
# 1 84.9902 -4.0674 18.1480 0.0000 0.0000 0.0000
# 2 -4.0674 56.5679 -11.0145 0.0000 0.0000 0.0000
# 3 18.1480 -11.0145 71.9859 0.0000 0.0000 0.0000
# 4 0.0000 0.0000 0.0000 14.3621 0.0000 0.0000
# 5 0.0000 0.0000 0.0000 0.0000 43.5049 0.0000
# 6 0.0000 0.0000 0.0000 0.0000 0.0000 30.5648
#
#
#
# Elastic Compliance Matrix: (Units=1/GPa)
#
#
# Indices 1 2 3 4 5 6 
#
# 1 0.012440 0.000293 -0.003091 0.000000 0.000000 0.000000
# 2 0.000293 0.018228 0.002715 0.000000 0.000000 0.000000
# 3 -0.003091 0.002715 0.015086 0.000000 0.000000 0.000000
# 4 0.000000 0.000000 0.000000 0.069628 0.000000 0.000000
# 5 0.000000 0.000000 0.000000 0.000000 0.022986 0.000000
# 6 0.000000 0.000000 0.000000 0.000000 0.000000 0.032717
#
#
# Mechanical properties :
#
#
# Convention : Reuss Voigt Hill
#
# Bulk Modulus (GPa) = 21.93615 24.40845 23.17230
# Shear Modulus (GPa) = 26.81712 31.71824 29.26768
#
# Velocity S-wave (km/s) = 3.26027 3.54570 3.40598
# Velocity P-wave (km/s) = 4.78197 5.14172 4.96510
#
# Compressibility (1/GPa) = 0.04558685
#
# Stress axis : x y z
#
# Youngs Moduli (GPa) = 80.38466 54.86189 66.28467
#
# Poissons Ratio (x) = -0.01605 0.20492
# Poissons Ratio (y) = -0.02352 -0.17998
# Poissons Ratio (z) = 0.24851 -0.14896
#
# Static dielectric constant tensor:
#      x y z
#    x 1.966130 0.000000 0.000000 
#    y 0.000000 2.088520 0.000000 
#    z 0.000000 0.000000 2.123570 
# 
# From -- ./inp_files/4546.got.cif
#   From: 2010.05.17/outbox.cif.g08.bks.cpg/sg19_3_cif.got.tgz:4546.got - 2010.06.03 22:46:19.
