data_PCOD9315039
_publ_section_title
;
Structure prediction by ZEFSAII (Michael W. Deem and Ramdas Pophale) SiO2 
 PCOD9315039
Probable space group: P 21 21 21
;
_chemical_formula_sum "Si O2"
_cell_formula_units_Z 32
_cell_length_a 14.021352
_cell_length_b 12.336594
_cell_length_c 8.255260
_cell_angle_alpha 90.000000
_cell_angle_beta 90.000000
_cell_angle_gamma 90.000000
_cell_volume 1427.959600
_symmetry_space_group_name_H-M "P 21 21 21"
_symmetry_group_IT_number 19
_symmetry_cell_setting 'orthorhombic'
loop_
_space_group_symop_operation_xyz
x,y,z
1/2-x,-y,1/2+z
1/2+x,1/2-y,-z
-x,1/2+y,1/2-z
loop_
_atom_site_type_symbol
_atom_site_label
_atom_site_fract_x
_atom_site_fract_y
_atom_site_fract_z
Si Si1 0.242996 0.360965 0.086473
Si Si2 0.286738 0.877022 0.178468
Si Si3 0.977920 0.608416 0.210431
Si Si4 0.146130 0.945959 0.446777
Si Si5 0.930766 0.792439 0.961431
Si Si6 0.888303 0.665734 0.519163
Si Si7 0.927052 0.260435 0.832353
Si Si8 0.645447 0.007718 0.636472
O O1 0.191007 0.258312 0.005737
O O2 0.342812 0.327319 0.170712
O O3 0.177501 0.412124 0.222822
O O4 0.267383 0.449825 0.951881
O O5 0.191419 0.887995 0.287974
O O6 0.333026 0.764835 0.108255
O O7 0.364058 0.902605 0.321142
O O8 0.288258 0.960671 0.029291
O O9 0.950838 0.508464 0.096004
O O10 0.899221 0.603219 0.352414
O O11 0.079666 0.585337 0.287249
O O12 0.963131 0.719271 0.113918
O O13 0.123494 0.862905 0.588360
O O14 0.015815 0.782871 0.831844
O O15 0.910918 0.915601 0.010947
O O16 0.989679 0.721857 0.547268
#
# Coordination Sequence:
#
# PCOD9315039 Si02
#       8
#     4   4   4   4   4   4   4   4
#     4  12  27  46  72 105 142 192 237 295 361 436
#     4  10  23  41  69  99 138 178 228 296 351 424
#     4  11  24  46  70 101 143 186 240 298 364 428
#     4  11  23  41  70 104 130 188 234 289 359 432
#     4  10  26  48  68 101 146 186 236 308 358 430
#     4  11  22  48  68  99 148 179 232 303 354 423
#     4  11  25  44  71 100 143 186 237 292 363 423
#     4  12  28  46  72 105 142 193 242 293 362 438
#
# _framework density 22.409597000000002
#
# number of rings (size 3 to 8) (size 9 to 14) (size 15 to 20)
#    0.000    1.000    3.750    1.500    7.000    1.000 
#    2.250    0.000    0.000    0.000    0.000    0.000 
#    0.000    0.000    0.000    0.000    0.000    0.000 
#
# Total GULP energy -178742.440078 kJ/mol
# GULP energy per Si atom -5585.701252 kJ/mol
# Density = 2.235859 g / cm^3
# Si number density = 22.409597 Si / 1000 Ang^3
#
#
#
# Elastic Constant Matrix: (Units=GPa)
#
#
# Indices 1 2 3 4 5 6 
#
# 1 70.9752 13.9401 8.8330 0.0000 0.0000 0.0000
# 2 13.9401 41.7587 11.5238 0.0000 0.0000 0.0000
# 3 8.8330 11.5238 78.6406 0.0000 0.0000 0.0000
# 4 0.0000 0.0000 0.0000 26.9007 0.0000 0.0000
# 5 0.0000 0.0000 0.0000 0.0000 39.2367 0.0000
# 6 0.0000 0.0000 0.0000 0.0000 0.0000 26.8257
#
#
#
# Elastic Compliance Matrix: (Units=1/GPa)
#
#
# Indices 1 2 3 4 5 6 
#
# 1 0.015153 -0.004782 -0.001001 0.000000 0.000000 0.000000
# 2 -0.004782 0.026466 -0.003341 0.000000 0.000000 0.000000
# 3 -0.001001 -0.003341 0.013318 0.000000 0.000000 0.000000
# 4 0.000000 0.000000 0.000000 0.037174 0.000000 0.000000
# 5 0.000000 0.000000 0.000000 0.000000 0.025486 0.000000
# 6 0.000000 0.000000 0.000000 0.000000 0.000000 0.037278
#
#
# Mechanical properties :
#
#
# Convention : Reuss Voigt Hill
#
# Bulk Modulus (GPa) = 27.25694 28.88535 28.07115
# Shear Modulus (GPa) = 26.97554 29.06447 28.02001
#
# Velocity S-wave (km/s) = 3.47327 3.60525 3.53988
# Velocity P-wave (km/s) = 5.31736 5.49983 5.40936
#
# Compressibility (1/GPa) = 0.03668790
#
# Stress axis : x y z
#
# Youngs Moduli (GPa) = 65.99226 37.78500 75.08562
#
# Poissons Ratio (x) = 0.18070 0.07518
# Poissons Ratio (y) = 0.31559 0.25086
# Poissons Ratio (z) = 0.06608 0.12624
#
# Static dielectric constant tensor:
#      x y z
#    x 1.868120 0.000000 0.000000 
#    y 0.000000 1.819770 0.000000 
#    z 0.000000 0.000000 1.846240 
# 
# From -- ./inp_files/3917.got.cif
#   From: 2010.05.17/outbox.cif.g08.bks.cpg/sg19_2_cif.got.tgz:3917.got - 2010.06.03 22:46:19.
