data_PCOD9315994
_publ_section_title
;
Structure prediction by ZEFSAII (Michael W. Deem and Ramdas Pophale) SiO2 
 PCOD9315994
Probable space group: P 21 21 21
;
_chemical_formula_sum "Si O2"
_cell_formula_units_Z 28
_cell_length_a 4.932667
_cell_length_b 12.264602
_cell_length_c 23.045342
_cell_angle_alpha 90.000000
_cell_angle_beta 90.000000
_cell_angle_gamma 90.000000
_cell_volume 1394.178608
_symmetry_space_group_name_H-M "P 21 21 21"
_symmetry_group_IT_number 19
_symmetry_cell_setting 'orthorhombic'
loop_
_space_group_symop_operation_xyz
x,y,z
1/2-x,-y,1/2+z
1/2+x,1/2-y,-z
-x,1/2+y,1/2-z
loop_
_atom_site_type_symbol
_atom_site_label
_atom_site_fract_x
_atom_site_fract_y
_atom_site_fract_z
Si Si1 0.051700 0.886494 0.374450
Si Si2 0.452055 0.263700 0.164792
Si Si3 0.673844 0.209651 0.283189
Si Si4 0.637521 0.169617 0.997284
Si Si5 0.628202 0.036912 0.111066
Si Si6 0.831342 0.558826 0.221564
Si Si7 0.653639 0.576510 0.839956
O O1 0.358214 0.843624 0.372274
O O2 0.856955 0.792969 0.347533
O O3 0.948087 0.896270 0.439853
O O4 0.048085 0.988656 0.331570
O O5 0.531818 0.277534 0.231554
O O6 0.540617 0.142260 0.148646
O O7 0.442634 0.120660 0.298045
O O8 0.784665 0.296458 0.329516
O O9 0.939369 0.146107 0.261854
O O10 0.709951 0.088671 0.049618
O O11 0.380855 0.245634 0.014056
O O12 0.357102 0.966052 0.110816
O O13 0.857422 0.963490 0.140944
O O14 0.787349 0.483971 0.278268
#
# Coordination Sequence:
#
# PCOD9315994 Si02
#       7
#     4   4   4   4   4   4   4
#     4  12  24  39  61  96 129 170 203 259 321 387
#     4  12  21  36  64  92 132 160 207 251 313 396
#     4  12  25  39  60  93 131 169 209 256 316 386
#     4  12  23  39  64  94 128 166 206 262 323 376
#     4  12  23  39  61  94 131 166 207 256 322 384
#     4  12  24  39  62  90 129 169 209 258 320 378
#     4  12  24  39  62  91 128 170 209 258 319 379
#
# _framework density 20.083508999999999
#
# number of rings (size 3 to 8) (size 9 to 14) (size 15 to 20)
#    0.000    0.000    7.143    4.286    2.000    0.000 
#    0.000    0.000    0.000    3.429    0.000    0.000 
#    0.000    0.000    0.000    0.000    0.000    0.000 
#
# Total GULP energy -156482.823934 kJ/mol
# GULP energy per Si atom -5588.672283 kJ/mol
# Density = 2.003780 g / cm^3
# Si number density = 20.083509 Si / 1000 Ang^3
#
#
#
# Elastic Constant Matrix: (Units=GPa)
#
#
# Indices 1 2 3 4 5 6 
#
# 1 84.1032 27.8001 5.5147 0.0000 0.0000 0.0000
# 2 27.8001 34.7482 20.1233 0.0000 0.0000 0.0000
# 3 5.5147 20.1233 83.0430 0.0000 0.0000 0.0000
# 4 0.0000 0.0000 0.0000 25.2295 0.0000 0.0000
# 5 0.0000 0.0000 0.0000 0.0000 29.4148 0.0000
# 6 0.0000 0.0000 0.0000 0.0000 0.0000 28.4603
#
#
#
# Elastic Compliance Matrix: (Units=1/GPa)
#
#
# Indices 1 2 3 4 5 6 
#
# 1 0.016586 -0.014694 0.002459 0.000000 0.000000 0.000000
# 2 -0.014694 0.046494 -0.010291 0.000000 0.000000 0.000000
# 3 0.002459 -0.010291 0.014372 0.000000 0.000000 0.000000
# 4 0.000000 0.000000 0.000000 0.039636 0.000000 0.000000
# 5 0.000000 0.000000 0.000000 0.000000 0.033997 0.000000
# 6 0.000000 0.000000 0.000000 0.000000 0.000000 0.035137
#
#
# Mechanical properties :
#
#
# Convention : Reuss Voigt Hill
#
# Bulk Modulus (GPa) = 30.86280 34.30785 32.58532
# Shear Modulus (GPa) = 20.65503 26.51799 23.58651
#
# Velocity S-wave (km/s) = 3.21044 3.63765 3.43070
# Velocity P-wave (km/s) = 5.39844 5.89602 5.65271
#
# Compressibility (1/GPa) = 0.03240147
#
# Stress axis : x y z
#
# Youngs Moduli (GPa) = 60.29248 21.50838 69.57808
#
# Poissons Ratio (x) = 0.31603 -0.17110
# Poissons Ratio (y) = 0.88591 0.71601
# Poissons Ratio (z) = -0.14827 0.22134
#
# Static dielectric constant tensor:
#      x y z
#    x 1.716700 0.000000 0.000000 
#    y 0.000000 1.763840 0.000000 
#    z 0.000000 0.000000 1.732980 
# 
# From -- ./inp_files/6893.got.cif
#   From: 2010.05.17/outbox.cif.g08.bks.cpg/sg19_4_cif.got.tgz:6893.got - 2010.06.03 22:46:19.
