data_PCOD9315292
_publ_section_title
;
Structure prediction by ZEFSAII (Michael W. Deem and Ramdas Pophale) SiO2 
 PCOD9315292
Probable space group: P 21 21 21
;
_chemical_formula_sum "Si O2"
_cell_formula_units_Z 28
_cell_length_a 5.499926
_cell_length_b 12.379390
_cell_length_c 15.980496
_cell_angle_alpha 90.000000
_cell_angle_beta 90.000000
_cell_angle_gamma 90.000000
_cell_volume 1088.043719
_symmetry_space_group_name_H-M "P 21 21 21"
_symmetry_group_IT_number 19
_symmetry_cell_setting 'orthorhombic'
loop_
_space_group_symop_operation_xyz
x,y,z
1/2-x,-y,1/2+z
1/2+x,1/2-y,-z
-x,1/2+y,1/2-z
loop_
_atom_site_type_symbol
_atom_site_label
_atom_site_fract_x
_atom_site_fract_y
_atom_site_fract_z
Si Si1 0.164417 0.419409 0.469952
Si Si2 0.379371 0.871029 0.800956
Si Si3 0.001925 0.726969 0.742182
Si Si4 0.279231 0.228793 0.586188
Si Si5 0.332372 0.811810 0.513038
Si Si6 0.961695 0.535552 0.617747
Si Si7 0.337496 0.411345 0.842393
O O1 0.239813 0.300681 0.502417
O O2 0.279645 0.491016 0.395855
O O3 0.893513 0.386531 0.437901
O O4 0.164215 0.494346 0.552677
O O5 0.535809 0.807589 0.866518
O O6 0.531488 0.950968 0.742205
O O7 0.266777 0.778223 0.743669
O O8 0.159339 0.931075 0.843906
O O9 0.917190 0.713784 0.839075
O O10 0.014969 0.615946 0.692602
O O11 0.831215 0.814119 0.692664
O O12 0.573380 0.747969 0.475936
O O13 0.277610 0.901665 0.443290
O O14 0.458617 0.865027 0.593725
#
# Coordination Sequence:
#
# PCOD9315292 Si02
#       7
#     4   4   4   4   4   4   4
#     4  11  24  47  68 105 138 191 244 306 371 450
#     4  11  24  46  69 105 141 193 242 302 379 450
#     4  11  23  47  70 104 145 189 239 310 362 455
#     4  11  25  47  71  98 145 187 249 302 373 447
#     4  11  23  43  70 105 143 192 240 311 373 442
#     4  11  23  43  72 103 141 188 246 301 380 441
#     4  10  24  43  70 104 141 190 244 298 380 439
#
# _framework density 25.734262000000001
#
# number of rings (size 3 to 8) (size 9 to 14) (size 15 to 20)
#    0.000    1.143    2.857    2.571    0.000    3.429 
#   10.286    0.000    0.000    0.000    0.000    0.000 
#    0.000    0.000    0.000    0.000    0.000    0.000 
#
# Total GULP energy -156423.258395 kJ/mol
# GULP energy per Si atom -5586.544943 kJ/mol
# Density = 2.567569 g / cm^3
# Si number density = 25.734262 Si / 1000 Ang^3
#
#
#
# Elastic Constant Matrix: (Units=GPa)
#
#
# Indices 1 2 3 4 5 6 
#
# 1 57.5669 23.9842 31.7671 0.0000 0.0000 0.0000
# 2 23.9842 92.1189 43.5383 0.0000 0.0000 0.0000
# 3 31.7671 43.5383 142.7047 0.0000 0.0000 0.0000
# 4 0.0000 0.0000 0.0000 49.0794 0.0000 0.0000
# 5 0.0000 0.0000 0.0000 0.0000 42.1698 0.0000
# 6 0.0000 0.0000 0.0000 0.0000 0.0000 22.3446
#
#
#
# Elastic Compliance Matrix: (Units=1/GPa)
#
#
# Indices 1 2 3 4 5 6 
#
# 1 0.020875 -0.003784 -0.003492 0.000000 0.000000 0.000000
# 2 -0.003784 0.013371 -0.003237 0.000000 0.000000 0.000000
# 3 -0.003492 -0.003237 0.008772 0.000000 0.000000 0.000000
# 4 0.000000 0.000000 0.000000 0.020375 0.000000 0.000000
# 5 0.000000 0.000000 0.000000 0.000000 0.023714 0.000000
# 6 0.000000 0.000000 0.000000 0.000000 0.000000 0.044754
#
#
# Mechanical properties :
#
#
# Convention : Reuss Voigt Hill
#
# Bulk Modulus (GPa) = 45.47347 54.55219 50.01283
# Shear Modulus (GPa) = 31.20745 35.59213 33.39979
#
# Velocity S-wave (km/s) = 3.48613 3.72299 3.60651
# Velocity P-wave (km/s) = 5.82348 6.30279 6.06787
#
# Compressibility (1/GPa) = 0.02199084
#
# Stress axis : x y z
#
# Youngs Moduli (GPa) = 47.90426 74.79031 113.99341
#
# Poissons Ratio (x) = 0.28304 0.39810
# Poissons Ratio (y) = 0.18129 0.36898
# Poissons Ratio (z) = 0.16730 0.24209
#
# Static dielectric constant tensor:
#      x y z
#    x 2.100720 0.000000 0.000000 
#    y 0.000000 2.033400 0.000000 
#    z 0.000000 0.000000 2.051870 
# 
# From -- ./inp_files/6424.got.cif
#   From: 2010.05.17/outbox.cif.g08.bks.cpg/sg19_4_cif.got.tgz:6424.got - 2010.06.03 22:46:19.
