data_PCOD9315406
_publ_section_title
;
Structure prediction by ZEFSAII (Michael W. Deem and Ramdas Pophale) SiO2 
 PCOD9315406
Probable space group: P 21 21 21
;
_chemical_formula_sum "Si O2"
_cell_formula_units_Z 32
_cell_length_a 20.843570
_cell_length_b 11.313593
_cell_length_c 5.175415
_cell_angle_alpha 90.000000
_cell_angle_beta 90.000000
_cell_angle_gamma 90.000000
_cell_volume 1220.443944
_symmetry_space_group_name_H-M "P 21 21 21"
_symmetry_group_IT_number 19
_symmetry_cell_setting 'orthorhombic'
loop_
_space_group_symop_operation_xyz
x,y,z
1/2-x,-y,1/2+z
1/2+x,1/2-y,-z
-x,1/2+y,1/2-z
loop_
_atom_site_type_symbol
_atom_site_label
_atom_site_fract_x
_atom_site_fract_y
_atom_site_fract_z
Si Si1 0.115820 0.448214 0.515506
Si Si2 0.951313 0.839554 0.485427
Si Si3 0.249790 0.326562 0.586182
Si Si4 0.815414 0.589889 0.082221
Si Si5 0.432068 0.153433 0.633240
Si Si6 0.596774 0.413964 0.081363
Si Si7 0.378026 0.326464 0.317915
Si Si8 0.306121 0.167683 0.960404
O O1 0.092680 0.397813 0.241356
O O2 0.190473 0.413728 0.554237
O O3 0.074251 0.388444 0.743797
O O4 0.107749 0.586169 0.582569
O O5 0.945205 0.699279 0.514229
O O6 0.021922 0.862635 0.376756
O O7 0.228544 0.205005 0.442044
O O8 0.317789 0.376709 0.484853
O O9 0.259841 0.274088 0.874519
O O10 0.869924 0.598376 0.859496
O O11 0.780909 0.465067 0.022394
O O12 0.849459 0.590010 0.357332
O O13 0.437868 0.278920 0.484057
O O14 0.439416 0.037566 0.457758
O O15 0.359415 0.159119 0.735401
O O16 0.348372 0.207801 0.198494
#
# Coordination Sequence:
#
# PCOD9315406 Si02
#       8
#     4   4   4   4   4   4   4   4
#     4  12  30  48  72 108 148 194 256 291 375 435
#     4  12  27  49  75 108 141 200 240 313 356 449
#     4  11  26  44  71 104 142 198 241 306 361 441
#     4  11  23  44  69 105 141 174 236 294 366 424
#     4  10  26  47  73 109 143 192 247 299 384 425
#     4  11  22  46  71 102 144 176 235 305 349 432
#     4  11  27  47  72 105 151 198 245 304 363 451
#     4  10  25  43  71 105 144 190 238 304 368 439
#
# _framework density 26.219968000000001
#
# number of rings (size 3 to 8) (size 9 to 14) (size 15 to 20)
#    0.000    1.000    3.750    0.000   14.000    0.000 
#    0.000    0.000    0.000    0.000    0.000    0.000 
#    0.000    0.000    0.000    0.000    0.000    0.000 
#
# Total GULP energy -179253.561202 kJ/mol
# GULP energy per Si atom -5601.673788 kJ/mol
# Density = 2.616029 g / cm^3
# Si number density = 26.219968 Si / 1000 Ang^3
#
#
#
# Elastic Constant Matrix: (Units=GPa)
#
#
# Indices 1 2 3 4 5 6 
#
# 1 72.7156 19.9343 26.1430 0.0000 0.0000 0.0000
# 2 19.9343 101.4507 13.6577 0.0000 0.0000 0.0000
# 3 26.1430 13.6577 92.4066 0.0000 0.0000 0.0000
# 4 0.0000 0.0000 0.0000 34.7699 0.0000 0.0000
# 5 0.0000 0.0000 0.0000 0.0000 42.9470 0.0000
# 6 0.0000 0.0000 0.0000 0.0000 0.0000 22.3529
#
#
#
# Elastic Compliance Matrix: (Units=1/GPa)
#
#
# Indices 1 2 3 4 5 6 
#
# 1 0.015943 -0.002577 -0.004130 0.000000 0.000000 0.000000
# 2 -0.002577 0.010474 -0.000819 0.000000 0.000000 0.000000
# 3 -0.004130 -0.000819 0.012111 0.000000 0.000000 0.000000
# 4 0.000000 0.000000 0.000000 0.028761 0.000000 0.000000
# 5 0.000000 0.000000 0.000000 0.000000 0.023285 0.000000
# 6 0.000000 0.000000 0.000000 0.000000 0.000000 0.044737
#
#
# Mechanical properties :
#
#
# Convention : Reuss Voigt Hill
#
# Bulk Modulus (GPa) = 42.59480 42.89367 42.74423
# Shear Modulus (GPa) = 31.60819 33.80313 32.70566
#
# Velocity S-wave (km/s) = 3.47580 3.59446 3.53563
# Velocity P-wave (km/s) = 5.69111 5.79841 5.74501
#
# Compressibility (1/GPa) = 0.02347705
#
# Stress axis : x y z
#
# Youngs Moduli (GPa) = 62.72207 95.47828 82.56857
#
# Poissons Ratio (x) = 0.24603 0.34099
# Poissons Ratio (y) = 0.16162 0.06762
# Poissons Ratio (z) = 0.25903 0.07820
#
# Static dielectric constant tensor:
#      x y z
#    x 2.056030 0.000000 0.000000 
#    y 0.000000 2.092460 0.000000 
#    z 0.000000 0.000000 2.082070 
# 
# From -- ./inp_files/2191.got.cif
#   From: 2010.05.17/outbox.cif.g08.bks.cpg/sg19_2_cif.got.tgz:2191.got - 2010.06.03 22:46:19.
