data_PCOD9315288
_publ_section_title
;
Structure prediction by ZEFSAII (Michael W. Deem and Ramdas Pophale) SiO2 
 PCOD9315288
Probable space group: P 21 21 21
;
_chemical_formula_sum "Si O2"
_cell_formula_units_Z 28
_cell_length_a 12.436266
_cell_length_b 17.375744
_cell_length_c 5.214548
_cell_angle_alpha 90.000000
_cell_angle_beta 90.000000
_cell_angle_gamma 90.000000
_cell_volume 1126.808415
_symmetry_space_group_name_H-M "P 21 21 21"
_symmetry_group_IT_number 19
_symmetry_cell_setting 'orthorhombic'
loop_
_space_group_symop_operation_xyz
x,y,z
1/2-x,-y,1/2+z
1/2+x,1/2-y,-z
-x,1/2+y,1/2-z
loop_
_atom_site_type_symbol
_atom_site_label
_atom_site_fract_x
_atom_site_fract_y
_atom_site_fract_z
Si Si1 0.069523 0.829256 0.624454
Si Si2 0.543168 0.946305 0.402095
Si Si3 0.356330 0.607934 0.135006
Si Si4 0.943802 0.157979 0.413961
Si Si5 0.098646 0.277952 0.256672
Si Si6 0.186430 0.981053 0.754482
Si Si7 0.780875 0.208964 0.056874
O O1 0.155132 0.896730 0.649651
O O2 0.130705 0.747759 0.633026
O O3 0.973409 0.853217 0.813210
O O4 0.000325 0.825162 0.363797
O O5 0.543845 0.897552 0.663026
O O6 0.621985 0.019643 0.417443
O O7 0.424109 0.977590 0.338560
O O8 0.575205 0.894618 0.158439
O O9 0.275878 0.626462 0.369019
O O10 0.324474 0.660560 0.894306
O O11 0.849622 0.215582 0.318441
O O12 0.052355 0.208411 0.422580
O O13 0.171975 0.246269 0.021850
O O14 0.241548 0.022287 0.510820
#
# Coordination Sequence:
#
# PCOD9315288 Si02
#       7
#     4   4   4   4   4   4   4
#     4   9  23  42  63  97 136 174 228 288 346 420
#     4  11  27  46  70 102 150 184 235 298 364 420
#     4  10  24  44  72  96 141 192 233 295 358 430
#     4  11  27  46  72 106 145 184 240 302 353 425
#     4  10  24  43  73  96 138 183 242 288 357 417
#     4  11  25  42  69 102 136 183 230 283 358 421
#     4  10  24  43  69 101 134 186 240 288 352 415
#
# _framework density 24.848943999999999
#
# number of rings (size 3 to 8) (size 9 to 14) (size 15 to 20)
#    0.000    1.714    0.000    0.857   22.000    2.286 
#    0.000    0.000    0.000    0.000    0.000    0.000 
#    0.000    0.000    0.000    0.000    0.000    0.000 
#
# Total GULP energy -156000.294472 kJ/mol
# GULP energy per Si atom -5571.439088 kJ/mol
# Density = 2.479239 g / cm^3
# Si number density = 24.848944 Si / 1000 Ang^3
#
#
#
# Elastic Constant Matrix: (Units=GPa)
#
#
# Indices 1 2 3 4 5 6 
#
# 1 90.3173 35.5591 17.2487 0.0000 0.0000 0.0000
# 2 35.5591 104.9629 67.4326 0.0000 0.0000 0.0000
# 3 17.2487 67.4326 103.3697 0.0000 0.0000 0.0000
# 4 0.0000 0.0000 0.0000 43.0296 0.0000 0.0000
# 5 0.0000 0.0000 0.0000 0.0000 20.1377 0.0000
# 6 0.0000 0.0000 0.0000 0.0000 0.0000 36.4720
#
#
#
# Elastic Compliance Matrix: (Units=1/GPa)
#
#
# Indices 1 2 3 4 5 6 
#
# 1 0.012862 -0.005127 0.001199 0.000000 0.000000 0.000000
# 2 -0.005127 0.018445 -0.011177 0.000000 0.000000 0.000000
# 3 0.001199 -0.011177 0.016765 0.000000 0.000000 0.000000
# 4 0.000000 0.000000 0.000000 0.023240 0.000000 0.000000
# 5 0.000000 0.000000 0.000000 0.000000 0.049658 0.000000
# 6 0.000000 0.000000 0.000000 0.000000 0.000000 0.027418
#
#
# Mechanical properties :
#
#
# Convention : Reuss Voigt Hill
#
# Bulk Modulus (GPa) = 55.98884 59.90341 57.94612
# Shear Modulus (GPa) = 27.09267 31.82184 29.45726
#
# Velocity S-wave (km/s) = 3.30554 3.58245 3.44678
# Velocity P-wave (km/s) = 6.09503 6.42427 6.26182
#
# Compressibility (1/GPa) = 0.01786070
#
# Stress axis : x y z
#
# Youngs Moduli (GPa) = 77.74923 54.21666 59.64811
#
# Poissons Ratio (x) = 0.27799 -0.07149
# Poissons Ratio (y) = 0.39865 0.66666
# Poissons Ratio (z) = -0.09319 0.60596
#
# Static dielectric constant tensor:
#      x y z
#    x 2.009990 0.000000 0.000000 
#    y 0.000000 1.975510 0.000000 
#    z 0.000000 0.000000 2.084550 
# 
# From -- ./inp_files/1030.got.cif
#   From: 2010.05.17/outbox.cif.g08.bks.cpg/sg19_1_cif.got.tgz:1030.got - 2010.06.03 22:46:19.
