data_PCOD9315072
_publ_section_title
;
Structure prediction by ZEFSAII (Michael W. Deem and Ramdas Pophale) SiO2 
 PCOD9315072
Probable space group: P 21 21 21
;
_chemical_formula_sum "Si O2"
_cell_formula_units_Z 20
_cell_length_a 12.284380
_cell_length_b 8.030243
_cell_length_c 7.685907
_cell_angle_alpha 90.000000
_cell_angle_beta 90.000000
_cell_angle_gamma 90.000000
_cell_volume 758.188259
_symmetry_space_group_name_H-M "P 21 21 21"
_symmetry_group_IT_number 19
_symmetry_cell_setting 'orthorhombic'
loop_
_space_group_symop_operation_xyz
x,y,z
1/2-x,-y,1/2+z
1/2+x,1/2-y,-z
-x,1/2+y,1/2-z
loop_
_atom_site_type_symbol
_atom_site_label
_atom_site_fract_x
_atom_site_fract_y
_atom_site_fract_z
Si Si1 0.436210 0.216056 0.749741
Si Si2 0.183021 0.240788 0.159722
Si Si3 0.791102 0.021057 0.086540
Si Si4 0.620507 0.520057 0.411062
Si Si5 0.531455 0.152875 0.385476
O O1 0.556010 0.277124 0.808268
O O2 0.353091 0.368043 0.769628
O O3 0.451827 0.159588 0.552725
O O4 0.402403 0.080056 0.892795
O O5 0.230363 0.344619 0.324782
O O6 0.257669 0.080566 0.130973
O O7 0.199323 0.363256 0.994150
O O8 0.879065 0.986463 0.933535
O O9 0.594518 0.327974 0.380417
O O10 0.537801 0.616294 0.283960
#
# Coordination Sequence:
#
# PCOD9315072 Si02
#       5
#     4   4   4   4   4
#     4  10  23  46  69  97 138 176 224 283 338 393
#     4  10  23  42  69 103 129 181 225 269 347 403
#     4  10  23  43  69  99 134 180 219 282 338 398
#     4  11  24  43  70 101 135 178 227 276 338 407
#     4  11  23  44  67  98 140 177 221 284 335 393
#
# _framework density 26.378675000000001
#
# number of rings (size 3 to 8) (size 9 to 14) (size 15 to 20)
#    0.000    1.600    0.000    4.800    8.400    0.000 
#   14.400    0.000    0.000    0.000    0.000    0.000 
#    0.000    0.000    0.000    0.000    0.000    0.000 
#
# Total GULP energy -112278.779500 kJ/mol
# GULP energy per Si atom -5613.938975 kJ/mol
# Density = 2.631864 g / cm^3
# Si number density = 26.378675 Si / 1000 Ang^3
#
#
#
# Elastic Constant Matrix: (Units=GPa)
#
#
# Indices 1 2 3 4 5 6 
#
# 1 76.8516 16.9175 48.6853 0.0000 0.0000 0.0000
# 2 16.9175 80.4296 30.6580 0.0000 0.0000 0.0000
# 3 48.6853 30.6580 107.7838 0.0000 0.0000 0.0000
# 4 0.0000 0.0000 0.0000 50.2617 0.0000 0.0000
# 5 0.0000 0.0000 0.0000 0.0000 40.7654 0.0000
# 6 0.0000 0.0000 0.0000 0.0000 0.0000 39.0705
#
#
#
# Elastic Compliance Matrix: (Units=1/GPa)
#
#
# Indices 1 2 3 4 5 6 
#
# 1 0.018272 -0.000782 -0.008031 0.000000 0.000000 0.000000
# 2 -0.000782 0.013979 -0.003623 0.000000 0.000000 0.000000
# 3 -0.008031 -0.003623 0.013936 0.000000 0.000000 0.000000
# 4 0.000000 0.000000 0.000000 0.019896 0.000000 0.000000
# 5 0.000000 0.000000 0.000000 0.000000 0.024531 0.000000
# 6 0.000000 0.000000 0.000000 0.000000 0.000000 0.025595
#
#
# Mechanical properties :
#
#
# Convention : Reuss Voigt Hill
#
# Bulk Modulus (GPa) = 46.91584 50.84297 48.87940
# Shear Modulus (GPa) = 33.74189 37.27313 35.50751
#
# Velocity S-wave (km/s) = 3.58038 3.76307 3.67286
# Velocity P-wave (km/s) = 5.90900 6.18038 6.04621
#
# Compressibility (1/GPa) = 0.02131476
#
# Stress axis : x y z
#
# Youngs Moduli (GPa) = 54.72933 71.53753 71.75787
#
# Poissons Ratio (x) = 0.05595 0.57627
# Poissons Ratio (y) = 0.04281 0.25997
# Poissons Ratio (z) = 0.43952 0.25917
#
# Static dielectric constant tensor:
#      x y z
#    x 2.020640 0.000000 0.000000 
#    y 0.000000 2.073230 0.000000 
#    z 0.000000 0.000000 2.059990 
# 
# From -- ./inp_files/2625.got.cif
#   From: 2010.05.17/outbox.cif.g08.bks.cpg/sg19_2_cif.got.tgz:2625.got - 2010.06.03 22:46:19.
