data_PCOD9315021
_publ_section_title
;
Structure prediction by ZEFSAII (Michael W. Deem and Ramdas Pophale) SiO2 
 PCOD9315021
Probable space group: P 21 21 21
;
_chemical_formula_sum "Si O2"
_cell_formula_units_Z 32
_cell_length_a 15.836643
_cell_length_b 10.889713
_cell_length_c 7.711654
_cell_angle_alpha 90.000000
_cell_angle_beta 90.000000
_cell_angle_gamma 90.000000
_cell_volume 1329.924836
_symmetry_space_group_name_H-M "P 21 21 21"
_symmetry_group_IT_number 19
_symmetry_cell_setting 'orthorhombic'
loop_
_space_group_symop_operation_xyz
x,y,z
1/2-x,-y,1/2+z
1/2+x,1/2-y,-z
-x,1/2+y,1/2-z
loop_
_atom_site_type_symbol
_atom_site_label
_atom_site_fract_x
_atom_site_fract_y
_atom_site_fract_z
Si Si1 0.911933 0.249018 0.982251
Si Si2 0.687492 0.543081 0.301818
Si Si3 0.588962 0.188656 0.113711
Si Si4 0.830242 0.885184 0.153435
Si Si5 0.917862 0.674097 0.969200
Si Si6 0.634174 0.441084 0.941917
Si Si7 0.959722 0.077310 0.266465
Si Si8 0.659627 0.965620 0.297678
O O1 0.840618 0.337551 0.909816
O O2 0.912775 0.129262 0.856266
O O3 0.998474 0.323743 0.974929
O O4 0.908760 0.188515 0.172091
O O5 0.643741 0.430974 0.402248
O O6 0.650473 0.530749 0.107122
O O7 0.788434 0.533925 0.312386
O O8 0.566870 0.237364 0.307119
O O9 0.636284 0.301240 0.018620
O O10 0.637268 0.063100 0.149514
O O11 0.870267 0.754291 0.114007
O O12 0.740444 0.887812 0.243030
O O13 0.896859 0.963829 0.262924
O O14 0.820594 0.955525 0.969777
O O15 0.002428 0.621246 0.052983
O O16 0.542671 0.454224 0.851792
#
# Coordination Sequence:
#
# PCOD9315021 Si02
#       8
#     4   4   4   4   4   4   4   4
#     4  10  24  39  66  94 124 173 211 263 329 386
#     4  11  24  41  67  94 130 173 220 264 340 385
#     4   9  22  42  63  92 130 166 216 269 325 392
#     4  10  24  42  64  95 129 172 215 271 322 391
#     4  10  23  41  64  96 128 170 215 270 328 395
#     4  10  23  41  65  92 131 170 214 278 318 398
#     4  10  23  43  65  95 132 169 217 268 326 390
#     4  10  23  41  64  92 130 165 220 265 322 387
#
# _framework density 24.061510999999999
#
# number of rings (size 3 to 8) (size 9 to 14) (size 15 to 20)
#    0.000    2.000    0.000    0.750   17.500    2.000 
#    0.000    0.000    0.000    0.000    0.000    0.000 
#    0.000    0.000    0.000    0.000    0.000    0.000 
#
# Total GULP energy -179162.899841 kJ/mol
# GULP energy per Si atom -5598.840620 kJ/mol
# Density = 2.400675 g / cm^3
# Si number density = 24.061511 Si / 1000 Ang^3
#
#
#
# Elastic Constant Matrix: (Units=GPa)
#
#
# Indices 1 2 3 4 5 6 
#
# 1 50.4150 4.7196 -1.3458 0.0000 0.0000 0.0000
# 2 4.7196 55.2732 -2.3385 0.0000 0.0000 0.0000
# 3 -1.3458 -2.3385 79.7350 0.0000 0.0000 0.0000
# 4 0.0000 0.0000 0.0000 21.4302 0.0000 0.0000
# 5 0.0000 0.0000 0.0000 0.0000 28.7998 0.0000
# 6 0.0000 0.0000 0.0000 0.0000 0.0000 31.2892
#
#
#
# Elastic Compliance Matrix: (Units=1/GPa)
#
#
# Indices 1 2 3 4 5 6 
#
# 1 0.020002 -0.001696 0.000288 0.000000 0.000000 0.000000
# 2 -0.001696 0.018258 0.000507 0.000000 0.000000 0.000000
# 3 0.000288 0.000507 0.012561 0.000000 0.000000 0.000000
# 4 0.000000 0.000000 0.000000 0.046663 0.000000 0.000000
# 5 0.000000 0.000000 0.000000 0.000000 0.034722 0.000000
# 6 0.000000 0.000000 0.000000 0.000000 0.000000 0.031960
#
#
# Mechanical properties :
#
#
# Convention : Reuss Voigt Hill
#
# Bulk Modulus (GPa) = 20.40014 20.83265 20.61640
# Shear Modulus (GPa) = 27.42605 28.59637 28.01121
#
# Velocity S-wave (km/s) = 3.37980 3.45116 3.41567
# Velocity P-wave (km/s) = 4.87109 4.95556 4.91350
#
# Compressibility (1/GPa) = 0.04901926
#
# Stress axis : x y z
#
# Youngs Moduli (GPa) = 49.99551 54.76994 79.60976
#
# Poissons Ratio (x) = 0.09287 -0.02292
# Poissons Ratio (y) = 0.08478 -0.04035
# Poissons Ratio (z) = -0.01439 -0.02776
#
# Static dielectric constant tensor:
#      x y z
#    x 1.864380 0.000000 0.000000 
#    y 0.000000 1.898390 0.000000 
#    z 0.000000 0.000000 1.967620 
# 
# From -- ./inp_files/3919.got.cif
#   From: 2010.05.17/outbox.cif.g08.bks.cpg/sg19_2_cif.got.tgz:3919.got - 2010.06.03 22:46:19.
