data_PCOD9315262
_publ_section_title
;
Structure prediction by ZEFSAII (Michael W. Deem and Ramdas Pophale) SiO2 
 PCOD9315262
Probable space group: P 21 21 21
;
_chemical_formula_sum "Si O2"
_cell_formula_units_Z 24
_cell_length_a 8.150001
_cell_length_b 14.389104
_cell_length_c 8.131565
_cell_angle_alpha 90.000000
_cell_angle_beta 90.000000
_cell_angle_gamma 90.000000
_cell_volume 953.598483
_symmetry_space_group_name_H-M "P 21 21 21"
_symmetry_group_IT_number 19
_symmetry_cell_setting 'orthorhombic'
loop_
_space_group_symop_operation_xyz
x,y,z
1/2-x,-y,1/2+z
1/2+x,1/2-y,-z
-x,1/2+y,1/2-z
loop_
_atom_site_type_symbol
_atom_site_label
_atom_site_fract_x
_atom_site_fract_y
_atom_site_fract_z
Si Si1 0.941762 0.696628 0.886210
Si Si2 0.207272 0.380721 0.502617
Si Si3 0.560976 0.269402 0.999301
Si Si4 0.652122 0.622321 0.412379
Si Si5 0.400737 0.435526 0.814313
Si Si6 0.767397 0.553071 0.100116
O O1 0.912704 0.792414 0.984733
O O2 0.916963 0.712774 0.693239
O O3 0.121263 0.654336 0.920960
O O4 0.804764 0.626254 0.957014
O O5 0.137049 0.470417 0.410963
O O6 0.258720 0.411562 0.685843
O O7 0.726004 0.290135 0.898934
O O8 0.501501 0.163190 0.991416
O O9 0.434501 0.344777 0.925376
O O10 0.629443 0.580901 0.231360
O O11 0.747780 0.546630 0.518998
O O12 0.565555 0.448521 0.706658
#
# Coordination Sequence:
#
# PCOD9315262 Si02
#       6
#     4   4   4   4   4   4
#     4  11  24  41  66  95 127 169 217 268 325 382
#     4  11  24  43  67  96 131 171 216 268 323 383
#     4  11  24  41  66  95 127 169 217 268 325 382
#     4  11  24  43  67  96 131 171 216 268 323 383
#     4  10  24  42  65  97 132 172 217 266 321 383
#     4  10  24  42  65  97 132 172 217 266 321 383
#
# _framework density 25.167824
#
# number of rings (size 3 to 8) (size 9 to 14) (size 15 to 20)
#    0.000    1.333    0.000    4.000    0.000   18.667 
#    0.000    0.000    0.000    0.000    0.000    0.000 
#    0.000    0.000    0.000    0.000    0.000    0.000 
#
# Total GULP energy -134510.845759 kJ/mol
# GULP energy per Si atom -5604.618573 kJ/mol
# Density = 2.511054 g / cm^3
# Si number density = 25.167824 Si / 1000 Ang^3
#
#
#
# Elastic Constant Matrix: (Units=GPa)
#
#
# Indices 1 2 3 4 5 6 
#
# 1 46.8833 -0.6464 -6.2874 0.0000 0.0000 0.0000
# 2 -0.6464 89.0646 17.7647 0.0000 0.0000 0.0000
# 3 -6.2874 17.7647 82.3715 0.0000 0.0000 0.0000
# 4 0.0000 0.0000 0.0000 51.2919 0.0000 0.0000
# 5 0.0000 0.0000 0.0000 0.0000 31.2172 0.0000
# 6 0.0000 0.0000 0.0000 0.0000 0.0000 42.3384
#
#
#
# Elastic Compliance Matrix: (Units=1/GPa)
#
#
# Indices 1 2 3 4 5 6 
#
# 1 0.021553 -0.000179 0.001684 0.000000 0.000000 0.000000
# 2 -0.000179 0.011734 -0.002544 0.000000 0.000000 0.000000
# 3 0.001684 -0.002544 0.012817 0.000000 0.000000 0.000000
# 4 0.000000 0.000000 0.000000 0.019496 0.000000 0.000000
# 5 0.000000 0.000000 0.000000 0.000000 0.032034 0.000000
# 6 0.000000 0.000000 0.000000 0.000000 0.000000 0.023619
#
#
# Mechanical properties :
#
#
# Convention : Reuss Voigt Hill
#
# Bulk Modulus (GPa) = 22.71468 26.66459 24.68964
# Shear Modulus (GPa) = 36.22980 38.80208 37.51594
#
# Velocity S-wave (km/s) = 3.79823 3.93075 3.86506
# Velocity P-wave (km/s) = 5.31792 5.58738 5.45431
#
# Compressibility (1/GPa) = 0.04402438
#
# Stress axis : x y z
#
# Youngs Moduli (GPa) = 46.39749 85.22252 78.01919
#
# Poissons Ratio (x) = 0.01529 -0.13137
# Poissons Ratio (y) = 0.00833 0.19851
# Poissons Ratio (z) = -0.07812 0.21683
#
# Static dielectric constant tensor:
#      x y z
#    x 2.061880 0.000000 0.000000 
#    y 0.000000 1.994600 0.000000 
#    z 0.000000 0.000000 1.951110 
# 
# From -- ./inp_files/3478.got.cif
#   From: 2010.05.17/outbox.cif.g08.bks.cpg/sg19_2_cif.got.tgz:3478.got - 2010.06.03 22:46:19.
