data_PCOD9315527
_publ_section_title
;
Structure prediction by ZEFSAII (Michael W. Deem and Ramdas Pophale) SiO2 
 PCOD9315527
Probable space group: P 21 21 21
;
_chemical_formula_sum "Si O2"
_cell_formula_units_Z 28
_cell_length_a 10.702480
_cell_length_b 19.183896
_cell_length_c 5.056084
_cell_angle_alpha 90.000000
_cell_angle_beta 90.000000
_cell_angle_gamma 90.000000
_cell_volume 1038.091218
_symmetry_space_group_name_H-M "P 21 21 21"
_symmetry_group_IT_number 19
_symmetry_cell_setting 'orthorhombic'
loop_
_space_group_symop_operation_xyz
x,y,z
1/2-x,-y,1/2+z
1/2+x,1/2-y,-z
-x,1/2+y,1/2-z
loop_
_atom_site_type_symbol
_atom_site_label
_atom_site_fract_x
_atom_site_fract_y
_atom_site_fract_z
Si Si1 0.590921 0.138046 0.559731
Si Si2 0.144117 0.719345 0.473131
Si Si3 0.265086 0.866612 0.292041
Si Si4 0.138307 0.925322 0.787614
Si Si5 0.482397 0.788322 0.020848
Si Si6 0.783579 0.081721 0.198521
Si Si7 0.051025 0.483330 0.046614
O O1 0.485855 0.122878 0.332144
O O2 0.595012 0.220767 0.575244
O O3 0.724182 0.111325 0.466222
O O4 0.539829 0.089115 0.792286
O O5 0.083176 0.732312 0.755907
O O6 0.200119 0.790057 0.347823
O O7 0.227569 0.649827 0.488315
O O8 0.047396 0.691545 0.251519
O O9 0.396563 0.844099 0.168096
O O10 0.241969 0.902285 0.574540
O O11 0.201922 0.916549 0.071895
O O12 0.065515 0.990352 0.651521
O O13 0.915109 0.043518 0.244405
O O14 0.681119 0.025143 0.109205
#
# Coordination Sequence:
#
# PCOD9315527 Si02
#       7
#     4   4   4   4   4   4   4
#     4  11  21  39  63 100 134 170 217 268 336 410
#     4  12  25  42  64 100 137 179 214 279 351 394
#     4  12  22  41  65  94 129 177 217 271 333 398
#     4  11  22  40  65  91 128 171 226 262 326 404
#     4  12  26  41  65 100 139 171 227 277 335 416
#     4  11  25  39  68 101 145 174 216 288 344 402
#     4  11  23  42  66 106 132 178 225 275 341 412
#
# _framework density 26.972581999999999
#
# number of rings (size 3 to 8) (size 9 to 14) (size 15 to 20)
#    0.000    0.571    7.143    0.857    4.000    1.143 
#    0.000    0.000    0.000    3.429    0.000    0.000 
#    0.000    0.000    0.000    0.000    0.000    0.000 
#
# Total GULP energy -156472.112141 kJ/mol
# GULP energy per Si atom -5588.289719 kJ/mol
# Density = 2.691119 g / cm^3
# Si number density = 26.972582 Si / 1000 Ang^3
#
#
#
# Elastic Constant Matrix: (Units=GPa)
#
#
# Indices 1 2 3 4 5 6 
#
# 1 23.5808 28.1042 -12.6349 0.0000 0.0000 0.0000
# 2 28.1042 106.8964 23.9692 0.0000 0.0000 0.0000
# 3 -12.6349 23.9692 132.4948 0.0000 0.0000 0.0000
# 4 0.0000 0.0000 0.0000 24.6198 0.0000 0.0000
# 5 0.0000 0.0000 0.0000 0.0000 32.8420 0.0000
# 6 0.0000 0.0000 0.0000 0.0000 0.0000 26.0556
#
#
#
# Elastic Compliance Matrix: (Units=1/GPa)
#
#
# Indices 1 2 3 4 5 6 
#
# 1 0.074789 -0.022161 0.011141 0.000000 0.000000 0.000000
# 2 -0.022161 0.016317 -0.005065 0.000000 0.000000 0.000000
# 3 0.011141 -0.005065 0.009526 0.000000 0.000000 0.000000
# 4 0.000000 0.000000 0.000000 0.040618 0.000000 0.000000
# 5 0.000000 0.000000 0.000000 0.000000 0.030449 0.000000
# 6 0.000000 0.000000 0.000000 0.000000 0.000000 0.038379
#
#
# Mechanical properties :
#
#
# Convention : Reuss Voigt Hill
#
# Bulk Modulus (GPa) = 14.60668 37.98321 26.29494
# Shear Modulus (GPa) = 18.86307 31.60572 25.23440
#
# Velocity S-wave (km/s) = 2.64738 3.42683 3.06201
# Velocity P-wave (km/s) = 3.84343 5.45621 4.71923
#
# Compressibility (1/GPa) = 0.06846184
#
# Stress axis : x y z
#
# Youngs Moduli (GPa) = 13.37102 61.28617 104.97356
#
# Poissons Ratio (x) = 1.35815 -1.16951
# Poissons Ratio (y) = 0.29631 0.53170
# Poissons Ratio (z) = -0.14897 0.31042
#
# Static dielectric constant tensor:
#      x y z
#    x 2.263710 0.000000 0.000000 
#    y 0.000000 2.341320 0.000000 
#    z 0.000000 0.000000 2.137820 
# 
# From -- ./inp_files/1148.got.cif
#   From: 2010.05.17/outbox.cif.g08.bks.cpg/sg19_1_cif.got.tgz:1148.got - 2010.06.03 22:46:19.
