data_PCOD9315999
_publ_section_title
;
Structure prediction by ZEFSAII (Michael W. Deem and Ramdas Pophale) SiO2 
 PCOD9315999
Probable space group: P 21 21 21
;
_chemical_formula_sum "Si O2"
_cell_formula_units_Z 32
_cell_length_a 18.846520
_cell_length_b 4.969900
_cell_length_c 15.430080
_cell_angle_alpha 90.000000
_cell_angle_beta 90.000000
_cell_angle_gamma 90.000000
_cell_volume 1445.263377
_symmetry_space_group_name_H-M "P 21 21 21"
_symmetry_group_IT_number 19
_symmetry_cell_setting 'orthorhombic'
loop_
_space_group_symop_operation_xyz
x,y,z
1/2-x,-y,1/2+z
1/2+x,1/2-y,-z
-x,1/2+y,1/2-z
loop_
_atom_site_type_symbol
_atom_site_label
_atom_site_fract_x
_atom_site_fract_y
_atom_site_fract_z
Si Si1 0.266352 0.899911 0.305555
Si Si2 0.649063 0.505505 0.367818
Si Si3 0.995655 0.241754 0.809299
Si Si4 0.180801 0.402648 0.339249
Si Si5 0.547852 0.890778 0.760571
Si Si6 0.293769 0.511906 0.042155
Si Si7 0.886863 0.550385 0.555024
Si Si8 0.871348 0.054521 0.441060
O O1 0.238480 0.598392 0.294101
O O2 0.313298 0.925383 0.392220
O O3 0.314302 0.990706 0.225782
O O4 0.199664 0.098962 0.314157
O O5 0.571398 0.626100 0.356097
O O6 0.653043 0.209838 0.407788
O O7 0.692498 0.707547 0.429103
O O8 0.025576 0.484041 0.749259
O O9 0.052812 0.137586 0.877877
O O10 0.104015 0.496287 0.308820
O O11 0.192964 0.448025 0.440794
O O12 0.516774 0.601859 0.736193
O O13 0.588454 0.885309 0.852340
O O14 0.213387 0.591323 0.066669
O O15 0.896320 0.253539 0.517422
O O16 0.884855 0.753125 0.474177
#
# Coordination Sequence:
#
# PCOD9315999 Si02
#       8
#     4   4   4   4   4   4   4   4
#     4  12  22  45  71 106 136 188 230 292 356 424
#     4  12  26  41  70 102 148 178 224 285 351 429
#     4  12  26  44  66 101 147 190 228 272 351 445
#     4  12  26  47  75 103 141 183 245 297 363 421
#     4  12  28  50  75 105 147 199 244 301 361 440
#     4  12  25  45  70 109 138 178 237 303 359 405
#     4  12  24  43  75 103 142 191 235 291 358 428
#     4  12  25  47  74 107 141 185 251 303 351 426
#
# _framework density 22.141293000000001
#
# number of rings (size 3 to 8) (size 9 to 14) (size 15 to 20)
#    0.000    0.000    3.750    6.750    1.750    3.000 
#    0.000    0.000    0.000    0.000    0.000    0.000 
#    0.000    0.000    0.000    0.000    0.000    0.000 
#
# Total GULP energy -179392.366098 kJ/mol
# GULP energy per Si atom -5606.011441 kJ/mol
# Density = 2.209090 g / cm^3
# Si number density = 22.141293 Si / 1000 Ang^3
#
#
#
# Elastic Constant Matrix: (Units=GPa)
#
#
# Indices 1 2 3 4 5 6 
#
# 1 81.9790 -10.7484 24.8569 0.0000 0.0000 0.0000
# 2 -10.7484 52.4736 -3.2899 0.0000 0.0000 0.0000
# 3 24.8569 -3.2899 55.9611 0.0000 0.0000 0.0000
# 4 0.0000 0.0000 0.0000 30.4535 0.0000 0.0000
# 5 0.0000 0.0000 0.0000 0.0000 240.9899 0.0000
# 6 0.0000 0.0000 0.0000 0.0000 0.0000 36.5221
#
#
#
# Elastic Compliance Matrix: (Units=1/GPa)
#
#
# Indices 1 2 3 4 5 6 
#
# 1 0.014432 0.002564 -0.006260 0.000000 0.000000 0.000000
# 2 0.002564 0.019583 0.000012 0.000000 0.000000 0.000000
# 3 -0.006260 0.000012 0.020651 0.000000 0.000000 0.000000
# 4 0.000000 0.000000 0.000000 0.032837 0.000000 0.000000
# 5 0.000000 0.000000 0.000000 0.000000 0.004150 0.000000
# 6 0.000000 0.000000 0.000000 0.000000 0.000000 0.027381
#
#
# Mechanical properties :
#
#
# Convention : Reuss Voigt Hill
#
# Bulk Modulus (GPa) = 21.14202 23.56121 22.35161
# Shear Modulus (GPa) = 35.16982 73.56611 54.36796
#
# Velocity S-wave (km/s) = 3.98983 5.77043 4.96068
# Velocity P-wave (km/s) = 5.54927 7.42035 6.55195
#
# Compressibility (1/GPa) = 0.04729918
#
# Stress axis : x y z
#
# Youngs Moduli (GPa) = 69.28825 51.06434 48.42418
#
# Poissons Ratio (x) = -0.13092 0.30313
# Poissons Ratio (y) = -0.17764 -0.00061
# Poissons Ratio (z) = 0.43374 -0.00064
#
# Static dielectric constant tensor:
#      x y z
#    x 1.795670 0.000000 0.000000 
#    y 0.000000 1.701260 0.000000 
#    z 0.000000 0.000000 1.773540 
# 
# From -- ./inp_files/6334.got.cif
#   From: 2010.05.17/outbox.cif.g08.bks.cpg/sg19_4_cif.got.tgz:6334.got - 2010.06.03 22:46:19.
