data_PCOD9315122
_publ_section_title
;
Structure prediction by ZEFSAII (Michael W. Deem and Ramdas Pophale) SiO2 
 PCOD9315122
Probable space group: P 21 21 21
;
_chemical_formula_sum "Si O2"
_cell_formula_units_Z 32
_cell_length_a 16.661851
_cell_length_b 14.316668
_cell_length_c 5.702319
_cell_angle_alpha 90.000000
_cell_angle_beta 90.000000
_cell_angle_gamma 90.000000
_cell_volume 1360.243657
_symmetry_space_group_name_H-M "P 21 21 21"
_symmetry_group_IT_number 19
_symmetry_cell_setting 'orthorhombic'
loop_
_space_group_symop_operation_xyz
x,y,z
1/2-x,-y,1/2+z
1/2+x,1/2-y,-z
-x,1/2+y,1/2-z
loop_
_atom_site_type_symbol
_atom_site_label
_atom_site_fract_x
_atom_site_fract_y
_atom_site_fract_z
Si Si1 0.895071 0.794418 0.887997
Si Si2 0.456092 0.897805 0.890084
Si Si3 0.546705 0.029551 0.202112
Si Si4 0.379886 0.394548 0.894366
Si Si5 0.251377 0.271154 0.980661
Si Si6 0.840662 0.464983 0.339603
Si Si7 0.309899 0.089692 0.161148
Si Si8 0.173102 0.429714 0.211328
O O1 0.965109 0.863360 0.789312
O O2 0.822773 0.771577 0.702428
O O3 0.924335 0.698031 0.000256
O O4 0.863240 0.865274 0.085592
O O5 0.541873 0.885744 0.768599
O O6 0.397566 0.945570 0.699922
O O7 0.471922 0.973895 0.094985
O O8 0.586436 0.954575 0.382850
O O9 0.609907 0.053348 0.996135
O O10 0.339718 0.293132 0.885815
O O11 0.312589 0.465409 0.789143
O O12 0.253887 0.181342 0.144704
O O13 0.244820 0.365131 0.134249
O O14 0.853584 0.414547 0.587886
O O15 0.747722 0.498477 0.343319
O O16 0.850543 0.409584 0.095904
#
# Coordination Sequence:
#
# PCOD9315122 Si02
#       8
#     4   4   4   4   4   4   4   4
#     4  10  23  43  76 105 141 199 257 304 382 467
#     4  11  24  45  74  98 152 198 244 306 391 460
#     4   9  22  45  64 104 139 187 247 305 379 456
#     4  10  24  43  64 104 142 188 241 315 385 444
#     4  11  24  40  72 102 142 187 253 313 375 450
#     4  10  24  45  73 100 142 192 238 299 365 450
#     4  10  24  45  70 107 141 181 251 305 363 433
#     4   9  21  40  67  96 135 182 245 301 372 442
#
# _framework density 23.525198
#
# number of rings (size 3 to 8) (size 9 to 14) (size 15 to 20)
#    0.000    2.000    0.000    0.750   14.000    3.000 
#    9.000    0.000    0.000    0.000    0.000    0.000 
#    0.000    0.000    0.000    0.000    0.000    0.000 
#
# Total GULP energy -178226.236389 kJ/mol
# GULP energy per Si atom -5569.569887 kJ/mol
# Density = 2.347165 g / cm^3
# Si number density = 23.525198 Si / 1000 Ang^3
#
#
#
# Elastic Constant Matrix: (Units=GPa)
#
#
# Indices 1 2 3 4 5 6 
#
# 1 45.6842 40.2830 24.2437 0.0000 0.0000 0.0000
# 2 40.2830 148.5936 62.2063 0.0000 0.0000 0.0000
# 3 24.2437 62.2063 111.3807 0.0000 0.0000 0.0000
# 4 0.0000 0.0000 0.0000 28.2656 0.0000 0.0000
# 5 0.0000 0.0000 0.0000 0.0000 32.8371 0.0000
# 6 0.0000 0.0000 0.0000 0.0000 0.0000 26.9981
#
#
#
# Elastic Compliance Matrix: (Units=1/GPa)
#
#
# Indices 1 2 3 4 5 6 
#
# 1 0.029304 -0.006883 -0.002534 0.000000 0.000000 0.000000
# 2 -0.006883 0.010400 -0.004310 0.000000 0.000000 0.000000
# 3 -0.002534 -0.004310 0.011937 0.000000 0.000000 0.000000
# 4 0.000000 0.000000 0.000000 0.035379 0.000000 0.000000
# 5 0.000000 0.000000 0.000000 0.000000 0.030453 0.000000
# 6 0.000000 0.000000 0.000000 0.000000 0.000000 0.037040
#
#
# Mechanical properties :
#
#
# Convention : Reuss Voigt Hill
#
# Bulk Modulus (GPa) = 41.34670 62.12494 51.73582
# Shear Modulus (GPa) = 26.31167 29.54853 27.93010
#
# Velocity S-wave (km/s) = 3.34795 3.54791 3.44938
# Velocity P-wave (km/s) = 5.70602 6.57637 6.15659
#
# Compressibility (1/GPa) = 0.02418573
#
# Stress axis : x y z
#
# Youngs Moduli (GPa) = 34.12548 96.15194 83.77240
#
# Poissons Ratio (x) = 0.66183 0.21229
# Poissons Ratio (y) = 0.23489 0.36108
# Poissons Ratio (z) = 0.08648 0.41444
#
# Static dielectric constant tensor:
#      x y z
#    x 1.974310 0.000000 0.000000 
#    y 0.000000 1.931670 0.000000 
#    z 0.000000 0.000000 2.092340 
# 
# From -- ./inp_files/1789.got.cif
#   From: 2010.05.17/outbox.cif.g08.bks.cpg/sg19_1_cif.got.tgz:1789.got - 2010.06.03 22:46:19.
