data_PCOD9315139
_publ_section_title
;
Structure prediction by ZEFSAII (Michael W. Deem and Ramdas Pophale) SiO2 
 PCOD9315139
Probable space group: P 21 21 21
;
_chemical_formula_sum "Si O2"
_cell_formula_units_Z 24
_cell_length_a 5.020347
_cell_length_b 15.074130
_cell_length_c 14.959095
_cell_angle_alpha 90.000000
_cell_angle_beta 90.000000
_cell_angle_gamma 90.000000
_cell_volume 1132.064867
_symmetry_space_group_name_H-M "P 21 21 21"
_symmetry_group_IT_number 19
_symmetry_cell_setting 'orthorhombic'
loop_
_space_group_symop_operation_xyz
x,y,z
1/2-x,-y,1/2+z
1/2+x,1/2-y,-z
-x,1/2+y,1/2-z
loop_
_atom_site_type_symbol
_atom_site_label
_atom_site_fract_x
_atom_site_fract_y
_atom_site_fract_z
Si Si1 0.164920 0.746461 0.442720
Si Si2 0.276221 0.435041 0.842876
Si Si3 0.716323 0.954789 0.867944
Si Si4 0.796271 0.572552 0.647475
Si Si5 0.789975 0.549380 0.858062
Si Si6 0.496168 0.808621 0.002093
O O1 0.373311 0.728979 0.522299
O O2 0.145918 0.657997 0.384724
O O3 0.291225 0.829211 0.390417
O O4 0.260229 0.425709 0.735598
O O5 0.492976 0.510974 0.865427
O O6 0.992868 0.469019 0.878327
O O7 0.485621 0.027594 0.870822
O O8 0.628030 0.873174 0.928738
O O9 0.985580 0.005911 0.893904
O O10 0.838221 0.574435 0.754390
O O11 0.867737 0.630697 0.920663
O O12 0.744668 0.748108 0.034265
#
# Coordination Sequence:
#
# PCOD9315139 Si02
#       6
#     4   4   4   4   4   4
#     4  12  26  40  66 102 130 166 220 264 318 382
#     4  10  23  44  66  94 129 174 211 264 324 380
#     4  10  23  44  69  91 129 173 213 263 328 379
#     4  10  23  44  66  94 129 174 211 264 324 380
#     4  10  23  44  69  91 129 173 213 263 328 379
#     4  12  26  42  68 100 126 166 220 270 320 380
#
# _framework density 21.200201
#
# number of rings (size 3 to 8) (size 9 to 14) (size 15 to 20)
#    0.000    1.333    0.000    4.000    9.333    0.000 
#    3.000    0.000    0.000    0.000    0.000    0.000 
#    0.000    0.000    0.000    0.000    0.000    0.000 
#
# Total GULP energy -134295.740190 kJ/mol
# GULP energy per Si atom -5595.655841 kJ/mol
# Density = 2.115195 g / cm^3
# Si number density = 21.200201 Si / 1000 Ang^3
#
#
#
# Elastic Constant Matrix: (Units=GPa)
#
#
# Indices 1 2 3 4 5 6 
#
# 1 29.8680 -25.2443 -21.6569 0.0000 0.0000 0.0000
# 2 -25.2443 87.1310 22.2558 0.0000 0.0000 0.0000
# 3 -21.6569 22.2558 24.9252 0.0000 0.0000 0.0000
# 4 0.0000 0.0000 0.0000 24.2309 0.0000 0.0000
# 5 0.0000 0.0000 0.0000 0.0000 13.8139 0.0000
# 6 0.0000 0.0000 0.0000 0.0000 0.0000 19.8015
#
#
#
# Elastic Compliance Matrix: (Units=1/GPa)
#
#
# Indices 1 2 3 4 5 6 
#
# 1 0.094948 0.008339 0.075053 0.000000 0.000000 0.000000
# 2 0.008339 0.015600 -0.006684 0.000000 0.000000 0.000000
# 3 0.075053 -0.006684 0.111300 0.000000 0.000000 0.000000
# 4 0.000000 0.000000 0.000000 0.041270 0.000000 0.000000
# 5 0.000000 0.000000 0.000000 0.000000 0.072391 0.000000
# 6 0.000000 0.000000 0.000000 0.000000 0.000000 0.050501
#
#
# Mechanical properties :
#
#
# Convention : Reuss Voigt Hill
#
# Bulk Modulus (GPa) = 2.66480 10.29259 6.47869
# Shear Modulus (GPa) = 13.97882 22.67390 18.32636
#
# Velocity S-wave (km/s) = 2.57061 3.27389 2.94333
# Velocity P-wave (km/s) = 3.17339 4.37683 3.82276
#
# Compressibility (1/GPa) = 0.37526286
#
# Stress axis : x y z
#
# Youngs Moduli (GPa) = 10.53204 64.10147 8.98471
#
# Poissons Ratio (x) = -0.53451 -0.67433
# Poissons Ratio (y) = -0.08782 0.06006
# Poissons Ratio (z) = -0.79046 0.42848
#
# Static dielectric constant tensor:
#      x y z
#    x 1.741390 0.000000 0.000000 
#    y 0.000000 1.739600 0.000000 
#    z 0.000000 0.000000 1.779690 
# 
# From -- ./inp_files/942.got.cif
#   From: 2010.05.17/outbox.cif.g08.bks.cpg/sg19_1_cif.got.tgz:942.got - 2010.06.03 22:46:19.
