data_PCOD9315764
_publ_section_title
;
Structure prediction by ZEFSAII (Michael W. Deem and Ramdas Pophale) SiO2 
 PCOD9315764
Probable space group: P 21 21 21
;
_chemical_formula_sum "Si O2"
_cell_formula_units_Z 32
_cell_length_a 19.667446
_cell_length_b 10.833180
_cell_length_c 6.362095
_cell_angle_alpha 90.000000
_cell_angle_beta 90.000000
_cell_angle_gamma 90.000000
_cell_volume 1355.514212
_symmetry_space_group_name_H-M "P 21 21 21"
_symmetry_group_IT_number 19
_symmetry_cell_setting 'orthorhombic'
loop_
_space_group_symop_operation_xyz
x,y,z
1/2-x,-y,1/2+z
1/2+x,1/2-y,-z
-x,1/2+y,1/2-z
loop_
_atom_site_type_symbol
_atom_site_label
_atom_site_fract_x
_atom_site_fract_y
_atom_site_fract_z
Si Si1 0.577276 0.955262 0.759779
Si Si2 0.527364 0.406481 0.437372
Si Si3 0.090365 0.688146 0.643019
Si Si4 0.645197 0.550130 0.213584
Si Si5 0.116084 0.287355 0.432002
Si Si6 0.305022 0.417428 0.411081
Si Si7 0.282056 0.682993 0.263391
Si Si8 0.294100 0.882510 0.615366
O O1 0.576942 0.839565 0.601152
O O2 0.607236 0.075852 0.651562
O O3 0.507121 0.985655 0.878511
O O4 0.629396 0.927440 0.944299
O O5 0.473061 0.380085 0.254719
O O6 0.598093 0.457525 0.348176
O O7 0.543998 0.277989 0.549629
O O8 0.103836 0.822437 0.745968
O O9 0.163745 0.627106 0.693360
O O10 0.722922 0.566539 0.294442
O O11 0.657955 0.490117 0.983331
O O12 0.142659 0.302688 0.670569
O O13 0.162850 0.201780 0.279110
O O14 0.272727 0.550764 0.373284
O O15 0.259253 0.324428 0.544657
O O16 0.271769 0.793748 0.422128
#
# Coordination Sequence:
#
# PCOD9315764 Si02
#       8
#     4   4   4   4   4   4   4   4
#     4  11  25  47  73 106 148 193 249 317 376 443
#     4  11  29  45  71 109 138 204 253 307 380 448
#     4  11  27  48  72 105 149 198 253 316 376 456
#     4  12  28  50  73 108 155 199 251 309 387 461
#     4  12  25  48  75 106 145 199 254 315 384 453
#     4  11  24  42  71 111 144 186 245 304 380 451
#     4  12  24  43  75 110 149 191 246 313 382 455
#     4  12  28  49  76 109 156 202 249 319 387 465
#
# _framework density 23.607275999999999
#
# number of rings (size 3 to 8) (size 9 to 14) (size 15 to 20)
#    0.000    0.500    3.750    3.000    8.750    0.000 
#    2.250    0.000    0.000    0.000    0.000    0.000 
#    0.000    0.000    0.000    0.000    0.000    0.000 
#
# Total GULP energy -178710.999810 kJ/mol
# GULP energy per Si atom -5584.718744 kJ/mol
# Density = 2.355355 g / cm^3
# Si number density = 23.607276 Si / 1000 Ang^3
#
#
#
# Elastic Constant Matrix: (Units=GPa)
#
#
# Indices 1 2 3 4 5 6 
#
# 1 53.7359 1.8487 21.7754 0.0000 0.0000 0.0000
# 2 1.8487 60.0002 0.1349 0.0000 0.0000 0.0000
# 3 21.7754 0.1349 67.1609 0.0000 0.0000 0.0000
# 4 0.0000 0.0000 0.0000 42.2399 0.0000 0.0000
# 5 0.0000 0.0000 0.0000 0.0000 28.8859 0.0000
# 6 0.0000 0.0000 0.0000 0.0000 0.0000 38.3360
#
#
#
# Elastic Compliance Matrix: (Units=1/GPa)
#
#
# Indices 1 2 3 4 5 6 
#
# 1 0.021449 -0.000645 -0.006953 0.000000 0.000000 0.000000
# 2 -0.000645 0.016686 0.000176 0.000000 0.000000 0.000000
# 3 -0.006953 0.000176 0.017144 0.000000 0.000000 0.000000
# 4 0.000000 0.000000 0.000000 0.023674 0.000000 0.000000
# 5 0.000000 0.000000 0.000000 0.000000 0.034619 0.000000
# 6 0.000000 0.000000 0.000000 0.000000 0.000000 0.026085
#
#
# Mechanical properties :
#
#
# Convention : Reuss Voigt Hill
#
# Bulk Modulus (GPa) = 24.73187 25.37945 25.05566
# Shear Modulus (GPa) = 29.76528 32.36822 31.06675
#
# Velocity S-wave (km/s) = 3.55470 3.70687 3.63158
# Velocity P-wave (km/s) = 5.22943 5.39400 5.31235
#
# Compressibility (1/GPa) = 0.04043365
#
# Stress axis : x y z
#
# Youngs Moduli (GPa) = 46.62142 59.93016 58.33052
#
# Poissons Ratio (x) = 0.03867 0.40558
# Poissons Ratio (y) = 0.03008 -0.01025
# Poissons Ratio (z) = 0.32417 -0.01053
#
# Static dielectric constant tensor:
#      x y z
#    x 1.962900 0.000000 0.000000 
#    y 0.000000 1.958090 0.000000 
#    z 0.000000 0.000000 1.923320 
# 
# From -- ./inp_files/2015.got.cif
#   From: 2010.05.17/outbox.cif.g08.bks.cpg/sg19_2_cif.got.tgz:2015.got - 2010.06.03 22:46:19.
