data_PCOD9315116
_publ_section_title
;
Structure prediction by ZEFSAII (Michael W. Deem and Ramdas Pophale) SiO2 
 PCOD9315116
Probable space group: P 21 21 21
;
_chemical_formula_sum "Si O2"
_cell_formula_units_Z 24
_cell_length_a 10.053158
_cell_length_b 4.846079
_cell_length_c 18.264605
_cell_angle_alpha 90.000000
_cell_angle_beta 90.000000
_cell_angle_gamma 90.000000
_cell_volume 889.822293
_symmetry_space_group_name_H-M "P 21 21 21"
_symmetry_group_IT_number 19
_symmetry_cell_setting 'orthorhombic'
loop_
_space_group_symop_operation_xyz
x,y,z
1/2-x,-y,1/2+z
1/2+x,1/2-y,-z
-x,1/2+y,1/2-z
loop_
_atom_site_type_symbol
_atom_site_label
_atom_site_fract_x
_atom_site_fract_y
_atom_site_fract_z
Si Si1 0.968283 0.625754 0.289362
Si Si2 0.474282 0.330890 0.346869
Si Si3 0.667808 0.534858 0.270030
Si Si4 0.456221 0.556372 0.943619
Si Si5 0.173032 0.547236 0.993261
Si Si6 0.104401 0.700508 0.576043
O O1 0.819060 0.513039 0.289891
O O2 0.044608 0.543777 0.361610
O O3 0.033681 0.450952 0.223739
O O4 0.573790 0.272072 0.267314
O O5 0.346287 0.215665 0.301392
O O6 0.396178 0.507088 0.414071
O O7 0.543489 0.085506 0.394665
O O8 0.598069 0.601995 0.351728
O O9 0.315023 0.686939 0.967763
O O10 0.580214 0.747257 0.961754
O O11 0.462487 0.283902 0.995803
O O12 0.240512 0.330312 0.051092
#
# Coordination Sequence:
#
# PCOD9315116 Si02
#       6
#     4   4   4   4   4   4
#     4  12  30  53  81 120 169 222 271 353 424 514
#     4  10  23  43  72 110 154 211 269 339 414 499
#     4  10  25  44  76 113 162 211 279 344 419 501
#     4  10  25  45  80 112 165 210 288 335 432 495
#     4  10  23  45  73 115 150 220 270 354 414 499
#     4   8  24  42  70 108 160 204 275 343 409 494
#
# _framework density 26.971678000000001
#
# number of rings (size 3 to 8) (size 9 to 14) (size 15 to 20)
#    2.000    0.000    0.000    1.000    9.333    2.667 
#    0.000    1.667    0.000    0.000    0.000    0.000 
#    0.000    0.000    0.000    0.000    0.000    0.000 
#
# Total GULP energy -133672.906667 kJ/mol
# GULP energy per Si atom -5569.704444 kJ/mol
# Density = 2.691029 g / cm^3
# Si number density = 26.971678 Si / 1000 Ang^3
#
#
#
# Elastic Constant Matrix: (Units=GPa)
#
#
# Indices 1 2 3 4 5 6 
#
# 1 79.4684 3.3967 32.5726 0.0000 0.0000 0.0000
# 2 3.3967 79.7981 25.2139 0.0000 0.0000 0.0000
# 3 32.5726 25.2139 125.1000 0.0000 0.0000 0.0000
# 4 0.0000 0.0000 0.0000 33.8782 0.0000 0.0000
# 5 0.0000 0.0000 0.0000 0.0000 56.0310 0.0000
# 6 0.0000 0.0000 0.0000 0.0000 0.0000 -2.8540
#
#
#
# Elastic Compliance Matrix: (Units=1/GPa)
#
#
# Indices 1 2 3 4 5 6 
#
# 1 0.014114 0.000598 -0.003795 0.000000 0.000000 0.000000
# 2 0.000598 0.013409 -0.002858 0.000000 0.000000 0.000000
# 3 -0.003795 -0.002858 0.009558 0.000000 0.000000 0.000000
# 4 0.000000 0.000000 0.000000 0.029518 0.000000 0.000000
# 5 0.000000 0.000000 0.000000 0.000000 0.017847 0.000000
# 6 0.000000 0.000000 0.000000 0.000000 0.000000 -0.350380
#
#
# Mechanical properties :
#
#
# Convention : Reuss Voigt Hill
#
# Bulk Modulus (GPa) = 40.04782 45.19253 42.62018
# Shear Modulus (GPa) = -20.36665 32.28992 5.96163
#
# Velocity S-wave (km/s) = -2.75091 3.46378 1.48833
# Velocity P-wave (km/s) = 2.18868 5.72616 4.33470
#
# Compressibility (1/GPa) = 0.02497015
#
# Stress axis : x y z
#
# Youngs Moduli (GPa) = 70.85302 74.57481 104.62488
#
# Poissons Ratio (x) = -0.04463 0.39710
# Poissons Ratio (y) = -0.04240 0.29907
# Poissons Ratio (z) = 0.26892 0.21317
#
# Static dielectric constant tensor:
#      x y z
#    x 2.277400 0.000000 0.000000 
#    y 0.000000 2.205440 0.000000 
#    z 0.000000 0.000000 2.202050 
# 
# From -- ./inp_files/7109.got.cif
#   From: 2010.05.17/outbox.cif.g08.bks.cpg/sg19_4_cif.got.tgz:7109.got - 2010.06.03 22:46:19.
