data_PCOD9315727
_publ_section_title
;
Structure prediction by ZEFSAII (Michael W. Deem and Ramdas Pophale) SiO2 
 PCOD9315727
Probable space group: P 21 21 21
;
_chemical_formula_sum "Si O2"
_cell_formula_units_Z 28
_cell_length_a 17.564444
_cell_length_b 11.373036
_cell_length_c 6.089534
_cell_angle_alpha 90.000000
_cell_angle_beta 90.000000
_cell_angle_gamma 90.000000
_cell_volume 1216.451730
_symmetry_space_group_name_H-M "P 21 21 21"
_symmetry_group_IT_number 19
_symmetry_cell_setting 'orthorhombic'
loop_
_space_group_symop_operation_xyz
x,y,z
1/2-x,-y,1/2+z
1/2+x,1/2-y,-z
-x,1/2+y,1/2-z
loop_
_atom_site_type_symbol
_atom_site_label
_atom_site_fract_x
_atom_site_fract_y
_atom_site_fract_z
Si Si1 0.084109 0.797667 0.712085
Si Si2 0.467984 0.651540 0.933604
Si Si3 0.704500 0.124074 0.125525
Si Si4 0.724246 0.714286 0.967275
Si Si5 0.383014 0.073034 0.803718
Si Si6 0.355657 0.820766 0.704892
Si Si7 0.634203 0.946748 0.416859
O O1 0.111147 0.908383 0.565508
O O2 0.086632 0.674123 0.583878
O O3 0.147089 0.768108 0.897395
O O4 0.004863 0.826231 0.827945
O O5 0.539318 0.634370 0.774457
O O6 0.419462 0.760432 0.853118
O O7 0.412059 0.539976 0.937960
O O8 0.733881 0.175429 0.358388
O O9 0.649448 0.015519 0.186149
O O10 0.665301 0.229613 0.988379
O O11 0.781147 0.084712 0.001532
O O12 0.695214 0.635890 0.766041
O O13 0.782357 0.660869 0.140064
O O14 0.383232 0.952393 0.666131
#
# Coordination Sequence:
#
# PCOD9315727 Si02
#       7
#     4   4   4   4   4   4   4
#     4  11  26  49  69 107 145 199 240 302 376 437
#     4  11  29  44  68 112 142 202 244 298 378 437
#     4  12  25  46  75 116 144 189 249 321 374 436
#     4  11  23  47  70 111 139 187 252 302 373 431
#     4  11  28  46  75 101 158 195 247 309 370 451
#     4  12  27  46  75 112 147 198 252 307 374 446
#     4  12  24  46  76 101 151 186 248 309 367 442
#
# _framework density 23.017766000000002
#
# number of rings (size 3 to 8) (size 9 to 14) (size 15 to 20)
#    0.000    0.571    4.286    1.714   10.000    1.143 
#    0.000    0.000    0.000    0.000    0.000    0.000 
#    0.000    0.000    0.000    0.000    0.000    0.000 
#
# Total GULP energy -156412.371231 kJ/mol
# GULP energy per Si atom -5586.156115 kJ/mol
# Density = 2.296538 g / cm^3
# Si number density = 23.017766 Si / 1000 Ang^3
#
#
#
# Elastic Constant Matrix: (Units=GPa)
#
#
# Indices 1 2 3 4 5 6 
#
# 1 75.8236 18.0097 7.5098 0.0000 0.0000 0.0000
# 2 18.0097 68.3430 5.6627 0.0000 0.0000 0.0000
# 3 7.5098 5.6627 58.9154 0.0000 0.0000 0.0000
# 4 0.0000 0.0000 0.0000 21.0013 0.0000 0.0000
# 5 0.0000 0.0000 0.0000 0.0000 44.3749 0.0000
# 6 0.0000 0.0000 0.0000 0.0000 0.0000 19.5469
#
#
#
# Elastic Compliance Matrix: (Units=1/GPa)
#
#
# Indices 1 2 3 4 5 6 
#
# 1 0.014193 -0.003619 -0.001461 0.000000 0.000000 0.000000
# 2 -0.003619 0.015672 -0.001045 0.000000 0.000000 0.000000
# 3 -0.001461 -0.001045 0.017260 0.000000 0.000000 0.000000
# 4 0.000000 0.000000 0.000000 0.047616 0.000000 0.000000
# 5 0.000000 0.000000 0.000000 0.000000 0.022535 0.000000
# 6 0.000000 0.000000 0.000000 0.000000 0.000000 0.051159
#
#
# Mechanical properties :
#
#
# Convention : Reuss Voigt Hill
#
# Bulk Modulus (GPa) = 28.67411 29.49406 29.08408
# Shear Modulus (GPa) = 25.99951 28.44460 27.22205
#
# Velocity S-wave (km/s) = 3.36451 3.51916 3.44270
# Velocity P-wave (km/s) = 5.25144 5.41794 5.33534
#
# Compressibility (1/GPa) = 0.03487467
#
# Stress axis : x y z
#
# Youngs Moduli (GPa) = 70.45810 63.80661 57.93672
#
# Poissons Ratio (x) = 0.23092 0.08466
# Poissons Ratio (y) = 0.25499 0.06055
# Poissons Ratio (z) = 0.10296 0.06668
#
# Static dielectric constant tensor:
#      x y z
#    x 1.831080 0.000000 0.000000 
#    y 0.000000 1.912030 0.000000 
#    z 0.000000 0.000000 1.946440 
# 
# From -- ./inp_files/1014.got.cif
#   From: 2010.05.17/outbox.cif.g08.bks.cpg/sg19_1_cif.got.tgz:1014.got - 2010.06.03 22:46:19.
