data_PCOD9315535
_publ_section_title
;
Structure prediction by ZEFSAII (Michael W. Deem and Ramdas Pophale) SiO2 
 PCOD9315535
Probable space group: P 21 21 21
;
_chemical_formula_sum "Si O2"
_cell_formula_units_Z 32
_cell_length_a 11.926971
_cell_length_b 19.542082
_cell_length_c 5.332234
_cell_angle_alpha 90.000000
_cell_angle_beta 90.000000
_cell_angle_gamma 90.000000
_cell_volume 1242.825611
_symmetry_space_group_name_H-M "P 21 21 21"
_symmetry_group_IT_number 19
_symmetry_cell_setting 'orthorhombic'
loop_
_space_group_symop_operation_xyz
x,y,z
1/2-x,-y,1/2+z
1/2+x,1/2-y,-z
-x,1/2+y,1/2-z
loop_
_atom_site_type_symbol
_atom_site_label
_atom_site_fract_x
_atom_site_fract_y
_atom_site_fract_z
Si Si1 0.015262 0.999147 0.333587
Si Si2 0.000805 0.648816 0.383795
Si Si3 0.694020 0.527634 0.314405
Si Si4 0.242970 0.813198 0.608464
Si Si5 0.707413 0.883933 0.348293
Si Si6 0.622252 0.738911 0.905838
Si Si7 0.664086 0.036760 0.173417
Si Si8 0.445630 0.623633 0.898867
O O1 0.020561 0.069205 0.186855
O O2 0.045275 0.925304 0.218832
O O3 0.077410 0.005124 0.597836
O O4 0.891271 0.975260 0.402237
O O5 0.087719 0.652310 0.617070
O O6 0.068275 0.688155 0.165043
O O7 0.878254 0.682327 0.421156
O O8 0.769794 0.499667 0.545324
O O9 0.701459 0.609309 0.330167
O O10 0.187218 0.785586 0.350078
O O11 0.202197 0.770666 0.853132
O O12 0.825425 0.856571 0.234089
O O13 0.684078 0.958715 0.236543
O O14 0.738630 0.908261 0.631758
O O15 0.513517 0.691644 0.955697
O O16 0.587329 0.076480 0.367155
#
# Coordination Sequence:
#
# PCOD9315535 Si02
#       8
#     4   4   4   4   4   4   4   4
#     4  11  24  41  73 113 150 198 256 329 398 474
#     4  12  29  50  79 114 156 213 272 340 394 493
#     4  12  25  44  78 119 156 200 257 335 402 481
#     4  12  29  55  78 118 158 213 272 323 417 481
#     4  11  23  41  69 115 147 193 260 322 397 458
#     4  12  31  54  78 110 164 216 268 327 400 492
#     4  11  21  40  73 109 151 189 252 322 401 467
#     4  11  24  45  74 110 154 208 253 326 405 474
#
# _framework density 25.747779999999999
#
# number of rings (size 3 to 8) (size 9 to 14) (size 15 to 20)
#    0.000    0.500    5.000    2.250    7.000    3.000 
#    0.000    0.000    0.000    0.000    0.000    0.000 
#    0.000    0.000    0.000    0.000    0.000    0.000 
#
# Total GULP energy -178548.569969 kJ/mol
# GULP energy per Si atom -5579.642812 kJ/mol
# Density = 2.568918 g / cm^3
# Si number density = 25.747780 Si / 1000 Ang^3
#
#
#
# Elastic Constant Matrix: (Units=GPa)
#
#
# Indices 1 2 3 4 5 6 
#
# 1 143.8672 48.0457 49.3559 0.0000 0.0000 0.0000
# 2 48.0457 113.9103 25.9752 0.0000 0.0000 0.0000
# 3 49.3559 25.9752 88.2513 0.0000 0.0000 0.0000
# 4 0.0000 0.0000 0.0000 28.8072 0.0000 0.0000
# 5 0.0000 0.0000 0.0000 0.0000 44.6251 0.0000
# 6 0.0000 0.0000 0.0000 0.0000 0.0000 43.3790
#
#
#
# Elastic Compliance Matrix: (Units=1/GPa)
#
#
# Indices 1 2 3 4 5 6 
#
# 1 0.009461 -0.002984 -0.004413 0.000000 0.000000 0.000000
# 2 -0.002984 0.010352 -0.001378 0.000000 0.000000 0.000000
# 3 -0.004413 -0.001378 0.014205 0.000000 0.000000 0.000000
# 4 0.000000 0.000000 0.000000 0.034714 0.000000 0.000000
# 5 0.000000 0.000000 0.000000 0.000000 0.022409 0.000000
# 6 0.000000 0.000000 0.000000 0.000000 0.000000 0.023053
#
#
# Mechanical properties :
#
#
# Convention : Reuss Voigt Hill
#
# Bulk Modulus (GPa) = 60.72519 65.86471 63.29495
# Shear Modulus (GPa) = 36.43437 38.20572 37.32004
#
# Velocity S-wave (km/s) = 3.76579 3.85625 3.81129
# Velocity P-wave (km/s) = 6.52258 6.74269 6.63355
#
# Compressibility (1/GPa) = 0.01646763
#
# Stress axis : x y z
#
# Youngs Moduli (GPa) = 105.69151 96.60156 70.39824
#
# Poissons Ratio (x) = 0.28830 0.31067
# Poissons Ratio (y) = 0.31543 0.09699
# Poissons Ratio (z) = 0.46643 0.13310
#
# Static dielectric constant tensor:
#      x y z
#    x 1.979800 0.000000 0.000000 
#    y 0.000000 1.854140 0.000000 
#    z 0.000000 0.000000 2.368790 
# 
# From -- ./inp_files/1162.got.cif
#   From: 2010.05.17/outbox.cif.g08.bks.cpg/sg19_1_cif.got.tgz:1162.got - 2010.06.03 22:46:19.
