data_PCOD9315594
_publ_section_title
;
Structure prediction by ZEFSAII (Michael W. Deem and Ramdas Pophale) SiO2 
 PCOD9315594
Probable space group: P 21 21 21
;
_chemical_formula_sum "Si O2"
_cell_formula_units_Z 28
_cell_length_a 7.342354
_cell_length_b 9.651684
_cell_length_c 22.041360
_cell_angle_alpha 90.000000
_cell_angle_beta 90.000000
_cell_angle_gamma 90.000000
_cell_volume 1561.984795
_symmetry_space_group_name_H-M "P 21 21 21"
_symmetry_group_IT_number 19
_symmetry_cell_setting 'orthorhombic'
loop_
_space_group_symop_operation_xyz
x,y,z
1/2-x,-y,1/2+z
1/2+x,1/2-y,-z
-x,1/2+y,1/2-z
loop_
_atom_site_type_symbol
_atom_site_label
_atom_site_fract_x
_atom_site_fract_y
_atom_site_fract_z
Si Si1 0.712998 0.988047 0.135729
Si Si2 0.290243 0.989392 0.136304
Si Si3 0.716591 0.583090 0.001253
Si Si4 0.788370 0.913584 0.998132
Si Si5 0.499189 0.784405 0.673551
Si Si6 0.002086 0.770034 0.183651
Si Si7 0.502132 0.000018 0.899574
O O1 0.501834 0.989679 0.153956
O O2 0.825430 0.122633 0.156424
O O3 0.825948 0.858846 0.163147
O O4 0.726230 0.972706 0.062979
O O5 0.178014 0.122671 0.158605
O O6 0.177858 0.858460 0.162441
O O7 0.275762 0.978546 0.063418
O O8 0.502257 0.561872 0.008703
O O9 0.829728 0.518572 0.056082
O O10 0.754349 0.748111 0.999205
O O11 0.674704 0.978913 0.943613
O O12 0.503134 0.750146 0.744592
O O13 0.496914 0.645345 0.634365
O O14 0.000870 0.624613 0.148813
#
# Coordination Sequence:
#
# PCOD9315594 Si02
#       7
#     4   4   4   4   4   4   4
#     4  11  22  43  68  92 130 170 212 270 324 373
#     4  11  22  43  68  92 130 170 212 270 324 373
#     4  12  20  38  66  96 124 159 217 274 319 373
#     4  12  20  38  66  96 124 159 217 274 319 373
#     4  11  27  45  59  97 141 177 205 257 333 391
#     4  11  23  45  69  89 129 175 220 263 304 389
#     4  12  24  38  70  98 126 168 219 266 325 388
#
# _framework density 17.925909999999998
#
# number of rings (size 3 to 8) (size 9 to 14) (size 15 to 20)
#    0.000    0.571    8.571    1.714    0.000    3.429 
#    0.000    2.857    0.000    0.000    0.000    0.000 
#    0.000    0.000    0.000    0.000    0.000    0.000 
#
# Total GULP energy -156538.024006 kJ/mol
# GULP energy per Si atom -5590.643714 kJ/mol
# Density = 1.788511 g / cm^3
# Si number density = 17.925910 Si / 1000 Ang^3
#
#
#
# Elastic Constant Matrix: (Units=GPa)
#
#
# Indices 1 2 3 4 5 6 
#
# 1 420.1277 174.9128 250.1272 0.0000 0.0000 0.0000
# 2 174.9128 167.8999 154.7828 0.0000 0.0000 0.0000
# 3 250.1272 154.7828 319.5655 0.0000 0.0000 0.0000
# 4 0.0000 0.0000 0.0000 -5.5175 0.0000 0.0000
# 5 0.0000 0.0000 0.0000 0.0000 4.8385 0.0000
# 6 0.0000 0.0000 0.0000 0.0000 0.0000 15.8989
#
#
#
# Elastic Compliance Matrix: (Units=1/GPa)
#
#
# Indices 1 2 3 4 5 6 
#
# 1 0.005175 -0.002994 -0.002600 0.000000 0.000000 0.000000
# 2 -0.002994 0.012493 -0.003708 0.000000 0.000000 0.000000
# 3 -0.002600 -0.003708 0.006960 0.000000 0.000000 0.000000
# 4 0.000000 0.000000 0.000000 -0.181241 0.000000 0.000000
# 5 0.000000 0.000000 0.000000 0.000000 0.206675 0.000000
# 6 0.000000 0.000000 0.000000 0.000000 0.000000 0.062898
#
#
# Mechanical properties :
#
#
# Convention : Reuss Voigt Hill
#
# Bulk Modulus (GPa) = 165.99136 229.69320 197.84228
# Shear Modulus (GPa) = 37.43328 24.89532 31.16430
#
# Velocity S-wave (km/s) = 4.57466 3.73069 4.17406
# Velocity P-wave (km/s) = 10.98649 12.12313 11.56878
#
# Compressibility (1/GPa) = 0.00602441
#
# Stress axis : x y z
#
# Youngs Moduli (GPa) = 193.24733 80.04666 143.67090
#
# Poissons Ratio (x) = 0.23964 0.37359
# Poissons Ratio (y) = 0.57853 0.53269
# Poissons Ratio (z) = 0.50250 0.29679
#
# Static dielectric constant tensor:
#      x y z
#    x 1.604180 0.000000 0.000000 
#    y 0.000000 1.595670 0.000000 
#    z 0.000000 0.000000 1.579220 
# 
# From -- ./inp_files/7027.got.cif
#   From: 2010.05.17/outbox.cif.g08.bks.cpg/sg19_4_cif.got.tgz:7027.got - 2010.06.03 22:46:19.
