data_PCOD9315528
_publ_section_title
;
Structure prediction by ZEFSAII (Michael W. Deem and Ramdas Pophale) SiO2 
 PCOD9315528
Probable space group: P 21 21 21
;
_chemical_formula_sum "Si O2"
_cell_formula_units_Z 32
_cell_length_a 17.103617
_cell_length_b 5.630644
_cell_length_c 14.174817
_cell_angle_alpha 90.000000
_cell_angle_beta 90.000000
_cell_angle_gamma 90.000000
_cell_volume 1365.096941
_symmetry_space_group_name_H-M "P 21 21 21"
_symmetry_group_IT_number 19
_symmetry_cell_setting 'orthorhombic'
loop_
_space_group_symop_operation_xyz
x,y,z
1/2-x,-y,1/2+z
1/2+x,1/2-y,-z
-x,1/2+y,1/2-z
loop_
_atom_site_type_symbol
_atom_site_label
_atom_site_fract_x
_atom_site_fract_y
_atom_site_fract_z
Si Si1 0.903070 0.648324 0.177266
Si Si2 0.382050 0.675166 0.010633
Si Si3 0.244238 0.008663 0.231229
Si Si4 0.517856 0.476164 0.347637
Si Si5 0.255116 0.476979 0.627067
Si Si6 0.421774 0.523084 0.660237
Si Si7 0.021081 0.136380 0.000310
Si Si8 0.392656 0.126666 0.341226
O O1 0.845677 0.479698 0.236875
O O2 0.893593 0.890006 0.237283
O O3 0.995345 0.602185 0.173501
O O4 0.869335 0.637524 0.071936
O O5 0.428688 0.780693 0.100024
O O6 0.303861 0.544954 0.040300
O O7 0.447451 0.510306 0.964012
O O8 0.250075 0.249360 0.165419
O O9 0.303776 0.081188 0.314573
O O10 0.269780 0.751907 0.191031
O O11 0.515862 0.691284 0.420805
O O12 0.427790 0.392162 0.341070
O O13 0.555466 0.521160 0.246045
O O14 0.346032 0.415480 0.609417
O O15 0.442069 0.738282 0.589674
O O16 0.083087 0.984351 0.940822
#
# Coordination Sequence:
#
# PCOD9315528 Si02
#       8
#     4   4   4   4   4   4   4   4
#     4  11  24  47  74 104 140 195 248 300 367 432
#     4  11  24  44  70 106 142 190 241 298 366 445
#     4  11  26  47  71 108 143 195 241 301 370 432
#     4  11  21  39  66 103 141 186 233 294 371 440
#     4  11  26  47  74 104 149 187 240 307 361 431
#     4  11  24  48  72 105 141 191 249 307 359 434
#     4  11  24  42  69 105 139 191 242 297 371 434
#     4  11  23  38  68 103 147 183 236 298 367 446
#
# _framework density 23.441559999999999
#
# number of rings (size 3 to 8) (size 9 to 14) (size 15 to 20)
#    0.000    1.000    3.750    2.250    3.500    3.000 
#    9.000    0.000    0.000    0.000    0.000    0.000 
#    0.000    0.000    0.000    0.000    0.000    0.000 
#
# Total GULP energy -178525.962444 kJ/mol
# GULP energy per Si atom -5578.936326 kJ/mol
# Density = 2.338821 g / cm^3
# Si number density = 23.441560 Si / 1000 Ang^3
#
#
#
# Elastic Constant Matrix: (Units=GPa)
#
#
# Indices 1 2 3 4 5 6 
#
# 1 87.3886 -17.1659 -9.0028 0.0000 0.0000 0.0000
# 2 -17.1659 48.4750 3.5164 0.0000 0.0000 0.0000
# 3 -9.0028 3.5164 62.7713 0.0000 0.0000 0.0000
# 4 0.0000 0.0000 0.0000 26.8209 0.0000 0.0000
# 5 0.0000 0.0000 0.0000 0.0000 10.6916 0.0000
# 6 0.0000 0.0000 0.0000 0.0000 0.0000 22.2009
#
#
#
# Elastic Compliance Matrix: (Units=1/GPa)
#
#
# Indices 1 2 3 4 5 6 
#
# 1 0.012446 0.004295 0.001544 0.000000 0.000000 0.000000
# 2 0.004295 0.022196 -0.000627 0.000000 0.000000 0.000000
# 3 0.001544 -0.000627 0.016187 0.000000 0.000000 0.000000
# 4 0.000000 0.000000 0.000000 0.037284 0.000000 0.000000
# 5 0.000000 0.000000 0.000000 0.000000 0.093531 0.000000
# 6 0.000000 0.000000 0.000000 0.000000 0.000000 0.045043
#
#
# Mechanical properties :
#
#
# Convention : Reuss Voigt Hill
#
# Bulk Modulus (GPa) = 16.32546 17.03670 16.68108
# Shear Modulus (GPa) = 21.12542 26.69514 23.91028
#
# Velocity S-wave (km/s) = 3.00525 3.37826 3.19720
# Velocity P-wave (km/s) = 4.36136 4.74346 4.55642
#
# Compressibility (1/GPa) = 0.06125401
#
# Stress axis : x y z
#
# Youngs Moduli (GPa) = 80.34718 45.05363 61.77607
#
# Poissons Ratio (x) = -0.19352 -0.09541
# Poissons Ratio (y) = -0.34512 0.03876
# Poissons Ratio (z) = -0.12409 0.02826
#
# Static dielectric constant tensor:
#      x y z
#    x 1.884430 0.000000 0.000000 
#    y 0.000000 1.972110 0.000000 
#    z 0.000000 0.000000 1.860650 
# 
# From -- ./inp_files/6316.got.cif
#   From: 2010.05.17/outbox.cif.g08.bks.cpg/sg19_4_cif.got.tgz:6316.got - 2010.06.03 22:46:19.
