data_PCOD9315671
_publ_section_title
;
Structure prediction by ZEFSAII (Michael W. Deem and Ramdas Pophale) SiO2 
 PCOD9315671
Probable space group: P 21 21 21
;
_chemical_formula_sum "Si O2"
_cell_formula_units_Z 32
_cell_length_a 4.981065
_cell_length_b 10.515419
_cell_length_c 22.926182
_cell_angle_alpha 90.000000
_cell_angle_beta 90.000000
_cell_angle_gamma 90.000000
_cell_volume 1200.827229
_symmetry_space_group_name_H-M "P 21 21 21"
_symmetry_group_IT_number 19
_symmetry_cell_setting 'orthorhombic'
loop_
_space_group_symop_operation_xyz
x,y,z
1/2-x,-y,1/2+z
1/2+x,1/2-y,-z
-x,1/2+y,1/2-z
loop_
_atom_site_type_symbol
_atom_site_label
_atom_site_fract_x
_atom_site_fract_y
_atom_site_fract_z
Si Si1 0.721817 0.146311 0.427965
Si Si2 0.940353 0.601629 0.697723
Si Si3 0.825266 0.443190 0.869825
Si Si4 0.501962 0.606863 0.955723
Si Si5 0.863166 0.197282 0.645523
Si Si6 0.552062 0.081429 0.878288
Si Si7 0.426732 0.247975 0.038759
Si Si8 0.801299 0.329836 0.751891
O O1 0.782142 0.280402 0.458570
O O2 0.577539 0.069826 0.479668
O O3 0.562098 0.187327 0.370332
O O4 0.963613 0.058656 0.406664
O O5 0.737888 0.621597 0.643808
O O6 0.847511 0.471271 0.727765
O O7 0.246925 0.578759 0.677370
O O8 0.948462 0.733728 0.734053
O O9 0.605992 0.497668 0.913727
O O10 0.003070 0.362107 0.914799
O O11 0.700640 0.360173 0.817463
O O12 0.984373 0.564120 0.843560
O O13 0.278594 0.671578 0.915648
O O14 0.678227 0.245747 0.698844
O O15 0.728479 0.162915 0.923267
O O16 0.706853 0.294309 0.010651
#
# Coordination Sequence:
#
# PCOD9315671 Si02
#       8
#     4   4   4   4   4   4   4   4
#     4  11  23  42  74 111 150 200 258 327 411 481
#     4  12  28  50  80 112 162 207 271 330 401 483
#     4  11  27  46  72 111 151 209 267 335 409 484
#     4  11  24  43  73 114 152 198 259 339 403 488
#     4  11  24  46  74 110 156 204 263 334 408 482
#     4  12  27  48  77 112 153 206 263 323 396 485
#     4  12  28  50  77 113 156 207 264 333 412 490
#     4  12  25  53  75 115 158 215 269 339 400 493
#
# _framework density 26.648296999999999
#
# number of rings (size 3 to 8) (size 9 to 14) (size 15 to 20)
#    0.000    0.500    5.000    2.250    3.500    2.000 
#    0.000    0.000    0.000    0.000    0.000    0.000 
#    0.000    0.000    0.000    0.000    0.000    0.000 
#
# Total GULP energy -178792.584165 kJ/mol
# GULP energy per Si atom -5587.268255 kJ/mol
# Density = 2.658764 g / cm^3
# Si number density = 26.648297 Si / 1000 Ang^3
#
#
#
# Elastic Constant Matrix: (Units=GPa)
#
#
# Indices 1 2 3 4 5 6 
#
# 1 81.5446 21.6323 24.8026 0.0000 0.0000 0.0000
# 2 21.6323 116.1159 45.8643 0.0000 0.0000 0.0000
# 3 24.8026 45.8643 117.9581 0.0000 0.0000 0.0000
# 4 0.0000 0.0000 0.0000 62.4635 0.0000 0.0000
# 5 0.0000 0.0000 0.0000 0.0000 34.8123 0.0000
# 6 0.0000 0.0000 0.0000 0.0000 0.0000 23.6119
#
#
#
# Elastic Compliance Matrix: (Units=1/GPa)
#
#
# Indices 1 2 3 4 5 6 
#
# 1 0.013357 -0.001629 -0.002175 0.000000 0.000000 0.000000
# 2 -0.001629 0.010373 -0.003691 0.000000 0.000000 0.000000
# 3 -0.002175 -0.003691 0.010370 0.000000 0.000000 0.000000
# 4 0.000000 0.000000 0.000000 0.016009 0.000000 0.000000
# 5 0.000000 0.000000 0.000000 0.000000 0.028726 0.000000
# 6 0.000000 0.000000 0.000000 0.000000 0.000000 0.042352
#
#
# Mechanical properties :
#
#
# Convention : Reuss Voigt Hill
#
# Bulk Modulus (GPa) = 52.32812 55.57965 53.95389
# Shear Modulus (GPa) = 35.07613 39.06551 37.07082
#
# Velocity S-wave (km/s) = 3.63197 3.83295 3.73381
# Velocity P-wave (km/s) = 6.10471 6.36323 6.23531
#
# Compressibility (1/GPa) = 0.01911018
#
# Stress axis : x y z
#
# Youngs Moduli (GPa) = 74.86712 96.40007 96.43227
#
# Poissons Ratio (x) = 0.15706 0.20974
# Poissons Ratio (y) = 0.12198 0.35591
# Poissons Ratio (z) = 0.16284 0.35579
#
# Static dielectric constant tensor:
#      x y z
#    x 2.135710 0.000000 0.000000 
#    y 0.000000 2.136300 0.000000 
#    z 0.000000 0.000000 2.152190 
# 
# From -- ./inp_files/6906.got.cif
#   From: 2010.05.17/outbox.cif.g08.bks.cpg/sg19_4_cif.got.tgz:6906.got - 2010.06.03 22:46:19.
