data_PCOD9315631
_publ_section_title
;
Structure prediction by ZEFSAII (Michael W. Deem and Ramdas Pophale) SiO2 
 PCOD9315631
Probable space group: P 21 21 21
;
_chemical_formula_sum "Si O2"
_cell_formula_units_Z 24
_cell_length_a 8.116224
_cell_length_b 9.392494
_cell_length_c 13.726166
_cell_angle_alpha 90.000000
_cell_angle_beta 90.000000
_cell_angle_gamma 90.000000
_cell_volume 1046.367393
_symmetry_space_group_name_H-M "P 21 21 21"
_symmetry_group_IT_number 19
_symmetry_cell_setting 'orthorhombic'
loop_
_space_group_symop_operation_xyz
x,y,z
1/2-x,-y,1/2+z
1/2+x,1/2-y,-z
-x,1/2+y,1/2-z
loop_
_atom_site_type_symbol
_atom_site_label
_atom_site_fract_x
_atom_site_fract_y
_atom_site_fract_z
Si Si1 0.682583 0.011698 0.626555
Si Si2 0.731718 0.540552 0.474379
Si Si3 0.670365 0.533130 0.772347
Si Si4 0.680282 0.685002 0.129024
Si Si5 0.972914 0.222133 0.992566
Si Si6 0.399217 0.718614 0.283609
O O1 0.515187 0.037379 0.688267
O O2 0.639436 0.900576 0.540431
O O3 0.821528 0.933561 0.690242
O O4 0.748937 0.164621 0.594909
O O5 0.711978 0.483628 0.366787
O O6 0.822402 0.423672 0.538993
O O7 0.572624 0.615359 0.519571
O O8 0.850267 0.677267 0.465979
O O9 0.699444 0.396730 0.704554
O O10 0.743767 0.674390 0.723624
O O11 0.511021 0.706750 0.187832
O O12 0.992812 0.224622 0.875306
#
# Coordination Sequence:
#
# PCOD9315631 Si02
#       6
#     4   4   4   4   4   4
#     4  11  26  44  72 110 144 197 245 309 374 433
#     4  11  25  44  72 106 147 190 251 305 361 446
#     4  11  24  46  70 104 149 189 244 308 371 444
#     4  12  25  45  71 109 146 191 256 307 364 443
#     4  11  22  46  70 102 145 197 240 294 379 442
#     4  12  24  47  77 103 151 200 244 303 385 454
#
# _framework density 22.936494
#
# number of rings (size 3 to 8) (size 9 to 14) (size 15 to 20)
#    0.000    0.667    5.000    2.000    0.000    4.000 
#    0.000    1.667    0.000    0.000    0.000    0.000 
#    0.000    0.000    0.000    0.000    0.000    0.000 
#
# Total GULP energy -134132.167208 kJ/mol
# GULP energy per Si atom -5588.840300 kJ/mol
# Density = 2.288429 g / cm^3
# Si number density = 22.936494 Si / 1000 Ang^3
#
#
#
# Elastic Constant Matrix: (Units=GPa)
#
#
# Indices 1 2 3 4 5 6 
#
# 1 69.1756 30.2101 0.8522 0.0000 0.0000 0.0000
# 2 30.2101 113.4289 19.3537 0.0000 0.0000 0.0000
# 3 0.8522 19.3537 69.4406 0.0000 0.0000 0.0000
# 4 0.0000 0.0000 0.0000 39.1574 0.0000 0.0000
# 5 0.0000 0.0000 0.0000 0.0000 33.2601 0.0000
# 6 0.0000 0.0000 0.0000 0.0000 0.0000 38.0709
#
#
#
# Elastic Compliance Matrix: (Units=1/GPa)
#
#
# Indices 1 2 3 4 5 6 
#
# 1 0.016434 -0.004559 0.001069 0.000000 0.000000 0.000000
# 2 -0.004559 0.010521 -0.002876 0.000000 0.000000 0.000000
# 3 0.001069 -0.002876 0.015189 0.000000 0.000000 0.000000
# 4 0.000000 0.000000 0.000000 0.025538 0.000000 0.000000
# 5 0.000000 0.000000 0.000000 0.000000 0.030066 0.000000
# 6 0.000000 0.000000 0.000000 0.000000 0.000000 0.026267
#
#
# Mechanical properties :
#
#
# Convention : Reuss Voigt Hill
#
# Bulk Modulus (GPa) = 34.00076 39.20854 36.60465
# Shear Modulus (GPa) = 34.11752 35.53964 34.82858
#
# Velocity S-wave (km/s) = 3.86097 3.94061 3.90099
# Velocity P-wave (km/s) = 5.89340 6.15110 6.02363
#
# Compressibility (1/GPa) = 0.02941111
#
# Stress axis : x y z
#
# Youngs Moduli (GPa) = 60.84970 95.04633 65.83564
#
# Poissons Ratio (x) = 0.43335 -0.07038
# Poissons Ratio (y) = 0.27743 0.18937
# Poissons Ratio (z) = -0.06505 0.27339
#
# Static dielectric constant tensor:
#      x y z
#    x 1.935350 0.000000 0.000000 
#    y 0.000000 1.845650 0.000000 
#    z 0.000000 0.000000 1.852560 
# 
# From -- ./inp_files/5833.got.cif
#   From: 2010.05.17/outbox.cif.g08.bks.cpg/sg19_3_cif.got.tgz:5833.got - 2010.06.03 22:46:19.
