data_PCOD9315919
_publ_section_title
;
Structure prediction by ZEFSAII (Michael W. Deem and Ramdas Pophale) SiO2 
 PCOD9315919
Probable space group: P 21 21 21
;
_chemical_formula_sum "Si O2"
_cell_formula_units_Z 20
_cell_length_a 5.298860
_cell_length_b 9.308878
_cell_length_c 15.124142
_cell_angle_alpha 90.000000
_cell_angle_beta 90.000000
_cell_angle_gamma 90.000000
_cell_volume 746.020102
_symmetry_space_group_name_H-M "P 21 21 21"
_symmetry_group_IT_number 19
_symmetry_cell_setting 'orthorhombic'
loop_
_space_group_symop_operation_xyz
x,y,z
1/2-x,-y,1/2+z
1/2+x,1/2-y,-z
-x,1/2+y,1/2-z
loop_
_atom_site_type_symbol
_atom_site_label
_atom_site_fract_x
_atom_site_fract_y
_atom_site_fract_z
Si Si1 0.166648 0.701410 0.257592
Si Si2 0.597014 0.933236 0.048659
Si Si3 0.450289 0.313162 0.955267
Si Si4 0.511547 0.462903 0.258164
Si Si5 0.191769 0.148142 0.384086
O O1 0.003756 0.742908 0.173383
O O2 0.142714 0.521148 0.462280
O O3 0.238793 0.534082 0.243532
O O4 0.420028 0.797694 0.257981
O O5 0.457032 0.992000 0.136654
O O6 0.633694 0.764782 0.068384
O O7 0.447599 0.942806 0.958249
O O8 0.466572 0.280269 0.851038
O O9 0.204849 0.231244 0.995639
O O10 0.679263 0.546690 0.187541
#
# Coordination Sequence:
#
# PCOD9315919 Si02
#       5
#     4   4   4   4   4
#     4  11  27  43  79 107 155 206 261 339 399 489
#     4  11  27  48  80 114 155 214 271 339 411 496
#     4  11  28  49  79 115 161 210 272 333 409 490
#     4  11  25  49  72 113 152 200 268 327 410 478
#     4  12  27  49  78 113 159 206 274 340 413 491
#
# _framework density 26.808931000000001
#
# number of rings (size 3 to 8) (size 9 to 14) (size 15 to 20)
#    0.000    0.800    2.000    2.400   14.000    1.600 
#    0.000    0.000    0.000    0.000    0.000    0.000 
#    0.000    0.000    0.000    0.000    0.000    0.000 
#
# Total GULP energy -112117.013080 kJ/mol
# GULP energy per Si atom -5605.850654 kJ/mol
# Density = 2.674791 g / cm^3
# Si number density = 26.808931 Si / 1000 Ang^3
#
#
#
# Elastic Constant Matrix: (Units=GPa)
#
#
# Indices 1 2 3 4 5 6 
#
# 1 76.7688 14.4710 60.9591 0.0000 0.0000 0.0000
# 2 14.4710 100.7690 20.6032 0.0000 0.0000 0.0000
# 3 60.9591 20.6032 173.9702 0.0000 0.0000 0.0000
# 4 0.0000 0.0000 0.0000 48.9673 0.0000 0.0000
# 5 0.0000 0.0000 0.0000 0.0000 44.2024 0.0000
# 6 0.0000 0.0000 0.0000 0.0000 0.0000 42.3509
#
#
#
# Elastic Compliance Matrix: (Units=1/GPa)
#
#
# Indices 1 2 3 4 5 6 
#
# 1 0.018224 -0.001344 -0.006226 0.000000 0.000000 0.000000
# 2 -0.001344 0.010269 -0.000745 0.000000 0.000000 0.000000
# 3 -0.006226 -0.000745 0.008018 0.000000 0.000000 0.000000
# 4 0.000000 0.000000 0.000000 0.020422 0.000000 0.000000
# 5 0.000000 0.000000 0.000000 0.000000 0.022623 0.000000
# 6 0.000000 0.000000 0.000000 0.000000 0.000000 0.023612
#
#
# Mechanical properties :
#
#
# Convention : Reuss Voigt Hill
#
# Bulk Modulus (GPa) = 50.30287 60.39716 55.35002
# Shear Modulus (GPa) = 39.54894 44.13576 41.84235
#
# Velocity S-wave (km/s) = 3.84502 4.06187 3.95493
# Velocity P-wave (km/s) = 6.20616 6.67653 6.44564
#
# Compressibility (1/GPa) = 0.01987958
#
# Stress axis : x y z
#
# Youngs Moduli (GPa) = 54.87400 97.37987 124.71805
#
# Poissons Ratio (x) = 0.13088 0.77654
# Poissons Ratio (y) = 0.07375 0.09294
# Poissons Ratio (z) = 0.34167 0.07257
#
# Static dielectric constant tensor:
#      x y z
#    x 2.147470 0.000000 0.000000 
#    y 0.000000 2.096990 0.000000 
#    z 0.000000 0.000000 1.983760 
# 
# From -- ./inp_files/5621.got.cif
#   From: 2010.05.17/outbox.cif.g08.bks.cpg/sg19_3_cif.got.tgz:5621.got - 2010.06.03 22:46:19.
