data_PCOD9315304
_publ_section_title
;
Structure prediction by ZEFSAII (Michael W. Deem and Ramdas Pophale) SiO2 
 PCOD9315304
Probable space group: P 21 21 21
;
_chemical_formula_sum "Si O2"
_cell_formula_units_Z 28
_cell_length_a 7.649485
_cell_length_b 25.853755
_cell_length_c 5.735503
_cell_angle_alpha 90.000000
_cell_angle_beta 90.000000
_cell_angle_gamma 90.000000
_cell_volume 1134.298447
_symmetry_space_group_name_H-M "P 21 21 21"
_symmetry_group_IT_number 19
_symmetry_cell_setting 'orthorhombic'
loop_
_space_group_symop_operation_xyz
x,y,z
1/2-x,-y,1/2+z
1/2+x,1/2-y,-z
-x,1/2+y,1/2-z
loop_
_atom_site_type_symbol
_atom_site_label
_atom_site_fract_x
_atom_site_fract_y
_atom_site_fract_z
Si Si1 0.155794 0.937211 0.365409
Si Si2 0.007294 0.741047 0.239503
Si Si3 0.487347 0.998036 0.233571
Si Si4 0.954784 0.895041 0.972864
Si Si5 0.839514 0.215455 0.771422
Si Si6 0.207240 0.134585 0.251233
Si Si7 0.420255 0.391122 0.384825
O O1 0.287715 0.977998 0.250572
O O2 0.283026 0.904809 0.536934
O O3 0.009399 0.971442 0.491680
O O4 0.050357 0.895067 0.220333
O O5 0.868797 0.787184 0.246461
O O6 0.120202 0.741736 0.477354
O O7 0.884369 0.689892 0.265118
O O8 0.094796 0.738012 0.981577
O O9 0.528236 0.043652 0.411462
O O10 0.600226 0.946377 0.236686
O O11 0.752798 0.881342 0.960365
O O12 0.087248 0.862418 0.814885
O O13 0.924016 0.158465 0.780537
O O14 0.093220 0.107948 0.456704
#
# Coordination Sequence:
#
# PCOD9315304 Si02
#       7
#     4   4   4   4   4   4   4
#     4  11  20  40  65  91 132 190 229 281 353 417
#     4  11  25  47  79 106 149 184 239 300 378 434
#     4  11  21  38  61  92 136 181 233 286 346 421
#     4  11  25  40  65 100 133 193 237 290 357 422
#     4  11  26  49  76 112 139 193 234 305 370 444
#     4  10  24  44  67  96 139 184 229 298 358 426
#     4  11  25  44  67 101 142 177 245 294 360 426
#
# _framework density 24.684861000000001
#
# number of rings (size 3 to 8) (size 9 to 14) (size 15 to 20)
#    0.000    1.143    2.857    2.571    6.000    1.143 
#   12.857    0.000    0.000    0.000    0.000    0.000 
#    0.000    0.000    0.000    0.000    0.000    0.000 
#
# Total GULP energy -156348.356656 kJ/mol
# GULP energy per Si atom -5583.869881 kJ/mol
# Density = 2.462868 g / cm^3
# Si number density = 24.684861 Si / 1000 Ang^3
#
#
#
# Elastic Constant Matrix: (Units=GPa)
#
#
# Indices 1 2 3 4 5 6 
#
# 1 91.8947 2.5368 15.2759 0.0000 0.0000 0.0000
# 2 2.5368 62.3204 30.5895 0.0000 0.0000 0.0000
# 3 15.2759 30.5895 78.6973 0.0000 0.0000 0.0000
# 4 0.0000 0.0000 0.0000 27.8875 0.0000 0.0000
# 5 0.0000 0.0000 0.0000 0.0000 32.8998 0.0000
# 6 0.0000 0.0000 0.0000 0.0000 0.0000 35.8984
#
#
#
# Elastic Compliance Matrix: (Units=1/GPa)
#
#
# Indices 1 2 3 4 5 6 
#
# 1 0.011274 0.000760 -0.002484 0.000000 0.000000 0.000000
# 2 0.000760 0.019881 -0.007875 0.000000 0.000000 0.000000
# 3 -0.002484 -0.007875 0.016250 0.000000 0.000000 0.000000
# 4 0.000000 0.000000 0.000000 0.035858 0.000000 0.000000
# 5 0.000000 0.000000 0.000000 0.000000 0.030395 0.000000
# 6 0.000000 0.000000 0.000000 0.000000 0.000000 0.027856
#
#
# Mechanical properties :
#
#
# Convention : Reuss Voigt Hill
#
# Bulk Modulus (GPa) = 35.45200 36.63522 36.04361
# Shear Modulus (GPa) = 29.39194 31.63781 30.51488
#
# Velocity S-wave (km/s) = 3.45438 3.58392 3.51975
# Velocity P-wave (km/s) = 5.50484 5.65680 5.58134
#
# Compressibility (1/GPa) = 0.02820715
#
# Stress axis : x y z
#
# Youngs Moduli (GPa) = 88.70019 50.30031 61.53807
#
# Poissons Ratio (x) = -0.03824 0.15285
# Poissons Ratio (y) = -0.06744 0.48462
# Poissons Ratio (z) = 0.22032 0.39612
#
# Static dielectric constant tensor:
#      x y z
#    x 1.928230 0.000000 0.000000 
#    y 0.000000 2.013060 0.000000 
#    z 0.000000 0.000000 2.037380 
# 
# From -- ./inp_files/644.got.cif
#   From: 2010.05.17/outbox.cif.g08.bks.cpg/sg19_1_cif.got.tgz:644.got - 2010.06.03 22:46:19.
