data_PCOD9315005
_publ_section_title
;
Structure prediction by ZEFSAII (Michael W. Deem and Ramdas Pophale) SiO2 
 PCOD9315005
Probable space group: P 21 21 21
;
_chemical_formula_sum "Si O2"
_cell_formula_units_Z 28
_cell_length_a 21.480681
_cell_length_b 8.033092
_cell_length_c 7.829610
_cell_angle_alpha 90.000000
_cell_angle_beta 90.000000
_cell_angle_gamma 90.000000
_cell_volume 1351.048428
_symmetry_space_group_name_H-M "P 21 21 21"
_symmetry_group_IT_number 19
_symmetry_cell_setting 'orthorhombic'
loop_
_space_group_symop_operation_xyz
x,y,z
1/2-x,-y,1/2+z
1/2+x,1/2-y,-z
-x,1/2+y,1/2-z
loop_
_atom_site_type_symbol
_atom_site_label
_atom_site_fract_x
_atom_site_fract_y
_atom_site_fract_z
Si Si1 0.638161 0.114465 0.875491
Si Si2 0.861491 0.210276 0.562231
Si Si3 0.238751 0.170635 0.251283
Si Si4 0.550632 0.542888 0.256461
Si Si5 0.117072 0.702857 0.316849
Si Si6 0.514804 0.270768 0.984099
Si Si7 0.833544 0.498002 0.964248
O O1 0.702954 0.210451 0.879043
O O2 0.632040 0.986014 0.032808
O O3 0.637082 0.988929 0.712175
O O4 0.578471 0.232879 0.885073
O O5 0.794836 0.246069 0.644370
O O6 0.914306 0.298288 0.673370
O O7 0.868361 0.280899 0.369202
O O8 0.273232 0.020801 0.154884
O O9 0.185350 0.112582 0.379964
O O10 0.523191 0.427890 0.109119
O O11 0.502931 0.614181 0.394811
O O12 0.606251 0.448248 0.357210
O O13 0.150398 0.814135 0.459680
O O14 0.043878 0.705361 0.359428
#
# Coordination Sequence:
#
# PCOD9315005 Si02
#       7
#     4   4   4   4   4   4   4
#     4  10  25  36  64  94 120 167 201 255 318 362
#     4   9  22  43  60  92 121 161 208 261 306 364
#     4  11  23  41  64  88 125 163 214 252 314 371
#     4  10  23  41  64  92 128 162 208 263 309 376
#     4   9  23  40  63  89 124 155 209 258 307 365
#     4  11  23  41  65  93 124 167 204 256 315 376
#     4  10  23  40  62  88 120 165 206 257 309 366
#
# _framework density 20.724646
#
# number of rings (size 3 to 8) (size 9 to 14) (size 15 to 20)
#    0.857    1.143    0.000    1.714   10.000    2.286 
#    2.571    0.000    0.000    0.000    0.000    0.000 
#    0.000    0.000    0.000    0.000    0.000    0.000 
#
# Total GULP energy -156154.510626 kJ/mol
# GULP energy per Si atom -5576.946808 kJ/mol
# Density = 2.067748 g / cm^3
# Si number density = 20.724646 Si / 1000 Ang^3
#
#
#
# Elastic Constant Matrix: (Units=GPa)
#
#
# Indices 1 2 3 4 5 6 
#
# 1 94.6507 13.2921 15.9151 0.0000 0.0000 0.0000
# 2 13.2921 22.7910 -12.9472 0.0000 0.0000 0.0000
# 3 15.9151 -12.9472 43.7689 0.0000 0.0000 0.0000
# 4 0.0000 0.0000 0.0000 26.6806 0.0000 0.0000
# 5 0.0000 0.0000 0.0000 0.0000 24.3994 0.0000
# 6 0.0000 0.0000 0.0000 0.0000 0.0000 11.3373
#
#
#
# Elastic Compliance Matrix: (Units=1/GPa)
#
#
# Indices 1 2 3 4 5 6 
#
# 1 0.013932 -0.013226 -0.008978 0.000000 0.000000 0.000000
# 2 -0.013226 0.065295 0.024124 0.000000 0.000000 0.000000
# 3 -0.008978 0.024124 0.033248 0.000000 0.000000 0.000000
# 4 0.000000 0.000000 0.000000 0.037480 0.000000 0.000000
# 5 0.000000 0.000000 0.000000 0.000000 0.040985 0.000000
# 6 0.000000 0.000000 0.000000 0.000000 0.000000 0.088204
#
#
# Mechanical properties :
#
#
# Convention : Reuss Voigt Hill
#
# Bulk Modulus (GPa) = 8.59739 21.52564 15.06152
# Shear Modulus (GPa) = 15.91969 22.14682 19.03326
#
# Velocity S-wave (km/s) = 2.77456 3.27253 3.03378
# Velocity P-wave (km/s) = 3.79759 4.96873 4.42210
#
# Compressibility (1/GPa) = 0.11631432
#
# Stress axis : x y z
#
# Youngs Moduli (GPa) = 71.77629 15.31513 30.07706
#
# Poissons Ratio (x) = 0.20256 0.27004
# Poissons Ratio (y) = 0.94931 -0.72557
# Poissons Ratio (z) = 0.64443 -0.36946
#
# Static dielectric constant tensor:
#      x y z
#    x 1.704770 0.000000 0.000000 
#    y 0.000000 1.748530 0.000000 
#    z 0.000000 0.000000 1.758530 
# 
# From -- ./inp_files/4131.got.cif
#   From: 2010.05.17/outbox.cif.g08.bks.cpg/sg19_3_cif.got.tgz:4131.got - 2010.06.03 22:46:19.
