data_PCOD9315102
_publ_section_title
;
Structure prediction by ZEFSAII (Michael W. Deem and Ramdas Pophale) SiO2 
 PCOD9315102
Probable space group: P 21 21 21
;
_chemical_formula_sum "Si O2"
_cell_formula_units_Z 24
_cell_length_a 12.720829
_cell_length_b 11.766354
_cell_length_c 6.587148
_cell_angle_alpha 90.000000
_cell_angle_beta 90.000000
_cell_angle_gamma 90.000000
_cell_volume 985.949671
_symmetry_space_group_name_H-M "P 21 21 21"
_symmetry_group_IT_number 19
_symmetry_cell_setting 'orthorhombic'
loop_
_space_group_symop_operation_xyz
x,y,z
1/2-x,-y,1/2+z
1/2+x,1/2-y,-z
-x,1/2+y,1/2-z
loop_
_atom_site_type_symbol
_atom_site_label
_atom_site_fract_x
_atom_site_fract_y
_atom_site_fract_z
Si Si1 0.668362 0.359606 0.566456
Si Si2 0.671835 0.604394 0.770371
Si Si3 0.620174 0.006841 0.052044
Si Si4 0.048937 0.672877 0.273873
Si Si5 0.507016 0.024328 0.438252
Si Si6 0.693268 0.132170 0.705246
O O1 0.674394 0.488254 0.645264
O O2 0.710905 0.362970 0.338379
O O3 0.555298 0.314145 0.637101
O O4 0.736721 0.258054 0.665870
O O5 0.611893 0.713003 0.680962
O O6 0.600093 0.574039 0.968771
O O7 0.520758 0.022884 0.197381
O O8 0.712878 0.958356 0.189657
O O9 0.610622 0.914077 0.873112
O O10 0.645432 0.120783 0.929802
O O11 0.018975 0.602919 0.473695
O O12 0.605286 0.092744 0.540564
#
# Coordination Sequence:
#
# PCOD9315102 Si02
#       6
#     4   4   4   4   4   4
#     4  11  25  45  65 101 140 179 229 286 346 412
#     4  11  24  46  68  99 142 182 227 285 350 415
#     4  11  22  40  71  99 128 176 230 278 336 403
#     4  10  23  45  68  91 137 179 225 281 333 415
#     4  10  23  43  67  99 132 178 229 282 338 404
#     4  11  21  41  67 101 133 172 228 288 333 401
#
# _framework density 24.342013999999999
#
# number of rings (size 3 to 8) (size 9 to 14) (size 15 to 20)
#    0.000    1.333    5.000    0.000    2.333    1.333 
#    9.000    0.000    0.000    0.000    0.000    0.000 
#    0.000    0.000    0.000    0.000    0.000    0.000 
#
# Total GULP energy -134072.219761 kJ/mol
# GULP energy per Si atom -5586.342490 kJ/mol
# Density = 2.428661 g / cm^3
# Si number density = 24.342014 Si / 1000 Ang^3
#
#
#
# Elastic Constant Matrix: (Units=GPa)
#
#
# Indices 1 2 3 4 5 6 
#
# 1 39.5843 3.9680 8.8111 0.0000 0.0000 0.0000
# 2 3.9680 147.9540 21.7560 0.0000 0.0000 0.0000
# 3 8.8111 21.7560 51.1710 0.0000 0.0000 0.0000
# 4 0.0000 0.0000 0.0000 19.0716 0.0000 0.0000
# 5 0.0000 0.0000 0.0000 0.0000 38.0533 0.0000
# 6 0.0000 0.0000 0.0000 0.0000 0.0000 24.6390
#
#
#
# Elastic Compliance Matrix: (Units=1/GPa)
#
#
# Indices 1 2 3 4 5 6 
#
# 1 0.026270 -0.000042 -0.004505 0.000000 0.000000 0.000000
# 2 -0.000042 0.007210 -0.003058 0.000000 0.000000 0.000000
# 3 -0.004505 -0.003058 0.021618 0.000000 0.000000 0.000000
# 4 0.000000 0.000000 0.000000 0.052434 0.000000 0.000000
# 5 0.000000 0.000000 0.000000 0.000000 0.026279 0.000000
# 6 0.000000 0.000000 0.000000 0.000000 0.000000 0.040586
#
#
# Mechanical properties :
#
#
# Convention : Reuss Voigt Hill
#
# Bulk Modulus (GPa) = 25.07115 34.19773 29.63444
# Shear Modulus (GPa) = 24.64231 29.96440 27.30336
#
# Velocity S-wave (km/s) = 3.18518 3.51233 3.35275
# Velocity P-wave (km/s) = 4.88355 5.52521 5.21426
#
# Compressibility (1/GPa) = 0.03988648
#
# Stress axis : x y z
#
# Youngs Moduli (GPa) = 38.06679 138.70285 46.25711
#
# Poissons Ratio (x) = 0.00583 0.20841
# Poissons Ratio (y) = 0.00160 0.14146
# Poissons Ratio (z) = 0.17151 0.42416
#
# Static dielectric constant tensor:
#      x y z
#    x 2.053820 0.000000 0.000000 
#    y 0.000000 2.050580 0.000000 
#    z 0.000000 0.000000 1.937880 
# 
# From -- ./inp_files/961.got.cif
#   From: 2010.05.17/outbox.cif.g08.bks.cpg/sg19_1_cif.got.tgz:961.got - 2010.06.03 22:46:19.
