data_PCOD9315332
_publ_section_title
;
Structure prediction by ZEFSAII (Michael W. Deem and Ramdas Pophale) SiO2 
 PCOD9315332
Probable space group: P 21 21 21
;
_chemical_formula_sum "Si O2"
_cell_formula_units_Z 32
_cell_length_a 11.514234
_cell_length_b 10.935915
_cell_length_c 11.259864
_cell_angle_alpha 90.000000
_cell_angle_beta 90.000000
_cell_angle_gamma 90.000000
_cell_volume 1417.827260
_symmetry_space_group_name_H-M "P 21 21 21"
_symmetry_group_IT_number 19
_symmetry_cell_setting 'orthorhombic'
loop_
_space_group_symop_operation_xyz
x,y,z
1/2-x,-y,1/2+z
1/2+x,1/2-y,-z
-x,1/2+y,1/2-z
loop_
_atom_site_type_symbol
_atom_site_label
_atom_site_fract_x
_atom_site_fract_y
_atom_site_fract_z
Si Si1 0.761912 0.168453 0.112243
Si Si2 0.539491 0.056178 0.399085
Si Si3 0.684983 0.613585 0.219139
Si Si4 0.181540 0.876641 0.219921
Si Si5 0.688408 0.945139 0.219666
Si Si6 0.253857 0.722918 0.989009
Si Si7 0.990120 0.558741 0.375081
Si Si8 0.829412 0.782268 0.361800
O O1 0.806073 0.294047 0.164621
O O2 0.874886 0.082642 0.103157
O O3 0.687331 0.090711 0.203933
O O4 0.686319 0.179347 0.995751
O O5 0.594927 0.943296 0.325220
O O6 0.454436 0.993568 0.496706
O O7 0.447505 0.126954 0.318141
O O8 0.632496 0.147106 0.464665
O O9 0.719090 0.479391 0.263789
O O10 0.717383 0.701066 0.327379
O O11 0.763985 0.667176 0.109134
O O12 0.197759 0.787025 0.105479
O O13 0.063751 0.956065 0.210539
O O14 0.809113 0.896996 0.276382
O O15 0.679984 0.874628 0.093353
O O16 0.934196 0.689124 0.343132
#
# Coordination Sequence:
#
# PCOD9315332 Si02
#       8
#     4   4   4   4   4   4   4   4
#     4  12  24  42  70  97 139 178 232 284 347 419
#     4  12  22  45  73 103 138 186 233 285 359 421
#     4  10  25  45  71 100 141 182 239 285 352 424
#     4  11  25  44  68 100 140 185 229 292 351 412
#     4  11  23  42  67 103 137 180 230 290 345 416
#     4  11  23  44  70 102 144 177 233 303 345 416
#     4  11  24  43  70  96 138 180 226 283 350 418
#     4  10  24  45  67  99 139 176 230 296 337 412
#
# _framework density 22.569745999999999
#
# number of rings (size 3 to 8) (size 9 to 14) (size 15 to 20)
#    0.000    1.000    5.000    0.750    3.500    4.000 
#    0.000    1.250    2.750    0.000    0.000    0.000 
#    0.000    0.000    0.000    0.000    0.000    0.000 
#
# Total GULP energy -178176.249698 kJ/mol
# GULP energy per Si atom -5568.007803 kJ/mol
# Density = 2.251838 g / cm^3
# Si number density = 22.569746 Si / 1000 Ang^3
#
#
#
# Elastic Constant Matrix: (Units=GPa)
#
#
# Indices 1 2 3 4 5 6 
#
# 1 49.0334 10.3466 -1.8999 0.0000 0.0000 0.0000
# 2 10.3466 87.4695 21.3188 0.0000 0.0000 0.0000
# 3 -1.8999 21.3188 48.5551 0.0000 0.0000 0.0000
# 4 0.0000 0.0000 0.0000 54.0045 0.0000 0.0000
# 5 0.0000 0.0000 0.0000 0.0000 29.6433 0.0000
# 6 0.0000 0.0000 0.0000 0.0000 0.0000 17.5524
#
#
#
# Elastic Compliance Matrix: (Units=1/GPa)
#
#
# Indices 1 2 3 4 5 6 
#
# 1 0.021115 -0.003023 0.002153 0.000000 0.000000 0.000000
# 2 -0.003023 0.013235 -0.005929 0.000000 0.000000 0.000000
# 3 0.002153 -0.005929 0.023283 0.000000 0.000000 0.000000
# 4 0.000000 0.000000 0.000000 0.018517 0.000000 0.000000
# 5 0.000000 0.000000 0.000000 0.000000 0.033734 0.000000
# 6 0.000000 0.000000 0.000000 0.000000 0.000000 0.056972
#
#
# Mechanical properties :
#
#
# Convention : Reuss Voigt Hill
#
# Bulk Modulus (GPa) = 22.70856 27.17656 24.94256
# Shear Modulus (GPa) = 25.62351 30.59286 28.10818
#
# Velocity S-wave (km/s) = 3.37308 3.68568 3.53284
# Velocity P-wave (km/s) = 5.02529 5.49360 5.26466
#
# Compressibility (1/GPa) = 0.04403626
#
# Stress axis : x y z
#
# Youngs Moduli (GPa) = 47.35866 75.55581 42.95018
#
# Poissons Ratio (x) = 0.22837 -0.09248
# Poissons Ratio (y) = 0.14314 0.25467
# Poissons Ratio (z) = -0.10198 0.44800
#
# Static dielectric constant tensor:
#      x y z
#    x 1.872610 0.000000 0.000000 
#    y 0.000000 1.912820 0.000000 
#    z 0.000000 0.000000 1.892710 
# 
# From -- ./inp_files/5045.got.cif
#   From: 2010.05.17/outbox.cif.g08.bks.cpg/sg19_3_cif.got.tgz:5045.got - 2010.06.03 22:46:19.
