data_PCOD9315588
_publ_section_title
;
Structure prediction by ZEFSAII (Michael W. Deem and Ramdas Pophale) SiO2 
 PCOD9315588
Probable space group: P 21 21 21
;
_chemical_formula_sum "Si O2"
_cell_formula_units_Z 32
_cell_length_a 11.461323
_cell_length_b 9.114149
_cell_length_c 14.424437
_cell_angle_alpha 90.000000
_cell_angle_beta 90.000000
_cell_angle_gamma 90.000000
_cell_volume 1506.779654
_symmetry_space_group_name_H-M "P 21 21 21"
_symmetry_group_IT_number 19
_symmetry_cell_setting 'orthorhombic'
loop_
_space_group_symop_operation_xyz
x,y,z
1/2-x,-y,1/2+z
1/2+x,1/2-y,-z
-x,1/2+y,1/2-z
loop_
_atom_site_type_symbol
_atom_site_label
_atom_site_fract_x
_atom_site_fract_y
_atom_site_fract_z
Si Si1 0.989593 0.281576 0.623536
Si Si2 0.132415 0.552891 0.996405
Si Si3 0.604407 0.167413 0.725167
Si Si4 0.177372 0.193269 0.768427
Si Si5 0.181809 0.876417 0.730114
Si Si6 0.505392 0.721110 0.430169
Si Si7 0.887414 0.133022 0.304125
Si Si8 0.899108 0.994539 0.027348
O O1 0.899607 0.161352 0.587143
O O2 0.922673 0.384165 0.695389
O O3 0.088626 0.203645 0.682735
O O4 0.046627 0.375189 0.542542
O O5 0.126895 0.656773 0.086518
O O6 0.041791 0.419679 0.985547
O O7 0.261849 0.490014 0.991665
O O8 0.724068 0.255001 0.741255
O O9 0.499478 0.281446 0.731017
O O10 0.597053 0.040643 0.800304
O O11 0.592188 0.076012 0.629241
O O12 0.098784 0.222873 0.860177
O O13 0.274990 0.317479 0.754299
O O14 0.238096 0.036511 0.747259
O O15 0.115727 0.829706 0.634801
O O16 0.540702 0.851655 0.500144
#
# Coordination Sequence:
#
# PCOD9315588 Si02
#       8
#     4   4   4   4   4   4   4   4
#     4  11  22  42  71 106 136 184 241 296 366 443
#     4  12  24  46  71 106 144 187 238 303 371 439
#     4  12  27  45  69  99 146 190 236 298 371 440
#     4  11  23  44  73 103 142 186 243 297 365 434
#     4  11  23  44  73 103 142 186 243 297 365 434
#     4  11  26  44  73 110 140 182 245 306 352 447
#     4  12  27  45  69  99 146 190 236 298 371 440
#     4  12  24  46  71 106 144 187 238 303 371 439
#
# _framework density 21.237345000000001
#
# number of rings (size 3 to 8) (size 9 to 14) (size 15 to 20)
#    0.000    0.500    6.250    2.250    1.750    0.000 
#    4.500    1.250    0.000    0.000    0.000    0.000 
#    0.000    0.000    0.000    0.000    0.000    0.000 
#
# Total GULP energy -178712.987897 kJ/mol
# GULP energy per Si atom -5584.780872 kJ/mol
# Density = 2.118901 g / cm^3
# Si number density = 21.237345 Si / 1000 Ang^3
#
#
#
# Elastic Constant Matrix: (Units=GPa)
#
#
# Indices 1 2 3 4 5 6 
#
# 1 80.2551 2.7931 9.0445 0.0000 0.0000 0.0000
# 2 2.7931 72.5519 -8.7426 0.0000 0.0000 0.0000
# 3 9.0445 -8.7426 33.3681 0.0000 0.0000 0.0000
# 4 0.0000 0.0000 0.0000 31.3825 0.0000 0.0000
# 5 0.0000 0.0000 0.0000 0.0000 17.9254 0.0000
# 6 0.0000 0.0000 0.0000 0.0000 0.0000 42.5985
#
#
#
# Elastic Compliance Matrix: (Units=1/GPa)
#
#
# Indices 1 2 3 4 5 6 
#
# 1 0.012916 -0.000949 -0.003750 0.000000 0.000000 0.000000
# 2 -0.000949 0.014302 0.004005 0.000000 0.000000 0.000000
# 3 -0.003750 0.004005 0.032034 0.000000 0.000000 0.000000
# 4 0.000000 0.000000 0.000000 0.031865 0.000000 0.000000
# 5 0.000000 0.000000 0.000000 0.000000 0.055787 0.000000
# 6 0.000000 0.000000 0.000000 0.000000 0.000000 0.023475
#
#
# Mechanical properties :
#
#
# Convention : Reuss Voigt Hill
#
# Bulk Modulus (GPa) = 17.28182 21.37391 19.32787
# Shear Modulus (GPa) = 26.17041 30.58661 28.37851
#
# Velocity S-wave (km/s) = 3.51420 3.79915 3.65945
# Velocity P-wave (km/s) = 4.96198 5.41580 5.19385
#
# Compressibility (1/GPa) = 0.05786427
#
# Stress axis : x y z
#
# Youngs Moduli (GPa) = 77.42416 69.91876 31.21657
#
# Poissons Ratio (x) = 0.06636 0.11705
# Poissons Ratio (y) = 0.07348 -0.12501
# Poissons Ratio (z) = 0.29030 -0.27999
#
# Static dielectric constant tensor:
#      x y z
#    x 1.727020 0.000000 0.000000 
#    y 0.000000 1.843460 0.000000 
#    z 0.000000 0.000000 1.786950 
# 
# From -- ./inp_files/6111.got.cif
#   From: 2010.05.17/outbox.cif.g08.bks.cpg/sg19_4_cif.got.tgz:6111.got - 2010.06.03 22:46:19.
