data_PCOD9315576
_publ_section_title
;
Structure prediction by ZEFSAII (Michael W. Deem and Ramdas Pophale) SiO2 
 PCOD9315576
Probable space group: P 21 21 21
;
_chemical_formula_sum "Si O2"
_cell_formula_units_Z 28
_cell_length_a 7.618936
_cell_length_b 12.594750
_cell_length_c 11.481329
_cell_angle_alpha 90.000000
_cell_angle_beta 90.000000
_cell_angle_gamma 90.000000
_cell_volume 1101.732190
_symmetry_space_group_name_H-M "P 21 21 21"
_symmetry_group_IT_number 19
_symmetry_cell_setting 'orthorhombic'
loop_
_space_group_symop_operation_xyz
x,y,z
1/2-x,-y,1/2+z
1/2+x,1/2-y,-z
-x,1/2+y,1/2-z
loop_
_atom_site_type_symbol
_atom_site_label
_atom_site_fract_x
_atom_site_fract_y
_atom_site_fract_z
Si Si1 0.299630 0.885997 0.511794
Si Si2 0.223220 0.947976 0.287717
Si Si3 0.175459 0.690502 0.091270
Si Si4 0.881730 0.603311 0.922262
Si Si5 0.146924 0.186666 0.261155
Si Si6 0.668790 0.992819 0.464719
Si Si7 0.828978 0.926159 0.215352
O O1 0.209945 0.860600 0.389658
O O2 0.313098 0.813489 0.623564
O O3 0.183432 0.987805 0.544308
O O4 0.491056 0.928004 0.476820
O O5 0.394934 0.911699 0.216275
O O6 0.040303 0.942300 0.217987
O O7 0.231018 0.076127 0.310535
O O8 0.232555 0.808181 0.065610
O O9 0.344492 0.615429 0.077671
O O10 0.061210 0.680036 0.209004
O O11 0.037614 0.643836 0.999762
O O12 0.205640 0.300987 0.308911
O O13 0.733319 0.004193 0.602043
O O14 0.774577 0.949641 0.350589
#
# Coordination Sequence:
#
# PCOD9315576 Si02
#       7
#     4   4   4   4   4   4   4
#     4  11  23  42  66 100 140 184 243 291 368 434
#     4  11  23  45  67  98 143 189 237 302 361 437
#     4  12  22  41  73 101 137 187 244 291 373 431
#     4  11  22  40  69  98 136 181 236 298 356 431
#     4  11  22  45  71  95 142 195 229 300 374 435
#     4  12  25  45  71 110 143 192 240 318 362 447
#     4  12  25  48  73 102 151 190 247 308 376 433
#
# _framework density 25.414522999999999
#
# number of rings (size 3 to 8) (size 9 to 14) (size 15 to 20)
#    0.000    0.571    7.143    1.714    2.000    1.143 
#    2.571    0.000    0.000    0.000    0.000    0.000 
#    0.000    0.000    0.000    0.000    0.000    0.000 
#
# Total GULP energy -156090.299222 kJ/mol
# GULP energy per Si atom -5574.653544 kJ/mol
# Density = 2.535668 g / cm^3
# Si number density = 25.414523 Si / 1000 Ang^3
#
#
#
# Elastic Constant Matrix: (Units=GPa)
#
#
# Indices 1 2 3 4 5 6 
#
# 1 43.2078 20.3162 12.1522 0.0000 0.0000 0.0000
# 2 20.3162 92.2756 27.4331 0.0000 0.0000 0.0000
# 3 12.1522 27.4331 147.9479 0.0000 0.0000 0.0000
# 4 0.0000 0.0000 0.0000 40.4203 0.0000 0.0000
# 5 0.0000 0.0000 0.0000 0.0000 44.2115 0.0000
# 6 0.0000 0.0000 0.0000 0.0000 0.0000 32.6675
#
#
#
# Elastic Compliance Matrix: (Units=1/GPa)
#
#
# Indices 1 2 3 4 5 6 
#
# 1 0.025996 -0.005386 -0.001137 0.000000 0.000000 0.000000
# 2 -0.005386 0.012585 -0.001891 0.000000 0.000000 0.000000
# 3 -0.001137 -0.001891 0.007203 0.000000 0.000000 0.000000
# 4 0.000000 0.000000 0.000000 0.024740 0.000000 0.000000
# 5 0.000000 0.000000 0.000000 0.000000 0.022619 0.000000
# 6 0.000000 0.000000 0.000000 0.000000 0.000000 0.030611
#
#
# Mechanical properties :
#
#
# Convention : Reuss Voigt Hill
#
# Bulk Modulus (GPa) = 34.53358 44.80382 39.66870
# Shear Modulus (GPa) = 33.28151 38.36184 35.82168
#
# Velocity S-wave (km/s) = 3.62269 3.88937 3.75840
# Velocity P-wave (km/s) = 5.57819 6.15119 5.87168
#
# Compressibility (1/GPa) = 0.02895732
#
# Stress axis : x y z
#
# Youngs Moduli (GPa) = 38.46756 79.45916 138.82764
#
# Poissons Ratio (x) = 0.42793 0.15780
# Poissons Ratio (y) = 0.20717 0.26255
# Poissons Ratio (z) = 0.04372 0.15027
#
# Static dielectric constant tensor:
#      x y z
#    x 2.018280 0.000000 0.000000 
#    y 0.000000 1.989540 0.000000 
#    z 0.000000 0.000000 2.254050 
# 
# From -- ./inp_files/3436.got.cif
#   From: 2010.05.17/outbox.cif.g08.bks.cpg/sg19_2_cif.got.tgz:3436.got - 2010.06.03 22:46:19.
