data_PCOD9315859
_publ_section_title
;
Structure prediction by ZEFSAII (Michael W. Deem and Ramdas Pophale) SiO2 
 PCOD9315859
Probable space group: P 21 21 21
;
_chemical_formula_sum "Si O2"
_cell_formula_units_Z 20
_cell_length_a 14.988630
_cell_length_b 10.277201
_cell_length_c 5.036880
_cell_angle_alpha 90.000000
_cell_angle_beta 90.000000
_cell_angle_gamma 90.000000
_cell_volume 775.886854
_symmetry_space_group_name_H-M "P 21 21 21"
_symmetry_group_IT_number 19
_symmetry_cell_setting 'orthorhombic'
loop_
_space_group_symop_operation_xyz
x,y,z
1/2-x,-y,1/2+z
1/2+x,1/2-y,-z
-x,1/2+y,1/2-z
loop_
_atom_site_type_symbol
_atom_site_label
_atom_site_fract_x
_atom_site_fract_y
_atom_site_fract_z
Si Si1 0.593292 0.320769 0.804746
Si Si2 0.635050 0.978437 0.363582
Si Si3 0.022731 0.450305 0.133819
Si Si4 0.266284 0.915717 0.338849
Si Si5 0.737041 0.803589 0.007823
O O1 0.560400 0.455239 0.678896
O O2 0.676521 0.257866 0.650481
O O3 0.521082 0.204589 0.812238
O O4 0.636411 0.357104 0.089026
O O5 0.592309 0.986438 0.653202
O O6 0.722430 0.070055 0.363403
O O7 0.562501 0.035399 0.159500
O O8 0.666100 0.844673 0.228281
O O9 0.208318 0.801273 0.208741
O O10 0.231276 0.974039 0.614349
#
# Coordination Sequence:
#
# PCOD9315859 Si02
#       5
#     4   4   4   4   4
#     4  11  26  51  73 110 159 203 256 315 382 463
#     4  11  25  44  77 109 140 200 256 308 379 452
#     4  11  27  46  75 108 155 203 252 313 387 453
#     4  12  26  45  75 107 149 199 249 318 380 444
#     4  11  24  48  78 110 151 197 253 324 372 454
#
# _framework density 25.776955000000001
#
# number of rings (size 3 to 8) (size 9 to 14) (size 15 to 20)
#    0.000    0.800    4.000    2.400    5.600    1.600 
#    3.600    0.000    0.000    0.000    0.000    0.000 
#    0.000    0.000    0.000    0.000    0.000    0.000 
#
# Total GULP energy -111991.738770 kJ/mol
# GULP energy per Si atom -5599.586938 kJ/mol
# Density = 2.571829 g / cm^3
# Si number density = 25.776955 Si / 1000 Ang^3
#
#
#
# Elastic Constant Matrix: (Units=GPa)
#
#
# Indices 1 2 3 4 5 6 
#
# 1 46.2615 33.6906 19.5755 0.0000 0.0000 0.0000
# 2 33.6906 137.5617 36.3861 0.0000 0.0000 0.0000
# 3 19.5755 36.3861 95.2366 0.0000 0.0000 0.0000
# 4 0.0000 0.0000 0.0000 42.8801 0.0000 0.0000
# 5 0.0000 0.0000 0.0000 0.0000 39.6151 0.0000
# 6 0.0000 0.0000 0.0000 0.0000 0.0000 51.6573
#
#
#
# Elastic Compliance Matrix: (Units=1/GPa)
#
#
# Indices 1 2 3 4 5 6 
#
# 1 0.027261 -0.005778 -0.003396 0.000000 0.000000 0.000000
# 2 -0.005778 0.009312 -0.002370 0.000000 0.000000 0.000000
# 3 -0.003396 -0.002370 0.012104 0.000000 0.000000 0.000000
# 4 0.000000 0.000000 0.000000 0.023321 0.000000 0.000000
# 5 0.000000 0.000000 0.000000 0.000000 0.025243 0.000000
# 6 0.000000 0.000000 0.000000 0.000000 0.000000 0.019358
#
#
# Mechanical properties :
#
#
# Convention : Reuss Voigt Hill
#
# Bulk Modulus (GPa) = 39.08017 50.92936 45.00476
# Shear Modulus (GPa) = 33.73452 39.45767 36.59610
#
# Velocity S-wave (km/s) = 3.62153 3.91670 3.77201
# Velocity P-wave (km/s) = 5.71674 6.34466 6.03887
#
# Compressibility (1/GPa) = 0.02558843
#
# Stress axis : x y z
#
# Youngs Moduli (GPa) = 36.68188 107.39390 82.62035
#
# Poissons Ratio (x) = 0.62057 0.28056
# Poissons Ratio (y) = 0.21196 0.19580
# Poissons Ratio (z) = 0.12456 0.25450
#
# Static dielectric constant tensor:
#      x y z
#    x 2.094660 0.000000 0.000000 
#    y 0.000000 2.075980 0.000000 
#    z 0.000000 0.000000 2.008570 
# 
# From -- ./inp_files/1676.got.cif
#   From: 2010.05.17/outbox.cif.g08.bks.cpg/sg19_1_cif.got.tgz:1676.got - 2010.06.03 22:46:19.
