data_PCOD9315240
_publ_section_title
;
Structure prediction by ZEFSAII (Michael W. Deem and Ramdas Pophale) SiO2 
 PCOD9315240
Probable space group: P 21 21 21
;
_chemical_formula_sum "Si O2"
_cell_formula_units_Z 12
_cell_length_a 8.654322
_cell_length_b 9.136146
_cell_length_c 5.249561
_cell_angle_alpha 90.000000
_cell_angle_beta 90.000000
_cell_angle_gamma 90.000000
_cell_volume 415.067823
_symmetry_space_group_name_H-M "P 21 21 21"
_symmetry_group_IT_number 19
_symmetry_cell_setting 'orthorhombic'
loop_
_space_group_symop_operation_xyz
x,y,z
1/2-x,-y,1/2+z
1/2+x,1/2-y,-z
-x,1/2+y,1/2-z
loop_
_atom_site_type_symbol
_atom_site_label
_atom_site_fract_x
_atom_site_fract_y
_atom_site_fract_z
Si Si1 0.725198 0.803135 0.999712
Si Si2 0.593907 0.445510 0.349549
Si Si3 0.909926 0.801061 0.507441
O O1 0.552671 0.860327 0.018459
O O2 0.828759 0.837142 0.245229
O O3 0.804014 0.859135 0.740794
O O4 0.751635 0.627906 0.963214
O O5 0.574191 0.370964 0.070332
O O6 0.567606 0.611335 0.435105
#
# Coordination Sequence:
#
# PCOD9315240 Si02
#       3
#     4   4   4
#     4  10  24  39  68  87 128 161 208 250 313 366
#     4  10  24  44  64  94 122 166 208 256 310 368
#     4  10  24  39  68  87 128 161 208 250 313 366
#
# _framework density 28.910941000000001
#
# number of rings (size 3 to 8) (size 9 to 14) (size 15 to 20)
#    2.000    0.000    0.000    2.000    9.333    0.000 
#   12.000    0.000    0.000    0.000    0.000    0.000 
#    0.000    0.000    0.000    0.000    0.000    0.000 
#
# Total GULP energy -67118.259703 kJ/mol
# GULP energy per Si atom -5593.188309 kJ/mol
# Density = 2.884514 g / cm^3
# Si number density = 28.910941 Si / 1000 Ang^3
#
#
#
# Elastic Constant Matrix: (Units=GPa)
#
#
# Indices 1 2 3 4 5 6 
#
# 1 95.0979 18.2788 37.4379 0.0000 0.0000 0.0000
# 2 18.2788 176.0479 5.5543 0.0000 0.0000 0.0000
# 3 37.4379 5.5543 194.2089 0.0000 0.0000 0.0000
# 4 0.0000 0.0000 0.0000 -3.9365 0.0000 0.0000
# 5 0.0000 0.0000 0.0000 0.0000 30.6500 0.0000
# 6 0.0000 0.0000 0.0000 0.0000 0.0000 67.9709
#
#
#
# Elastic Compliance Matrix: (Units=1/GPa)
#
#
# Indices 1 2 3 4 5 6 
#
# 1 0.011601 -0.001135 -0.002204 0.000000 0.000000 0.000000
# 2 -0.001135 0.005796 0.000053 0.000000 0.000000 0.000000
# 3 -0.002204 0.000053 0.005572 0.000000 0.000000 0.000000
# 4 0.000000 0.000000 0.000000 -0.254035 0.000000 0.000000
# 5 0.000000 0.000000 0.000000 0.000000 0.032626 0.000000
# 6 0.000000 0.000000 0.000000 0.000000 0.000000 0.014712
#
#
# Mechanical properties :
#
#
# Convention : Reuss Voigt Hill
#
# Bulk Modulus (GPa) = 60.98187 65.32185 63.15186
# Shear Modulus (GPa) = -29.12260 45.87580 8.37660
#
# Velocity S-wave (km/s) = -3.17728 3.98778 1.70402
# Velocity P-wave (km/s) = 2.77105 6.62166 5.07568
#
# Compressibility (1/GPa) = 0.01639832
#
# Stress axis : x y z
#
# Youngs Moduli (GPa) = 86.19738 172.51946 179.45476
#
# Poissons Ratio (x) = 0.19581 0.39551
# Poissons Ratio (y) = 0.09783 -0.00952
# Poissons Ratio (z) = 0.18997 -0.00915
#
# Static dielectric constant tensor:
#      x y z
#    x 2.247230 0.000000 0.000000 
#    y 0.000000 2.669580 0.000000 
#    z 0.000000 0.000000 2.318300 
# 
# From -- ./inp_files/248.got.cif
#   From: 2010.05.17/outbox.cif.g08.bks.cpg/sg19_1_cif.got.tgz:248.got - 2010.06.03 22:46:19.
