data_PCOD9315283
_publ_section_title
;
Structure prediction by ZEFSAII (Michael W. Deem and Ramdas Pophale) SiO2 
 PCOD9315283
Probable space group: P 21 21 21
;
_chemical_formula_sum "Si O2"
_cell_formula_units_Z 32
_cell_length_a 5.184872
_cell_length_b 17.119539
_cell_length_c 13.496001
_cell_angle_alpha 90.000000
_cell_angle_beta 90.000000
_cell_angle_gamma 90.000000
_cell_volume 1197.940387
_symmetry_space_group_name_H-M "P 21 21 21"
_symmetry_group_IT_number 19
_symmetry_cell_setting 'orthorhombic'
loop_
_space_group_symop_operation_xyz
x,y,z
1/2-x,-y,1/2+z
1/2+x,1/2-y,-z
-x,1/2+y,1/2-z
loop_
_atom_site_type_symbol
_atom_site_label
_atom_site_fract_x
_atom_site_fract_y
_atom_site_fract_z
Si Si1 0.657531 0.975517 0.656583
Si Si2 0.309405 0.956408 0.073341
Si Si3 0.127693 0.202367 0.837715
Si Si4 0.041330 0.682859 0.021087
Si Si5 0.334699 0.209231 0.338135
Si Si6 0.688386 0.832775 0.534172
Si Si7 0.165108 0.437772 0.637676
Si Si8 0.540545 0.572399 0.585025
O O1 0.434717 0.037385 0.643591
O O2 0.567520 0.909376 0.580853
O O3 0.672677 0.935091 0.761504
O O4 0.936942 0.010762 0.629504
O O5 0.295134 0.004661 0.968746
O O6 0.337080 0.868930 0.038743
O O7 0.957265 0.236316 0.747051
O O8 0.295086 0.121950 0.835048
O O9 0.942345 0.193001 0.933218
O O10 0.312212 0.270597 0.878277
O O11 0.968620 0.709318 0.133085
O O12 0.244729 0.613274 0.043935
O O13 0.086680 0.751078 0.943458
O O14 0.421967 0.118230 0.329329
O O15 0.968807 0.864259 0.499683
O O16 0.268645 0.527761 0.612471
#
# Coordination Sequence:
#
# PCOD9315283 Si02
#       8
#     4   4   4   4   4   4   4   4
#     4  11  24  46  75 112 149 197 250 317 397 467
#     4  10  25  45  76 105 149 198 248 319 391 457
#     4  12  24  42  69 107 143 196 251 321 399 470
#     4  11  27  48  71 101 153 205 264 330 381 469
#     4  12  27  46  71 103 148 207 267 318 393 470
#     4  11  23  42  69 102 150 184 244 319 391 461
#     4  11  26  46  72 107 150 203 256 319 387 465
#     4  10  24  43  67 105 144 192 246 313 383 463
#
# _framework density 26.712516999999998
#
# number of rings (size 3 to 8) (size 9 to 14) (size 15 to 20)
#    0.000    1.000    5.000    0.000    8.750    3.000 
#    0.000    0.000    0.000    0.000    0.000    0.000 
#    0.000    0.000    0.000    0.000    0.000    0.000 
#
# Total GULP energy -178322.318478 kJ/mol
# GULP energy per Si atom -5572.572452 kJ/mol
# Density = 2.665172 g / cm^3
# Si number density = 26.712517 Si / 1000 Ang^3
#
#
#
# Elastic Constant Matrix: (Units=GPa)
#
#
# Indices 1 2 3 4 5 6 
#
# 1 36.5333 5.3007 15.9975 0.0000 0.0000 0.0000
# 2 5.3007 113.7506 41.9632 0.0000 0.0000 0.0000
# 3 15.9975 41.9632 112.6446 0.0000 0.0000 0.0000
# 4 0.0000 0.0000 0.0000 52.6725 0.0000 0.0000
# 5 0.0000 0.0000 0.0000 0.0000 33.0231 0.0000
# 6 0.0000 0.0000 0.0000 0.0000 0.0000 33.2425
#
#
#
# Elastic Compliance Matrix: (Units=1/GPa)
#
#
# Indices 1 2 3 4 5 6 
#
# 1 0.029191 0.000196 -0.004219 0.000000 0.000000 0.000000
# 2 0.000196 0.010193 -0.003825 0.000000 0.000000 0.000000
# 3 -0.004219 -0.003825 0.010902 0.000000 0.000000 0.000000
# 4 0.000000 0.000000 0.000000 0.018985 0.000000 0.000000
# 5 0.000000 0.000000 0.000000 0.000000 0.030282 0.000000
# 6 0.000000 0.000000 0.000000 0.000000 0.000000 0.030082
#
#
# Mechanical properties :
#
#
# Convention : Reuss Voigt Hill
#
# Bulk Modulus (GPa) = 28.90976 43.27233 36.09104
# Shear Modulus (GPa) = 31.87548 37.09876 34.48712
#
# Velocity S-wave (km/s) = 3.45813 3.73072 3.59701
# Velocity P-wave (km/s) = 5.17600 5.89849 5.54902
#
# Compressibility (1/GPa) = 0.03459040
#
# Stress axis : x y z
#
# Youngs Moduli (GPa) = 34.25694 98.10553 91.73019
#
# Poissons Ratio (x) = -0.01923 0.38698
# Poissons Ratio (y) = -0.00671 0.35087
# Poissons Ratio (z) = 0.14452 0.37526
#
# Static dielectric constant tensor:
#      x y z
#    x 2.601690 0.000000 0.000000 
#    y 0.000000 2.229200 0.000000 
#    z 0.000000 0.000000 2.138090 
# 
# From -- ./inp_files/5730.got.cif
#   From: 2010.05.17/outbox.cif.g08.bks.cpg/sg19_3_cif.got.tgz:5730.got - 2010.06.03 22:46:19.
