data_PCOD9315444
_publ_section_title
;
Structure prediction by ZEFSAII (Michael W. Deem and Ramdas Pophale) SiO2 
 PCOD9315444
Probable space group: P 21 21 21
;
_chemical_formula_sum "Si O2"
_cell_formula_units_Z 16
_cell_length_a 7.850929
_cell_length_b 9.193050
_cell_length_c 7.696614
_cell_angle_alpha 90.000000
_cell_angle_beta 90.000000
_cell_angle_gamma 90.000000
_cell_volume 555.495287
_symmetry_space_group_name_H-M "P 21 21 21"
_symmetry_group_IT_number 19
_symmetry_cell_setting 'orthorhombic'
loop_
_space_group_symop_operation_xyz
x,y,z
1/2-x,-y,1/2+z
1/2+x,1/2-y,-z
-x,1/2+y,1/2-z
loop_
_atom_site_type_symbol
_atom_site_label
_atom_site_fract_x
_atom_site_fract_y
_atom_site_fract_z
Si Si1 0.720526 0.203047 0.470814
Si Si2 0.734059 0.460933 0.043314
Si Si3 0.584092 0.049526 0.815288
Si Si4 0.993227 0.780573 0.635948
O O1 0.758054 0.369435 0.511138
O O2 0.674238 0.118748 0.649114
O O3 0.568076 0.204784 0.331172
O O4 0.864080 0.114543 0.362936
O O5 0.552487 0.386635 0.085870
O O6 0.879651 0.436634 0.192865
O O7 0.830447 0.364247 0.895236
O O8 0.623744 0.133749 0.995639
#
# Coordination Sequence:
#
# PCOD9315444 Si02
#       4
#     4   4   4   4
#     4  12  24  51  75 114 161 211 256 328 396 465
#     4  10  27  50  79 119 154 213 255 333 389 477
#     4  10  25  48  75 111 157 205 261 317 389 473
#     4  10  26  51  75 118 160 205 264 318 396 475
#
# _framework density 28.803124
#
# number of rings (size 3 to 8) (size 9 to 14) (size 15 to 20)
#    1.500    0.000    2.500    0.000    7.000    4.000 
#    9.000    0.000    0.000    0.000    0.000    0.000 
#    0.000    0.000    0.000    0.000    0.000    0.000 
#
# Total GULP energy -89586.375629 kJ/mol
# GULP energy per Si atom -5599.148477 kJ/mol
# Density = 2.873757 g / cm^3
# Si number density = 28.803124 Si / 1000 Ang^3
#
#
#
# Elastic Constant Matrix: (Units=GPa)
#
#
# Indices 1 2 3 4 5 6 
#
# 1 84.6487 62.0975 54.6515 0.0000 0.0000 0.0000
# 2 62.0975 259.0563 92.1383 0.0000 0.0000 0.0000
# 3 54.6515 92.1383 212.1077 0.0000 0.0000 0.0000
# 4 0.0000 0.0000 0.0000 29.3225 0.0000 0.0000
# 5 0.0000 0.0000 0.0000 0.0000 59.0861 0.0000
# 6 0.0000 0.0000 0.0000 0.0000 0.0000 45.7670
#
#
#
# Elastic Compliance Matrix: (Units=1/GPa)
#
#
# Indices 1 2 3 4 5 6 
#
# 1 0.015662 -0.002743 -0.002844 0.000000 0.000000 0.000000
# 2 -0.002743 0.005046 -0.001485 0.000000 0.000000 0.000000
# 3 -0.002844 -0.001485 0.006093 0.000000 0.000000 0.000000
# 4 0.000000 0.000000 0.000000 0.034103 0.000000 0.000000
# 5 0.000000 0.000000 0.000000 0.000000 0.016924 0.000000
# 6 0.000000 0.000000 0.000000 0.000000 0.000000 0.021850
#
#
# Mechanical properties :
#
#
# Convention : Reuss Voigt Hill
#
# Bulk Modulus (GPa) = 79.01189 108.17638 93.59414
# Shear Modulus (GPa) = 42.35841 49.96348 46.16094
#
# Velocity S-wave (km/s) = 3.83902 4.16944 4.00764
# Velocity P-wave (km/s) = 6.86601 7.79857 7.34710
#
# Compressibility (1/GPa) = 0.01265632
#
# Stress axis : x y z
#
# Youngs Moduli (GPa) = 63.85004 198.18266 164.13556
#
# Poissons Ratio (x) = 0.54356 0.46680
# Poissons Ratio (y) = 0.17512 0.24377
# Poissons Ratio (z) = 0.18159 0.29434
#
# Static dielectric constant tensor:
#      x y z
#    x 2.369910 0.000000 0.000000 
#    y 0.000000 2.194270 0.000000 
#    z 0.000000 0.000000 2.266520 
# 
# From -- ./inp_files/2539.got.cif
#   From: 2010.05.17/outbox.cif.g08.bks.cpg/sg19_2_cif.got.tgz:2539.got - 2010.06.03 22:46:19.
