data_PCOD9315318
_publ_section_title
;
Structure prediction by ZEFSAII (Michael W. Deem and Ramdas Pophale) SiO2 
 PCOD9315318
Probable space group: P 21 21 21
;
_chemical_formula_sum "Si O2"
_cell_formula_units_Z 24
_cell_length_a 10.189249
_cell_length_b 5.318877
_cell_length_c 15.448500
_cell_angle_alpha 90.000000
_cell_angle_beta 90.000000
_cell_angle_gamma 90.000000
_cell_volume 837.237052
_symmetry_space_group_name_H-M "P 21 21 21"
_symmetry_group_IT_number 19
_symmetry_cell_setting 'orthorhombic'
loop_
_space_group_symop_operation_xyz
x,y,z
1/2-x,-y,1/2+z
1/2+x,1/2-y,-z
-x,1/2+y,1/2-z
loop_
_atom_site_type_symbol
_atom_site_label
_atom_site_fract_x
_atom_site_fract_y
_atom_site_fract_z
Si Si1 0.009183 0.885911 0.965967
Si Si2 0.052084 0.482286 0.794656
Si Si3 0.348332 0.547019 0.772820
Si Si4 0.408908 0.821137 0.622902
Si Si5 0.867248 0.320230 0.932438
Si Si6 0.196543 0.093343 0.414328
O O1 0.904378 0.034251 0.906605
O O2 0.155191 0.820331 0.934226
O O3 0.047199 0.138589 0.025005
O O4 0.920541 0.729317 0.032390
O O5 0.207493 0.424623 0.792894
O O6 0.979587 0.252852 0.746175
O O7 0.984017 0.484366 0.889925
O O8 0.381333 0.558333 0.671178
O O9 0.473324 0.431091 0.820091
O O10 0.328941 0.827664 0.815685
O O11 0.260656 0.925119 0.619202
O O12 0.817079 0.333727 0.032744
#
# Coordination Sequence:
#
# PCOD9315318 Si02
#       6
#     4   4   4   4   4   4
#     4  10  24  46  71 109 149 207 263 327 405 477
#     4  12  29  51  81 119 160 215 266 333 409 485
#     4  11  25  45  73 110 157 201 270 329 406 475
#     4  10  25  44  67 111 148 208 253 336 392 477
#     4  11  25  46  76 109 155 206 267 327 404 476
#     4  10  24  44  72 108 149 205 261 332 396 482
#
# _framework density 28.665717000000001
#
# number of rings (size 3 to 8) (size 9 to 14) (size 15 to 20)
#    0.000    1.333    1.667    1.000    9.333    8.000 
#    3.000    0.000    0.000    0.000    0.000    0.000 
#    0.000    0.000    0.000    0.000    0.000    0.000 
#
# Total GULP energy -133826.223093 kJ/mol
# GULP energy per Si atom -5576.092629 kJ/mol
# Density = 2.860047 g / cm^3
# Si number density = 28.665717 Si / 1000 Ang^3
#
#
#
# Elastic Constant Matrix: (Units=GPa)
#
#
# Indices 1 2 3 4 5 6 
#
# 1 173.3921 26.7337 -0.3862 0.0000 0.0000 0.0000
# 2 26.7337 9.7173 -19.0931 0.0000 0.0000 0.0000
# 3 -0.3862 -19.0931 63.7773 0.0000 0.0000 0.0000
# 4 0.0000 0.0000 0.0000 46.1369 0.0000 0.0000
# 5 0.0000 0.0000 0.0000 0.0000 39.7895 0.0000
# 6 0.0000 0.0000 0.0000 0.0000 0.0000 51.1185
#
#
#
# Elastic Compliance Matrix: (Units=1/GPa)
#
#
# Indices 1 2 3 4 5 6 
#
# 1 -0.271854 1.808420 0.539742 0.000000 0.000000 0.000000
# 2 1.808420-11.780019 -3.515643 0.000000 0.000000 0.000000
# 3 0.539742 -3.515643 -1.033533 0.000000 0.000000 0.000000
# 4 0.000000 0.000000 0.000000 0.021675 0.000000 0.000000
# 5 0.000000 0.000000 0.000000 0.000000 0.025132 0.000000
# 6 0.000000 0.000000 0.000000 0.000000 0.000000 0.019562
#
#
# Mechanical properties :
#
#
# Convention : Reuss Voigt Hill
#
# Bulk Modulus (GPa) = -0.06485 29.04396 14.48955
# Shear Modulus (GPa) = -0.31597 43.38447 21.53425
#
# Velocity S-wave (km/s) = -0.33236 3.89454 2.74381
# Velocity P-wave (km/s) = 0.41226 5.51156 3.88634
#
# Compressibility (1/GPa) = -15.42036945
#
# Stress axis : x y z
#
# Youngs Moduli (GPa) = -3.67845 -0.08489 -0.96755
#
# Poissons Ratio (x) = 0.15352 0.52223
# Poissons Ratio (y) = 6.65218 -3.40158
# Poissons Ratio (z) = 1.98541 -0.29844
#
# Static dielectric constant tensor:
#      x y z
#    x 2.300790 0.000000 0.000000 
#    y 0.000000 2.764230 0.000000 
#    z 0.000000 0.000000 2.413480 
# 
# From -- ./inp_files/6536.got.cif
#   From: 2010.05.17/outbox.cif.g08.bks.cpg/sg19_4_cif.got.tgz:6536.got - 2010.06.03 22:46:19.
