data_PCOD9315206
_publ_section_title
;
Structure prediction by ZEFSAII (Michael W. Deem and Ramdas Pophale) SiO2 
 PCOD9315206
Probable space group: P 21 21 21
;
_chemical_formula_sum "Si O2"
_cell_formula_units_Z 28
_cell_length_a 7.837394
_cell_length_b 7.271351
_cell_length_c 18.321101
_cell_angle_alpha 90.000000
_cell_angle_beta 90.000000
_cell_angle_gamma 90.000000
_cell_volume 1044.091015
_symmetry_space_group_name_H-M "P 21 21 21"
_symmetry_group_IT_number 19
_symmetry_cell_setting 'orthorhombic'
loop_
_space_group_symop_operation_xyz
x,y,z
1/2-x,-y,1/2+z
1/2+x,1/2-y,-z
-x,1/2+y,1/2-z
loop_
_atom_site_type_symbol
_atom_site_label
_atom_site_fract_x
_atom_site_fract_y
_atom_site_fract_z
Si Si1 0.397241 0.390977 0.132099
Si Si2 0.039147 0.036366 0.617823
Si Si3 0.505971 0.510304 0.980664
Si Si4 0.884846 0.587675 0.040006
Si Si5 0.768770 0.988459 0.221761
Si Si6 0.724156 0.574068 0.683290
Si Si7 0.619308 0.522198 0.834053
O O1 0.410274 0.171922 0.135475
O O2 0.267448 0.459190 0.193146
O O3 0.581430 0.462369 0.159300
O O4 0.388512 0.434764 0.045680
O O5 0.218844 0.139044 0.634301
O O6 0.886347 0.085927 0.671320
O O7 0.002522 0.037276 0.531549
O O8 0.422012 0.697971 0.953339
O O9 0.553947 0.407802 0.905066
O O10 0.690592 0.549096 0.015452
O O11 0.896748 0.482356 0.116206
O O12 0.784256 0.208131 0.203628
O O13 0.943458 0.895958 0.196386
O O14 0.691001 0.458082 0.756133
#
# Coordination Sequence:
#
# PCOD9315206 Si02
#       7
#     4   4   4   4   4   4   4
#     4  10  23  46  72  97 136 185 227 281 353 406
#     4  10  24  47  71  96 140 178 219 293 340 406
#     4  10  25  43  68 102 135 178 232 278 343 418
#     4  10  24  45  69 100 141 181 224 291 343 409
#     4  11  25  42  72 100 133 183 226 281 353 404
#     4  10  24  45  66 102 140 174 235 283 339 422
#     4  11  25  44  66 105 135 173 233 281 339 415
#
# _framework density 26.817585999999999
#
# number of rings (size 3 to 8) (size 9 to 14) (size 15 to 20)
#    0.000    1.714    1.429    0.000   12.000    0.000 
#    0.000    0.000    0.000    0.000    0.000    0.000 
#    0.000    0.000    0.000    0.000    0.000    0.000 
#
# Total GULP energy -156451.544857 kJ/mol
# GULP energy per Si atom -5587.555173 kJ/mol
# Density = 2.675655 g / cm^3
# Si number density = 26.817586 Si / 1000 Ang^3
#
#
#
# Elastic Constant Matrix: (Units=GPa)
#
#
# Indices 1 2 3 4 5 6 
#
# 1 118.6281 4.1307 62.0832 0.0000 0.0000 0.0000
# 2 4.1307 73.9158 17.4768 0.0000 0.0000 0.0000
# 3 62.0832 17.4768 218.9780 0.0000 0.0000 0.0000
# 4 0.0000 0.0000 0.0000 32.3954 0.0000 0.0000
# 5 0.0000 0.0000 0.0000 0.0000 40.3569 0.0000
# 6 0.0000 0.0000 0.0000 0.0000 0.0000 12.7767
#
#
#
# Elastic Compliance Matrix: (Units=1/GPa)
#
#
# Indices 1 2 3 4 5 6 
#
# 1 0.009899 0.000113 -0.002816 0.000000 0.000000 0.000000
# 2 0.000113 0.013790 -0.001133 0.000000 0.000000 0.000000
# 3 -0.002816 -0.001133 0.005455 0.000000 0.000000 0.000000
# 4 0.000000 0.000000 0.000000 0.030869 0.000000 0.000000
# 5 0.000000 0.000000 0.000000 0.000000 0.024779 0.000000
# 6 0.000000 0.000000 0.000000 0.000000 0.000000 0.078267
#
#
# Mechanical properties :
#
#
# Convention : Reuss Voigt Hill
#
# Bulk Modulus (GPa) = 46.56827 64.32257 55.44542
# Shear Modulus (GPa) = 28.10745 38.96123 33.53434
#
# Velocity S-wave (km/s) = 3.24095 3.81573 3.54002
# Velocity P-wave (km/s) = 5.60424 6.59169 6.11792
#
# Compressibility (1/GPa) = 0.02147385
#
# Stress axis : x y z
#
# Youngs Moduli (GPa) = 101.01732 72.51423 183.30784
#
# Poissons Ratio (x) = -0.00816 0.51611
# Poissons Ratio (y) = -0.01136 0.20760
# Poissons Ratio (z) = 0.28442 0.08212
#
# Static dielectric constant tensor:
#      x y z
#    x 2.194840 0.000000 0.000000 
#    y 0.000000 2.119150 0.000000 
#    z 0.000000 0.000000 2.120920 
# 
# From -- ./inp_files/6584.got.cif
#   From: 2010.05.17/outbox.cif.g08.bks.cpg/sg19_4_cif.got.tgz:6584.got - 2010.06.03 22:46:19.
