data_PCOD9315784
_publ_section_title
;
Structure prediction by ZEFSAII (Michael W. Deem and Ramdas Pophale) SiO2 
 PCOD9315784
Probable space group: P 21 21 21
;
_chemical_formula_sum "Si O2"
_cell_formula_units_Z 24
_cell_length_a 4.945380
_cell_length_b 5.202731
_cell_length_c 32.042611
_cell_angle_alpha 90.000000
_cell_angle_beta 90.000000
_cell_angle_gamma 90.000000
_cell_volume 824.439778
_symmetry_space_group_name_H-M "P 21 21 21"
_symmetry_group_IT_number 19
_symmetry_cell_setting 'orthorhombic'
loop_
_space_group_symop_operation_xyz
x,y,z
1/2-x,-y,1/2+z
1/2+x,1/2-y,-z
-x,1/2+y,1/2-z
loop_
_atom_site_type_symbol
_atom_site_label
_atom_site_fract_x
_atom_site_fract_y
_atom_site_fract_z
Si Si1 0.832085 0.866419 0.520634
Si Si2 0.036570 0.562749 0.591948
Si Si3 0.636711 0.497426 0.175322
Si Si4 0.980529 0.766038 0.070379
Si Si5 0.320279 0.080215 0.740723
Si Si6 0.007109 0.498699 0.343226
O O1 0.945766 0.815172 0.567579
O O2 0.769328 0.074798 0.434126
O O3 0.609709 0.658026 0.505087
O O4 0.633244 0.103918 0.528851
O O5 0.097364 0.553148 0.641159
O O6 0.769589 0.392499 0.588012
O O7 0.586925 0.458938 0.224657
O O8 0.782480 0.770681 0.168851
O O9 0.845383 0.268665 0.163505
O O10 0.064722 0.959684 0.108159
O O11 0.467981 0.350932 0.748732
O O12 0.272035 0.044980 0.691326
#
# Coordination Sequence:
#
# PCOD9315784 Si02
#       6
#     4   4   4   4   4   4
#     4  12  26  46  72 106 144 188 252 316 384 460
#     4  11  24  44  70 102 142 192 242 304 377 453
#     4   9  17  34  60  98 140 188 246 298 365 441
#     4  11  24  44  70 102 142 192 242 304 377 453
#     4   8  14  26  54  90 136 186 236 300 356 426
#     4   9  17  34  60  98 140 188 246 298 365 441
#
# _framework density 29.110673999999999
#
# number of rings (size 3 to 8) (size 9 to 14) (size 15 to 20)
#    0.000    2.000    1.667    2.000    0.000    2.667 
#    0.000    0.000    0.000   26.000    0.000    0.000 
#    0.000    0.000    0.000    0.000    0.000    0.000 
#
# Total GULP energy -134489.094462 kJ/mol
# GULP energy per Si atom -5603.712269 kJ/mol
# Density = 2.904442 g / cm^3
# Si number density = 29.110674 Si / 1000 Ang^3
#
#
#
# Elastic Constant Matrix: (Units=GPa)
#
#
# Indices 1 2 3 4 5 6 
#
# 1 145.1411 43.3067 50.0610 0.0000 0.0000 0.0000
# 2 43.3067 132.5386 21.4897 0.0000 0.0000 0.0000
# 3 50.0610 21.4897 125.5990 0.0000 0.0000 0.0000
# 4 0.0000 0.0000 0.0000 44.1572 0.0000 0.0000
# 5 0.0000 0.0000 0.0000 0.0000 43.9022 0.0000
# 6 0.0000 0.0000 0.0000 0.0000 0.0000 33.1021
#
#
#
# Elastic Compliance Matrix: (Units=1/GPa)
#
#
# Indices 1 2 3 4 5 6 
#
# 1 0.008634 -0.002328 -0.003043 0.000000 0.000000 0.000000
# 2 -0.002328 0.008388 -0.000507 0.000000 0.000000 0.000000
# 3 -0.003043 -0.000507 0.009262 0.000000 0.000000 0.000000
# 4 0.000000 0.000000 0.000000 0.022646 0.000000 0.000000
# 5 0.000000 0.000000 0.000000 0.000000 0.022778 0.000000
# 6 0.000000 0.000000 0.000000 0.000000 0.000000 0.030210
#
#
# Mechanical properties :
#
#
# Convention : Reuss Voigt Hill
#
# Bulk Modulus (GPa) = 68.83698 70.33261 69.58479
# Shear Modulus (GPa) = 42.18846 43.46037 42.82442
#
# Velocity S-wave (km/s) = 3.81102 3.86804 3.83964
# Velocity P-wave (km/s) = 6.56225 6.64544 6.60398
#
# Compressibility (1/GPa) = 0.01452708
#
# Stress axis : x y z
#
# Youngs Moduli (GPa) = 115.82158 119.22055 107.97333
#
# Poissons Ratio (x) = 0.27751 0.32857
# Poissons Ratio (y) = 0.26960 0.05478
# Poissons Ratio (z) = 0.35245 0.06049
#
# Static dielectric constant tensor:
#      x y z
#    x 2.095600 0.000000 0.000000 
#    y 0.000000 2.260130 0.000000 
#    z 0.000000 0.000000 2.495100 
# 
# From -- ./inp_files/656.got.cif
#   From: 2010.05.17/outbox.cif.g08.bks.cpg/sg19_1_cif.got.tgz:656.got - 2010.06.03 22:46:19.
