data_PCOD9315308
_publ_section_title
;
Structure prediction by ZEFSAII (Michael W. Deem and Ramdas Pophale) SiO2 
 PCOD9315308
Probable space group: P 21 21 21
;
_chemical_formula_sum "Si O2"
_cell_formula_units_Z 28
_cell_length_a 23.298372
_cell_length_b 8.927687
_cell_length_c 5.470491
_cell_angle_alpha 90.000000
_cell_angle_beta 90.000000
_cell_angle_gamma 90.000000
_cell_volume 1137.865262
_symmetry_space_group_name_H-M "P 21 21 21"
_symmetry_group_IT_number 19
_symmetry_cell_setting 'orthorhombic'
loop_
_space_group_symop_operation_xyz
x,y,z
1/2-x,-y,1/2+z
1/2+x,1/2-y,-z
-x,1/2+y,1/2-z
loop_
_atom_site_type_symbol
_atom_site_label
_atom_site_fract_x
_atom_site_fract_y
_atom_site_fract_z
Si Si1 0.098492 0.190629 0.392825
Si Si2 0.332843 0.389565 0.245712
Si Si3 0.509918 0.778350 0.562600
Si Si4 0.241985 0.906839 0.206303
Si Si5 0.794684 0.844326 0.058013
Si Si6 0.941263 0.950973 0.737540
Si Si7 0.376772 0.145215 0.904714
O O1 0.158147 0.256018 0.282718
O O2 0.079790 0.313604 0.591549
O O3 0.112172 0.024886 0.482044
O O4 0.044924 0.173482 0.215033
O O5 0.269526 0.367464 0.348819
O O6 0.383924 0.477577 0.384271
O O7 0.320848 0.497125 0.012503
O O8 0.357999 0.236614 0.143275
O O9 0.529759 0.914383 0.389524
O O10 0.487842 0.627429 0.431287
O O11 0.566898 0.724827 0.702899
O O12 0.176529 0.851340 0.221921
O O13 0.251583 0.994959 0.459893
O O14 0.284453 0.765778 0.174429
#
# Coordination Sequence:
#
# PCOD9315308 Si02
#       7
#     4   4   4   4   4   4   4
#     4  11  24  43  71 104 142 198 251 322 384 468
#     4  10  24  44  69 111 150 205 252 329 385 476
#     4  11  24  47  70 106 145 196 260 314 397 464
#     4  12  26  49  78 120 157 203 264 324 396 469
#     4  11  24  45  74 109 154 197 260 314 401 458
#     4  10  24  46  70 104 147 198 258 322 389 467
#     4  11  24  46  70 108 151 197 259 319 394 466
#
# _framework density 24.607482000000001
#
# number of rings (size 3 to 8) (size 9 to 14) (size 15 to 20)
#    0.000    1.143    1.429    3.429    2.000    2.286 
#   18.000    0.000    0.000    0.000    0.000    0.000 
#    0.000    0.000    0.000    0.000    0.000    0.000 
#
# Total GULP energy -156652.390264 kJ/mol
# GULP energy per Si atom -5594.728224 kJ/mol
# Density = 2.455147 g / cm^3
# Si number density = 24.607482 Si / 1000 Ang^3
#
#
#
# Elastic Constant Matrix: (Units=GPa)
#
#
# Indices 1 2 3 4 5 6 
#
# 1 160.6953 53.6049 23.5681 0.0000 0.0000 0.0000
# 2 53.6049 145.2501 26.5760 0.0000 0.0000 0.0000
# 3 23.5681 26.5760 46.9879 0.0000 0.0000 0.0000
# 4 0.0000 0.0000 0.0000 25.7614 0.0000 0.0000
# 5 0.0000 0.0000 0.0000 0.0000 38.4579 0.0000
# 6 0.0000 0.0000 0.0000 0.0000 0.0000 15.9550
#
#
#
# Elastic Compliance Matrix: (Units=1/GPa)
#
#
# Indices 1 2 3 4 5 6 
#
# 1 0.007330 -0.002267 -0.002394 0.000000 0.000000 0.000000
# 2 -0.002267 0.008381 -0.003603 0.000000 0.000000 0.000000
# 3 -0.002394 -0.003603 0.024521 0.000000 0.000000 0.000000
# 4 0.000000 0.000000 0.000000 0.038818 0.000000 0.000000
# 5 0.000000 0.000000 0.000000 0.000000 0.026002 0.000000
# 6 0.000000 0.000000 0.000000 0.000000 0.000000 0.062676
#
#
# Mechanical properties :
#
#
# Convention : Reuss Voigt Hill
#
# Bulk Modulus (GPa) = 42.18903 62.27014 52.22958
# Shear Modulus (GPa) = 26.02025 32.64717 29.33371
#
# Velocity S-wave (km/s) = 3.25532 3.64636 3.45637
# Velocity P-wave (km/s) = 5.59566 6.56417 6.09917
#
# Compressibility (1/GPa) = 0.02370285
#
# Stress axis : x y z
#
# Youngs Moduli (GPa) = 136.41762 119.32339 40.78171
#
# Poissons Ratio (x) = 0.27053 0.09765
# Poissons Ratio (y) = 0.30929 0.14693
# Poissons Ratio (z) = 0.32665 0.42990
#
# Static dielectric constant tensor:
#      x y z
#    x 2.003470 0.000000 0.000000 
#    y 0.000000 1.936120 0.000000 
#    z 0.000000 0.000000 2.014120 
# 
# From -- ./inp_files/2133.got.cif
#   From: 2010.05.17/outbox.cif.g08.bks.cpg/sg19_2_cif.got.tgz:2133.got - 2010.06.03 22:46:19.
