data_PCOD9315208
_publ_section_title
;
Structure prediction by ZEFSAII (Michael W. Deem and Ramdas Pophale) SiO2 
 PCOD9315208
Probable space group: P 21 21 21
;
_chemical_formula_sum "Si O2"
_cell_formula_units_Z 24
_cell_length_a 6.170729
_cell_length_b 11.599443
_cell_length_c 14.372553
_cell_angle_alpha 90.000000
_cell_angle_beta 90.000000
_cell_angle_gamma 90.000000
_cell_volume 1028.744504
_symmetry_space_group_name_H-M "P 21 21 21"
_symmetry_group_IT_number 19
_symmetry_cell_setting 'orthorhombic'
loop_
_space_group_symop_operation_xyz
x,y,z
1/2-x,-y,1/2+z
1/2+x,1/2-y,-z
-x,1/2+y,1/2-z
loop_
_atom_site_type_symbol
_atom_site_label
_atom_site_fract_x
_atom_site_fract_y
_atom_site_fract_z
Si Si1 0.823308 0.904845 0.994165
Si Si2 0.015944 0.299385 0.006356
Si Si3 0.901618 0.299218 0.199317
Si Si4 0.555615 0.300314 0.616141
Si Si5 0.594905 0.509399 0.165098
Si Si6 0.174058 0.434192 0.844852
O O1 0.629842 0.884849 0.921582
O O2 0.991947 0.984136 0.937827
O O3 0.889921 0.776375 0.025359
O O4 0.767732 0.966747 0.090204
O O5 0.048096 0.340513 0.113089
O O6 0.762560 0.253250 0.009781
O O7 0.999744 0.380572 0.916437
O O8 0.704646 0.388441 0.190542
O O9 0.844205 0.165710 0.179358
O O10 0.985830 0.289440 0.303775
O O11 0.741216 0.381678 0.659074
O O12 0.427998 0.529793 0.248098
#
# Coordination Sequence:
#
# PCOD9315208 Si02
#       6
#     4   4   4   4   4   4
#     4  12  28  50  80 114 160 208 266 336 424 505
#     4  10  23  46  74 111 155 200 253 333 412 483
#     4  11  27  46  78 116 154 204 271 344 408 500
#     4  12  27  52  77 115 157 210 263 332 418 507
#     4  12  28  50  82 112 156 213 270 336 419 498
#     4  11  27  46  79 112 158 201 271 341 411 487
#
# _framework density 23.329407
#
# number of rings (size 3 to 8) (size 9 to 14) (size 15 to 20)
#    0.000    0.667    3.333    2.000   16.333    2.667 
#    0.000    0.000    0.000    0.000    0.000    0.000 
#    0.000    0.000    0.000    0.000    0.000    0.000 
#
# Total GULP energy -133717.408442 kJ/mol
# GULP energy per Si atom -5571.558685 kJ/mol
# Density = 2.327631 g / cm^3
# Si number density = 23.329407 Si / 1000 Ang^3
#
#
#
# Elastic Constant Matrix: (Units=GPa)
#
#
# Indices 1 2 3 4 5 6 
#
# 1 100.6663 84.3693 -9.8837 0.0000 0.0000 0.0000
# 2 84.3693 151.1914 -82.9680 0.0000 0.0000 0.0000
# 3 -9.8837 -82.9680 271.5897 0.0000 0.0000 0.0000
# 4 0.0000 0.0000 0.0000 26.8895 0.0000 0.0000
# 5 0.0000 0.0000 0.0000 0.0000 53.4479 0.0000
# 6 0.0000 0.0000 0.0000 0.0000 0.0000 37.6599
#
#
#
# Elastic Compliance Matrix: (Units=1/GPa)
#
#
# Indices 1 2 3 4 5 6 
#
# 1 0.020956 -0.013546 -0.003376 0.000000 0.000000 0.000000
# 2 -0.013546 0.016703 0.004610 0.000000 0.000000 0.000000
# 3 -0.003376 0.004610 0.004967 0.000000 0.000000 0.000000
# 4 0.000000 0.000000 0.000000 0.037189 0.000000 0.000000
# 5 0.000000 0.000000 0.000000 0.000000 0.018710 0.000000
# 6 0.000000 0.000000 0.000000 0.000000 0.000000 0.026553
#
#
# Mechanical properties :
#
#
# Convention : Reuss Voigt Hill
#
# Bulk Modulus (GPa) = 55.55156 56.27586 55.91371
# Shear Modulus (GPa) = 32.11233 59.06145 45.58689
#
# Velocity S-wave (km/s) = 3.71411 5.03699 4.42526
# Velocity P-wave (km/s) = 6.50049 7.61597 7.08023
#
# Compressibility (1/GPa) = 0.01800129
#
# Stress axis : x y z
#
# Youngs Moduli (GPa) = 47.71990 59.86978 201.31396
#
# Poissons Ratio (x) = 0.81101 0.67956
# Poissons Ratio (y) = 0.64643 -0.92798
# Poissons Ratio (z) = 0.16108 -0.27598
#
# Static dielectric constant tensor:
#      x y z
#    x 1.964410 0.000000 0.000000 
#    y 0.000000 1.971000 0.000000 
#    z 0.000000 0.000000 1.906930 
# 
# From -- ./inp_files/5658.got.cif
#   From: 2010.05.17/outbox.cif.g08.bks.cpg/sg19_3_cif.got.tgz:5658.got - 2010.06.03 22:46:19.
