data_PCOD9315717
_publ_section_title
;
Structure prediction by ZEFSAII (Michael W. Deem and Ramdas Pophale) SiO2 
 PCOD9315717
Probable space group: P 21 21 21
;
_chemical_formula_sum "Si O2"
_cell_formula_units_Z 28
_cell_length_a 12.344679
_cell_length_b 12.996190
_cell_length_c 8.484838
_cell_angle_alpha 90.000000
_cell_angle_beta 90.000000
_cell_angle_gamma 90.000000
_cell_volume 1361.254750
_symmetry_space_group_name_H-M "P 21 21 21"
_symmetry_group_IT_number 19
_symmetry_cell_setting 'orthorhombic'
loop_
_space_group_symop_operation_xyz
x,y,z
1/2-x,-y,1/2+z
1/2+x,1/2-y,-z
-x,1/2+y,1/2-z
loop_
_atom_site_type_symbol
_atom_site_label
_atom_site_fract_x
_atom_site_fract_y
_atom_site_fract_z
Si Si1 0.637365 0.861126 0.329007
Si Si2 0.534369 0.339068 0.893478
Si Si3 0.127379 0.019474 0.360697
Si Si4 0.654305 0.651991 0.129215
Si Si5 0.011470 0.466152 0.836352
Si Si6 0.141816 0.794027 0.234135
Si Si7 0.815343 0.808243 0.551830
O O1 0.542924 0.859045 0.459143
O O2 0.647470 0.751573 0.242081
O O3 0.747450 0.875439 0.427116
O O4 0.601272 0.950662 0.212590
O O5 0.553576 0.434901 0.779375
O O6 0.471884 0.252433 0.792601
O O7 0.645757 0.294584 0.962523
O O8 0.230833 0.093724 0.369021
O O9 0.160127 0.904663 0.313225
O O10 0.063787 0.011838 0.525526
O O11 0.564441 0.571985 0.193203
O O12 0.638361 0.691396 0.952011
O O13 0.077470 0.367263 0.896212
O O14 0.236905 0.721126 0.303138
#
# Coordination Sequence:
#
# PCOD9315717 Si02
#       7
#     4   4   4   4   4   4   4
#     4  11  25  44  69 100 138 189 238 291 364 418
#     4  11  23  46  69  98 142 180 239 301 348 422
#     4  12  25  42  73 104 137 191 243 288 359 430
#     4  12  25  42  68 107 138 182 247 297 350 435
#     4  12  26  46  72 104 148 188 235 302 367 425
#     4  11  26  42  68 102 136 186 237 286 366 423
#     4  11  24  48  67  97 147 186 231 301 354 429
#
# _framework density 20.569258000000001
#
# number of rings (size 3 to 8) (size 9 to 14) (size 15 to 20)
#    0.000    0.571    4.286    3.429    6.000    4.571 
#    2.571    0.000    0.000    0.000    0.000    0.000 
#    0.000    0.000    0.000    0.000    0.000    0.000 
#
# Total GULP energy -156587.411847 kJ/mol
# GULP energy per Si atom -5592.407566 kJ/mol
# Density = 2.052244 g / cm^3
# Si number density = 20.569258 Si / 1000 Ang^3
#
#
#
# Elastic Constant Matrix: (Units=GPa)
#
#
# Indices 1 2 3 4 5 6 
#
# 1 78.4525 12.5221 49.1586 0.0000 0.0000 0.0000
# 2 12.5221 67.9337 17.6367 0.0000 0.0000 0.0000
# 3 49.1586 17.6367 79.1427 0.0000 0.0000 0.0000
# 4 0.0000 0.0000 0.0000 38.8456 0.0000 0.0000
# 5 0.0000 0.0000 0.0000 0.0000 26.2595 0.0000
# 6 0.0000 0.0000 0.0000 0.0000 0.0000 28.8207
#
#
#
# Elastic Compliance Matrix: (Units=1/GPa)
#
#
# Indices 1 2 3 4 5 6 
#
# 1 0.020886 -0.000511 -0.012859 0.000000 0.000000 0.000000
# 2 -0.000511 0.015637 -0.003167 0.000000 0.000000 0.000000
# 3 -0.012859 -0.003167 0.021328 0.000000 0.000000 0.000000
# 4 0.000000 0.000000 0.000000 0.025743 0.000000 0.000000
# 5 0.000000 0.000000 0.000000 0.000000 0.038081 0.000000
# 6 0.000000 0.000000 0.000000 0.000000 0.000000 0.034697
#
#
# Mechanical properties :
#
#
# Convention : Reuss Voigt Hill
#
# Bulk Modulus (GPa) = 40.36145 42.68487 41.52316
# Shear Modulus (GPa) = 25.29015 28.53261 26.91138
#
# Velocity S-wave (km/s) = 3.51024 3.72848 3.62101
# Velocity P-wave (km/s) = 6.00782 6.27155 6.14110
#
# Compressibility (1/GPa) = 0.02477611
#
# Stress axis : x y z
#
# Youngs Moduli (GPa) = 47.87984 63.95212 46.88603
#
# Poissons Ratio (x) = 0.03271 0.60290
# Poissons Ratio (y) = 0.02449 0.14849
# Poissons Ratio (z) = 0.61568 0.20253
#
# Static dielectric constant tensor:
#      x y z
#    x 1.732890 0.000000 0.000000 
#    y 0.000000 1.739180 0.000000 
#    z 0.000000 0.000000 1.731620 
# 
# From -- ./inp_files/3430.got.cif
#   From: 2010.05.17/outbox.cif.g08.bks.cpg/sg19_2_cif.got.tgz:3430.got - 2010.06.03 22:46:19.
