data_PCOD9315959
_publ_section_title
;
Structure prediction by ZEFSAII (Michael W. Deem and Ramdas Pophale) SiO2 
 PCOD9315959
Probable space group: P 21 21 21
;
_chemical_formula_sum "Si O2"
_cell_formula_units_Z 20
_cell_length_a 9.904081
_cell_length_b 15.503376
_cell_length_c 5.184610
_cell_angle_alpha 90.000000
_cell_angle_beta 90.000000
_cell_angle_gamma 90.000000
_cell_volume 796.079713
_symmetry_space_group_name_H-M "P 21 21 21"
_symmetry_group_IT_number 19
_symmetry_cell_setting 'orthorhombic'
loop_
_space_group_symop_operation_xyz
x,y,z
1/2-x,-y,1/2+z
1/2+x,1/2-y,-z
-x,1/2+y,1/2-z
loop_
_atom_site_type_symbol
_atom_site_label
_atom_site_fract_x
_atom_site_fract_y
_atom_site_fract_z
Si Si1 0.813391 0.771500 0.809058
Si Si2 0.416972 0.900409 0.416504
Si Si3 0.787082 0.054335 0.079934
Si Si4 0.546804 0.662271 0.893050
Si Si5 0.623943 0.555530 0.400722
O O1 0.895872 0.699195 0.651987
O O2 0.902618 0.794219 0.058863
O O3 0.789552 0.858126 0.650498
O O4 0.667920 0.731067 0.872527
O O5 0.556173 0.921136 0.553087
O O6 0.284784 0.932840 0.568455
O O7 0.412815 0.956605 0.152494
O O8 0.440540 0.100452 0.851879
O O9 0.740571 0.011617 0.812818
O O10 0.576373 0.606095 0.147299
#
# Coordination Sequence:
#
# PCOD9315959 Si02
#       5
#     4   4   4   4   4
#     4  11  29  52  85 119 171 215 278 343 407 498
#     4  11  27  52  86 121 164 215 286 332 421 494
#     4  12  32  56  82 122 173 220 274 346 421 493
#     4  11  28  50  81 121 166 211 277 334 420 481
#     4  11  26  50  82 121 158 215 269 347 403 498
#
# _framework density 25.123111999999999
#
# number of rings (size 3 to 8) (size 9 to 14) (size 15 to 20)
#    0.000    0.800    0.000    3.600   11.200   12.800 
#    0.000    0.000    0.000    0.000    0.000    0.000 
#    0.000    0.000    0.000    0.000    0.000    0.000 
#
# Total GULP energy -112396.662795 kJ/mol
# GULP energy per Si atom -5619.833140 kJ/mol
# Density = 2.506593 g / cm^3
# Si number density = 25.123112 Si / 1000 Ang^3
#
#
#
# Elastic Constant Matrix: (Units=GPa)
#
#
# Indices 1 2 3 4 5 6 
#
# 1 148.5345 60.3696 46.6571 0.0000 0.0000 0.0000
# 2 60.3696 139.5106 37.7842 0.0000 0.0000 0.0000
# 3 46.6571 37.7842 144.6834 0.0000 0.0000 0.0000
# 4 0.0000 0.0000 0.0000 23.9609 0.0000 0.0000
# 5 0.0000 0.0000 0.0000 0.0000 48.5906 0.0000
# 6 0.0000 0.0000 0.0000 0.0000 0.0000 29.2214
#
#
#
# Elastic Compliance Matrix: (Units=1/GPa)
#
#
# Indices 1 2 3 4 5 6 
#
# 1 0.008652 -0.003216 -0.001950 0.000000 0.000000 0.000000
# 2 -0.003216 0.008909 -0.001290 0.000000 0.000000 0.000000
# 3 -0.001950 -0.001290 0.007877 0.000000 0.000000 0.000000
# 4 0.000000 0.000000 0.000000 0.041735 0.000000 0.000000
# 5 0.000000 0.000000 0.000000 0.000000 0.020580 0.000000
# 6 0.000000 0.000000 0.000000 0.000000 0.000000 0.034222
#
#
# Mechanical properties :
#
#
# Convention : Reuss Voigt Hill
#
# Bulk Modulus (GPa) = 79.82777 80.26114 80.04446
# Shear Modulus (GPa) = 35.95540 39.54906 37.75223
#
# Velocity S-wave (km/s) = 3.78718 3.97194 3.88066
# Velocity P-wave (km/s) = 7.13914 7.28365 7.21175
#
# Compressibility (1/GPa) = 0.01252697
#
# Stress axis : x y z
#
# Youngs Moduli (GPa) = 115.57947 112.24992 126.94661
#
# Poissons Ratio (x) = 0.36097 0.24758
# Poissons Ratio (y) = 0.37167 0.16370
# Poissons Ratio (z) = 0.22541 0.14475
#
# Static dielectric constant tensor:
#      x y z
#    x 1.996630 0.000000 0.000000 
#    y 0.000000 1.968840 0.000000 
#    z 0.000000 0.000000 1.941350 
# 
# From -- ./inp_files/371.got.cif
#   From: 2010.05.17/outbox.cif.g08.bks.cpg/sg19_1_cif.got.tgz:371.got - 2010.06.03 22:46:19.
