data_PCOD9315800
_publ_section_title
;
Structure prediction by ZEFSAII (Michael W. Deem and Ramdas Pophale) SiO2 
 PCOD9315800
Probable space group: P 21 21 21
;
_chemical_formula_sum "Si O2"
_cell_formula_units_Z 28
_cell_length_a 12.584805
_cell_length_b 8.672264
_cell_length_c 10.471573
_cell_angle_alpha 90.000000
_cell_angle_beta 90.000000
_cell_angle_gamma 90.000000
_cell_volume 1142.854402
_symmetry_space_group_name_H-M "P 21 21 21"
_symmetry_group_IT_number 19
_symmetry_cell_setting 'orthorhombic'
loop_
_space_group_symop_operation_xyz
x,y,z
1/2-x,-y,1/2+z
1/2+x,1/2-y,-z
-x,1/2+y,1/2-z
loop_
_atom_site_type_symbol
_atom_site_label
_atom_site_fract_x
_atom_site_fract_y
_atom_site_fract_z
Si Si1 0.947355 0.982293 0.734117
Si Si2 0.502228 0.622440 0.826071
Si Si3 0.657288 0.970139 0.488503
Si Si4 0.379325 0.804099 0.635720
Si Si5 0.861991 0.167750 0.495956
Si Si6 0.188193 0.901080 0.792919
Si Si7 0.289300 0.763146 0.363545
O O1 0.911468 0.068220 0.863861
O O2 0.862196 0.843396 0.725086
O O3 0.067084 0.924166 0.748122
O O4 0.930465 0.083307 0.606880
O O5 0.449419 0.667671 0.693098
O O6 0.565711 0.463853 0.826515
O O7 0.409245 0.592883 0.929352
O O8 0.572301 0.763068 0.879750
O O9 0.770077 0.049563 0.456210
O O10 0.688414 0.829140 0.581530
O O11 0.263172 0.804084 0.699961
O O12 0.363185 0.796155 0.486053
O O13 0.813469 0.315190 0.571042
O O14 0.235461 0.072872 0.803619
#
# Coordination Sequence:
#
# PCOD9315800 Si02
#       7
#     4   4   4   4   4   4   4
#     4  11  25  45  77 105 147 189 240 298 366 422
#     4  12  28  48  71 105 145 190 236 299 367 427
#     4  11  25  47  74 104 147 186 240 296 362 433
#     4  12  29  47  73 106 148 189 242 297 366 438
#     4  11  24  45  70 106 143 186 239 291 356 426
#     4  12  24  47  71 107 141 190 244 297 348 435
#     4  11  27  45  74 111 141 192 241 298 363 429
#
# _framework density 24.500057999999999
#
# number of rings (size 3 to 8) (size 9 to 14) (size 15 to 20)
#    0.000    0.571    4.286    1.714   10.000    2.286 
#    0.000    0.000    0.000    0.000    0.000    0.000 
#    0.000    0.000    0.000    0.000    0.000    0.000 
#
# Total GULP energy -157028.689021 kJ/mol
# GULP energy per Si atom -5608.167465 kJ/mol
# Density = 2.444429 g / cm^3
# Si number density = 24.500058 Si / 1000 Ang^3
#
#
#
# Elastic Constant Matrix: (Units=GPa)
#
#
# Indices 1 2 3 4 5 6 
#
# 1 104.5586 9.5537 28.1461 0.0000 0.0000 0.0000
# 2 9.5537 73.9145 -7.6883 0.0000 0.0000 0.0000
# 3 28.1461 -7.6883 59.3340 0.0000 0.0000 0.0000
# 4 0.0000 0.0000 0.0000 41.5602 0.0000 0.0000
# 5 0.0000 0.0000 0.0000 0.0000 30.2169 0.0000
# 6 0.0000 0.0000 0.0000 0.0000 0.0000 38.1266
#
#
#
# Elastic Compliance Matrix: (Units=1/GPa)
#
#
# Indices 1 2 3 4 5 6 
#
# 1 0.011259 -0.002038 -0.005605 0.000000 0.000000 0.000000
# 2 -0.002038 0.014083 0.002792 0.000000 0.000000 0.000000
# 3 -0.005605 0.002792 0.019874 0.000000 0.000000 0.000000
# 4 0.000000 0.000000 0.000000 0.024061 0.000000 0.000000
# 5 0.000000 0.000000 0.000000 0.000000 0.033094 0.000000
# 6 0.000000 0.000000 0.000000 0.000000 0.000000 0.026228
#
#
# Mechanical properties :
#
#
# Convention : Reuss Voigt Hill
#
# Bulk Modulus (GPa) = 28.15855 33.09221 30.62538
# Shear Modulus (GPa) = 33.30195 35.83377 34.56786
#
# Velocity S-wave (km/s) = 3.69081 3.82854 3.76031
# Velocity P-wave (km/s) = 5.44803 5.75152 5.60183
#
# Compressibility (1/GPa) = 0.03551320
#
# Stress axis : x y z
#
# Youngs Moduli (GPa) = 88.81719 71.00765 50.31613
#
# Poissons Ratio (x) = 0.14473 0.28202
# Poissons Ratio (y) = 0.18104 -0.14047
# Poissons Ratio (z) = 0.49782 -0.19823
#
# Static dielectric constant tensor:
#      x y z
#    x 1.930210 0.000000 0.000000 
#    y 0.000000 1.959620 0.000000 
#    z 0.000000 0.000000 1.886310 
# 
# From -- ./inp_files/4611.got.cif
#   From: 2010.05.17/outbox.cif.g08.bks.cpg/sg19_3_cif.got.tgz:4611.got - 2010.06.03 22:46:19.
