data_PCOD9315760
_publ_section_title
;
Structure prediction by ZEFSAII (Michael W. Deem and Ramdas Pophale) SiO2 
 PCOD9315760
Probable space group: P 21 21 21
;
_chemical_formula_sum "Si O2"
_cell_formula_units_Z 24
_cell_length_a 8.207847
_cell_length_b 15.097897
_cell_length_c 8.120682
_cell_angle_alpha 90.000000
_cell_angle_beta 90.000000
_cell_angle_gamma 90.000000
_cell_volume 1006.324890
_symmetry_space_group_name_H-M "P 21 21 21"
_symmetry_group_IT_number 19
_symmetry_cell_setting 'orthorhombic'
loop_
_space_group_symop_operation_xyz
x,y,z
1/2-x,-y,1/2+z
1/2+x,1/2-y,-z
-x,1/2+y,1/2-z
loop_
_atom_site_type_symbol
_atom_site_label
_atom_site_fract_x
_atom_site_fract_y
_atom_site_fract_z
Si Si1 0.657687 0.629492 0.903814
Si Si2 0.160660 0.534071 0.888429
Si Si3 0.013727 0.532250 0.525262
Si Si4 0.014397 0.196212 0.484886
Si Si5 0.661773 0.303164 0.880830
Si Si6 0.482916 0.131669 0.962188
O O1 0.550510 0.704451 0.994708
O O2 0.598326 0.621964 0.716739
O O3 0.633369 0.537846 0.000838
O O4 0.840627 0.665825 0.897035
O O5 0.096613 0.534267 0.702810
O O6 0.346651 0.503404 0.902164
O O7 0.131725 0.628253 0.976865
O O8 0.053038 0.460879 0.980114
O O9 0.948709 0.628114 0.481124
O O10 0.096064 0.187801 0.304880
O O11 0.625791 0.204063 0.942094
O O12 0.847176 0.330925 0.912612
#
# Coordination Sequence:
#
# PCOD9315760 Si02
#       6
#     4   4   4   4   4   4
#     4  11  24  42  65  93 126 164 207 255 308 366
#     4  12  25  42  65  92 126 164 206 256 309 368
#     4  12  25  42  65  92 126 164 206 256 309 368
#     4  11  24  42  65  93 126 164 207 255 308 366
#     4  11  24  42  65  93 126 164 207 255 308 366
#     4  11  24  42  65  93 126 164 207 255 308 366
#
# _framework density 23.849157000000002
#
# number of rings (size 3 to 8) (size 9 to 14) (size 15 to 20)
#    0.000    0.667    0.000    8.000    0.000   10.667 
#    0.000    0.000    0.000    0.000    0.000    0.000 
#    0.000    0.000    0.000    0.000    0.000    0.000 
#
# Total GULP energy -134624.330108 kJ/mol
# GULP energy per Si atom -5609.347088 kJ/mol
# Density = 2.379488 g / cm^3
# Si number density = 23.849157 Si / 1000 Ang^3
#
#
#
# Elastic Constant Matrix: (Units=GPa)
#
#
# Indices 1 2 3 4 5 6 
#
# 1 63.3793 -16.1618 -6.0180 0.0000 0.0000 0.0000
# 2 -16.1618 72.7670 38.7413 0.0000 0.0000 0.0000
# 3 -6.0180 38.7413 67.8541 0.0000 0.0000 0.0000
# 4 0.0000 0.0000 0.0000 20.0273 0.0000 0.0000
# 5 0.0000 0.0000 0.0000 0.0000 40.4306 0.0000
# 6 0.0000 0.0000 0.0000 0.0000 0.0000 27.1508
#
#
#
# Elastic Compliance Matrix: (Units=1/GPa)
#
#
# Indices 1 2 3 4 5 6 
#
# 1 0.016765 0.004212 -0.000918 0.000000 0.000000 0.000000
# 2 0.004212 0.020803 -0.011504 0.000000 0.000000 0.000000
# 3 -0.000918 -0.011504 0.021224 0.000000 0.000000 0.000000
# 4 0.000000 0.000000 0.000000 0.049932 0.000000 0.000000
# 5 0.000000 0.000000 0.000000 0.000000 0.024734 0.000000
# 6 0.000000 0.000000 0.000000 0.000000 0.000000 0.036831
#
#
# Mechanical properties :
#
#
# Convention : Reuss Voigt Hill
#
# Bulk Modulus (GPa) = 23.60002 26.34704 24.97353
# Shear Modulus (GPa) = 24.89643 30.01765 27.45704
#
# Velocity S-wave (km/s) = 3.23447 3.55159 3.39673
# Velocity P-wave (km/s) = 4.88529 5.28107 5.08703
#
# Compressibility (1/GPa) = 0.04237285
#
# Stress axis : x y z
#
# Youngs Moduli (GPa) = 59.64808 48.07075 47.11624
#
# Poissons Ratio (x) = -0.20249 0.04326
# Poissons Ratio (y) = -0.25126 0.54201
# Poissons Ratio (z) = 0.05477 0.55299
#
# Static dielectric constant tensor:
#      x y z
#    x 1.934300 0.000000 0.000000 
#    y 0.000000 1.845510 0.000000 
#    z 0.000000 0.000000 1.897740 
# 
# From -- ./inp_files/2842.got.cif
#   From: 2010.05.17/outbox.cif.g08.bks.cpg/sg19_2_cif.got.tgz:2842.got - 2010.06.03 22:46:19.
