data_PCOD9315658
_publ_section_title
;
Structure prediction by ZEFSAII (Michael W. Deem and Ramdas Pophale) SiO2 
 PCOD9315658
Probable space group: P 21 21 21
;
_chemical_formula_sum "Si O2"
_cell_formula_units_Z 28
_cell_length_a 4.977046
_cell_length_b 18.679590
_cell_length_c 12.175651
_cell_angle_alpha 90.000000
_cell_angle_beta 90.000000
_cell_angle_gamma 90.000000
_cell_volume 1131.960273
_symmetry_space_group_name_H-M "P 21 21 21"
_symmetry_group_IT_number 19
_symmetry_cell_setting 'orthorhombic'
loop_
_space_group_symop_operation_xyz
x,y,z
1/2-x,-y,1/2+z
1/2+x,1/2-y,-z
-x,1/2+y,1/2-z
loop_
_atom_site_type_symbol
_atom_site_label
_atom_site_fract_x
_atom_site_fract_y
_atom_site_fract_z
Si Si1 0.613538 0.473324 0.160493
Si Si2 0.473320 0.166494 0.808394
Si Si3 0.549170 0.475885 0.403154
Si Si4 0.270150 0.136763 0.359787
Si Si5 0.063141 0.381760 0.425630
Si Si6 0.232881 0.396031 0.995690
Si Si7 0.773587 0.181604 0.224303
O O1 0.811858 0.407190 0.177841
O O2 0.457447 0.481708 0.276000
O O3 0.744565 0.550104 0.138641
O O4 0.418339 0.449553 0.064171
O O5 0.604424 0.161857 0.687189
O O6 0.659396 0.165218 0.916003
O O7 0.286318 0.235316 0.806580
O O8 0.849046 0.445377 0.401154
O O9 0.512379 0.552911 0.457321
O O10 0.347032 0.417435 0.455476
O O11 0.412597 0.158816 0.474837
O O12 0.482324 0.159300 0.266392
O O13 0.986542 0.167030 0.321338
O O14 0.349510 0.363291 0.884339
#
# Coordination Sequence:
#
# PCOD9315658 Si02
#       7
#     4   4   4   4   4   4   4
#     4  11  25  44  79 107 150 190 258 302 381 438
#     4  11  29  48  74 110 151 206 246 310 381 459
#     4  11  23  41  71 114 137 188 239 321 362 439
#     4  12  27  48  75 110 146 199 251 321 362 445
#     4  11  24  45  76 104 147 184 261 302 376 431
#     4  12  26  45  77 107 154 194 247 313 378 450
#     4  12  32  47  74 110 161 197 250 303 388 450
#
# _framework density 24.735852999999999
#
# number of rings (size 3 to 8) (size 9 to 14) (size 15 to 20)
#    0.000    0.571    4.286    1.714   12.000    1.143 
#    0.000    0.000    0.000    0.000    0.000    0.000 
#    0.000    0.000    0.000    0.000    0.000    0.000 
#
# Total GULP energy -156756.489431 kJ/mol
# GULP energy per Si atom -5598.446051 kJ/mol
# Density = 2.467955 g / cm^3
# Si number density = 24.735853 Si / 1000 Ang^3
#
#
#
# Elastic Constant Matrix: (Units=GPa)
#
#
# Indices 1 2 3 4 5 6 
#
# 1 67.9859 2.7824 -2.9742 0.0000 0.0000 0.0000
# 2 2.7824 72.7983 6.9721 0.0000 0.0000 0.0000
# 3 -2.9742 6.9721 151.9778 0.0000 0.0000 0.0000
# 4 0.0000 0.0000 0.0000 20.5355 0.0000 0.0000
# 5 0.0000 0.0000 0.0000 0.0000 35.2032 0.0000
# 6 0.0000 0.0000 0.0000 0.0000 0.0000 25.8780
#
#
#
# Elastic Compliance Matrix: (Units=1/GPa)
#
#
# Indices 1 2 3 4 5 6 
#
# 1 0.014747 -0.000594 0.000316 0.000000 0.000000 0.000000
# 2 -0.000594 0.013821 -0.000646 0.000000 0.000000 0.000000
# 3 0.000316 -0.000646 0.006616 0.000000 0.000000 0.000000
# 4 0.000000 0.000000 0.000000 0.048696 0.000000 0.000000
# 5 0.000000 0.000000 0.000000 0.000000 0.028407 0.000000
# 6 0.000000 0.000000 0.000000 0.000000 0.000000 0.038643
#
#
# Mechanical properties :
#
#
# Convention : Reuss Voigt Hill
#
# Bulk Modulus (GPa) = 29.99721 34.03586 32.01653
# Shear Modulus (GPa) = 30.50844 35.38878 32.94861
#
# Velocity S-wave (km/s) = 3.51575 3.78652 3.65364
# Velocity P-wave (km/s) = 5.35107 5.73643 5.54710
#
# Compressibility (1/GPa) = 0.03333644
#
# Stress axis : x y z
#
# Youngs Moduli (GPa) = 67.81014 72.35298 151.15537
#
# Poissons Ratio (x) = 0.04297 -0.04774
# Poissons Ratio (y) = 0.04027 0.09760
# Poissons Ratio (z) = -0.02142 0.04672
#
# Static dielectric constant tensor:
#      x y z
#    x 1.975200 0.000000 0.000000 
#    y 0.000000 1.910840 0.000000 
#    z 0.000000 0.000000 2.073440 
# 
# From -- ./inp_files/4483.got.cif
#   From: 2010.05.17/outbox.cif.g08.bks.cpg/sg19_3_cif.got.tgz:4483.got - 2010.06.03 22:46:19.
