data_PCOD9315356
_publ_section_title
;
Structure prediction by ZEFSAII (Michael W. Deem and Ramdas Pophale) SiO2 
 PCOD9315356
Probable space group: P 21 21 21
;
_chemical_formula_sum "Si O2"
_cell_formula_units_Z 24
_cell_length_a 10.861012
_cell_length_b 11.870658
_cell_length_c 8.459114
_cell_angle_alpha 90.000000
_cell_angle_beta 90.000000
_cell_angle_gamma 90.000000
_cell_volume 1090.611227
_symmetry_space_group_name_H-M "P 21 21 21"
_symmetry_group_IT_number 19
_symmetry_cell_setting 'orthorhombic'
loop_
_space_group_symop_operation_xyz
x,y,z
1/2-x,-y,1/2+z
1/2+x,1/2-y,-z
-x,1/2+y,1/2-z
loop_
_atom_site_type_symbol
_atom_site_label
_atom_site_fract_x
_atom_site_fract_y
_atom_site_fract_z
Si Si1 0.360590 0.390499 0.124816
Si Si2 0.769862 0.553211 0.792266
Si Si3 0.991727 0.173815 0.568421
Si Si4 0.137477 0.861573 0.523550
Si Si5 0.590761 0.023267 0.876706
Si Si6 0.513699 0.574033 0.962716
O O1 0.471319 0.471410 0.071922
O O2 0.357281 0.272119 0.033503
O O3 0.385521 0.356858 0.305965
O O4 0.233829 0.455891 0.094814
O O5 0.780685 0.408456 0.122322
O O6 0.653743 0.568092 0.907185
O O7 0.881812 0.627197 0.858002
O O8 0.044495 0.603507 0.088231
O O9 0.813867 0.424029 0.818430
O O10 0.006603 0.304998 0.539133
O O11 0.997830 0.901639 0.488867
O O12 0.563353 0.059552 0.698508
#
# Coordination Sequence:
#
# PCOD9315356 Si02
#       6
#     4   4   4   4   4   4
#     4  12  27  43  76 107 146 183 248 300 369 434
#     4  10  24  46  71  98 145 187 242 295 363 432
#     4  11  27  45  74 107 144 192 245 304 359 439
#     4  10  25  44  71 104 139 194 240 302 362 431
#     4  10  26  47  67 104 142 189 239 302 366 427
#     4  11  27  45  73 104 144 193 238 301 367 425
#
# _framework density 22.006008000000001
#
# number of rings (size 3 to 8) (size 9 to 14) (size 15 to 20)
#    0.000    1.333    0.000    2.000   21.000    1.333 
#    0.000    0.000    0.000    0.000    0.000    0.000 
#    0.000    0.000    0.000    0.000    0.000    0.000 
#
# Total GULP energy -134288.541796 kJ/mol
# GULP energy per Si atom -5595.355908 kJ/mol
# Density = 2.195592 g / cm^3
# Si number density = 22.006008 Si / 1000 Ang^3
#
#
#
# Elastic Constant Matrix: (Units=GPa)
#
#
# Indices 1 2 3 4 5 6 
#
# 1 97.4729 37.9778 37.4312 0.0000 0.0000 0.0000
# 2 37.9778 159.6098 38.0432 0.0000 0.0000 0.0000
# 3 37.4312 38.0432 58.6744 0.0000 0.0000 0.0000
# 4 0.0000 0.0000 0.0000 28.3935 0.0000 0.0000
# 5 0.0000 0.0000 0.0000 0.0000 22.0716 0.0000
# 6 0.0000 0.0000 0.0000 0.0000 0.0000 18.2207
#
#
#
# Elastic Compliance Matrix: (Units=1/GPa)
#
#
# Indices 1 2 3 4 5 6 
#
# 1 0.013850 -0.001407 -0.007923 0.000000 0.000000 0.000000
# 2 -0.001407 0.007553 -0.004000 0.000000 0.000000 0.000000
# 3 -0.007923 -0.004000 0.024691 0.000000 0.000000 0.000000
# 4 0.000000 0.000000 0.000000 0.035219 0.000000 0.000000
# 5 0.000000 0.000000 0.000000 0.000000 0.045307 0.000000
# 6 0.000000 0.000000 0.000000 0.000000 0.000000 0.054883
#
#
# Mechanical properties :
#
#
# Convention : Reuss Voigt Hill
#
# Bulk Modulus (GPa) = 51.45518 60.29572 55.87545
# Shear Modulus (GPa) = 23.29453 27.22416 25.25934
#
# Velocity S-wave (km/s) = 3.25707 3.52109 3.39165
# Velocity P-wave (km/s) = 6.13007 6.63249 6.38622
#
# Compressibility (1/GPa) = 0.01943439
#
# Stress axis : x y z
#
# Youngs Moduli (GPa) = 72.20127 132.38997 40.49991
#
# Poissons Ratio (x) = 0.18627 0.32090
# Poissons Ratio (y) = 0.10159 0.16200
# Poissons Ratio (z) = 0.57208 0.52955
#
# Static dielectric constant tensor:
#      x y z
#    x 1.775380 0.000000 0.000000 
#    y 0.000000 1.776500 0.000000 
#    z 0.000000 0.000000 1.843040 
# 
# From -- ./inp_files/3373.got.cif
#   From: 2010.05.17/outbox.cif.g08.bks.cpg/sg19_2_cif.got.tgz:3373.got - 2010.06.03 22:46:19.
