data_PCOD9315131
_publ_section_title
;
Structure prediction by ZEFSAII (Michael W. Deem and Ramdas Pophale) SiO2 
 PCOD9315131
Probable space group: P 21 21 21
;
_chemical_formula_sum "Si O2"
_cell_formula_units_Z 32
_cell_length_a 17.782758
_cell_length_b 5.784114
_cell_length_c 13.281779
_cell_angle_alpha 90.000000
_cell_angle_beta 90.000000
_cell_angle_gamma 90.000000
_cell_volume 1366.130577
_symmetry_space_group_name_H-M "P 21 21 21"
_symmetry_group_IT_number 19
_symmetry_cell_setting 'orthorhombic'
loop_
_space_group_symop_operation_xyz
x,y,z
1/2-x,-y,1/2+z
1/2+x,1/2-y,-z
-x,1/2+y,1/2-z
loop_
_atom_site_type_symbol
_atom_site_label
_atom_site_fract_x
_atom_site_fract_y
_atom_site_fract_z
Si Si1 0.159394 0.829635 0.484855
Si Si2 0.027770 0.309048 0.287881
Si Si3 0.679522 0.387498 0.707254
Si Si4 0.739902 0.948618 0.071142
Si Si5 0.547574 0.823125 0.360864
Si Si6 0.097085 0.459705 0.835587
Si Si7 0.461655 0.171085 0.496082
Si Si8 0.195209 0.921377 0.075627
O O1 0.181945 0.570020 0.454355
O O2 0.093952 0.845494 0.566299
O O3 0.236388 0.928158 0.532408
O O4 0.143649 0.959007 0.381341
O O5 0.116516 0.300422 0.265808
O O6 0.001677 0.574159 0.267840
O O7 0.001323 0.258125 0.401401
O O8 0.747673 0.255697 0.652525
O O9 0.695553 0.539325 0.805120
O O10 0.678946 0.114600 0.124687
O O11 0.711507 0.835441 0.967097
O O12 0.468759 0.724902 0.319801
O O13 0.599270 0.901687 0.268827
O O14 0.521207 0.030156 0.431435
O O15 0.067805 0.625527 0.924699
O O16 0.387288 0.025275 0.529738
#
# Coordination Sequence:
#
# PCOD9315131 Si02
#       8
#     4   4   4   4   4   4   4   4
#     4  11  25  43  68 103 140 187 246 315 373 460
#     4  12  28  46  74 111 150 199 248 312 382 454
#     4  11  24  43  69 103 143 187 249 308 381 455
#     4  10  24  44  68 100 140 189 246 303 385 453
#     4  12  24  43  69 102 141 189 245 309 380 452
#     4  11  24  44  68 100 138 190 241 309 376 460
#     4  11  24  43  69  99 144 186 246 302 377 453
#     4  10  23  44  65 100 138 189 237 306 376 455
#
# _framework density 23.423821
#
# number of rings (size 3 to 8) (size 9 to 14) (size 15 to 20)
#    0.000    1.000    2.500    3.000    5.250    5.000 
#    2.250    0.000    0.000    0.000    0.000    0.000 
#    0.000    0.000    0.000    0.000    0.000    0.000 
#
# Total GULP energy -178776.647412 kJ/mol
# GULP energy per Si atom -5586.770232 kJ/mol
# Density = 2.337051 g / cm^3
# Si number density = 23.423821 Si / 1000 Ang^3
#
#
#
# Elastic Constant Matrix: (Units=GPa)
#
#
# Indices 1 2 3 4 5 6 
#
# 1 54.5638 3.4725 -3.7263 0.0000 0.0000 0.0000
# 2 3.4725 31.9632 9.6194 0.0000 0.0000 0.0000
# 3 -3.7263 9.6194 90.7862 0.0000 0.0000 0.0000
# 4 0.0000 0.0000 0.0000 26.0066 0.0000 0.0000
# 5 0.0000 0.0000 0.0000 0.0000 35.1731 0.0000
# 6 0.0000 0.0000 0.0000 0.0000 0.0000 35.2223
#
#
#
# Elastic Compliance Matrix: (Units=1/GPa)
#
#
# Indices 1 2 3 4 5 6 
#
# 1 0.018543 -0.002318 0.001007 0.000000 0.000000 0.000000
# 2 -0.002318 0.032606 -0.003550 0.000000 0.000000 0.000000
# 3 0.001007 -0.003550 0.011432 0.000000 0.000000 0.000000
# 4 0.000000 0.000000 0.000000 0.038452 0.000000 0.000000
# 5 0.000000 0.000000 0.000000 0.000000 0.028431 0.000000
# 6 0.000000 0.000000 0.000000 0.000000 0.000000 0.028391
#
#
# Mechanical properties :
#
#
# Convention : Reuss Voigt Hill
#
# Bulk Modulus (GPa) = 18.91779 21.78269 20.35024
# Shear Modulus (GPa) = 26.99823 30.47691 28.73757
#
# Velocity S-wave (km/s) = 3.39868 3.61100 3.50645
# Velocity P-wave (km/s) = 4.84718 5.16772 5.01001
#
# Compressibility (1/GPa) = 0.05286030
#
# Stress axis : x y z
#
# Youngs Moduli (GPa) = 53.92750 30.66906 87.47106
#
# Poissons Ratio (x) = 0.07108 -0.08806
# Poissons Ratio (y) = 0.12498 0.31052
# Poissons Ratio (z) = -0.05429 0.10887
#
# Static dielectric constant tensor:
#      x y z
#    x 1.926140 0.000000 0.000000 
#    y 0.000000 1.952990 0.000000 
#    z 0.000000 0.000000 1.841640 
# 
# From -- ./inp_files/5523.got.cif
#   From: 2010.05.17/outbox.cif.g08.bks.cpg/sg19_3_cif.got.tgz:5523.got - 2010.06.03 22:46:19.
