data_PCOD9315268
_publ_section_title
;
Structure prediction by ZEFSAII (Michael W. Deem and Ramdas Pophale) SiO2 
 PCOD9315268
Probable space group: P 21 21 21
;
_chemical_formula_sum "Si O2"
_cell_formula_units_Z 28
_cell_length_a 5.021899
_cell_length_b 22.386001
_cell_length_c 8.757783
_cell_angle_alpha 90.000000
_cell_angle_beta 90.000000
_cell_angle_gamma 90.000000
_cell_volume 984.552032
_symmetry_space_group_name_H-M "P 21 21 21"
_symmetry_group_IT_number 19
_symmetry_cell_setting 'orthorhombic'
loop_
_space_group_symop_operation_xyz
x,y,z
1/2-x,-y,1/2+z
1/2+x,1/2-y,-z
-x,1/2+y,1/2-z
loop_
_atom_site_type_symbol
_atom_site_label
_atom_site_fract_x
_atom_site_fract_y
_atom_site_fract_z
Si Si1 0.953156 0.024913 0.834080
Si Si2 0.504759 0.288830 0.962980
Si Si3 0.418839 0.618790 0.602071
Si Si4 0.547748 0.235660 0.395402
Si Si5 0.067063 0.643628 0.169231
Si Si6 0.665484 0.355443 0.330396
Si Si7 0.775542 0.557983 0.373276
O O1 0.060276 0.085094 0.751366
O O2 0.657534 0.049030 0.865511
O O3 0.046788 0.972959 0.724660
O O4 0.085148 0.016410 0.000354
O O5 0.324300 0.344439 0.027166
O O6 0.291764 0.234915 0.982561
O O7 0.543756 0.304600 0.782472
O O8 0.535002 0.644999 0.760817
O O9 0.642647 0.611266 0.471768
O O10 0.805806 0.257524 0.491055
O O11 0.630855 0.168716 0.349569
O O12 0.531929 0.291836 0.281333
O O13 0.997898 0.584035 0.260135
O O14 0.928653 0.636776 0.005147
#
# Coordination Sequence:
#
# PCOD9315268 Si02
#       7
#     4   4   4   4   4   4   4
#     4  11  25  49  75 109 153 209 268 342 414 488
#     4  12  27  48  84 118 167 221 270 344 417 501
#     4  11  26  47  77 114 157 210 278 335 428 488
#     4  10  24  42  69 112 159 201 253 319 395 477
#     4  11  24  47  75 113 154 207 266 329 405 482
#     4  10  25  46  72 112 155 203 268 337 399 495
#     4  11  25  49  74 110 157 205 277 340 416 499
#
# _framework density 28.439332
#
# number of rings (size 3 to 8) (size 9 to 14) (size 15 to 20)
#    0.000    1.143    1.429    2.571    8.000    8.000 
#    2.571    0.000    0.000    0.000    0.000    0.000 
#    0.000    0.000    0.000    0.000    0.000    0.000 
#
# Total GULP energy -156638.112204 kJ/mol
# GULP energy per Si atom -5594.218293 kJ/mol
# Density = 2.837460 g / cm^3
# Si number density = 28.439332 Si / 1000 Ang^3
#
#
#
# Elastic Constant Matrix: (Units=GPa)
#
#
# Indices 1 2 3 4 5 6 
#
# 1 115.4073 4.3946 33.4364 0.0000 0.0000 0.0000
# 2 4.3946 85.5522 20.4286 0.0000 0.0000 0.0000
# 3 33.4364 20.4286 167.5192 0.0000 0.0000 0.0000
# 4 0.0000 0.0000 0.0000 61.6499 0.0000 0.0000
# 5 0.0000 0.0000 0.0000 0.0000 34.7462 0.0000
# 6 0.0000 0.0000 0.0000 0.0000 0.0000 38.2726
#
#
#
# Elastic Compliance Matrix: (Units=1/GPa)
#
#
# Indices 1 2 3 4 5 6 
#
# 1 0.009197 -0.000035 -0.001831 0.000000 0.000000 0.000000
# 2 -0.000035 0.012039 -0.001461 0.000000 0.000000 0.000000
# 3 -0.001831 -0.001461 0.006513 0.000000 0.000000 0.000000
# 4 0.000000 0.000000 0.000000 0.016221 0.000000 0.000000
# 5 0.000000 0.000000 0.000000 0.000000 0.028780 0.000000
# 6 0.000000 0.000000 0.000000 0.000000 0.000000 0.026128
#
#
# Mechanical properties :
#
#
# Convention : Reuss Voigt Hill
#
# Bulk Modulus (GPa) = 47.40637 53.88866 50.64752
# Shear Modulus (GPa) = 44.41859 47.61501 46.01680
#
# Velocity S-wave (km/s) = 3.95634 4.09622 4.02689
# Velocity P-wave (km/s) = 6.12990 6.43131 6.28241
#
# Compressibility (1/GPa) = 0.02109421
#
# Stress axis : x y z
#
# Youngs Moduli (GPa) = 108.73224 83.06003 153.53445
#
# Poissons Ratio (x) = 0.00292 0.28118
# Poissons Ratio (y) = 0.00382 0.22434
# Poissons Ratio (z) = 0.19913 0.12137
#
# Static dielectric constant tensor:
#      x y z
#    x 2.355880 0.000000 0.000000 
#    y 0.000000 2.377670 0.000000 
#    z 0.000000 0.000000 2.293110 
# 
# From -- ./inp_files/2443.got.cif
#   From: 2010.05.17/outbox.cif.g08.bks.cpg/sg19_2_cif.got.tgz:2443.got - 2010.06.03 22:46:19.
