data_PCOD9315558
_publ_section_title
;
Structure prediction by ZEFSAII (Michael W. Deem and Ramdas Pophale) SiO2 
 PCOD9315558
Probable space group: P 21 21 21
;
_chemical_formula_sum "Si O2"
_cell_formula_units_Z 20
_cell_length_a 7.336553
_cell_length_b 8.523933
_cell_length_c 11.985588
_cell_angle_alpha 90.000000
_cell_angle_beta 90.000000
_cell_angle_gamma 90.000000
_cell_volume 749.534162
_symmetry_space_group_name_H-M "P 21 21 21"
_symmetry_group_IT_number 19
_symmetry_cell_setting 'orthorhombic'
loop_
_space_group_symop_operation_xyz
x,y,z
1/2-x,-y,1/2+z
1/2+x,1/2-y,-z
-x,1/2+y,1/2-z
loop_
_atom_site_type_symbol
_atom_site_label
_atom_site_fract_x
_atom_site_fract_y
_atom_site_fract_z
Si Si1 0.295735 0.643899 0.542931
Si Si2 0.966031 0.342477 0.413279
Si Si3 0.751298 0.287797 0.727784
Si Si4 0.308759 0.054319 0.948328
Si Si5 0.127762 0.333408 0.637310
O O1 0.318163 0.757197 0.649551
O O2 0.237630 0.760193 0.444444
O O3 0.483450 0.562786 0.512208
O O4 0.161298 0.511509 0.594015
O O5 0.836165 0.473063 0.468221
O O6 0.824646 0.239219 0.342132
O O7 0.151747 0.353095 0.342033
O O8 0.042141 0.258862 0.524640
O O9 0.697933 0.450057 0.664683
O O10 0.970742 0.298319 0.725447
#
# Coordination Sequence:
#
# PCOD9315558 Si02
#       5
#     4   4   4   4   4
#     4  12  27  50  76 116 161 198 269 327 387 473
#     4  11  21  44  78 103 153 194 254 307 397 454
#     4  11  26  46  77 112 152 206 254 315 390 469
#     4  11  25  48  75 111 154 207 252 330 390 455
#     4  11  21  46  72 110 146 203 251 315 388 453
#
# _framework density 26.683237999999999
#
# number of rings (size 3 to 8) (size 9 to 14) (size 15 to 20)
#    0.000    0.800    6.000    2.400    2.800    1.600 
#    7.200    0.000    0.000    0.000    0.000    0.000 
#    0.000    0.000    0.000    0.000    0.000    0.000 
#
# Total GULP energy -111635.572538 kJ/mol
# GULP energy per Si atom -5581.778627 kJ/mol
# Density = 2.662251 g / cm^3
# Si number density = 26.683238 Si / 1000 Ang^3
#
#
#
# Elastic Constant Matrix: (Units=GPa)
#
#
# Indices 1 2 3 4 5 6 
#
# 1 163.3460 68.1913 23.5342 0.0000 0.0000 0.0000
# 2 68.1913 127.9170 32.3767 0.0000 0.0000 0.0000
# 3 23.5342 32.3767 67.3151 0.0000 0.0000 0.0000
# 4 0.0000 0.0000 0.0000 26.2299 0.0000 0.0000
# 5 0.0000 0.0000 0.0000 0.0000 13.0973 0.0000
# 6 0.0000 0.0000 0.0000 0.0000 0.0000 56.0905
#
#
#
# Elastic Compliance Matrix: (Units=1/GPa)
#
#
# Indices 1 2 3 4 5 6 
#
# 1 0.007916 -0.004007 -0.000840 0.000000 0.000000 0.000000
# 2 -0.004007 0.010930 -0.003856 0.000000 0.000000 0.000000
# 3 -0.000840 -0.003856 0.017004 0.000000 0.000000 0.000000
# 4 0.000000 0.000000 0.000000 0.038124 0.000000 0.000000
# 5 0.000000 0.000000 0.000000 0.000000 0.076352 0.000000
# 6 0.000000 0.000000 0.000000 0.000000 0.000000 0.017828
#
#
# Mechanical properties :
#
#
# Convention : Reuss Voigt Hill
#
# Bulk Modulus (GPa) = 54.22146 67.42026 60.82086
# Shear Modulus (GPa) = 26.08133 34.71528 30.39830
#
# Velocity S-wave (km/s) = 3.12980 3.61087 3.37891
# Velocity P-wave (km/s) = 5.78147 6.53500 6.16975
#
# Compressibility (1/GPa) = 0.01844288
#
# Stress axis : x y z
#
# Youngs Moduli (GPa) = 126.32795 91.49336 58.81038
#
# Poissons Ratio (x) = 0.36664 0.04941
# Poissons Ratio (y) = 0.50623 0.22677
# Poissons Ratio (z) = 0.10613 0.35279
#
# Static dielectric constant tensor:
#      x y z
#    x 2.102110 0.000000 0.000000 
#    y 0.000000 2.363460 0.000000 
#    z 0.000000 0.000000 2.086520 
# 
# From -- ./inp_files/5809.got.cif
#   From: 2010.05.17/outbox.cif.g08.bks.cpg/sg19_3_cif.got.tgz:5809.got - 2010.06.03 22:46:19.
