data_PCOD9315446
_publ_section_title
;
Structure prediction by ZEFSAII (Michael W. Deem and Ramdas Pophale) SiO2 
 PCOD9315446
Probable space group: P 21 21 21
;
_chemical_formula_sum "Si O2"
_cell_formula_units_Z 32
_cell_length_a 12.935367
_cell_length_b 11.426532
_cell_length_c 9.037787
_cell_angle_alpha 90.000000
_cell_angle_beta 90.000000
_cell_angle_gamma 90.000000
_cell_volume 1335.842624
_symmetry_space_group_name_H-M "P 21 21 21"
_symmetry_group_IT_number 19
_symmetry_cell_setting 'orthorhombic'
loop_
_space_group_symop_operation_xyz
x,y,z
1/2-x,-y,1/2+z
1/2+x,1/2-y,-z
-x,1/2+y,1/2-z
loop_
_atom_site_type_symbol
_atom_site_label
_atom_site_fract_x
_atom_site_fract_y
_atom_site_fract_z
Si Si1 0.551030 0.434257 0.322805
Si Si2 0.562371 0.772675 0.955305
Si Si3 0.490459 0.512687 0.999437
Si Si4 0.743257 0.959939 0.592282
Si Si5 0.243063 0.665151 0.698066
Si Si6 0.751736 0.276644 0.264218
Si Si7 0.901447 0.328014 0.993831
Si Si8 0.936960 0.682740 0.327103
O O1 0.472371 0.352478 0.410740
O O2 0.502849 0.480191 0.170120
O O3 0.652422 0.356083 0.290150
O O4 0.579294 0.547019 0.421534
O O5 0.679944 0.742697 0.911438
O O6 0.513744 0.831730 0.809652
O O7 0.506137 0.648657 0.976078
O O8 0.380312 0.471788 0.934828
O O9 0.576533 0.439973 0.909022
O O10 0.783491 0.923367 0.431145
O O11 0.772570 0.852511 0.699642
O O12 0.775587 0.080738 0.665057
O O13 0.151003 0.740834 0.625840
O O14 0.332807 0.758310 0.727229
O O15 0.823940 0.332203 0.134718
O O16 0.005422 0.268056 0.055940
#
# Coordination Sequence:
#
# PCOD9315446 Si02
#       8
#     4   4   4   4   4   4   4   4
#     4  12  30  46  78 115 155 199 256 326 379 460
#     4  11  27  47  76 110 147 204 260 307 385 466
#     4  12  25  49  69 113 151 192 255 318 380 461
#     4  11  24  46  73 105 146 197 251 315 379 459
#     4  11  24  45  76 107 145 201 249 319 382 463
#     4  10  25  49  73 110 151 199 257 303 392 452
#     4  10  25  49  71 108 149 202 244 315 391 452
#     4  11  24  47  76 100 150 200 254 307 392 445
#
# _framework density 23.954915
#
# number of rings (size 3 to 8) (size 9 to 14) (size 15 to 20)
#    0.000    1.000    5.000    1.500   12.250    1.000 
#    4.500    0.000    0.000    0.000    0.000    0.000 
#    0.000    0.000    0.000    0.000    0.000    0.000 
#
# Total GULP energy -179357.324713 kJ/mol
# GULP energy per Si atom -5604.916397 kJ/mol
# Density = 2.390039 g / cm^3
# Si number density = 23.954915 Si / 1000 Ang^3
#
#
#
# Elastic Constant Matrix: (Units=GPa)
#
#
# Indices 1 2 3 4 5 6 
#
# 1 56.2477 29.0906 13.6623 0.0000 0.0000 0.0000
# 2 29.0906 140.1146 57.5648 0.0000 0.0000 0.0000
# 3 13.6623 57.5648 81.8243 0.0000 0.0000 0.0000
# 4 0.0000 0.0000 0.0000 44.2407 0.0000 0.0000
# 5 0.0000 0.0000 0.0000 0.0000 27.8447 0.0000
# 6 0.0000 0.0000 0.0000 0.0000 0.0000 9.8800
#
#
#
# Elastic Compliance Matrix: (Units=1/GPa)
#
#
# Indices 1 2 3 4 5 6 
#
# 1 0.019937 -0.003898 -0.000586 0.000000 0.000000 0.000000
# 2 -0.003898 0.010801 -0.006948 0.000000 0.000000 0.000000
# 3 -0.000586 -0.006948 0.017207 0.000000 0.000000 0.000000
# 4 0.000000 0.000000 0.000000 0.022604 0.000000 0.000000
# 5 0.000000 0.000000 0.000000 0.000000 0.035913 0.000000
# 6 0.000000 0.000000 0.000000 0.000000 0.000000 0.101214
#
#
# Mechanical properties :
#
#
# Convention : Reuss Voigt Hill
#
# Bulk Modulus (GPa) = 39.87217 53.20246 46.53731
# Shear Modulus (GPa) = 20.92915 28.25101 24.59008
#
# Velocity S-wave (km/s) = 2.95903 3.43788 3.20740
# Velocity P-wave (km/s) = 5.32497 6.16574 5.76071
#
# Compressibility (1/GPa) = 0.02508015
#
# Stress axis : x y z
#
# Youngs Moduli (GPa) = 50.15762 92.58603 58.11610
#
# Poissons Ratio (x) = 0.36095 0.03407
# Poissons Ratio (y) = 0.19554 0.40377
# Poissons Ratio (z) = 0.02941 0.64325
#
# Static dielectric constant tensor:
#      x y z
#    x 1.913270 0.000000 0.000000 
#    y 0.000000 1.868930 0.000000 
#    z 0.000000 0.000000 1.921600 
# 
# From -- ./inp_files/3947.got.cif
#   From: 2010.05.17/outbox.cif.g08.bks.cpg/sg19_2_cif.got.tgz:3947.got - 2010.06.03 22:46:19.
