data_PCOD9315868
_publ_section_title
;
Structure prediction by ZEFSAII (Michael W. Deem and Ramdas Pophale) SiO2 
 PCOD9315868
Probable space group: P 21 21 21
;
_chemical_formula_sum "Si O2"
_cell_formula_units_Z 24
_cell_length_a 8.317060
_cell_length_b 14.180468
_cell_length_c 7.871449
_cell_angle_alpha 90.000000
_cell_angle_beta 90.000000
_cell_angle_gamma 90.000000
_cell_volume 928.357146
_symmetry_space_group_name_H-M "P 21 21 21"
_symmetry_group_IT_number 19
_symmetry_cell_setting 'orthorhombic'
loop_
_space_group_symop_operation_xyz
x,y,z
1/2-x,-y,1/2+z
1/2+x,1/2-y,-z
-x,1/2+y,1/2-z
loop_
_atom_site_type_symbol
_atom_site_label
_atom_site_fract_x
_atom_site_fract_y
_atom_site_fract_z
Si Si1 0.149145 0.484130 0.592876
Si Si2 0.382181 0.166168 0.168708
Si Si3 0.594598 0.462978 0.397645
Si Si4 0.407793 0.130852 0.568945
Si Si5 0.226136 0.329382 0.989675
Si Si6 0.580024 0.842514 0.824382
O O1 0.279264 0.565165 0.561229
O O2 0.246463 0.387634 0.624458
O O3 0.041716 0.522385 0.751572
O O4 0.037174 0.453809 0.434289
O O5 0.377141 0.143715 0.367254
O O6 0.562730 0.192284 0.109741
O O7 0.343399 0.069013 0.071435
O O8 0.262736 0.249759 0.125524
O O9 0.746268 0.401446 0.337603
O O10 0.534999 0.409481 0.566287
O O11 0.454485 0.234736 0.626761
O O12 0.388383 0.336984 0.875884
#
# Coordination Sequence:
#
# PCOD9315868 Si02
#       6
#     4   4   4   4   4   4
#     4  11  24  50  72 104 150 188 243 307 371 439
#     4  11  27  49  68 111 144 193 247 302 372 433
#     4  11  25  46  74 104 146 192 246 303 365 446
#     4  11  26  45  77 103 149 189 247 302 364 453
#     4  12  27  44  76 103 149 191 242 311 365 439
#     4  12  23  46  71 109 142 197 241 297 375 436
#
# _framework density 25.852121
#
# number of rings (size 3 to 8) (size 9 to 14) (size 15 to 20)
#    0.000    0.667    5.000    2.000    7.000    4.000 
#    3.000    0.000    0.000    0.000    0.000    0.000 
#    0.000    0.000    0.000    0.000    0.000    0.000 
#
# Total GULP energy -134211.025157 kJ/mol
# GULP energy per Si atom -5592.126048 kJ/mol
# Density = 2.579328 g / cm^3
# Si number density = 25.852121 Si / 1000 Ang^3
#
#
#
# Elastic Constant Matrix: (Units=GPa)
#
#
# Indices 1 2 3 4 5 6 
#
# 1 92.2280 32.4442 19.1828 0.0000 0.0000 0.0000
# 2 32.4442 143.7065 16.8625 0.0000 0.0000 0.0000
# 3 19.1828 16.8625 66.9292 0.0000 0.0000 0.0000
# 4 0.0000 0.0000 0.0000 24.1744 0.0000 0.0000
# 5 0.0000 0.0000 0.0000 0.0000 29.7887 0.0000
# 6 0.0000 0.0000 0.0000 0.0000 0.0000 -174.1680
#
#
#
# Elastic Compliance Matrix: (Units=1/GPa)
#
#
# Indices 1 2 3 4 5 6 
#
# 1 0.012306 -0.002436 -0.002913 0.000000 0.000000 0.000000
# 2 -0.002436 0.007653 -0.001230 0.000000 0.000000 0.000000
# 3 -0.002913 -0.001230 0.016086 0.000000 0.000000 0.000000
# 4 0.000000 0.000000 0.000000 0.041366 0.000000 0.000000
# 5 0.000000 0.000000 0.000000 0.000000 0.033570 0.000000
# 6 0.000000 0.000000 0.000000 0.000000 0.000000 -0.005742
#
#
# Mechanical properties :
#
#
# Convention : Reuss Voigt Hill
#
# Bulk Modulus (GPa) = 43.69500 48.87141 46.28320
# Shear Modulus (GPa) = 39.67426 -8.41604 15.62911
#
# Velocity S-wave (km/s) = 3.92173 -1.80625 2.46144
# Velocity P-wave (km/s) = 6.11925 3.82037 5.10100
#
# Compressibility (1/GPa) = 0.02288592
#
# Stress axis : x y z
#
# Youngs Moduli (GPa) = 81.26325 130.66780 62.16598
#
# Poissons Ratio (x) = 0.31836 0.18110
# Poissons Ratio (y) = 0.19799 0.07645
# Poissons Ratio (z) = 0.23673 0.16070
#
# Static dielectric constant tensor:
#      x y z
#    x 2.086110 0.000000 0.000000 
#    y 0.000000 2.036290 0.000000 
#    z 0.000000 0.000000 2.086070 
# 
# From -- ./inp_files/2834.got.cif
#   From: 2010.05.17/outbox.cif.g08.bks.cpg/sg19_2_cif.got.tgz:2834.got - 2010.06.03 22:46:19.
