data_PCOD9315940
_publ_section_title
;
Structure prediction by ZEFSAII (Michael W. Deem and Ramdas Pophale) SiO2 
 PCOD9315940
Probable space group: P 21 21 21
;
_chemical_formula_sum "Si O2"
_cell_formula_units_Z 20
_cell_length_a 7.891885
_cell_length_b 9.372233
_cell_length_c 10.228349
_cell_angle_alpha 90.000000
_cell_angle_beta 90.000000
_cell_angle_gamma 90.000000
_cell_volume 756.535589
_symmetry_space_group_name_H-M "P 21 21 21"
_symmetry_group_IT_number 19
_symmetry_cell_setting 'orthorhombic'
loop_
_space_group_symop_operation_xyz
x,y,z
1/2-x,-y,1/2+z
1/2+x,1/2-y,-z
-x,1/2+y,1/2-z
loop_
_atom_site_type_symbol
_atom_site_label
_atom_site_fract_x
_atom_site_fract_y
_atom_site_fract_z
Si Si1 0.330040 0.773002 0.949920
Si Si2 0.523582 0.048788 0.052929
Si Si3 0.110805 0.987770 0.822299
Si Si4 0.606220 0.847495 0.525238
Si Si5 0.367365 0.215090 0.702318
O O1 0.176849 0.831718 0.861839
O O2 0.456288 0.674811 0.868497
O O3 0.254655 0.724623 0.087982
O O4 0.437821 0.915332 0.982939
O O5 0.525955 0.018370 0.207253
O O6 0.408690 0.188348 0.033753
O O7 0.708669 0.087933 0.002743
O O8 0.263833 0.083063 0.763216
O O9 0.035589 0.063935 0.949320
O O10 0.588236 0.822134 0.680571
#
# Coordination Sequence:
#
# PCOD9315940 Si02
#       5
#     4   4   4   4   4
#     4  11  27  48  73 109 152 203 259 318 378 457
#     4  11  26  45  75 107 149 207 246 326 381 457
#     4  11  27  49  76 111 156 197 262 316 388 461
#     4  12  25  48  76 111 150 199 261 315 390 458
#     4  11  27  48  74 110 151 204 254 319 379 459
#
# _framework density 26.436298000000001
#
# number of rings (size 3 to 8) (size 9 to 14) (size 15 to 20)
#    0.000    0.800    4.000    0.000   14.000    0.000 
#    0.000    0.000    0.000    0.000    0.000    0.000 
#    0.000    0.000    0.000    0.000    0.000    0.000 
#
# Total GULP energy -112240.848134 kJ/mol
# GULP energy per Si atom -5612.042407 kJ/mol
# Density = 2.637613 g / cm^3
# Si number density = 26.436298 Si / 1000 Ang^3
#
#
#
# Elastic Constant Matrix: (Units=GPa)
#
#
# Indices 1 2 3 4 5 6 
#
# 1 112.5448 39.1899 57.5473 0.0000 0.0000 0.0000
# 2 39.1899 99.3192 45.4920 0.0000 0.0000 0.0000
# 3 57.5473 45.4920 126.8711 0.0000 0.0000 0.0000
# 4 0.0000 0.0000 0.0000 31.1011 0.0000 0.0000
# 5 0.0000 0.0000 0.0000 0.0000 51.5769 0.0000
# 6 0.0000 0.0000 0.0000 0.0000 0.0000 48.5862
#
#
#
# Elastic Compliance Matrix: (Units=1/GPa)
#
#
# Indices 1 2 3 4 5 6 
#
# 1 0.012152 -0.002716 -0.004538 0.000000 0.000000 0.000000
# 2 -0.002716 0.012654 -0.003305 0.000000 0.000000 0.000000
# 3 -0.004538 -0.003305 0.011126 0.000000 0.000000 0.000000
# 4 0.000000 0.000000 0.000000 0.032153 0.000000 0.000000
# 5 0.000000 0.000000 0.000000 0.000000 0.019389 0.000000
# 6 0.000000 0.000000 0.000000 0.000000 0.000000 0.020582
#
#
# Mechanical properties :
#
#
# Convention : Reuss Voigt Hill
#
# Bulk Modulus (GPa) = 67.51097 69.24372 68.37735
# Shear Modulus (GPa) = 37.28242 39.35325 38.31783
#
# Velocity S-wave (km/s) = 3.75944 3.86243 3.81128
# Velocity P-wave (km/s) = 6.66612 6.79270 6.72970
#
# Compressibility (1/GPa) = 0.01481241
#
# Stress axis : x y z
#
# Youngs Moduli (GPa) = 82.29419 79.02415 89.88348
#
# Poissons Ratio (x) = 0.21466 0.40787
# Poissons Ratio (y) = 0.22354 0.29710
# Poissons Ratio (z) = 0.37343 0.26120
#
# Static dielectric constant tensor:
#      x y z
#    x 2.080370 0.000000 0.000000 
#    y 0.000000 2.054780 0.000000 
#    z 0.000000 0.000000 2.025630 
# 
# From -- ./inp_files/2612.got.cif
#   From: 2010.05.17/outbox.cif.g08.bks.cpg/sg19_2_cif.got.tgz:2612.got - 2010.06.03 22:46:19.
