data_PCOD9315194
_publ_section_title
;
Structure prediction by ZEFSAII (Michael W. Deem and Ramdas Pophale) SiO2 
 PCOD9315194
Probable space group: P 21 21 21
;
_chemical_formula_sum "Si O2"
_cell_formula_units_Z 32
_cell_length_a 14.469463
_cell_length_b 5.015205
_cell_length_c 17.082832
_cell_angle_alpha 90.000000
_cell_angle_beta 90.000000
_cell_angle_gamma 90.000000
_cell_volume 1239.655391
_symmetry_space_group_name_H-M "P 21 21 21"
_symmetry_group_IT_number 19
_symmetry_cell_setting 'orthorhombic'
loop_
_space_group_symop_operation_xyz
x,y,z
1/2-x,-y,1/2+z
1/2+x,1/2-y,-z
-x,1/2+y,1/2-z
loop_
_atom_site_type_symbol
_atom_site_label
_atom_site_fract_x
_atom_site_fract_y
_atom_site_fract_z
Si Si1 0.054460 0.820268 0.281178
Si Si2 0.047150 0.174461 0.775238
Si Si3 0.726992 0.757584 0.106096
Si Si4 0.410035 0.933689 0.951470
Si Si5 0.860065 0.764878 0.527196
Si Si6 0.478481 0.524987 0.063919
Si Si7 0.204289 0.730731 0.579530
Si Si8 0.241356 0.055040 0.735824
O O1 0.060209 0.918619 0.371617
O O2 0.159557 0.808768 0.248166
O O3 0.998194 0.043639 0.232291
O O4 0.151525 0.233443 0.751918
O O5 0.008161 0.949643 0.715620
O O6 0.033316 0.004050 0.854613
O O7 0.833133 0.786963 0.078086
O O8 0.683072 0.519767 0.053705
O O9 0.733162 0.663512 0.195052
O O10 0.667310 0.019430 0.091928
O O11 0.481318 0.768205 0.004432
O O12 0.349637 0.113294 0.010505
O O13 0.802767 0.863906 0.452572
O O14 0.967672 0.708173 0.516764
O O15 0.372861 0.493784 0.092405
O O16 0.226075 0.912697 0.653387
#
# Coordination Sequence:
#
# PCOD9315194 Si02
#       8
#     4   4   4   4   4   4   4   4
#     4  11  29  54  81 112 148 206 266 317 378 451
#     4  12  27  45  71 112 151 194 246 301 384 457
#     4  10  23  46  66  99 142 192 236 292 371 437
#     4  10  25  47  74 102 154 190 247 313 375 437
#     4  11  25  42  69 100 141 190 242 294 369 437
#     4  12  25  42  75 103 150 195 243 308 372 458
#     4  11  25  47  71 110 148 192 252 308 380 449
#     4  11  25  47  77 110 154 197 252 321 381 462
#
# _framework density 25.813625999999999
#
# number of rings (size 3 to 8) (size 9 to 14) (size 15 to 20)
#    0.000    1.000    3.750    0.750    7.000    4.000 
#    4.500    0.000    0.000    0.000    0.000    0.000 
#    0.000    0.000    0.000    0.000    0.000    0.000 
#
# Total GULP energy -179063.710072 kJ/mol
# GULP energy per Si atom -5595.740940 kJ/mol
# Density = 2.575487 g / cm^3
# Si number density = 25.813626 Si / 1000 Ang^3
#
#
#
# Elastic Constant Matrix: (Units=GPa)
#
#
# Indices 1 2 3 4 5 6 
#
# 1 132.5138 26.1630 26.7166 0.0000 0.0000 0.0000
# 2 26.1630 96.8482 -17.2553 0.0000 0.0000 0.0000
# 3 26.7166 -17.2553 86.8053 0.0000 0.0000 0.0000
# 4 0.0000 0.0000 0.0000 32.2135 0.0000 0.0000
# 5 0.0000 0.0000 0.0000 0.0000 25.9404 0.0000
# 6 0.0000 0.0000 0.0000 0.0000 0.0000 22.1847
#
#
#
# Elastic Compliance Matrix: (Units=1/GPa)
#
#
# Indices 1 2 3 4 5 6 
#
# 1 0.008796 -0.002964 -0.003296 0.000000 0.000000 0.000000
# 2 -0.002964 0.011703 0.003238 0.000000 0.000000 0.000000
# 3 -0.003296 0.003238 0.013178 0.000000 0.000000 0.000000
# 4 0.000000 0.000000 0.000000 0.031043 0.000000 0.000000
# 5 0.000000 0.000000 0.000000 0.000000 0.038550 0.000000
# 6 0.000000 0.000000 0.000000 0.000000 0.000000 0.045076
#
#
# Mechanical properties :
#
#
# Convention : Reuss Voigt Hill
#
# Bulk Modulus (GPa) = 36.18651 43.04622 39.61636
# Shear Modulus (GPa) = 30.56224 34.77059 32.66641
#
# Velocity S-wave (km/s) = 3.44460 3.67411 3.56121
# Velocity P-wave (km/s) = 5.46527 5.89159 5.68243
#
# Compressibility (1/GPa) = 0.02763461
#
# Stress axis : x y z
#
# Youngs Moduli (GPa) = 113.68717 85.44820 75.88234
#
# Poissons Ratio (x) = 0.25323 0.25013
# Poissons Ratio (y) = 0.33691 -0.24574
# Poissons Ratio (z) = 0.37475 -0.27672
#
# Static dielectric constant tensor:
#      x y z
#    x 2.204310 0.000000 0.000000 
#    y 0.000000 2.336070 0.000000 
#    z 0.000000 0.000000 2.117040 
# 
# From -- ./inp_files/6786.got.cif
#   From: 2010.05.17/outbox.cif.g08.bks.cpg/sg19_4_cif.got.tgz:6786.got - 2010.06.03 22:46:19.
