data_PCOD9315556
_publ_section_title
;
Structure prediction by ZEFSAII (Michael W. Deem and Ramdas Pophale) SiO2 
 PCOD9315556
Probable space group: P 21 21 21
;
_chemical_formula_sum "Si O2"
_cell_formula_units_Z 24
_cell_length_a 5.787788
_cell_length_b 12.673537
_cell_length_c 13.183948
_cell_angle_alpha 90.000000
_cell_angle_beta 90.000000
_cell_angle_gamma 90.000000
_cell_volume 967.065597
_symmetry_space_group_name_H-M "P 21 21 21"
_symmetry_group_IT_number 19
_symmetry_cell_setting 'orthorhombic'
loop_
_space_group_symop_operation_xyz
x,y,z
1/2-x,-y,1/2+z
1/2+x,1/2-y,-z
-x,1/2+y,1/2-z
loop_
_atom_site_type_symbol
_atom_site_label
_atom_site_fract_x
_atom_site_fract_y
_atom_site_fract_z
Si Si1 0.455648 0.522809 0.411561
Si Si2 0.589487 0.098097 0.512201
Si Si3 0.881149 0.253950 0.940607
Si Si4 0.576952 0.365833 0.233753
Si Si5 0.689197 0.457609 0.623079
Si Si6 0.868918 0.228125 0.363203
O O1 0.190044 0.512265 0.447402
O O2 0.570270 0.633278 0.387580
O O3 0.476471 0.438309 0.322472
O O4 0.583271 0.486139 0.513852
O O5 0.440589 0.080297 0.411672
O O6 0.774977 0.182101 0.469771
O O7 0.471953 0.159588 0.603687
O O8 0.899407 0.164351 0.854772
O O9 0.125169 0.244691 0.007109
O O10 0.781354 0.436534 0.185991
O O11 0.679841 0.259351 0.281278
O O12 0.545687 0.362237 0.671773
#
# Coordination Sequence:
#
# PCOD9315556 Si02
#       6
#     4   4   4   4   4   4
#     4  11  26  46  75 110 150 204 262 321 396 480
#     4  11  21  44  72 101 149 194 252 335 385 460
#     4  12  29  56  79 113 166 215 258 335 411 471
#     4  12  27  47  75 115 149 208 265 322 396 485
#     4  11  24  48  70 105 155 195 253 330 394 456
#     4  11  23  41  73 108 139 196 260 315 392 466
#
# _framework density 24.817347000000002
#
# number of rings (size 3 to 8) (size 9 to 14) (size 15 to 20)
#    0.000    0.667    5.000    2.000    2.333    4.000 
#    3.000    0.000    0.000    0.000    0.000    0.000 
#    0.000    0.000    0.000    0.000    0.000    0.000 
#
# Total GULP energy -134095.305683 kJ/mol
# GULP energy per Si atom -5587.304403 kJ/mol
# Density = 2.476086 g / cm^3
# Si number density = 24.817347 Si / 1000 Ang^3
#
#
#
# Elastic Constant Matrix: (Units=GPa)
#
#
# Indices 1 2 3 4 5 6 
#
# 1 60.1078 7.4380 27.4059 0.0000 0.0000 0.0000
# 2 7.4380 70.8410 24.5992 0.0000 0.0000 0.0000
# 3 27.4059 24.5992 104.6360 0.0000 0.0000 0.0000
# 4 0.0000 0.0000 0.0000 43.7967 0.0000 0.0000
# 5 0.0000 0.0000 0.0000 0.0000 -10.1979 0.0000
# 6 0.0000 0.0000 0.0000 0.0000 0.0000 29.2025
#
#
#
# Elastic Compliance Matrix: (Units=1/GPa)
#
#
# Indices 1 2 3 4 5 6 
#
# 1 0.018898 -0.000289 -0.004882 0.000000 0.000000 0.000000
# 2 -0.000289 0.015375 -0.003539 0.000000 0.000000 0.000000
# 3 -0.004882 -0.003539 0.011668 0.000000 0.000000 0.000000
# 4 0.000000 0.000000 0.000000 0.022833 0.000000 0.000000
# 5 0.000000 0.000000 0.000000 0.000000 -0.098059 0.000000
# 6 0.000000 0.000000 0.000000 0.000000 0.000000 0.034244
#
#
# Mechanical properties :
#
#
# Convention : Reuss Voigt Hill
#
# Bulk Modulus (GPa) = 35.06109 39.38565 37.22337
# Shear Modulus (GPa) = 156.81300 24.30305 90.55803
#
# Velocity S-wave (km/s) = 7.95764 3.13273 6.04723
# Velocity P-wave (km/s) = 9.92927 5.38424 7.98688
#
# Compressibility (1/GPa) = 0.02852165
#
# Stress axis : x y z
#
# Youngs Moduli (GPa) = 52.91458 65.03917 85.70783
#
# Poissons Ratio (x) = 0.01880 0.41841
# Poissons Ratio (y) = 0.01530 0.30331
# Poissons Ratio (z) = 0.25832 0.23017
#
# Static dielectric constant tensor:
#      x y z
#    x 2.200670 0.000000 0.000000 
#    y 0.000000 1.981130 0.000000 
#    z 0.000000 0.000000 1.948640 
# 
# From -- ./inp_files/5637.got.cif
#   From: 2010.05.17/outbox.cif.g08.bks.cpg/sg19_3_cif.got.tgz:5637.got - 2010.06.03 22:46:19.
