data_PCOD9315825
_publ_section_title
;
Structure prediction by ZEFSAII (Michael W. Deem and Ramdas Pophale) SiO2 
 PCOD9315825
Probable space group: P 21 21 21
;
_chemical_formula_sum "Si O2"
_cell_formula_units_Z 16
_cell_length_a 13.310175
_cell_length_b 9.118654
_cell_length_c 5.133806
_cell_angle_alpha 90.000000
_cell_angle_beta 90.000000
_cell_angle_gamma 90.000000
_cell_volume 623.094555
_symmetry_space_group_name_H-M "P 21 21 21"
_symmetry_group_IT_number 19
_symmetry_cell_setting 'orthorhombic'
loop_
_space_group_symop_operation_xyz
x,y,z
1/2-x,-y,1/2+z
1/2+x,1/2-y,-z
-x,1/2+y,1/2-z
loop_
_atom_site_type_symbol
_atom_site_label
_atom_site_fract_x
_atom_site_fract_y
_atom_site_fract_z
Si Si1 0.908479 0.415510 0.184499
Si Si2 0.312008 0.648419 0.003228
Si Si3 0.687992 0.351582 0.003228
Si Si4 0.591521 0.915510 0.815502
O O1 0.802698 0.406757 0.035410
O O2 0.881474 0.509646 0.442380
O O3 0.937964 0.250000 0.249999
O O4 1.000000 0.500000 0.051934
O O5 0.336205 0.749999 0.250001
O O6 0.197302 0.593245 0.035408
O O7 0.317146 0.750001 0.750001
O O8 0.381473 0.509647 0.942377
#
# Coordination Sequence:
#
# PCOD9315825 Si02
#       4
#     4   4   4   4
#     4  11  24  46  75 108 146 193 242 298 365 433
#     4  11  25  50  76 104 147 193 244 304 360 427
#     4  11  25  50  76 104 147 193 244 304 360 427
#     4  11  24  46  75 108 146 193 242 298 365 433
#
# _framework density 25.678287000000001
#
# number of rings (size 3 to 8) (size 9 to 14) (size 15 to 20)
#    0.000    1.000    0.000    7.500    0.000    0.000 
#    0.000   75.000    0.000    0.000    0.000    0.000 
#    0.000    0.000    0.000    0.000    0.000    0.000 
#
# Total GULP energy -89789.848409 kJ/mol
# GULP energy per Si atom -5611.865526 kJ/mol
# Density = 2.561984 g / cm^3
# Si number density = 25.678287 Si / 1000 Ang^3
#
#
#
# Elastic Constant Matrix: (Units=GPa)
#
#
# Indices 1 2 3 4 5 6 
#
# 1 136.5740 82.8699 33.3023 0.0000 0.0000 0.0000
# 2 82.8699 234.7418 76.1432 0.0000 0.0000 0.0000
# 3 33.3023 76.1432 169.3024 0.0000 0.0000 0.0000
# 4 0.0000 0.0000 0.0000 47.0932 0.0000 0.0000
# 5 0.0000 0.0000 0.0000 0.0000 29.6961 0.0000
# 6 0.0000 0.0000 0.0000 0.0000 0.0000 42.9708
#
#
#
# Elastic Compliance Matrix: (Units=1/GPa)
#
#
# Indices 1 2 3 4 5 6 
#
# 1 0.009343 -0.003164 -0.000415 0.000000 0.000000 0.000000
# 2 -0.003164 0.006059 -0.002103 0.000000 0.000000 0.000000
# 3 -0.000415 -0.002103 0.006934 0.000000 0.000000 0.000000
# 4 0.000000 0.000000 0.000000 0.021234 0.000000 0.000000
# 5 0.000000 0.000000 0.000000 0.000000 0.033675 0.000000
# 6 0.000000 0.000000 0.000000 0.000000 0.000000 0.023272
#
#
# Mechanical properties :
#
#
# Convention : Reuss Voigt Hill
#
# Bulk Modulus (GPa) = 91.13186 102.80544 96.96865
# Shear Modulus (GPa) = 43.27638 47.17220 45.22429
#
# Velocity S-wave (km/s) = 4.10973 4.29073 4.20120
# Velocity P-wave (km/s) = 7.62147 8.04176 7.83443
#
# Compressibility (1/GPa) = 0.01097311
#
# Stress axis : x y z
#
# Youngs Moduli (GPa) = 107.03361 165.04632 144.21958
#
# Poissons Ratio (x) = 0.52215 0.05984
# Poissons Ratio (y) = 0.33862 0.30325
# Poissons Ratio (z) = 0.04441 0.34704
#
# Static dielectric constant tensor:
#      x y z
#    x 1.987360 0.000000 0.000000 
#    y 0.000000 2.021760 0.000000 
#    z 0.000000 0.000000 1.991400 
# 
# From -- ./inp_files/1361.got.cif
#   From: 2010.05.17/outbox.cif.g08.bks.cpg/sg19_1_cif.got.tgz:1361.got - 2010.06.03 22:46:19.
