data_PCOD9315540
_publ_section_title
;
Structure prediction by ZEFSAII (Michael W. Deem and Ramdas Pophale) SiO2 
 PCOD9315540
Probable space group: P 21 21 21
;
_chemical_formula_sum "Si O2"
_cell_formula_units_Z 24
_cell_length_a 8.192507
_cell_length_b 8.862774
_cell_length_c 12.716166
_cell_angle_alpha 90.000000
_cell_angle_beta 90.000000
_cell_angle_gamma 90.000000
_cell_volume 923.299679
_symmetry_space_group_name_H-M "P 21 21 21"
_symmetry_group_IT_number 19
_symmetry_cell_setting 'orthorhombic'
loop_
_space_group_symop_operation_xyz
x,y,z
1/2-x,-y,1/2+z
1/2+x,1/2-y,-z
-x,1/2+y,1/2-z
loop_
_atom_site_type_symbol
_atom_site_label
_atom_site_fract_x
_atom_site_fract_y
_atom_site_fract_z
Si Si1 0.506663 0.403835 0.768494
Si Si2 0.295874 0.173002 0.668719
Si Si3 0.213756 0.452463 0.450087
Si Si4 0.020205 0.786521 0.886654
Si Si5 0.275087 0.968641 0.457527
Si Si6 0.924349 0.808252 0.444109
O O1 0.417094 0.318077 0.673373
O O2 0.620989 0.548679 0.756690
O O3 0.371857 0.465162 0.851865
O O4 0.598881 0.271478 0.831507
O O5 0.118073 0.238284 0.696248
O O6 0.275019 0.079398 0.560472
O O7 0.366098 0.354895 0.411064
O O8 0.089160 0.346352 0.514422
O O9 0.283196 0.575701 0.529410
O O10 0.146290 0.922738 0.869470
O O11 0.400658 0.831792 0.476672
O O12 0.097744 0.891479 0.453969
#
# Coordination Sequence:
#
# PCOD9315540 Si02
#       6
#     4   4   4   4   4   4
#     4  11  26  46  66 101 138 183 224 284 355 402
#     4  11  25  46  65 102 137 182 225 282 353 403
#     4  12  21  42  70 100 134 176 236 278 332 407
#     4  12  22  41  71 100 133 179 234 279 333 406
#     4  11  21  42  72 103 132 183 228 283 329 412
#     4  11  21  41  72 100 138 175 233 276 330 412
#
# _framework density 25.993727
#
# number of rings (size 3 to 8) (size 9 to 14) (size 15 to 20)
#    0.000    0.667    8.333    0.000    2.333    0.000 
#    3.000    0.000    0.000    0.000    0.000    0.000 
#    0.000    0.000    0.000    0.000    0.000    0.000 
#
# Total GULP energy -134260.868354 kJ/mol
# GULP energy per Si atom -5594.202848 kJ/mol
# Density = 2.593456 g / cm^3
# Si number density = 25.993727 Si / 1000 Ang^3
#
#
#
# Elastic Constant Matrix: (Units=GPa)
#
#
# Indices 1 2 3 4 5 6 
#
# 1 128.6252 47.8729 30.9049 0.0000 0.0000 0.0000
# 2 47.8729 134.5185 55.0525 0.0000 0.0000 0.0000
# 3 30.9049 55.0525 59.6144 0.0000 0.0000 0.0000
# 4 0.0000 0.0000 0.0000 40.9974 0.0000 0.0000
# 5 0.0000 0.0000 0.0000 0.0000 35.5459 0.0000
# 6 0.0000 0.0000 0.0000 0.0000 0.0000 78.0114
#
#
#
# Elastic Compliance Matrix: (Units=1/GPa)
#
#
# Indices 1 2 3 4 5 6 
#
# 1 0.009248 -0.002137 -0.002821 0.000000 0.000000 0.000000
# 2 -0.002137 0.012444 -0.010384 0.000000 0.000000 0.000000
# 3 -0.002821 -0.010384 0.027827 0.000000 0.000000 0.000000
# 4 0.000000 0.000000 0.000000 0.024392 0.000000 0.000000
# 5 0.000000 0.000000 0.000000 0.000000 0.028133 0.000000
# 6 0.000000 0.000000 0.000000 0.000000 0.000000 0.012819
#
#
# Mechanical properties :
#
#
# Convention : Reuss Voigt Hill
#
# Bulk Modulus (GPa) = 53.09374 65.60208 59.34791
# Shear Modulus (GPa) = 32.93308 43.50609 38.21958
#
# Velocity S-wave (km/s) = 3.56330 4.09554 3.83866
# Velocity P-wave (km/s) = 6.11551 6.90341 6.52137
#
# Compressibility (1/GPa) = 0.01883461
#
# Stress axis : x y z
#
# Youngs Moduli (GPa) = 108.13699 80.35942 35.93692
#
# Poissons Ratio (x) = 0.17169 0.10138
# Poissons Ratio (y) = 0.23104 0.37318
# Poissons Ratio (z) = 0.30506 0.83447
#
# Static dielectric constant tensor:
#      x y z
#    x 2.075360 0.000000 0.000000 
#    y 0.000000 2.029620 0.000000 
#    z 0.000000 0.000000 2.100600 
# 
# From -- ./inp_files/5844.got.cif
#   From: 2010.05.17/outbox.cif.g08.bks.cpg/sg19_3_cif.got.tgz:5844.got - 2010.06.03 22:46:19.
