data_PCOD9315029
_publ_section_title
;
Structure prediction by ZEFSAII (Michael W. Deem and Ramdas Pophale) SiO2 
 PCOD9315029
Probable space group: P 21 21 21
;
_chemical_formula_sum "Si O2"
_cell_formula_units_Z 28
_cell_length_a 22.875835
_cell_length_b 8.779148
_cell_length_c 5.248816
_cell_angle_alpha 90.000000
_cell_angle_beta 90.000000
_cell_angle_gamma 90.000000
_cell_volume 1054.121508
_symmetry_space_group_name_H-M "P 21 21 21"
_symmetry_group_IT_number 19
_symmetry_cell_setting 'orthorhombic'
loop_
_space_group_symop_operation_xyz
x,y,z
1/2-x,-y,1/2+z
1/2+x,1/2-y,-z
-x,1/2+y,1/2-z
loop_
_atom_site_type_symbol
_atom_site_label
_atom_site_fract_x
_atom_site_fract_y
_atom_site_fract_z
Si Si1 0.529709 0.681009 0.450666
Si Si2 0.688833 0.327806 0.335001
Si Si3 0.878597 0.399759 0.585851
Si Si4 0.922670 0.882152 0.834230
Si Si5 0.510111 0.448138 0.807103
Si Si6 0.342298 0.412558 0.494257
Si Si7 0.765771 0.820836 0.324343
O O1 0.590087 0.693833 0.312353
O O2 0.475937 0.716570 0.271263
O O3 0.522773 0.507551 0.529105
O O4 0.511199 0.775431 0.695931
O O5 0.668096 0.488966 0.218553
O O6 0.630152 0.230414 0.387678
O O7 0.719613 0.306841 0.608506
O O8 0.725233 0.248925 0.105308
O O9 0.855969 0.259653 0.411404
O O10 0.929519 0.501361 0.451512
O O11 0.897049 0.995030 0.618225
O O12 0.953454 0.978643 0.054665
O O13 0.309435 0.532217 0.679867
O O14 0.296702 0.384418 0.261307
#
# Coordination Sequence:
#
# PCOD9315029 Si02
#       7
#     4   4   4   4   4   4   4
#     4  11  25  41  65 108 145 192 253 306 372 469
#     4  11  26  48  74 107 152 200 243 325 386 449
#     4  11  26  46  72 108 154 197 256 309 398 453
#     4  10  23  41  66  95 147 186 242 295 378 439
#     4  11  25  41  66 106 144 197 246 310 368 472
#     4  11  24  50  75 107 143 203 254 322 375 465
#     4  11  27  49  76 109 149 195 266 315 379 453
#
# _framework density 26.562401999999999
#
# number of rings (size 3 to 8) (size 9 to 14) (size 15 to 20)
#    0.000    1.143    2.857    1.714   10.000    1.143 
#    5.143    0.000    0.000    0.000    0.000    0.000 
#    0.000    0.000    0.000    0.000    0.000    0.000 
#
# Total GULP energy -156556.252463 kJ/mol
# GULP energy per Si atom -5591.294731 kJ/mol
# Density = 2.650194 g / cm^3
# Si number density = 26.562402 Si / 1000 Ang^3
#
#
#
# Elastic Constant Matrix: (Units=GPa)
#
#
# Indices 1 2 3 4 5 6 
#
# 1 96.9504 38.5492 51.4599 0.0000 0.0000 0.0000
# 2 38.5492 124.8855 8.7137 0.0000 0.0000 0.0000
# 3 51.4599 8.7137 76.8205 0.0000 0.0000 0.0000
# 4 0.0000 0.0000 0.0000 36.9458 0.0000 0.0000
# 5 0.0000 0.0000 0.0000 0.0000 37.4501 0.0000
# 6 0.0000 0.0000 0.0000 0.0000 0.0000 34.9681
#
#
#
# Elastic Compliance Matrix: (Units=1/GPa)
#
#
# Indices 1 2 3 4 5 6 
#
# 1 0.018573 -0.004904 -0.011885 0.000000 0.000000 0.000000
# 2 -0.004904 0.009366 0.002222 0.000000 0.000000 0.000000
# 3 -0.011885 0.002222 0.020727 0.000000 0.000000 0.000000
# 4 0.000000 0.000000 0.000000 0.027067 0.000000 0.000000
# 5 0.000000 0.000000 0.000000 0.000000 0.026702 0.000000
# 6 0.000000 0.000000 0.000000 0.000000 0.000000 0.028597
#
#
# Mechanical properties :
#
#
# Convention : Reuss Voigt Hill
#
# Bulk Modulus (GPa) = 51.19612 55.12245 53.15928
# Shear Modulus (GPa) = 29.99836 35.20170 32.60003
#
# Velocity S-wave (km/s) = 3.36423 3.64434 3.50708
# Velocity P-wave (km/s) = 5.86570 6.20527 6.03788
#
# Compressibility (1/GPa) = 0.01953273
#
# Stress axis : x y z
#
# Youngs Moduli (GPa) = 53.84199 106.76998 48.24669
#
# Poissons Ratio (x) = 0.52357 0.57342
# Poissons Ratio (y) = 0.26403 -0.10723
# Poissons Ratio (z) = 0.63992 -0.23730
#
# Static dielectric constant tensor:
#      x y z
#    x 2.068630 0.000000 0.000000 
#    y 0.000000 2.227560 0.000000 
#    z 0.000000 0.000000 2.030340 
# 
# From -- ./inp_files/2125.got.cif
#   From: 2010.05.17/outbox.cif.g08.bks.cpg/sg19_2_cif.got.tgz:2125.got - 2010.06.03 22:46:19.
