data_PCOD9315991
_publ_section_title
;
Structure prediction by ZEFSAII (Michael W. Deem and Ramdas Pophale) SiO2 
 PCOD9315991
Probable space group: P 21 21 21
;
_chemical_formula_sum "Si O2"
_cell_formula_units_Z 20
_cell_length_a 9.645636
_cell_length_b 10.399409
_cell_length_c 8.062357
_cell_angle_alpha 90.000000
_cell_angle_beta 90.000000
_cell_angle_gamma 90.000000
_cell_volume 808.726274
_symmetry_space_group_name_H-M "P 21 21 21"
_symmetry_group_IT_number 19
_symmetry_cell_setting 'orthorhombic'
loop_
_space_group_symop_operation_xyz
x,y,z
1/2-x,-y,1/2+z
1/2+x,1/2-y,-z
-x,1/2+y,1/2-z
loop_
_atom_site_type_symbol
_atom_site_label
_atom_site_fract_x
_atom_site_fract_y
_atom_site_fract_z
Si Si1 0.687830 0.447965 0.325767
Si Si2 0.118484 0.753616 0.344658
Si Si3 0.887168 0.620649 0.182011
Si Si4 0.142125 0.476972 0.300677
Si Si5 0.410889 0.414328 0.135797
O O1 0.777488 0.364752 0.196958
O O2 0.773677 0.580962 0.318643
O O3 0.684535 0.382197 0.504906
O O4 0.532897 0.450610 0.258768
O O5 0.205454 0.623920 0.301787
O O6 0.062471 0.714721 0.526372
O O7 0.980473 0.744709 0.227585
O O8 0.992749 0.008593 0.310838
O O9 0.266477 0.395046 0.230486
O O10 0.100200 0.474121 0.494033
#
# Coordination Sequence:
#
# PCOD9315991 Si02
#       5
#     4   4   4   4   4
#     4  12  20  44  65  92 128 162 220 247 315 380
#     4   8  23  40  59  95 125 163 208 252 319 366
#     4   9  22  39  64  88 123 166 199 268 303 366
#     4   8  18  41  56  93 121 160 205 245 324 347
#     4   9  19  36  66  86 123 167 200 262 303 363
#
# _framework density 24.730246999999999
#
# number of rings (size 3 to 8) (size 9 to 14) (size 15 to 20)
#    2.400    0.000    0.000    3.600    0.000    1.600 
#   10.800    4.000    0.000    0.000    0.000    0.000 
#    0.000    0.000    0.000    0.000    0.000    0.000 
#
# Total GULP energy -111375.640997 kJ/mol
# GULP energy per Si atom -5568.782050 kJ/mol
# Density = 2.467396 g / cm^3
# Si number density = 24.730247 Si / 1000 Ang^3
#
#
#
# Elastic Constant Matrix: (Units=GPa)
#
#
# Indices 1 2 3 4 5 6 
#
# 1 114.6107 -0.5217 7.0376 0.0000 0.0000 0.0000
# 2 -0.5217 19.5125 -6.2825 0.0000 0.0000 0.0000
# 3 7.0376 -6.2825 70.3609 0.0000 0.0000 0.0000
# 4 0.0000 0.0000 0.0000 19.5169 0.0000 0.0000
# 5 0.0000 0.0000 0.0000 0.0000 42.5515 0.0000
# 6 0.0000 0.0000 0.0000 0.0000 0.0000 11.4135
#
#
#
# Elastic Compliance Matrix: (Units=1/GPa)
#
#
# Indices 1 2 3 4 5 6 
#
# 1 0.008779 -0.000049 -0.000883 0.000000 0.000000 0.000000
# 2 -0.000049 0.052766 0.004716 0.000000 0.000000 0.000000
# 3 -0.000883 0.004716 0.014722 0.000000 0.000000 0.000000
# 4 0.000000 0.000000 0.000000 0.051238 0.000000 0.000000
# 5 0.000000 0.000000 0.000000 0.000000 0.023501 0.000000
# 6 0.000000 0.000000 0.000000 0.000000 0.000000 0.087615
#
#
# Mechanical properties :
#
#
# Convention : Reuss Voigt Hill
#
# Bulk Modulus (GPa) = 11.92799 22.77234 17.35016
# Shear Modulus (GPa) = 19.30517 28.31310 23.80913
#
# Velocity S-wave (km/s) = 2.79701 3.38727 3.10619
# Velocity P-wave (km/s) = 3.90701 4.95242 4.46045
#
# Compressibility (1/GPa) = 0.08383642
#
# Stress axis : x y z
#
# Youngs Moduli (GPa) = 113.90620 18.95142 67.92636
#
# Poissons Ratio (x) = 0.00094 0.05995
# Poissons Ratio (y) = 0.00563 -0.32037
# Poissons Ratio (z) = 0.10052 -0.08938
#
# Static dielectric constant tensor:
#      x y z
#    x 1.892880 0.000000 0.000000 
#    y 0.000000 2.257850 0.000000 
#    z 0.000000 0.000000 1.957680 
# 
# From -- ./inp_files/2619.got.cif
#   From: 2010.05.17/outbox.cif.g08.bks.cpg/sg19_2_cif.got.tgz:2619.got - 2010.06.03 22:46:19.
