data_PCOD9315393
_publ_section_title
;
Structure prediction by ZEFSAII (Michael W. Deem and Ramdas Pophale) SiO2 
 PCOD9315393
Probable space group: P 21 21 21
;
_chemical_formula_sum "Si O2"
_cell_formula_units_Z 20
_cell_length_a 5.231336
_cell_length_b 5.119503
_cell_length_c 26.690259
_cell_angle_alpha 90.000000
_cell_angle_beta 90.000000
_cell_angle_gamma 90.000000
_cell_volume 714.814255
_symmetry_space_group_name_H-M "P 21 21 21"
_symmetry_group_IT_number 19
_symmetry_cell_setting 'orthorhombic'
loop_
_space_group_symop_operation_xyz
x,y,z
1/2-x,-y,1/2+z
1/2+x,1/2-y,-z
-x,1/2+y,1/2-z
loop_
_atom_site_type_symbol
_atom_site_label
_atom_site_fract_x
_atom_site_fract_y
_atom_site_fract_z
Si Si1 0.821530 0.205201 0.530966
Si Si2 0.707469 0.211576 0.849488
Si Si3 0.141774 0.803170 0.414865
Si Si4 0.234465 0.965087 0.306880
Si Si5 0.667613 0.239453 0.299768
O O1 0.107740 0.225006 0.510787
O O2 0.759786 0.420144 0.573098
O O3 0.753318 0.921282 0.551960
O O4 0.363198 0.253558 0.854842
O O5 0.573280 0.950937 0.817417
O O6 0.781583 0.503820 0.834429
O O7 0.964978 0.046765 0.832415
O O8 0.832136 0.819449 0.410700
O O9 0.232683 0.799866 0.256284
O O10 0.354081 0.248188 0.287844
#
# Coordination Sequence:
#
# PCOD9315393 Si02
#       5
#     4   4   4   4   4
#     4  12  27  51  81 108 149 193 255 328 414 484
#     4  10  25  41  68  96 153 190 252 303 369 450
#     4  10  26  47  71 111 143 190 249 324 387 475
#     4  10  26  41  68 106 153 193 269 297 378 452
#     4  12  22  42  68 103 146 216 241 314 364 443
#
# _framework density 27.979296999999999
#
# number of rings (size 3 to 8) (size 9 to 14) (size 15 to 20)
#    1.200    0.000    0.000    4.800    0.000   12.800 
#    0.000    0.000    0.000    0.000    0.000    0.000 
#    0.000    0.000    0.000    0.000    0.000    0.000 
#
# Total GULP energy -111483.181560 kJ/mol
# GULP energy per Si atom -5574.159078 kJ/mol
# Density = 2.791561 g / cm^3
# Si number density = 27.979297 Si / 1000 Ang^3
#
#
#
# Elastic Constant Matrix: (Units=GPa)
#
#
# Indices 1 2 3 4 5 6 
#
# 1 182.5447 61.2548 17.2021 0.0000 0.0000 0.0000
# 2 61.2548 133.2082 10.9020 0.0000 0.0000 0.0000
# 3 17.2021 10.9020 54.6436 0.0000 0.0000 0.0000
# 4 0.0000 0.0000 0.0000 60.6946 0.0000 0.0000
# 5 0.0000 0.0000 0.0000 0.0000 55.7300 0.0000
# 6 0.0000 0.0000 0.0000 0.0000 0.0000 60.4686
#
#
#
# Elastic Compliance Matrix: (Units=1/GPa)
#
#
# Indices 1 2 3 4 5 6 
#
# 1 0.006596 -0.002911 -0.001496 0.000000 0.000000 0.000000
# 2 -0.002911 0.008916 -0.000863 0.000000 0.000000 0.000000
# 3 -0.001496 -0.000863 0.018943 0.000000 0.000000 0.000000
# 4 0.000000 0.000000 0.000000 0.016476 0.000000 0.000000
# 5 0.000000 0.000000 0.000000 0.000000 0.017944 0.000000
# 6 0.000000 0.000000 0.000000 0.000000 0.000000 0.016538
#
#
# Mechanical properties :
#
#
# Convention : Reuss Voigt Hill
#
# Bulk Modulus (GPa) = 41.81050 61.01268 51.41159
# Shear Modulus (GPa) = 48.11283 54.11449 51.11366
#
# Velocity S-wave (km/s) = 4.15129 4.40260 4.27879
# Velocity P-wave (km/s) = 6.16063 6.90634 6.54412
#
# Compressibility (1/GPa) = 0.02391744
#
# Stress axis : x y z
#
# Youngs Moduli (GPa) = 151.61309 112.15722 52.78900
#
# Poissons Ratio (x) = 0.32644 0.07896
# Poissons Ratio (y) = 0.44128 0.04553
# Poissons Ratio (z) = 0.22676 0.09674
#
# Static dielectric constant tensor:
#      x y z
#    x 2.215760 0.000000 0.000000 
#    y 0.000000 2.124230 0.000000 
#    z 0.000000 0.000000 2.146990 
# 
# From -- ./inp_files/7433.got.cif
#   From: 2010.05.17/outbox.cif.g08.bks.cpg/sg19_4_cif.got.tgz:7433.got - 2010.06.03 22:46:19.
