data_PCOD9315831
_publ_section_title
;
Structure prediction by ZEFSAII (Michael W. Deem and Ramdas Pophale) SiO2 
 PCOD9315831
Probable space group: P 21 21 21
;
_chemical_formula_sum "Si O2"
_cell_formula_units_Z 20
_cell_length_a 5.470807
_cell_length_b 16.032521
_cell_length_c 9.444141
_cell_angle_alpha 90.000000
_cell_angle_beta 90.000000
_cell_angle_gamma 90.000000
_cell_volume 828.353428
_symmetry_space_group_name_H-M "P 21 21 21"
_symmetry_group_IT_number 19
_symmetry_cell_setting 'orthorhombic'
loop_
_space_group_symop_operation_xyz
x,y,z
1/2-x,-y,1/2+z
1/2+x,1/2-y,-z
-x,1/2+y,1/2-z
loop_
_atom_site_type_symbol
_atom_site_label
_atom_site_fract_x
_atom_site_fract_y
_atom_site_fract_z
Si Si1 0.864587 0.209920 0.054133
Si Si2 0.879508 0.125122 0.551919
Si Si3 0.266127 0.076155 0.310626
Si Si4 0.120825 0.273033 0.670812
Si Si5 0.541690 0.977201 0.546195
O O1 0.845556 0.220337 0.222879
O O2 0.624960 0.257278 0.997909
O O3 0.839555 0.112342 0.020739
O O4 0.031845 0.178445 0.663197
O O5 0.696001 0.193634 0.483675
O O6 0.050283 0.095332 0.422636
O O7 0.730240 0.045967 0.604101
O O8 0.417681 0.160481 0.279662
O O9 0.438534 0.014545 0.400513
O O10 0.163194 0.038007 0.166114
#
# Coordination Sequence:
#
# PCOD9315831 Si02
#       5
#     4   4   4   4   4
#     4  12  29  52  80 113 167 209 257 330 402 474
#     4  11  24  46  81 107 149 206 265 322 396 475
#     4  11  25  49  78 108 161 197 268 332 393 471
#     4  11  24  49  74 110 149 206 258 324 392 473
#     4  11  28  50  77 116 154 210 264 336 393 477
#
# _framework density 24.144283000000001
#
# number of rings (size 3 to 8) (size 9 to 14) (size 15 to 20)
#    0.000    0.800    4.000    1.200    5.600    3.200 
#    3.600    0.000    0.000    0.000    0.000    0.000 
#    0.000    0.000    0.000    0.000    0.000    0.000 
#
# Total GULP energy -112098.795530 kJ/mol
# GULP energy per Si atom -5604.939777 kJ/mol
# Density = 2.408933 g / cm^3
# Si number density = 24.144283 Si / 1000 Ang^3
#
#
#
# Elastic Constant Matrix: (Units=GPa)
#
#
# Indices 1 2 3 4 5 6 
#
# 1 71.5302 31.7738 15.3900 0.0000 0.0000 0.0000
# 2 31.7738 144.9489 23.6276 0.0000 0.0000 0.0000
# 3 15.3900 23.6276 68.2948 0.0000 0.0000 0.0000
# 4 0.0000 0.0000 0.0000 25.1840 0.0000 0.0000
# 5 0.0000 0.0000 0.0000 0.0000 61.5498 0.0000
# 6 0.0000 0.0000 0.0000 0.0000 0.0000 42.8574
#
#
#
# Elastic Compliance Matrix: (Units=1/GPa)
#
#
# Indices 1 2 3 4 5 6 
#
# 1 0.015886 -0.003072 -0.002517 0.000000 0.000000 0.000000
# 2 -0.003072 0.007905 -0.002043 0.000000 0.000000 0.000000
# 3 -0.002517 -0.002043 0.015916 0.000000 0.000000 0.000000
# 4 0.000000 0.000000 0.000000 0.039708 0.000000 0.000000
# 5 0.000000 0.000000 0.000000 0.000000 0.016247 0.000000
# 6 0.000000 0.000000 0.000000 0.000000 0.000000 0.023333
#
#
# Mechanical properties :
#
#
# Convention : Reuss Voigt Hill
#
# Bulk Modulus (GPa) = 40.90944 47.37300 44.14122
# Shear Modulus (GPa) = 35.11046 40.18374 37.64710
#
# Velocity S-wave (km/s) = 3.81753 4.08403 3.95302
# Velocity P-wave (km/s) = 6.03422 6.47321 6.25757
#
# Compressibility (1/GPa) = 0.02444423
#
# Stress axis : x y z
#
# Youngs Moduli (GPa) = 62.94735 126.49616 62.82859
#
# Poissons Ratio (x) = 0.38861 0.15815
# Poissons Ratio (y) = 0.19338 0.12834
# Poissons Ratio (z) = 0.15844 0.25839
#
# Static dielectric constant tensor:
#      x y z
#    x 1.953230 0.000000 0.000000 
#    y 0.000000 1.894480 0.000000 
#    z 0.000000 0.000000 1.923720 
# 
# From -- ./inp_files/2379.got.cif
#   From: 2010.05.17/outbox.cif.g08.bks.cpg/sg19_2_cif.got.tgz:2379.got - 2010.06.03 22:46:19.
