data_PCOD9315502
_publ_section_title
;
Structure prediction by ZEFSAII (Michael W. Deem and Ramdas Pophale) SiO2 
 PCOD9315502
Probable space group: P 21 21 21
;
_chemical_formula_sum "Si O2"
_cell_formula_units_Z 32
_cell_length_a 6.489318
_cell_length_b 12.184777
_cell_length_c 19.445140
_cell_angle_alpha 90.000000
_cell_angle_beta 90.000000
_cell_angle_gamma 90.000000
_cell_volume 1537.544579
_symmetry_space_group_name_H-M "P 21 21 21"
_symmetry_group_IT_number 19
_symmetry_cell_setting 'orthorhombic'
loop_
_space_group_symop_operation_xyz
x,y,z
1/2-x,-y,1/2+z
1/2+x,1/2-y,-z
-x,1/2+y,1/2-z
loop_
_atom_site_type_symbol
_atom_site_label
_atom_site_fract_x
_atom_site_fract_y
_atom_site_fract_z
Si Si1 0.547538 0.154159 0.423149
Si Si2 0.902851 0.992645 0.377609
Si Si3 0.754953 0.758594 0.318601
Si Si4 0.383218 0.167739 0.577720
Si Si5 0.836798 0.677581 0.169110
Si Si6 0.203361 0.880789 0.478803
Si Si7 0.486852 0.930060 0.597251
Si Si8 0.112854 0.319521 0.900685
O O1 0.443591 0.153455 0.497948
O O2 0.666894 0.270076 0.416284
O O3 0.379125 0.142007 0.363783
O O4 0.719084 0.059984 0.413496
O O5 0.817217 0.878091 0.347725
O O6 0.082617 0.968966 0.433386
O O7 0.012093 0.072679 0.322308
O O8 0.800615 0.743550 0.238770
O O9 0.519469 0.726188 0.337341
O O10 0.887611 0.665740 0.357576
O O11 0.550677 0.245191 0.613765
O O12 0.393823 0.048928 0.612828
O O13 0.415117 0.909754 0.518028
O O14 0.248632 0.778586 0.430107
O O15 0.048788 0.848700 0.539805
O O16 0.731112 0.920401 0.608566
#
# Coordination Sequence:
#
# PCOD9315502 Si02
#       8
#     4   4   4   4   4   4   4   4
#     4  11  24  46  71 102 132 181 229 292 347 404
#     4  11  25  44  74  98 136 180 236 285 348 416
#     4  11  27  45  65 104 137 187 227 275 351 420
#     4  11  24  43  74  99 132 175 234 288 340 406
#     4  11  27  48  68  97 137 182 231 283 346 412
#     4  11  20  37  65 103 132 175 220 278 337 395
#     4  11  24  39  70 101 143 174 224 284 344 402
#     4  11  21  38  63 102 143 172 219 273 339 407
#
# _framework density 20.812405999999999
#
# number of rings (size 3 to 8) (size 9 to 14) (size 15 to 20)
#    0.000    1.000    3.750    2.250    7.000    4.000 
#    2.250    0.000    0.000    0.000    0.000    0.000 
#    0.000    0.000    0.000    0.000    0.000    0.000 
#
# Total GULP energy -178827.924145 kJ/mol
# GULP energy per Si atom -5588.372630 kJ/mol
# Density = 2.076504 g / cm^3
# Si number density = 20.812406 Si / 1000 Ang^3
#
#
#
# Elastic Constant Matrix: (Units=GPa)
#
#
# Indices 1 2 3 4 5 6 
#
# 1 88.5927 30.3411 20.8317 0.0000 0.0000 0.0000
# 2 30.3411 119.7264 15.1388 0.0000 0.0000 0.0000
# 3 20.8317 15.1388 70.1057 0.0000 0.0000 0.0000
# 4 0.0000 0.0000 0.0000 20.6029 0.0000 0.0000
# 5 0.0000 0.0000 0.0000 0.0000 17.4133 0.0000
# 6 0.0000 0.0000 0.0000 0.0000 0.0000 37.7894
#
#
#
# Elastic Compliance Matrix: (Units=1/GPa)
#
#
# Indices 1 2 3 4 5 6 
#
# 1 0.013043 -0.002894 -0.003251 0.000000 0.000000 0.000000
# 2 -0.002894 0.009229 -0.001133 0.000000 0.000000 0.000000
# 3 -0.003251 -0.001133 0.015475 0.000000 0.000000 0.000000
# 4 0.000000 0.000000 0.000000 0.048537 0.000000 0.000000
# 5 0.000000 0.000000 0.000000 0.000000 0.057427 0.000000
# 6 0.000000 0.000000 0.000000 0.000000 0.000000 0.026462
#
#
# Mechanical properties :
#
#
# Convention : Reuss Voigt Hill
#
# Bulk Modulus (GPa) = 43.12002 45.67200 44.39601
# Shear Modulus (GPa) = 25.97942 29.30202 27.64072
#
# Velocity S-wave (km/s) = 3.53691 3.75628 3.64825
# Velocity P-wave (km/s) = 6.11908 6.38789 6.25493
#
# Compressibility (1/GPa) = 0.02319108
#
# Stress axis : x y z
#
# Youngs Moduli (GPa) = 76.66793 108.35269 64.62133
#
# Poissons Ratio (x) = 0.31361 0.21007
# Poissons Ratio (y) = 0.22191 0.07321
# Poissons Ratio (z) = 0.24923 0.12275
#
# Static dielectric constant tensor:
#      x y z
#    x 1.771870 0.000000 0.000000 
#    y 0.000000 1.774100 0.000000 
#    z 0.000000 0.000000 1.718440 
# 
# From -- ./inp_files/1195.got.cif
#   From: 2010.05.17/outbox.cif.g08.bks.cpg/sg19_1_cif.got.tgz:1195.got - 2010.06.03 22:46:19.
