data_PCOD9315733
_publ_section_title
;
Structure prediction by ZEFSAII (Michael W. Deem and Ramdas Pophale) SiO2 
 PCOD9315733
Probable space group: P 21 21 21
;
_chemical_formula_sum "Si O2"
_cell_formula_units_Z 24
_cell_length_a 18.537350
_cell_length_b 9.159893
_cell_length_c 5.680435
_cell_angle_alpha 90.000000
_cell_angle_beta 90.000000
_cell_angle_gamma 90.000000
_cell_volume 964.538672
_symmetry_space_group_name_H-M "P 21 21 21"
_symmetry_group_IT_number 19
_symmetry_cell_setting 'orthorhombic'
loop_
_space_group_symop_operation_xyz
x,y,z
1/2-x,-y,1/2+z
1/2+x,1/2-y,-z
-x,1/2+y,1/2-z
loop_
_atom_site_type_symbol
_atom_site_label
_atom_site_fract_x
_atom_site_fract_y
_atom_site_fract_z
Si Si1 0.912658 0.171111 0.386693
Si Si2 0.469916 0.802876 0.540007
Si Si3 0.939193 0.417150 0.747606
Si Si4 0.726821 0.930035 0.082299
Si Si5 0.686924 0.635788 0.580779
Si Si6 0.314077 0.818712 0.710154
O O1 0.942803 0.310676 0.525059
O O2 0.860493 0.080880 0.559317
O O3 0.855049 0.233508 0.201165
O O4 0.978381 0.116244 0.229076
O O5 0.509008 0.659363 0.438861
O O6 0.394553 0.765745 0.663522
O O7 0.457026 0.919192 0.329853
O O8 0.857994 0.404040 0.845984
O O9 0.768667 0.774663 0.102565
O O10 0.745917 0.996978 0.339283
O O11 0.766905 0.685866 0.525383
O O12 0.683381 0.488759 0.727972
#
# Coordination Sequence:
#
# PCOD9315733 Si02
#       6
#     4   4   4   4   4   4
#     4  11  25  53  73 106 161 205 254 343 403 473
#     4  11  28  47  80 117 157 209 271 325 416 479
#     4  11  25  50  75 113 156 207 256 342 405 480
#     4  12  29  52  79 117 163 213 267 331 412 481
#     4  11  23  47  79 105 152 193 275 337 392 458
#     4  12  24  49  78 116 141 209 273 326 390 497
#
# _framework density 24.882363999999999
#
# number of rings (size 3 to 8) (size 9 to 14) (size 15 to 20)
#    0.000    0.667    3.333    3.000    4.667    4.000 
#    3.000    0.000    0.000    0.000    0.000    0.000 
#    0.000    0.000    0.000    0.000    0.000    0.000 
#
# Total GULP energy -134388.373208 kJ/mol
# GULP energy per Si atom -5599.515550 kJ/mol
# Density = 2.482573 g / cm^3
# Si number density = 24.882364 Si / 1000 Ang^3
#
#
#
# Elastic Constant Matrix: (Units=GPa)
#
#
# Indices 1 2 3 4 5 6 
#
# 1 156.2275 10.8699 28.2971 0.0000 0.0000 0.0000
# 2 10.8699 45.8061 12.5779 0.0000 0.0000 0.0000
# 3 28.2971 12.5779 82.0341 0.0000 0.0000 0.0000
# 4 0.0000 0.0000 0.0000 56.7755 0.0000 0.0000
# 5 0.0000 0.0000 0.0000 0.0000 46.0736 0.0000
# 6 0.0000 0.0000 0.0000 0.0000 0.0000 24.8419
#
#
#
# Elastic Compliance Matrix: (Units=1/GPa)
#
#
# Indices 1 2 3 4 5 6 
#
# 1 0.006873 -0.001023 -0.002214 0.000000 0.000000 0.000000
# 2 -0.001023 0.022943 -0.003165 0.000000 0.000000 0.000000
# 3 -0.002214 -0.003165 0.013439 0.000000 0.000000 0.000000
# 4 0.000000 0.000000 0.000000 0.017613 0.000000 0.000000
# 5 0.000000 0.000000 0.000000 0.000000 0.021704 0.000000
# 6 0.000000 0.000000 0.000000 0.000000 0.000000 0.040255
#
#
# Mechanical properties :
#
#
# Convention : Reuss Voigt Hill
#
# Bulk Modulus (GPa) = 32.83931 43.06193 37.95062
# Shear Modulus (GPa) = 34.29792 41.02639 37.66215
#
# Velocity S-wave (km/s) = 3.71671 4.06496 3.89473
# Velocity P-wave (km/s) = 5.62540 6.27501 5.95906
#
# Compressibility (1/GPa) = 0.03045131
#
# Stress axis : x y z
#
# Youngs Moduli (GPa) = 145.49443 43.58636 74.41033
#
# Poissons Ratio (x) = 0.04459 0.16474
# Poissons Ratio (y) = 0.14885 0.23550
# Poissons Ratio (z) = 0.32212 0.13794
#
# Static dielectric constant tensor:
#      x y z
#    x 1.957350 0.000000 0.000000 
#    y 0.000000 2.037750 0.000000 
#    z 0.000000 0.000000 1.986260 
# 
# From -- ./inp_files/1694.got.cif
#   From: 2010.05.17/outbox.cif.g08.bks.cpg/sg19_1_cif.got.tgz:1694.got - 2010.06.03 22:46:19.
