data_PCOD9315840
_publ_section_title
;
Structure prediction by ZEFSAII (Michael W. Deem and Ramdas Pophale) SiO2 
 PCOD9315840
Probable space group: P 21 21 21
;
_chemical_formula_sum "Si O2"
_cell_formula_units_Z 28
_cell_length_a 5.276870
_cell_length_b 11.717400
_cell_length_c 18.319826
_cell_angle_alpha 90.000000
_cell_angle_beta 90.000000
_cell_angle_gamma 90.000000
_cell_volume 1132.736762
_symmetry_space_group_name_H-M "P 21 21 21"
_symmetry_group_IT_number 19
_symmetry_cell_setting 'orthorhombic'
loop_
_space_group_symop_operation_xyz
x,y,z
1/2-x,-y,1/2+z
1/2+x,1/2-y,-z
-x,1/2+y,1/2-z
loop_
_atom_site_type_symbol
_atom_site_label
_atom_site_fract_x
_atom_site_fract_y
_atom_site_fract_z
Si Si1 0.623833 0.181694 0.012212
Si Si2 0.148430 0.292778 0.213192
Si Si3 0.271355 0.262957 0.546419
Si Si4 0.466942 0.090468 0.269365
Si Si5 0.162030 0.604761 0.348521
Si Si6 0.793399 0.002779 0.893118
Si Si7 0.317059 0.091450 0.667522
O O1 0.751735 0.082021 0.963559
O O2 0.338629 0.218482 0.991669
O O3 0.619609 0.138057 0.095635
O O4 0.356782 0.215698 0.253802
O O5 0.220806 0.406817 0.170337
O O6 0.032354 0.208879 0.152769
O O7 0.951016 0.327520 0.274533
O O8 0.526050 0.222802 0.505181
O O9 0.336566 0.383032 0.586039
O O10 0.191539 0.168354 0.606232
O O11 0.747919 0.095802 0.235029
O O12 0.454512 0.048317 0.352730
O O13 0.342329 0.996794 0.216106
O O14 0.029259 0.488194 0.369829
#
# Coordination Sequence:
#
# PCOD9315840 Si02
#       7
#     4   4   4   4   4   4   4
#     4  12  28  48  76 110 154 198 259 318 388 472
#     4  11  25  48  72 118 146 197 268 324 400 468
#     4  12  32  54  79 113 163 216 268 323 405 494
#     4  11  27  46  81 112 157 200 265 334 402 474
#     4  11  24  47  73 108 151 200 251 330 388 470
#     4  12  27  49  81 114 155 211 258 337 399 481
#     4  11  27  46  78 109 154 204 261 328 396 477
#
# _framework density 24.718896000000001
#
# number of rings (size 3 to 8) (size 9 to 14) (size 15 to 20)
#    0.000    0.571    2.857    2.571   16.000    1.143 
#    0.000    0.000    0.000    0.000    0.000    0.000 
#    0.000    0.000    0.000    0.000    0.000    0.000 
#
# Total GULP energy -156416.870304 kJ/mol
# GULP energy per Si atom -5586.316797 kJ/mol
# Density = 2.466263 g / cm^3
# Si number density = 24.718896 Si / 1000 Ang^3
#
#
#
# Elastic Constant Matrix: (Units=GPa)
#
#
# Indices 1 2 3 4 5 6 
#
# 1 64.5844 28.0925 15.1689 0.0000 0.0000 0.0000
# 2 28.0925 148.1134 43.8537 0.0000 0.0000 0.0000
# 3 15.1689 43.8537 72.3008 0.0000 0.0000 0.0000
# 4 0.0000 0.0000 0.0000 38.1975 0.0000 0.0000
# 5 0.0000 0.0000 0.0000 0.0000 29.9481 0.0000
# 6 0.0000 0.0000 0.0000 0.0000 0.0000 34.1386
#
#
#
# Elastic Compliance Matrix: (Units=1/GPa)
#
#
# Indices 1 2 3 4 5 6 
#
# 1 0.017104 -0.002659 -0.001976 0.000000 0.000000 0.000000
# 2 -0.002659 0.008643 -0.004684 0.000000 0.000000 0.000000
# 3 -0.001976 -0.004684 0.017087 0.000000 0.000000 0.000000
# 4 0.000000 0.000000 0.000000 0.026180 0.000000 0.000000
# 5 0.000000 0.000000 0.000000 0.000000 0.033391 0.000000
# 6 0.000000 0.000000 0.000000 0.000000 0.000000 0.029292
#
#
# Mechanical properties :
#
#
# Convention : Reuss Voigt Hill
#
# Bulk Modulus (GPa) = 41.32971 51.02542 46.17756
# Shear Modulus (GPa) = 31.56547 33.64908 32.60728
#
# Velocity S-wave (km/s) = 3.57736 3.69354 3.63591
# Velocity P-wave (km/s) = 5.81545 6.23512 6.02894
#
# Compressibility (1/GPa) = 0.02419567
#
# Stress axis : x y z
#
# Youngs Moduli (GPa) = 58.46484 115.70166 58.52440
#
# Poissons Ratio (x) = 0.30767 0.11562
# Poissons Ratio (y) = 0.15547 0.27415
# Poissons Ratio (z) = 0.11550 0.54199
#
# Static dielectric constant tensor:
#      x y z
#    x 2.040620 0.000000 0.000000 
#    y 0.000000 1.973090 0.000000 
#    z 0.000000 0.000000 1.955190 
# 
# From -- ./inp_files/4495.got.cif
#   From: 2010.05.17/outbox.cif.g08.bks.cpg/sg19_3_cif.got.tgz:4495.got - 2010.06.03 22:46:19.
