data_PCOD9315600
_publ_section_title
;
Structure prediction by ZEFSAII (Michael W. Deem and Ramdas Pophale) SiO2 
 PCOD9315600
Probable space group: P 21 21 21
;
_chemical_formula_sum "Si O2"
_cell_formula_units_Z 20
_cell_length_a 8.580877
_cell_length_b 11.480151
_cell_length_c 7.622112
_cell_angle_alpha 90.000000
_cell_angle_beta 90.000000
_cell_angle_gamma 90.000000
_cell_volume 750.852452
_symmetry_space_group_name_H-M "P 21 21 21"
_symmetry_group_IT_number 19
_symmetry_cell_setting 'orthorhombic'
loop_
_space_group_symop_operation_xyz
x,y,z
1/2-x,-y,1/2+z
1/2+x,1/2-y,-z
-x,1/2+y,1/2-z
loop_
_atom_site_type_symbol
_atom_site_label
_atom_site_fract_x
_atom_site_fract_y
_atom_site_fract_z
Si Si1 0.454142 0.797906 0.690208
Si Si2 0.317356 0.361836 0.088318
Si Si3 0.424514 0.589219 0.284923
Si Si4 0.254301 0.037113 0.020947
Si Si5 0.248564 0.196940 0.666912
O O1 0.305810 0.712887 0.700879
O O2 0.549476 0.785451 0.505473
O O3 0.386145 0.925795 0.653080
O O4 0.588160 0.767710 0.827865
O O5 0.392360 0.472582 0.176787
O O6 0.209929 0.406824 0.930739
O O7 0.587542 0.567960 0.378564
O O8 0.388449 0.707239 0.175120
O O9 0.253412 0.896919 0.010995
O O10 0.241604 0.116195 0.845346
#
# Coordination Sequence:
#
# PCOD9315600 Si02
#       5
#     4   4   4   4   4
#     4  11  22  43  70  98 135 189 221 294 344 423
#     4  11  23  45  73 102 142 183 239 284 362 411
#     4  11  25  45  72 104 141 186 235 295 348 429
#     4  12  23  45  71  98 146 188 231 300 355 412
#     4  11  25  44  66 104 138 186 240 285 357 417
#
# _framework density 26.636393999999999
#
# number of rings (size 3 to 8) (size 9 to 14) (size 15 to 20)
#    0.000    0.800    6.000    1.200    8.400    0.000 
#    3.600    2.000    0.000    0.000    0.000    0.000 
#    0.000    0.000    0.000    0.000    0.000    0.000 
#
# Total GULP energy -111917.121685 kJ/mol
# GULP energy per Si atom -5595.856084 kJ/mol
# Density = 2.657577 g / cm^3
# Si number density = 26.636394 Si / 1000 Ang^3
#
#
#
# Elastic Constant Matrix: (Units=GPa)
#
#
# Indices 1 2 3 4 5 6 
#
# 1 130.9029 26.3463 14.2799 0.0000 0.0000 0.0000
# 2 26.3463 136.6265 9.0456 0.0000 0.0000 0.0000
# 3 14.2799 9.0456 58.4979 0.0000 0.0000 0.0000
# 4 0.0000 0.0000 0.0000 60.2189 0.0000 0.0000
# 5 0.0000 0.0000 0.0000 0.0000 30.4952 0.0000
# 6 0.0000 0.0000 0.0000 0.0000 0.0000 47.0950
#
#
#
# Elastic Compliance Matrix: (Units=1/GPa)
#
#
# Indices 1 2 3 4 5 6 
#
# 1 0.008123 -0.001450 -0.001759 0.000000 0.000000 0.000000
# 2 -0.001450 0.007654 -0.000830 0.000000 0.000000 0.000000
# 3 -0.001759 -0.000830 0.017652 0.000000 0.000000 0.000000
# 4 0.000000 0.000000 0.000000 0.016606 0.000000 0.000000
# 5 0.000000 0.000000 0.000000 0.000000 0.032792 0.000000
# 6 0.000000 0.000000 0.000000 0.000000 0.000000 0.021234
#
#
# Mechanical properties :
#
#
# Convention : Reuss Voigt Hill
#
# Bulk Modulus (GPa) = 39.44383 47.26344 43.35363
# Shear Modulus (GPa) = 41.46353 45.98552 43.72452
#
# Velocity S-wave (km/s) = 3.94972 4.15952 4.05598
# Velocity P-wave (km/s) = 5.96999 6.39150 6.18434
#
# Compressibility (1/GPa) = 0.02535251
#
# Stress axis : x y z
#
# Youngs Moduli (GPa) = 123.10836 130.65500 56.65015
#
# Poissons Ratio (x) = 0.18944 0.09963
# Poissons Ratio (y) = 0.17850 0.04700
# Poissons Ratio (z) = 0.21651 0.10839
#
# Static dielectric constant tensor:
#      x y z
#    x 2.077270 0.000000 0.000000 
#    y 0.000000 2.119770 0.000000 
#    z 0.000000 0.000000 2.192850 
# 
# From -- ./inp_files/2626.got.cif
#   From: 2010.05.17/outbox.cif.g08.bks.cpg/sg19_2_cif.got.tgz:2626.got - 2010.06.03 22:46:19.
