data_PCOD9315743
_publ_section_title
;
Structure prediction by ZEFSAII (Michael W. Deem and Ramdas Pophale) SiO2 
 PCOD9315743
Probable space group: P 21 21 21
;
_chemical_formula_sum "Si O2"
_cell_formula_units_Z 24
_cell_length_a 7.087437
_cell_length_b 14.270949
_cell_length_c 9.291755
_cell_angle_alpha 90.000000
_cell_angle_beta 90.000000
_cell_angle_gamma 90.000000
_cell_volume 939.809467
_symmetry_space_group_name_H-M "P 21 21 21"
_symmetry_group_IT_number 19
_symmetry_cell_setting 'orthorhombic'
loop_
_space_group_symop_operation_xyz
x,y,z
1/2-x,-y,1/2+z
1/2+x,1/2-y,-z
-x,1/2+y,1/2-z
loop_
_atom_site_type_symbol
_atom_site_label
_atom_site_fract_x
_atom_site_fract_y
_atom_site_fract_z
Si Si1 0.520523 0.455894 0.190502
Si Si2 0.349510 0.165238 0.313543
Si Si3 0.924616 0.150567 0.079769
Si Si4 0.483071 0.150724 0.996864
Si Si5 0.897511 0.020151 0.337977
Si Si6 0.029006 0.157482 0.543018
O O1 0.586847 0.559510 0.153181
O O2 0.293358 0.468457 0.208291
O O3 0.605123 0.414604 0.336618
O O4 0.533545 0.381165 0.063305
O O5 0.356746 0.167686 0.139133
O O6 0.166913 0.180596 0.412186
O O7 0.479946 0.249274 0.370559
O O8 0.698427 0.143197 0.055626
O O9 0.972974 0.076125 0.201720
O O10 0.964740 0.259334 0.104912
O O11 0.461016 0.055821 0.906112
O O12 0.863950 0.098533 0.461899
#
# Coordination Sequence:
#
# PCOD9315743 Si02
#       6
#     4   4   4   4   4   4
#     4  11  23  50  73 109 153 201 256 322 378 469
#     4  12  26  49  74 112 160 204 260 318 386 469
#     4  11  25  43  79 108 151 197 254 320 392 457
#     4  11  25  48  76 109 161 198 258 321 391 462
#     4  11  24  47  78 114 146 204 253 322 396 452
#     4  12  27  45  82 112 155 208 261 319 387 461
#
# _framework density 25.537091
#
# number of rings (size 3 to 8) (size 9 to 14) (size 15 to 20)
#    0.000    0.667    5.000    2.000    2.333    4.000 
#    0.000    0.000    0.000    0.000    0.000    0.000 
#    0.000    0.000    0.000    0.000    0.000    0.000 
#
# Total GULP energy -134404.531331 kJ/mol
# GULP energy per Si atom -5600.188805 kJ/mol
# Density = 2.547897 g / cm^3
# Si number density = 25.537091 Si / 1000 Ang^3
#
#
#
# Elastic Constant Matrix: (Units=GPa)
#
#
# Indices 1 2 3 4 5 6 
#
# 1 51.6118 26.5781 41.5712 0.0000 0.0000 0.0000
# 2 26.5781 177.4534 66.2969 0.0000 0.0000 0.0000
# 3 41.5712 66.2969 149.6456 0.0000 0.0000 0.0000
# 4 0.0000 0.0000 0.0000 55.8103 0.0000 0.0000
# 5 0.0000 0.0000 0.0000 0.0000 29.5861 0.0000
# 6 0.0000 0.0000 0.0000 0.0000 0.0000 34.7716
#
#
#
# Elastic Compliance Matrix: (Units=1/GPa)
#
#
# Indices 1 2 3 4 5 6 
#
# 1 0.025244 -0.001391 -0.006396 0.000000 0.000000 0.000000
# 2 -0.001391 0.006830 -0.002639 0.000000 0.000000 0.000000
# 3 -0.006396 -0.002639 0.009629 0.000000 0.000000 0.000000
# 4 0.000000 0.000000 0.000000 0.017918 0.000000 0.000000
# 5 0.000000 0.000000 0.000000 0.000000 0.033800 0.000000
# 6 0.000000 0.000000 0.000000 0.000000 0.000000 0.028759
#
#
# Mechanical properties :
#
#
# Convention : Reuss Voigt Hill
#
# Bulk Modulus (GPa) = 47.96506 71.95592 59.96049
# Shear Modulus (GPa) = 33.33737 40.31790 36.82763
#
# Velocity S-wave (km/s) = 3.61702 3.97772 3.80165
# Velocity P-wave (km/s) = 6.02221 7.02385 6.54223
#
# Compressibility (1/GPa) = 0.02084851
#
# Stress axis : x y z
#
# Youngs Moduli (GPa) = 39.61367 146.41978 103.85729
#
# Poissons Ratio (x) = 0.20370 0.66431
# Poissons Ratio (y) = 0.05511 0.27411
# Poissons Ratio (z) = 0.25338 0.38644
#
# Static dielectric constant tensor:
#      x y z
#    x 2.115360 0.000000 0.000000 
#    y 0.000000 1.950310 0.000000 
#    z 0.000000 0.000000 1.985040 
# 
# From -- ./inp_files/2786.got.cif
#   From: 2010.05.17/outbox.cif.g08.bks.cpg/sg19_2_cif.got.tgz:2786.got - 2010.06.03 22:46:19.
