data_PCOD9315000
_publ_section_title
;
Structure prediction by ZEFSAII (Michael W. Deem and Ramdas Pophale) SiO2 
 PCOD9315000
Probable space group: P 21 21 21
;
_chemical_formula_sum "Si O2"
_cell_formula_units_Z 32
_cell_length_a 19.445679
_cell_length_b 5.538858
_cell_length_c 12.272834
_cell_angle_alpha 90.000000
_cell_angle_beta 90.000000
_cell_angle_gamma 90.000000
_cell_volume 1321.868348
_symmetry_space_group_name_H-M "P 21 21 21"
_symmetry_group_IT_number 19
_symmetry_cell_setting 'orthorhombic'
loop_
_space_group_symop_operation_xyz
x,y,z
1/2-x,-y,1/2+z
1/2+x,1/2-y,-z
-x,1/2+y,1/2-z
loop_
_atom_site_type_symbol
_atom_site_label
_atom_site_fract_x
_atom_site_fract_y
_atom_site_fract_z
Si Si1 0.033697 0.513727 0.424465
Si Si2 0.176460 0.966426 0.624441
Si Si3 0.937685 0.643644 0.225005
Si Si4 0.117402 0.693873 0.806052
Si Si5 0.179203 0.312976 0.123109
Si Si6 0.919156 0.705809 0.580303
Si Si7 0.155619 0.814621 0.396222
Si Si8 0.230628 0.372025 0.752023
O O1 0.032563 0.232373 0.391046
O O2 0.113146 0.583258 0.436126
O O3 0.996171 0.606440 0.313490
O O4 0.989357 0.632398 0.518968
O O5 0.122537 0.779241 0.679689
O O6 0.256241 0.872947 0.631298
O O7 0.161266 0.990639 0.498122
O O8 0.173614 0.207030 0.695746
O O9 0.879026 0.804684 0.282860
O O10 0.892119 0.413943 0.198608
O O11 0.075826 0.453794 0.846512
O O12 0.196220 0.598411 0.813232
O O13 0.101483 0.943236 0.868596
O O14 0.219434 0.556607 0.152788
O O15 0.137746 0.275080 0.011844
O O16 0.228564 0.764958 0.344899
#
# Coordination Sequence:
#
# PCOD9315000 Si02
#       8
#     4   4   4   4   4   4   4   4
#     4  11  25  43  71 107 136 199 237 315 364 446
#     4  11  25  42  68 107 143 193 243 296 375 449
#     4  11  22  42  70 102 149 178 248 299 370 431
#     4  11  25  49  68 102 144 195 246 306 354 454
#     4  10  23  39  68 108 142 188 234 295 373 449
#     4  11  26  44  77 100 144 195 249 300 374 437
#     4  12  25  43  70 108 147 189 239 312 369 446
#     4  11  23  44  70 106 153 191 238 307 383 448
#
# _framework density 24.208159999999999
#
# number of rings (size 3 to 8) (size 9 to 14) (size 15 to 20)
#    0.000    1.000    5.000    0.750    3.500    2.000 
#    0.000    1.250    0.000    0.000    0.000    0.000 
#    0.000    0.000    0.000    0.000    0.000    0.000 
#
# Total GULP energy -178257.729234 kJ/mol
# GULP energy per Si atom -5570.554039 kJ/mol
# Density = 2.415306 g / cm^3
# Si number density = 24.208160 Si / 1000 Ang^3
#
#
#
# Elastic Constant Matrix: (Units=GPa)
#
#
# Indices 1 2 3 4 5 6 
#
# 1 38.6221 14.2731 31.1755 0.0000 0.0000 0.0000
# 2 14.2731 94.9558 28.9021 0.0000 0.0000 0.0000
# 3 31.1755 28.9021 61.8610 0.0000 0.0000 0.0000
# 4 0.0000 0.0000 0.0000 30.7619 0.0000 0.0000
# 5 0.0000 0.0000 0.0000 0.0000 23.3680 0.0000
# 6 0.0000 0.0000 0.0000 0.0000 0.0000 30.4790
#
#
#
# Elastic Compliance Matrix: (Units=1/GPa)
#
#
# Indices 1 2 3 4 5 6 
#
# 1 0.043649 0.000157 -0.022071 0.000000 0.000000 0.000000
# 2 0.000157 0.012278 -0.005815 0.000000 0.000000 0.000000
# 3 -0.022071 -0.005815 0.030005 0.000000 0.000000 0.000000
# 4 0.000000 0.000000 0.000000 0.032508 0.000000 0.000000
# 5 0.000000 0.000000 0.000000 0.000000 0.042794 0.000000
# 6 0.000000 0.000000 0.000000 0.000000 0.000000 0.032810
#
#
# Mechanical properties :
#
#
# Convention : Reuss Voigt Hill
#
# Bulk Modulus (GPa) = 32.81545 38.23780 35.52662
# Shear Modulus (GPa) = 19.25599 24.99431 22.12515
#
# Velocity S-wave (km/s) = 2.82340 3.21670 3.02645
# Velocity P-wave (km/s) = 4.92075 5.44297 5.18843
#
# Compressibility (1/GPa) = 0.03047345
#
# Stress axis : x y z
#
# Youngs Moduli (GPa) = 22.90983 81.44873 33.32771
#
# Poissons Ratio (x) = -0.01277 0.73557
# Poissons Ratio (y) = -0.00359 0.19381
# Poissons Ratio (z) = 0.50564 0.47364
#
# Static dielectric constant tensor:
#      x y z
#    x 1.954010 0.000000 0.000000 
#    y 0.000000 2.414500 0.000000 
#    z 0.000000 0.000000 1.935260 
# 
# From -- ./inp_files/2024.got.cif
#   From: 2010.05.17/outbox.cif.g08.bks.cpg/sg19_2_cif.got.tgz:2024.got - 2010.06.03 22:46:19.
