data_PCOD9315711
_publ_section_title
;
Structure prediction by ZEFSAII (Michael W. Deem and Ramdas Pophale) SiO2 
 PCOD9315711
Probable space group: P 21 21 21
;
_chemical_formula_sum "Si O2"
_cell_formula_units_Z 24
_cell_length_a 17.640283
_cell_length_b 6.588256
_cell_length_c 7.995536
_cell_angle_alpha 90.000000
_cell_angle_beta 90.000000
_cell_angle_gamma 90.000000
_cell_volume 929.230802
_symmetry_space_group_name_H-M "P 21 21 21"
_symmetry_group_IT_number 19
_symmetry_cell_setting 'orthorhombic'
loop_
_space_group_symop_operation_xyz
x,y,z
1/2-x,-y,1/2+z
1/2+x,1/2-y,-z
-x,1/2+y,1/2-z
loop_
_atom_site_type_symbol
_atom_site_label
_atom_site_fract_x
_atom_site_fract_y
_atom_site_fract_z
Si Si1 0.300385 0.564102 0.282505
Si Si2 0.103506 0.889980 0.170141
Si Si3 0.573582 0.717947 0.215530
Si Si4 0.564322 0.047611 0.728900
Si Si5 0.091368 0.180399 0.600509
Si Si6 0.689750 0.245884 0.873688
O O1 0.375140 0.419150 0.280780
O O2 0.326916 0.735741 0.154680
O O3 0.235277 0.402339 0.246430
O O4 0.279585 0.690958 0.446397
O O5 0.177198 0.028752 0.192457
O O6 0.025108 0.980959 0.241615
O O7 0.103826 0.671173 0.257140
O O8 0.093390 0.872839 0.968676
O O9 0.484132 0.767936 0.210851
O O10 0.593468 0.562933 0.366438
O O11 0.577853 0.187955 0.567385
O O12 0.602598 0.166466 0.881633
#
# Coordination Sequence:
#
# PCOD9315711 Si02
#       6
#     4   4   4   4   4   4
#     4  12  26  47  71 106 151 199 250 315 379 448
#     4  11  23  45  76 105 149 199 247 307 381 450
#     4  11  23  45  76 105 149 199 247 307 381 450
#     4  11  24  44  75 113 143 190 254 316 370 448
#     4  11  24  44  75 113 143 190 254 316 370 448
#     4  12  26  47  71 106 151 199 250 315 379 448
#
# _framework density 25.827811000000001
#
# number of rings (size 3 to 8) (size 9 to 14) (size 15 to 20)
#    0.000    0.667    6.667    1.000    0.000    2.667 
#    6.000    0.000    0.000    0.000    0.000    0.000 
#    0.000    0.000    0.000    0.000    0.000    0.000 
#
# Total GULP energy -134023.316076 kJ/mol
# GULP energy per Si atom -5584.304836 kJ/mol
# Density = 2.576903 g / cm^3
# Si number density = 25.827811 Si / 1000 Ang^3
#
#
#
# Elastic Constant Matrix: (Units=GPa)
#
#
# Indices 1 2 3 4 5 6 
#
# 1 78.5072 37.9587 10.2447 0.0000 0.0000 0.0000
# 2 37.9587 130.8868 39.9995 0.0000 0.0000 0.0000
# 3 10.2447 39.9995 74.2349 0.0000 0.0000 0.0000
# 4 0.0000 0.0000 0.0000 32.2349 0.0000 0.0000
# 5 0.0000 0.0000 0.0000 0.0000 30.6474 0.0000
# 6 0.0000 0.0000 0.0000 0.0000 0.0000 58.6444
#
#
#
# Elastic Compliance Matrix: (Units=1/GPa)
#
#
# Indices 1 2 3 4 5 6 
#
# 1 0.014822 -0.004397 0.000324 0.000000 0.000000 0.000000
# 2 -0.004397 0.010451 -0.005024 0.000000 0.000000 0.000000
# 3 0.000324 -0.005024 0.016133 0.000000 0.000000 0.000000
# 4 0.000000 0.000000 0.000000 0.031022 0.000000 0.000000
# 5 0.000000 0.000000 0.000000 0.000000 0.032629 0.000000
# 6 0.000000 0.000000 0.000000 0.000000 0.000000 0.017052
#
#
# Mechanical properties :
#
#
# Convention : Reuss Voigt Hill
#
# Bulk Modulus (GPa) = 43.08443 51.11498 47.09971
# Shear Modulus (GPa) = 33.77428 37.33374 35.55401
#
# Velocity S-wave (km/s) = 3.62010 3.80608 3.71425
# Velocity P-wave (km/s) = 5.84731 6.25689 6.05556
#
# Compressibility (1/GPa) = 0.02321024
#
# Stress axis : x y z
#
# Youngs Moduli (GPa) = 67.46908 95.68481 61.98366
#
# Poissons Ratio (x) = 0.42077 -0.02008
# Poissons Ratio (y) = 0.29669 0.31143
# Poissons Ratio (z) = -0.02186 0.48076
#
# Static dielectric constant tensor:
#      x y z
#    x 2.061600 0.000000 0.000000 
#    y 0.000000 2.106460 0.000000 
#    z 0.000000 0.000000 2.068000 
# 
# From -- ./inp_files/4097.got.cif
#   From: 2010.05.17/outbox.cif.g08.bks.cpg/sg19_3_cif.got.tgz:4097.got - 2010.06.03 22:46:19.
