data_PCOD9315052
_publ_section_title
;
Structure prediction by ZEFSAII (Michael W. Deem and Ramdas Pophale) SiO2 
 PCOD9315052
Probable space group: P 21 21 21
;
_chemical_formula_sum "Si O2"
_cell_formula_units_Z 20
_cell_length_a 5.102561
_cell_length_b 7.822190
_cell_length_c 19.790917
_cell_angle_alpha 90.000000
_cell_angle_beta 90.000000
_cell_angle_gamma 90.000000
_cell_volume 789.918861
_symmetry_space_group_name_H-M "P 21 21 21"
_symmetry_group_IT_number 19
_symmetry_cell_setting 'orthorhombic'
loop_
_space_group_symop_operation_xyz
x,y,z
1/2-x,-y,1/2+z
1/2+x,1/2-y,-z
-x,1/2+y,1/2-z
loop_
_atom_site_type_symbol
_atom_site_label
_atom_site_fract_x
_atom_site_fract_y
_atom_site_fract_z
Si Si1 0.764947 0.157991 0.318419
Si Si2 0.060604 0.794273 0.041061
Si Si3 0.407954 0.456623 0.293883
Si Si4 0.566491 0.304073 0.959451
Si Si5 0.567129 0.327654 0.815589
O O1 0.894468 0.187612 0.390114
O O2 0.506997 0.275255 0.317424
O O3 0.671999 0.977668 0.285566
O O4 0.948533 0.230589 0.256786
O O5 0.266639 0.722859 0.986152
O O6 0.131831 0.994697 0.047813
O O7 0.160818 0.531281 0.332621
O O8 0.655755 0.581304 0.305407
O O9 0.565182 0.222507 0.884614
O O10 0.789277 0.219889 0.004980
#
# Coordination Sequence:
#
# PCOD9315052 Si02
#       5
#     4   4   4   4   4
#     4  10  26  45  76 101 145 178 250 288 376 415
#     4  12  29  49  73 108 154 198 240 310 369 437
#     4  10  23  41  74 100 136 180 233 296 360 422
#     4  12  26  50  75 106 151 200 245 298 371 449
#     4  10  24  43  74  99 138 184 236 296 356 419
#
# _framework density 25.319057000000001
#
# number of rings (size 3 to 8) (size 9 to 14) (size 15 to 20)
#    1.200    0.000    2.000    2.400    8.400    1.600 
#    7.200    0.000    0.000    0.000    0.000    0.000 
#    0.000    0.000    0.000    0.000    0.000    0.000 
#
# Total GULP energy -111855.253357 kJ/mol
# GULP energy per Si atom -5592.762668 kJ/mol
# Density = 2.526143 g / cm^3
# Si number density = 25.319057 Si / 1000 Ang^3
#
#
#
# Elastic Constant Matrix: (Units=GPa)
#
#
# Indices 1 2 3 4 5 6 
#
# 1 1435.7110 -263.9898 658.0614 0.0000 0.0000 0.0000
# 2 -263.9898 102.2035 -118.7252 0.0000 0.0000 0.0000
# 3 658.0614 -118.7252 450.5737 0.0000 0.0000 0.0000
# 4 0.0000 0.0000 0.0000 -33.9794 0.0000 0.0000
# 5 0.0000 0.0000 0.0000 0.0000 51.8428 0.0000
# 6 0.0000 0.0000 0.0000 0.0000 0.0000 45.4349
#
#
#
# Elastic Compliance Matrix: (Units=1/GPa)
#
#
# Indices 1 2 3 4 5 6 
#
# 1 0.002786 0.003559 -0.003132 0.000000 0.000000 0.000000
# 2 0.003559 0.018647 -0.000285 0.000000 0.000000 0.000000
# 3 -0.003132 -0.000285 0.006718 0.000000 0.000000 0.000000
# 4 0.000000 0.000000 0.000000 -0.029430 0.000000 0.000000
# 5 0.000000 0.000000 0.000000 0.000000 0.019289 0.000000
# 6 0.000000 0.000000 0.000000 0.000000 0.000000 0.022010
#
#
# Mechanical properties :
#
#
# Convention : Reuss Voigt Hill
#
# Bulk Modulus (GPa) = 35.16544 282.13123 158.64833
# Shear Modulus (GPa) = 101.59772 126.86911 114.23341
#
# Velocity S-wave (km/s) = 6.34146 7.08639 6.72425
# Velocity P-wave (km/s) = 8.21814 13.36519 11.09428
#
# Compressibility (1/GPa) = 0.02843701
#
# Stress axis : x y z
#
# Youngs Moduli (GPa) = 358.89301 53.62795 148.85322
#
# Poissons Ratio (x) = -0.19088 0.46615
# Poissons Ratio (y) = -1.27739 0.04240
# Poissons Ratio (z) = 1.12391 0.01527
#
# Static dielectric constant tensor:
#      x y z
#    x 1.960220 0.000000 0.000000 
#    y 0.000000 2.189010 0.000000 
#    z 0.000000 0.000000 2.055580 
# 
# From -- ./inp_files/6385.got.cif
#   From: 2010.05.17/outbox.cif.g08.bks.cpg/sg19_4_cif.got.tgz:6385.got - 2010.06.03 22:46:19.
