data_PCOD9315374
_publ_section_title
;
Structure prediction by ZEFSAII (Michael W. Deem and Ramdas Pophale) SiO2 
 PCOD9315374
Probable space group: P 21 21 21
;
_chemical_formula_sum "Si O2"
_cell_formula_units_Z 32
_cell_length_a 11.270111
_cell_length_b 21.496743
_cell_length_c 5.382995
_cell_angle_alpha 90.000000
_cell_angle_beta 90.000000
_cell_angle_gamma 90.000000
_cell_volume 1304.141858
_symmetry_space_group_name_H-M "P 21 21 21"
_symmetry_group_IT_number 19
_symmetry_cell_setting 'orthorhombic'
loop_
_space_group_symop_operation_xyz
x,y,z
1/2-x,-y,1/2+z
1/2+x,1/2-y,-z
-x,1/2+y,1/2-z
loop_
_atom_site_type_symbol
_atom_site_label
_atom_site_fract_x
_atom_site_fract_y
_atom_site_fract_z
Si Si1 0.562606 0.811609 0.664085
Si Si2 0.283610 0.036702 0.122542
Si Si3 0.555681 0.906615 0.052319
Si Si4 0.267127 0.302565 0.230599
Si Si5 0.065734 0.452782 0.950146
Si Si6 0.423333 0.618553 0.962206
Si Si7 0.853436 0.302554 0.464742
Si Si8 0.852909 0.645019 0.620818
O O1 0.538410 0.879600 0.777641
O O2 0.695958 0.810968 0.553230
O O3 0.569352 0.753382 0.844966
O O4 0.449150 0.805279 0.483157
O O5 0.423372 0.046833 0.083992
O O6 0.213251 0.101195 0.077602
O O7 0.243223 0.992018 0.893054
O O8 0.603978 0.975625 0.066224
O O9 0.645242 0.855508 0.159050
O O10 0.434445 0.899333 0.205203
O O11 0.147871 0.321347 0.365777
O O12 0.301916 0.232064 0.294734
O O13 0.089390 0.426635 0.224723
O O14 0.116521 0.412654 0.720461
O O15 0.558699 0.640247 0.000985
O O16 0.746396 0.323187 0.289623
#
# Coordination Sequence:
#
# PCOD9315374 Si02
#       8
#     4   4   4   4   4   4   4   4
#     4  10  25  46  74 103 140 203 254 311 368 464
#     4  12  24  43  73 110 153 196 241 313 374 457
#     4  10  24  47  74 105 144 196 250 303 381 453
#     4  10  27  47  74 102 148 198 261 301 378 446
#     4  12  27  47  75 112 157 193 252 309 379 452
#     4  12  30  48  75 114 152 197 248 319 375 448
#     4  11  27  45  70 107 149 195 250 314 377 445
#     4  11  24  41  71 105 143 194 248 304 380 445
#
# _framework density 24.537209000000001
#
# number of rings (size 3 to 8) (size 9 to 14) (size 15 to 20)
#    0.000    1.000    2.500    1.500   15.750    1.000 
#    0.000    0.000    0.000    0.000    0.000    0.000 
#    0.000    0.000    0.000    0.000    0.000    0.000 
#
# Total GULP energy -178964.961864 kJ/mol
# GULP energy per Si atom -5592.655058 kJ/mol
# Density = 2.448136 g / cm^3
# Si number density = 24.537209 Si / 1000 Ang^3
#
#
#
# Elastic Constant Matrix: (Units=GPa)
#
#
# Indices 1 2 3 4 5 6 
#
# 1 66.9513 6.0255 2.5197 0.0000 0.0000 0.0000
# 2 6.0255 109.9302 46.2476 0.0000 0.0000 0.0000
# 3 2.5197 46.2476 51.9574 0.0000 0.0000 0.0000
# 4 0.0000 0.0000 0.0000 39.5022 0.0000 0.0000
# 5 0.0000 0.0000 0.0000 0.0000 26.5561 0.0000
# 6 0.0000 0.0000 0.0000 0.0000 0.0000 25.5323
#
#
#
# Elastic Compliance Matrix: (Units=1/GPa)
#
#
# Indices 1 2 3 4 5 6 
#
# 1 0.015010 -0.000826 0.000007 0.000000 0.000000 0.000000
# 2 -0.000826 0.014588 -0.012945 0.000000 0.000000 0.000000
# 3 0.000007 -0.012945 0.030768 0.000000 0.000000 0.000000
# 4 0.000000 0.000000 0.000000 0.025315 0.000000 0.000000
# 5 0.000000 0.000000 0.000000 0.000000 0.037656 0.000000
# 6 0.000000 0.000000 0.000000 0.000000 0.000000 0.039166
#
#
# Mechanical properties :
#
#
# Convention : Reuss Voigt Hill
#
# Bulk Modulus (GPa) = 30.45092 37.60274 34.02683
# Shear Modulus (GPa) = 24.87852 29.92119 27.39986
#
# Velocity S-wave (km/s) = 3.18765 3.49581 3.34528
# Velocity P-wave (km/s) = 5.09757 5.62604 5.36831
#
# Compressibility (1/GPa) = 0.03283973
#
# Stress axis : x y z
#
# Youngs Moduli (GPa) = 66.62101 68.55075 32.50104
#
# Poissons Ratio (x) = 0.05660 -0.00023
# Poissons Ratio (y) = 0.05501 0.42071
# Poissons Ratio (z) = -0.00047 0.88736
#
# Static dielectric constant tensor:
#      x y z
#    x 1.981700 0.000000 0.000000 
#    y 0.000000 1.929990 0.000000 
#    z 0.000000 0.000000 2.113980 
# 
# From -- ./inp_files/1151.got.cif
#   From: 2010.05.17/outbox.cif.g08.bks.cpg/sg19_1_cif.got.tgz:1151.got - 2010.06.03 22:46:19.
