data_PCOD9315042
_publ_section_title
;
Structure prediction by ZEFSAII (Michael W. Deem and Ramdas Pophale) SiO2 
 PCOD9315042
Probable space group: P 21 21 21
;
_chemical_formula_sum "Si O2"
_cell_formula_units_Z 32
_cell_length_a 5.206607
_cell_length_b 15.575426
_cell_length_c 16.741310
_cell_angle_alpha 90.000000
_cell_angle_beta 90.000000
_cell_angle_gamma 90.000000
_cell_volume 1357.638578
_symmetry_space_group_name_H-M "P 21 21 21"
_symmetry_group_IT_number 19
_symmetry_cell_setting 'orthorhombic'
loop_
_space_group_symop_operation_xyz
x,y,z
1/2-x,-y,1/2+z
1/2+x,1/2-y,-z
-x,1/2+y,1/2-z
loop_
_atom_site_type_symbol
_atom_site_label
_atom_site_fract_x
_atom_site_fract_y
_atom_site_fract_z
Si Si1 0.153550 0.699447 0.816215
Si Si2 0.032546 0.164878 0.392553
Si Si3 0.288290 0.500192 0.546469
Si Si4 0.842046 0.637382 0.359560
Si Si5 0.409447 0.539243 0.867705
Si Si6 0.698314 0.390222 0.048339
Si Si7 0.778172 0.670177 0.946275
Si Si8 0.339542 0.739251 0.326933
O O1 0.323750 0.786674 0.820840
O O2 0.282163 0.606020 0.804880
O O3 0.922271 0.716149 0.755791
O O4 0.051460 0.687554 0.906375
O O5 0.232885 0.143395 0.462449
O O6 0.872964 0.243288 0.429665
O O7 0.856727 0.080772 0.396423
O O8 0.257209 0.479753 0.449756
O O9 0.518862 0.568827 0.556125
O O10 0.017756 0.540428 0.570144
O O11 0.968709 0.547324 0.332506
O O12 0.050092 0.706903 0.332005
O O13 0.843234 0.633085 0.455793
O O14 0.551341 0.663549 0.337525
O O15 0.649708 0.593384 0.899145
O O16 0.642131 0.307900 0.102291
#
# Coordination Sequence:
#
# PCOD9315042 Si02
#       8
#     4   4   4   4   4   4   4   4
#     4  11  26  41  65  97 149 185 224 275 365 414
#     4  11  20  37  63 100 132 179 223 276 321 426
#     4  11  22  40  73 106 131 169 235 284 347 394
#     4  11  24  45  76  97 127 178 244 281 340 410
#     4  10  23  41  70 102 133 176 231 293 335 420
#     4  11  24  45  73 102 132 177 233 305 336 395
#     4  11  20  37  68  94 137 179 222 274 337 400
#     4  12  27  48  66 102 139 183 228 288 353 411
#
# _framework density 23.570336000000001
#
# number of rings (size 3 to 8) (size 9 to 14) (size 15 to 20)
#    0.000    1.000    2.500    5.250    7.000    0.000 
#    4.500    0.000    0.000    0.000    0.000    0.000 
#    0.000    0.000    0.000    0.000    0.000    0.000 
#
# Total GULP energy -178708.939054 kJ/mol
# GULP energy per Si atom -5584.654345 kJ/mol
# Density = 2.351669 g / cm^3
# Si number density = 23.570336 Si / 1000 Ang^3
#
#
#
# Elastic Constant Matrix: (Units=GPa)
#
#
# Indices 1 2 3 4 5 6 
#
# 1 76.9866 10.2997 9.6095 0.0000 0.0000 0.0000
# 2 10.2997 58.4124 5.6949 0.0000 0.0000 0.0000
# 3 9.6095 5.6949 32.8692 0.0000 0.0000 0.0000
# 4 0.0000 0.0000 0.0000 -4.1761 0.0000 0.0000
# 5 0.0000 0.0000 0.0000 0.0000 21.4303 0.0000
# 6 0.0000 0.0000 0.0000 0.0000 0.0000 11.3159
#
#
#
# Elastic Compliance Matrix: (Units=1/GPa)
#
#
# Indices 1 2 3 4 5 6 
#
# 1 0.013721 -0.002063 -0.003654 0.000000 0.000000 0.000000
# 2 -0.002063 0.017724 -0.002468 0.000000 0.000000 0.000000
# 3 -0.003654 -0.002468 0.031919 0.000000 0.000000 0.000000
# 4 0.000000 0.000000 0.000000 -0.239461 0.000000 0.000000
# 5 0.000000 0.000000 0.000000 0.000000 0.046663 0.000000
# 6 0.000000 0.000000 0.000000 0.000000 0.000000 0.088371
#
#
# Mechanical properties :
#
#
# Convention : Reuss Voigt Hill
#
# Bulk Modulus (GPa) = 21.27885 24.38626 22.83256
# Shear Modulus (GPa) = -553.92214 15.22496 -269.34859
#
# Velocity S-wave (km/s) = -15.34661 2.54429 -10.70152
# Velocity P-wave (km/s) = 17.46359 4.35888 11.95778
#
# Compressibility (1/GPa) = 0.04699502
#
# Stress axis : x y z
#
# Youngs Moduli (GPa) = 72.87889 56.42052 31.32887
#
# Poissons Ratio (x) = 0.11641 0.11448
# Poissons Ratio (y) = 0.15036 0.07731
# Poissons Ratio (z) = 0.26630 0.13923
#
# Static dielectric constant tensor:
#      x y z
#    x 1.939410 0.000000 0.000000 
#    y 0.000000 1.940520 0.000000 
#    z 0.000000 0.000000 1.945660 
# 
# From -- ./inp_files/6470.got.cif
#   From: 2010.05.17/outbox.cif.g08.bks.cpg/sg19_4_cif.got.tgz:6470.got - 2010.06.03 22:46:19.
