data_PCOD9315806
_publ_section_title
;
Structure prediction by ZEFSAII (Michael W. Deem and Ramdas Pophale) SiO2 
 PCOD9315806
Probable space group: P 21 21 21
;
_chemical_formula_sum "Si O2"
_cell_formula_units_Z 24
_cell_length_a 8.927677
_cell_length_b 9.628517
_cell_length_c 12.765014
_cell_angle_alpha 90.000000
_cell_angle_beta 90.000000
_cell_angle_gamma 90.000000
_cell_volume 1097.284302
_symmetry_space_group_name_H-M "P 21 21 21"
_symmetry_group_IT_number 19
_symmetry_cell_setting 'orthorhombic'
loop_
_space_group_symop_operation_xyz
x,y,z
1/2-x,-y,1/2+z
1/2+x,1/2-y,-z
-x,1/2+y,1/2-z
loop_
_atom_site_type_symbol
_atom_site_label
_atom_site_fract_x
_atom_site_fract_y
_atom_site_fract_z
Si Si1 0.039610 0.207991 0.306052
Si Si2 0.695568 0.110365 0.315981
Si Si3 0.936438 0.502650 0.371828
Si Si4 0.053502 0.387651 0.910795
Si Si5 0.859949 0.640493 0.965057
Si Si6 0.344386 0.359995 0.042782
O O1 0.107736 0.127836 0.206614
O O2 0.128248 0.168593 0.411478
O O3 0.871482 0.145014 0.311147
O O4 0.014474 0.374560 0.307864
O O5 0.620302 0.132087 0.204182
O O6 0.630849 0.216197 0.402070
O O7 0.665557 0.956288 0.355843
O O8 0.793338 0.434983 0.429536
O O9 0.051360 0.563630 0.456475
O O10 0.182094 0.348398 0.992306
O O11 0.997493 0.542877 0.931670
O O12 0.916009 0.286188 0.930980
#
# Coordination Sequence:
#
# PCOD9315806 Si02
#       6
#     4   4   4   4   4   4
#     4  11  24  45  73 105 147 189 242 292 371 421
#     4  11  24  48  72 103 143 191 240 297 363 425
#     4  11  26  45  75 103 144 196 236 301 360 429
#     4  12  26  44  72 107 144 187 245 292 364 428
#     4  11  25  45  70 108 141 185 243 298 351 439
#     4  12  25  47  72 106 147 188 240 306 359 430
#
# _framework density 21.872181000000001
#
# number of rings (size 3 to 8) (size 9 to 14) (size 15 to 20)
#    0.000    0.667    5.000    2.000    2.333    5.333 
#    3.000    0.000    0.000    0.000    0.000    0.000 
#    0.000    0.000    0.000    0.000    0.000    0.000 
#
# Total GULP energy -134425.343228 kJ/mol
# GULP energy per Si atom -5601.055968 kJ/mol
# Density = 2.182240 g / cm^3
# Si number density = 21.872181 Si / 1000 Ang^3
#
#
#
# Elastic Constant Matrix: (Units=GPa)
#
#
# Indices 1 2 3 4 5 6 
#
# 1 70.6230 13.3188 25.3650 0.0000 0.0000 0.0000
# 2 13.3188 60.2038 27.2826 0.0000 0.0000 0.0000
# 3 25.3650 27.2826 63.2139 0.0000 0.0000 0.0000
# 4 0.0000 0.0000 0.0000 33.6408 0.0000 0.0000
# 5 0.0000 0.0000 0.0000 0.0000 37.9450 0.0000
# 6 0.0000 0.0000 0.0000 0.0000 0.0000 28.3617
#
#
#
# Elastic Compliance Matrix: (Units=1/GPa)
#
#
# Indices 1 2 3 4 5 6 
#
# 1 0.016576 -0.000812 -0.006301 0.000000 0.000000 0.000000
# 2 -0.000812 0.020689 -0.008603 0.000000 0.000000 0.000000
# 3 -0.006301 -0.008603 0.022061 0.000000 0.000000 0.000000
# 4 0.000000 0.000000 0.000000 0.029726 0.000000 0.000000
# 5 0.000000 0.000000 0.000000 0.000000 0.026354 0.000000
# 6 0.000000 0.000000 0.000000 0.000000 0.000000 0.035259
#
#
# Mechanical properties :
#
#
# Convention : Reuss Voigt Hill
#
# Bulk Modulus (GPa) = 35.85082 36.21928 36.03505
# Shear Modulus (GPa) = 26.12424 28.52778 27.32601
#
# Velocity S-wave (km/s) = 3.45977 3.61542 3.53845
# Velocity P-wave (km/s) = 5.69092 5.83299 5.76240
#
# Compressibility (1/GPa) = 0.02789337
#
# Stress axis : x y z
#
# Youngs Moduli (GPa) = 60.32899 48.33579 45.32949
#
# Poissons Ratio (x) = 0.03923 0.28561
# Poissons Ratio (y) = 0.04897 0.38999
# Poissons Ratio (z) = 0.38012 0.41585
#
# Static dielectric constant tensor:
#      x y z
#    x 1.781090 0.000000 0.000000 
#    y 0.000000 1.769940 0.000000 
#    z 0.000000 0.000000 1.792240 
# 
# From -- ./inp_files/2669.got.cif
#   From: 2010.05.17/outbox.cif.g08.bks.cpg/sg19_2_cif.got.tgz:2669.got - 2010.06.03 22:46:19.
