data_PCOD9315443
_publ_section_title
;
Structure prediction by ZEFSAII (Michael W. Deem and Ramdas Pophale) SiO2 
 PCOD9315443
Probable space group: P 21 21 21
;
_chemical_formula_sum "Si O2"
_cell_formula_units_Z 28
_cell_length_a 5.655755
_cell_length_b 4.744700
_cell_length_c 38.063520
_cell_angle_alpha 90.000000
_cell_angle_beta 90.000000
_cell_angle_gamma 90.000000
_cell_volume 1021.429259
_symmetry_space_group_name_H-M "P 21 21 21"
_symmetry_group_IT_number 19
_symmetry_cell_setting 'orthorhombic'
loop_
_space_group_symop_operation_xyz
x,y,z
1/2-x,-y,1/2+z
1/2+x,1/2-y,-z
-x,1/2+y,1/2-z
loop_
_atom_site_type_symbol
_atom_site_label
_atom_site_fract_x
_atom_site_fract_y
_atom_site_fract_z
Si Si1 0.639032 0.852631 0.901963
Si Si2 0.476868 0.768099 0.156477
Si Si3 0.296297 0.931581 0.786010
Si Si4 0.132800 0.066662 0.209094
Si Si5 0.684249 0.867828 0.612605
Si Si6 0.846582 0.998050 0.538249
Si Si7 0.339722 0.076457 0.524368
O O1 0.415871 0.052194 0.891872
O O2 0.557825 0.540547 0.891470
O O3 0.673527 0.812269 0.944121
O O4 0.863055 0.901737 0.876657
O O5 0.597016 0.558213 0.184598
O O6 0.279466 0.942301 0.177374
O O7 0.672985 0.995591 0.144327
O O8 0.396945 0.616679 0.785672
O O9 0.226058 0.981746 0.745604
O O10 0.024344 0.376524 0.204461
O O11 0.844097 0.968787 0.579848
O O12 0.578055 0.904762 0.531128
O O13 0.843871 0.284288 0.514374
O O14 0.106017 0.892456 0.528830
#
# Coordination Sequence:
#
# PCOD9315443 Si02
#       7
#     4   4   4   4   4   4   4
#     4  11  26  47  70 109 151 197 255 320 385 469
#     4  12  26  48  80 108 152 206 254 312 406 454
#     4  10  25  48  74 111 151 193 255 318 381 467
#     4  10  25  48  74 111 151 193 255 318 381 467
#     4  11  26  47  70 109 151 197 255 320 385 469
#     4   9  18  40  72 107 149 202 262 327 394 465
#     4   9  18  40  72 107 149 202 262 327 394 465
#
# _framework density 27.412569999999999
#
# number of rings (size 3 to 8) (size 9 to 14) (size 15 to 20)
#    0.000    1.714    1.429    0.857    0.000   12.571 
#    0.000   14.286    0.000    0.000    0.000    0.000 
#    0.000    0.000    0.000    0.000    0.000    0.000 
#
# Total GULP energy -156521.915098 kJ/mol
# GULP energy per Si atom -5590.068396 kJ/mol
# Density = 2.735018 g / cm^3
# Si number density = 27.412570 Si / 1000 Ang^3
#
#
#
# Elastic Constant Matrix: (Units=GPa)
#
#
# Indices 1 2 3 4 5 6 
#
# 1 135.1453 8.5655 30.7106 0.0000 0.0000 0.0000
# 2 8.5655 71.0173 40.6522 0.0000 0.0000 0.0000
# 3 30.7106 40.6522 162.1236 0.0000 0.0000 0.0000
# 4 0.0000 0.0000 0.0000 31.4943 0.0000 0.0000
# 5 0.0000 0.0000 0.0000 0.0000 51.6833 0.0000
# 6 0.0000 0.0000 0.0000 0.0000 0.0000 14.0527
#
#
#
# Elastic Compliance Matrix: (Units=1/GPa)
#
#
# Indices 1 2 3 4 5 6 
#
# 1 0.007733 -0.000110 -0.001437 0.000000 0.000000 0.000000
# 2 -0.000110 0.016442 -0.004102 0.000000 0.000000 0.000000
# 3 -0.001437 -0.004102 0.007469 0.000000 0.000000 0.000000
# 4 0.000000 0.000000 0.000000 0.031752 0.000000 0.000000
# 5 0.000000 0.000000 0.000000 0.000000 0.019349 0.000000
# 6 0.000000 0.000000 0.000000 0.000000 0.000000 0.071161
#
#
# Mechanical properties :
#
#
# Convention : Reuss Voigt Hill
#
# Bulk Modulus (GPa) = 49.15007 58.68252 53.91629
# Shear Modulus (GPa) = 29.07209 38.66992 33.87101
#
# Velocity S-wave (km/s) = 3.26012 3.75995 3.51893
# Velocity P-wave (km/s) = 5.66921 6.34849 6.01844
#
# Compressibility (1/GPa) = 0.02034585
#
# Stress axis : x y z
#
# Youngs Moduli (GPa) = 129.31556 60.81801 133.88703
#
# Poissons Ratio (x) = 0.00669 0.19243
# Poissons Ratio (y) = 0.01422 0.54922
# Poissons Ratio (z) = 0.18586 0.24948
#
# Static dielectric constant tensor:
#      x y z
#    x 2.119610 0.000000 0.000000 
#    y 0.000000 2.075770 0.000000 
#    z 0.000000 0.000000 2.248140 
# 
# From -- ./inp_files/7568.got.cif
#   From: 2010.05.17/outbox.cif.g08.bks.cpg/sg19_4_cif.got.tgz:7568.got - 2010.06.03 22:46:19.
