data_PCOD9315656
_publ_section_title
;
Structure prediction by ZEFSAII (Michael W. Deem and Ramdas Pophale) SiO2 
 PCOD9315656
Probable space group: P 21 21 21
;
_chemical_formula_sum "Si O2"
_cell_formula_units_Z 28
_cell_length_a 5.080685
_cell_length_b 23.210344
_cell_length_c 8.893659
_cell_angle_alpha 90.000000
_cell_angle_beta 90.000000
_cell_angle_gamma 90.000000
_cell_volume 1048.779816
_symmetry_space_group_name_H-M "P 21 21 21"
_symmetry_group_IT_number 19
_symmetry_cell_setting 'orthorhombic'
loop_
_space_group_symop_operation_xyz
x,y,z
1/2-x,-y,1/2+z
1/2+x,1/2-y,-z
-x,1/2+y,1/2-z
loop_
_atom_site_type_symbol
_atom_site_label
_atom_site_fract_x
_atom_site_fract_y
_atom_site_fract_z
Si Si1 0.080967 0.224016 0.807180
Si Si2 0.314173 0.275768 0.570368
Si Si3 0.579045 0.101072 0.518001
Si Si4 0.069745 0.057225 0.070371
Si Si5 0.808639 0.322775 0.915371
Si Si6 0.574280 0.467288 0.591788
Si Si7 0.708846 0.121382 0.846217
O O1 0.350147 0.243920 0.730105
O O2 0.127128 0.216894 0.982893
O O3 0.929376 0.164897 0.777028
O O4 0.918519 0.282804 0.786261
O O5 0.587933 0.267962 0.488047
O O6 0.197547 0.339412 0.549065
O O7 0.311977 0.078724 0.440165
O O8 0.542907 0.105979 0.698093
O O9 0.809727 0.054942 0.486527
O O10 0.015241 0.026451 0.229756
O O11 0.149608 0.120902 0.127549
O O12 0.858323 0.071114 0.938935
O O13 0.306165 0.024030 0.987227
O O14 0.033930 0.346757 0.028199
#
# Coordination Sequence:
#
# PCOD9315656 Si02
#       7
#     4   4   4   4   4   4   4
#     4  11  23  41  69 108 146 198 241 306 369 462
#     4  12  25  43  71 107 153 191 246 295 374 445
#     4  12  28  49  78 113 155 199 254 313 384 453
#     4  11  29  49  79 109 146 201 259 320 385 455
#     4  11  24  43  72 104 150 191 251 302 385 447
#     4  12  30  52  79 111 150 200 258 322 382 452
#     4  11  25  47  76 108 152 200 251 312 383 454
#
# _framework density 26.697692
#
# number of rings (size 3 to 8) (size 9 to 14) (size 15 to 20)
#    0.000    0.571    2.857    3.429   12.000    0.000 
#    0.000    0.000    0.000    0.000    0.000    0.000 
#    0.000    0.000    0.000    0.000    0.000    0.000 
#
# Total GULP energy -156705.910068 kJ/mol
# GULP energy per Si atom -5596.639645 kJ/mol
# Density = 2.663693 g / cm^3
# Si number density = 26.697692 Si / 1000 Ang^3
#
#
#
# Elastic Constant Matrix: (Units=GPa)
#
#
# Indices 1 2 3 4 5 6 
#
# 1 88.4497 14.9134 28.5020 0.0000 0.0000 0.0000
# 2 14.9134 122.6609 15.3402 0.0000 0.0000 0.0000
# 3 28.5020 15.3402 127.3058 0.0000 0.0000 0.0000
# 4 0.0000 0.0000 0.0000 31.3826 0.0000 0.0000
# 5 0.0000 0.0000 0.0000 0.0000 36.2049 0.0000
# 6 0.0000 0.0000 0.0000 0.0000 0.0000 55.2159
#
#
#
# Elastic Compliance Matrix: (Units=1/GPa)
#
#
# Indices 1 2 3 4 5 6 
#
# 1 0.012349 -0.001173 -0.002623 0.000000 0.000000 0.000000
# 2 -0.001173 0.008389 -0.000748 0.000000 0.000000 0.000000
# 3 -0.002623 -0.000748 0.008533 0.000000 0.000000 0.000000
# 4 0.000000 0.000000 0.000000 0.031865 0.000000 0.000000
# 5 0.000000 0.000000 0.000000 0.000000 0.027621 0.000000
# 6 0.000000 0.000000 0.000000 0.000000 0.000000 0.018111
#
#
# Mechanical properties :
#
#
# Convention : Reuss Voigt Hill
#
# Bulk Modulus (GPa) = 49.55239 50.65864 50.10552
# Shear Modulus (GPa) = 40.75538 43.20472 41.98005
#
# Velocity S-wave (km/s) = 3.91135 4.02717 3.96968
# Velocity P-wave (km/s) = 6.24492 6.37497 6.31028
#
# Compressibility (1/GPa) = 0.02018066
#
# Stress axis : x y z
#
# Youngs Moduli (GPa) = 80.97783 119.20681 117.19766
#
# Poissons Ratio (x) = 0.13987 0.30746
# Poissons Ratio (y) = 0.09501 0.08768
# Poissons Ratio (z) = 0.21244 0.08918
#
# Static dielectric constant tensor:
#      x y z
#    x 2.143850 0.000000 0.000000 
#    y 0.000000 2.116410 0.000000 
#    z 0.000000 0.000000 2.049170 
# 
# From -- ./inp_files/2120.got.cif
#   From: 2010.05.17/outbox.cif.g08.bks.cpg/sg19_2_cif.got.tgz:2120.got - 2010.06.03 22:46:19.
