data_PCOD9315698
_publ_section_title
;
Structure prediction by ZEFSAII (Michael W. Deem and Ramdas Pophale) SiO2 
 PCOD9315698
Probable space group: P 21 21 21
;
_chemical_formula_sum "Si O2"
_cell_formula_units_Z 20
_cell_length_a 19.884609
_cell_length_b 5.110311
_cell_length_c 8.395314
_cell_angle_alpha 90.000000
_cell_angle_beta 90.000000
_cell_angle_gamma 90.000000
_cell_volume 853.102728
_symmetry_space_group_name_H-M "P 21 21 21"
_symmetry_group_IT_number 19
_symmetry_cell_setting 'orthorhombic'
loop_
_space_group_symop_operation_xyz
x,y,z
1/2-x,-y,1/2+z
1/2+x,1/2-y,-z
-x,1/2+y,1/2-z
loop_
_atom_site_type_symbol
_atom_site_label
_atom_site_fract_x
_atom_site_fract_y
_atom_site_fract_z
Si Si1 0.956837 0.429845 0.073419
Si Si2 0.088087 0.085907 0.088484
Si Si3 0.014262 0.801076 0.853465
Si Si4 0.215610 0.249891 0.278858
Si Si5 0.685115 0.749082 0.502432
O O1 0.935052 0.427219 0.255944
O O2 0.894640 0.296166 0.985397
O O3 0.029078 0.295639 0.061156
O O4 0.965682 0.719394 0.000587
O O5 0.157081 0.213379 0.144710
O O6 0.083249 0.899860 0.934862
O O7 0.014131 0.537757 0.750754
O O8 0.200990 0.500232 0.388264
O O9 0.212662 0.001164 0.397257
O O10 0.281541 0.270714 0.170624
#
# Coordination Sequence:
#
# PCOD9315698 Si02
#       5
#     4   4   4   4   4
#     4  11  23  44  76 100 138 188 240 285 346 428
#     4  11  23  44  76 100 138 188 240 285 346 428
#     4  12  26  42  64 110 148 172 224 302 362 400
#     4  11  26  48  73 103 142 190 236 288 350 419
#     4  11  26  48  73 103 142 190 236 288 350 419
#
# _framework density 23.443836000000001
#
# number of rings (size 3 to 8) (size 9 to 14) (size 15 to 20)
#    0.000    0.800    4.000    2.400    5.600    1.600 
#    7.200    0.000    0.000    0.000    0.000    0.000 
#    0.000    0.000    0.000    0.000    0.000    0.000 
#
# Total GULP energy -111871.583918 kJ/mol
# GULP energy per Si atom -5593.579196 kJ/mol
# Density = 2.339048 g / cm^3
# Si number density = 23.443836 Si / 1000 Ang^3
#
#
#
# Elastic Constant Matrix: (Units=GPa)
#
#
# Indices 1 2 3 4 5 6 
#
# 1 49.8161 13.3706 11.2051 0.0000 0.0000 0.0000
# 2 13.3706 139.8460 13.7888 0.0000 0.0000 0.0000
# 3 11.2051 13.7888 51.4181 0.0000 0.0000 0.0000
# 4 0.0000 0.0000 0.0000 61.7760 0.0000 0.0000
# 5 0.0000 0.0000 0.0000 0.0000 38.5480 0.0000
# 6 0.0000 0.0000 0.0000 0.0000 0.0000 21.0145
#
#
#
# Elastic Compliance Matrix: (Units=1/GPa)
#
#
# Indices 1 2 3 4 5 6 
#
# 1 0.021466 -0.001634 -0.004240 0.000000 0.000000 0.000000
# 2 -0.001634 0.007469 -0.001647 0.000000 0.000000 0.000000
# 3 -0.004240 -0.001647 0.020814 0.000000 0.000000 0.000000
# 4 0.000000 0.000000 0.000000 0.016188 0.000000 0.000000
# 5 0.000000 0.000000 0.000000 0.000000 0.025942 0.000000
# 6 0.000000 0.000000 0.000000 0.000000 0.000000 0.047586
#
#
# Mechanical properties :
#
#
# Convention : Reuss Voigt Hill
#
# Bulk Modulus (GPa) = 28.81205 35.31212 32.06208
# Shear Modulus (GPa) = 30.10676 37.78210 33.94443
#
# Velocity S-wave (km/s) = 3.58747 4.01883 3.80926
# Velocity P-wave (km/s) = 5.42922 6.05225 5.74918
#
# Compressibility (1/GPa) = 0.03470770
#
# Stress axis : x y z
#
# Youngs Moduli (GPa) = 46.58507 133.88018 48.04468
#
# Poissons Ratio (x) = 0.21880 0.20369
# Poissons Ratio (y) = 0.07614 0.07913
# Poissons Ratio (z) = 0.19750 0.22049
#
# Static dielectric constant tensor:
#      x y z
#    x 1.897540 0.000000 0.000000 
#    y 0.000000 1.917500 0.000000 
#    z 0.000000 0.000000 1.929070 
# 
# From -- ./inp_files/2391.got.cif
#   From: 2010.05.17/outbox.cif.g08.bks.cpg/sg19_2_cif.got.tgz:2391.got - 2010.06.03 22:46:19.
