data_PCOD9315175
_publ_section_title
;
Structure prediction by ZEFSAII (Michael W. Deem and Ramdas Pophale) SiO2 
 PCOD9315175
Probable space group: P 21 21 21
;
_chemical_formula_sum "Si O2"
_cell_formula_units_Z 28
_cell_length_a 4.955852
_cell_length_b 14.917677
_cell_length_c 14.238325
_cell_angle_alpha 90.000000
_cell_angle_beta 90.000000
_cell_angle_gamma 90.000000
_cell_volume 1052.636511
_symmetry_space_group_name_H-M "P 21 21 21"
_symmetry_group_IT_number 19
_symmetry_cell_setting 'orthorhombic'
loop_
_space_group_symop_operation_xyz
x,y,z
1/2-x,-y,1/2+z
1/2+x,1/2-y,-z
-x,1/2+y,1/2-z
loop_
_atom_site_type_symbol
_atom_site_label
_atom_site_fract_x
_atom_site_fract_y
_atom_site_fract_z
Si Si1 0.890784 0.256013 0.276919
Si Si2 0.938206 0.946306 0.259813
Si Si3 0.288583 0.217836 0.451494
Si Si4 0.548750 0.869317 0.424158
Si Si5 0.893467 0.309230 0.828143
Si Si6 0.156224 0.467799 0.915849
Si Si7 0.833719 0.530457 0.078770
O O1 0.863980 0.363185 0.261798
O O2 0.083915 0.244217 0.367510
O O3 0.089703 0.215766 0.197519
O O4 0.602955 0.209586 0.258098
O O5 0.721548 0.907520 0.335327
O O6 0.815108 0.978853 0.162845
O O7 0.054889 0.031640 0.315968
O O8 0.572581 0.267815 0.463230
O O9 0.359205 0.113081 0.439692
O O10 0.517810 0.764898 0.405379
O O11 0.683323 0.895323 0.522326
O O12 0.284675 0.930800 0.426441
O O13 0.929378 0.409841 0.863188
O O14 0.047645 0.534280 0.995463
#
# Coordination Sequence:
#
# PCOD9315175 Si02
#       7
#     4   4   4   4   4   4   4
#     4  11  24  46  70 102 141 190 240 291 356 426
#     4  10  23  45  67 101 140 186 234 294 353 425
#     4  12  28  46  73 102 144 188 241 296 354 422
#     4  10  25  42  68 100 142 180 237 302 348 421
#     4  11  25  45  71 103 142 187 234 297 358 425
#     4  11  26  41  74 101 139 189 242 282 369 423
#     4  11  25  45  69 103 142 182 236 300 348 418
#
# _framework density 26.599879000000001
#
# number of rings (size 3 to 8) (size 9 to 14) (size 15 to 20)
#    0.000    1.143    1.429    2.571   12.000    2.286 
#    0.000    0.000    0.000    0.000    0.000    0.000 
#    0.000    0.000    0.000    0.000    0.000    0.000 
#
# Total GULP energy -156808.503003 kJ/mol
# GULP energy per Si atom -5600.303679 kJ/mol
# Density = 2.653934 g / cm^3
# Si number density = 26.599879 Si / 1000 Ang^3
#
#
#
# Elastic Constant Matrix: (Units=GPa)
#
#
# Indices 1 2 3 4 5 6 
#
# 1 98.2175 6.1594 16.0139 0.0000 0.0000 0.0000
# 2 6.1594 85.3743 5.7780 0.0000 0.0000 0.0000
# 3 16.0139 5.7780 122.1569 0.0000 0.0000 0.0000
# 4 0.0000 0.0000 0.0000 31.3951 0.0000 0.0000
# 5 0.0000 0.0000 0.0000 0.0000 37.5064 0.0000
# 6 0.0000 0.0000 0.0000 0.0000 0.0000 19.1899
#
#
#
# Elastic Compliance Matrix: (Units=1/GPa)
#
#
# Indices 1 2 3 4 5 6 
#
# 1 0.010441 -0.000663 -0.001337 0.000000 0.000000 0.000000
# 2 -0.000663 0.011793 -0.000471 0.000000 0.000000 0.000000
# 3 -0.001337 -0.000471 0.008384 0.000000 0.000000 0.000000
# 4 0.000000 0.000000 0.000000 0.031852 0.000000 0.000000
# 5 0.000000 0.000000 0.000000 0.000000 0.026662 0.000000
# 6 0.000000 0.000000 0.000000 0.000000 0.000000 0.052111
#
#
# Mechanical properties :
#
#
# Convention : Reuss Voigt Hill
#
# Bulk Modulus (GPa) = 38.94760 40.18349 39.56554
# Shear Modulus (GPa) = 32.31157 36.13811 34.22484
#
# Velocity S-wave (km/s) = 3.48907 3.68989 3.59089
# Velocity P-wave (km/s) = 5.55926 5.77002 5.66562
#
# Compressibility (1/GPa) = 0.02567553
#
# Stress axis : x y z
#
# Youngs Moduli (GPa) = 95.77529 84.79739 119.27776
#
# Poissons Ratio (x) = 0.05620 0.15952
# Poissons Ratio (y) = 0.06348 0.05617
# Poissons Ratio (z) = 0.12809 0.03993
#
# Static dielectric constant tensor:
#      x y z
#    x 2.077920 0.000000 0.000000 
#    y 0.000000 2.027800 0.000000 
#    z 0.000000 0.000000 2.209370 
# 
# From -- ./inp_files/5681.got.cif
#   From: 2010.05.17/outbox.cif.g08.bks.cpg/sg19_3_cif.got.tgz:5681.got - 2010.06.03 22:46:19.
