data_PCOD9315088
_publ_section_title
;
Structure prediction by ZEFSAII (Michael W. Deem and Ramdas Pophale) SiO2 
 PCOD9315088
Probable space group: P 21 21 21
;
_chemical_formula_sum "Si O2"
_cell_formula_units_Z 32
_cell_length_a 7.879910
_cell_length_b 18.374880
_cell_length_c 8.872360
_cell_angle_alpha 90.000000
_cell_angle_beta 90.000000
_cell_angle_gamma 90.000000
_cell_volume 1284.650304
_symmetry_space_group_name_H-M "P 21 21 21"
_symmetry_group_IT_number 19
_symmetry_cell_setting 'orthorhombic'
loop_
_space_group_symop_operation_xyz
x,y,z
1/2-x,-y,1/2+z
1/2+x,1/2-y,-z
-x,1/2+y,1/2-z
loop_
_atom_site_type_symbol
_atom_site_label
_atom_site_fract_x
_atom_site_fract_y
_atom_site_fract_z
Si Si1 0.736524 0.937251 0.957305
Si Si2 0.410766 0.166138 0.842371
Si Si3 0.109736 0.293589 0.442983
Si Si4 0.389765 0.226684 0.271705
Si Si5 0.082313 0.554008 0.341496
Si Si6 0.928711 0.436126 0.742983
Si Si7 0.231032 0.978184 0.485133
Si Si8 0.727581 0.804018 0.504064
O O1 0.584966 0.951885 0.840104
O O2 0.893739 0.940673 0.839566
O O3 0.750708 0.856553 0.025623
O O4 0.793607 0.993691 0.084479
O O5 0.464750 0.174351 0.667323
O O6 0.330289 0.088471 0.880656
O O7 0.589737 0.177342 0.932357
O O8 0.287219 0.230882 0.896876
O O9 0.207338 0.231807 0.352596
O O10 0.030398 0.268688 0.599486
O O11 0.403545 0.146228 0.203079
O O12 0.387809 0.286969 0.142539
O O13 0.156204 0.631193 0.395507
O O14 0.898962 0.544919 0.418514
O O15 0.793010 0.455997 0.615862
O O16 0.906821 0.489208 0.884027
#
# Coordination Sequence:
#
# PCOD9315088 Si02
#       8
#     4   4   4   4   4   4   4   4
#     4  10  25  47  66 100 141 180 236 282 352 418
#     4  11  24  43  70  98 140 178 237 288 354 418
#     4  10  25  43  68  98 136 184 220 297 344 414
#     4  10  23  43  64  97 137 171 240 275 360 406
#     4  11  26  42  72 102 138 187 238 286 358 424
#     4  10  23  44  63  98 130 182 228 290 341 417
#     4  11  24  42  68  99 135 180 234 287 352 420
#     4  11  24  42  69 100 133 182 231 291 349 419
#
# _framework density 24.909503999999998
#
# number of rings (size 3 to 8) (size 9 to 14) (size 15 to 20)
#    0.000    1.500    1.250    1.500   14.000    2.000 
#    2.250    0.000    0.000    0.000    0.000    0.000 
#    0.000    0.000    0.000    0.000    0.000    0.000 
#
# Total GULP energy -179220.732872 kJ/mol
# GULP energy per Si atom -5600.647902 kJ/mol
# Density = 2.485281 g / cm^3
# Si number density = 24.909504 Si / 1000 Ang^3
#
#
#
# Elastic Constant Matrix: (Units=GPa)
#
#
# Indices 1 2 3 4 5 6 
#
# 1 73.7420 4.2885 6.0569 0.0000 0.0000 0.0000
# 2 4.2885 43.7435 13.3602 0.0000 0.0000 0.0000
# 3 6.0569 13.3602 125.4764 0.0000 0.0000 0.0000
# 4 0.0000 0.0000 0.0000 32.6518 0.0000 0.0000
# 5 0.0000 0.0000 0.0000 0.0000 52.3605 0.0000
# 6 0.0000 0.0000 0.0000 0.0000 0.0000 19.9308
#
#
#
# Elastic Compliance Matrix: (Units=1/GPa)
#
#
# Indices 1 2 3 4 5 6 
#
# 1 0.013673 -0.001177 -0.000535 0.000000 0.000000 0.000000
# 2 -0.001177 0.023730 -0.002470 0.000000 0.000000 0.000000
# 3 -0.000535 -0.002470 0.008258 0.000000 0.000000 0.000000
# 4 0.000000 0.000000 0.000000 0.030626 0.000000 0.000000
# 5 0.000000 0.000000 0.000000 0.000000 0.019098 0.000000
# 6 0.000000 0.000000 0.000000 0.000000 0.000000 0.050174
#
#
# Mechanical properties :
#
#
# Convention : Reuss Voigt Hill
#
# Bulk Modulus (GPa) = 26.81081 32.26369 29.53725
# Shear Modulus (GPa) = 30.05598 35.60571 32.83085
#
# Velocity S-wave (km/s) = 3.47739 3.78485 3.63437
# Velocity P-wave (km/s) = 5.18745 5.66397 5.43094
#
# Compressibility (1/GPa) = 0.03729839
#
# Stress axis : x y z
#
# Youngs Moduli (GPa) = 73.13594 42.14022 121.08859
#
# Poissons Ratio (x) = 0.04961 0.06474
# Poissons Ratio (y) = 0.08609 0.29907
# Poissons Ratio (z) = 0.03910 0.10408
#
# Static dielectric constant tensor:
#      x y z
#    x 2.030980 0.000000 0.000000 
#    y 0.000000 1.906810 0.000000 
#    z 0.000000 0.000000 1.953700 
# 
# From -- ./inp_files/3155.got.cif
#   From: 2010.05.17/outbox.cif.g08.bks.cpg/sg19_2_cif.got.tgz:3155.got - 2010.06.03 22:46:19.
