data_PCOD9315608
_publ_section_title
;
Structure prediction by ZEFSAII (Michael W. Deem and Ramdas Pophale) SiO2 
 PCOD9315608
Probable space group: P 21 21 21
;
_chemical_formula_sum "Si O2"
_cell_formula_units_Z 28
_cell_length_a 6.506980
_cell_length_b 13.911015
_cell_length_c 15.399427
_cell_angle_alpha 90.000000
_cell_angle_beta 90.000000
_cell_angle_gamma 90.000000
_cell_volume 1393.936057
_symmetry_space_group_name_H-M "P 21 21 21"
_symmetry_group_IT_number 19
_symmetry_cell_setting 'orthorhombic'
loop_
_space_group_symop_operation_xyz
x,y,z
1/2-x,-y,1/2+z
1/2+x,1/2-y,-z
-x,1/2+y,1/2-z
loop_
_atom_site_type_symbol
_atom_site_label
_atom_site_fract_x
_atom_site_fract_y
_atom_site_fract_z
Si Si1 0.952873 0.059798 0.155045
Si Si2 0.183655 0.563401 0.711593
Si Si3 0.405009 0.343340 0.471178
Si Si4 0.059024 0.249504 0.252582
Si Si5 0.251567 0.853821 0.907435
Si Si6 0.914356 0.989392 0.972014
Si Si7 0.712535 0.393790 0.314436
O O1 0.979379 0.167669 0.188748
O O2 0.147761 0.988281 0.170687
O O3 0.775646 0.008961 0.214701
O O4 0.928947 0.064045 0.050662
O O5 0.313622 0.661206 0.715593
O O6 0.201317 0.523009 0.614378
O O7 0.947381 0.587148 0.736284
O O8 0.350957 0.232789 0.461001
O O9 0.518184 0.364978 0.560203
O O10 0.198279 0.403717 0.475237
O O11 0.562374 0.373662 0.395809
O O12 0.220581 0.190339 0.312719
O O13 0.866355 0.303456 0.299607
O O14 0.124016 0.947149 0.931754
#
# Coordination Sequence:
#
# PCOD9315608 Si02
#       7
#     4   4   4   4   4   4   4
#     4  11  24  46  65  96 135 175 223 274 334 396
#     4  11  25  45  66  98 133 177 225 271 336 405
#     4  12  21  37  65  99 129 162 217 277 336 388
#     4  11  25  43  67  96 134 179 224 277 331 405
#     4  12  22  37  67 102 127 166 217 279 340 384
#     4  12  25  42  67  98 136 177 221 278 333 401
#     4  11  22  44  67  95 136 170 221 282 328 397
#
# _framework density 20.087005999999999
#
# number of rings (size 3 to 8) (size 9 to 14) (size 15 to 20)
#    0.000    0.571    5.714    3.429    2.000    2.286 
#    2.571    0.000    0.000    0.000    0.000    0.000 
#    0.000    0.000    0.000    0.000    0.000    0.000 
#
# Total GULP energy -156209.025012 kJ/mol
# GULP energy per Si atom -5578.893750 kJ/mol
# Density = 2.004129 g / cm^3
# Si number density = 20.087006 Si / 1000 Ang^3
#
#
#
# Elastic Constant Matrix: (Units=GPa)
#
#
# Indices 1 2 3 4 5 6 
#
# 1 54.3752 -17.5850 21.4312 0.0000 0.0000 0.0000
# 2 -17.5850 -18.9882 40.1061 0.0000 0.0000 0.0000
# 3 21.4312 40.1061 120.8345 0.0000 0.0000 0.0000
# 4 0.0000 0.0000 0.0000 35.2355 0.0000 0.0000
# 5 0.0000 0.0000 0.0000 0.0000 27.3578 0.0000
# 6 0.0000 0.0000 0.0000 0.0000 0.0000 20.8634
#
#
#
# Elastic Compliance Matrix: (Units=1/GPa)
#
#
# Indices 1 2 3 4 5 6 
#
# 1 0.014397 -0.011009 0.001100 0.000000 0.000000 0.000000
# 2 -0.011009 -0.022542 0.009434 0.000000 0.000000 0.000000
# 3 0.001100 0.009434 0.004949 0.000000 0.000000 0.000000
# 4 0.000000 0.000000 0.000000 0.028380 0.000000 0.000000
# 5 0.000000 0.000000 0.000000 0.000000 0.036553 0.000000
# 6 0.000000 0.000000 0.000000 0.000000 0.000000 0.047931
#
#
# Mechanical properties :
#
#
# Convention : Reuss Voigt Hill
#
# Bulk Modulus (GPa) = -241.33820 27.12512 -107.10654
# Shear Modulus (GPa) = 45.77325 24.17595 34.97460
#
# Velocity S-wave (km/s) = 4.77880 3.47300 4.17724
# Velocity P-wave (km/s) = 9.48462 5.44201 5.49284
#
# Compressibility (1/GPa) = -0.00414356
#
# Stress axis : x y z
#
# Youngs Moduli (GPa) = 69.45986 -44.36137 202.05193
#
# Poissons Ratio (x) = -0.48836 -0.22235
# Poissons Ratio (y) = 0.76466 -1.90625
# Poissons Ratio (z) = -0.07644 0.41852
#
# Static dielectric constant tensor:
#      x y z
#    x 1.751970 0.000000 0.000000 
#    y 0.000000 1.701130 0.000000 
#    z 0.000000 0.000000 1.784720 
# 
# From -- ./inp_files/5699.got.cif
#   From: 2010.05.17/outbox.cif.g08.bks.cpg/sg19_3_cif.got.tgz:5699.got - 2010.06.03 22:46:19.
