data_PCOD9315196
_publ_section_title
;
Structure prediction by ZEFSAII (Michael W. Deem and Ramdas Pophale) SiO2 
 PCOD9315196
Probable space group: P 21 21 21
;
_chemical_formula_sum "Si O2"
_cell_formula_units_Z 28
_cell_length_a 11.199600
_cell_length_b 13.998909
_cell_length_c 8.496721
_cell_angle_alpha 90.000000
_cell_angle_beta 90.000000
_cell_angle_gamma 90.000000
_cell_volume 1332.134452
_symmetry_space_group_name_H-M "P 21 21 21"
_symmetry_group_IT_number 19
_symmetry_cell_setting 'orthorhombic'
loop_
_space_group_symop_operation_xyz
x,y,z
1/2-x,-y,1/2+z
1/2+x,1/2-y,-z
-x,1/2+y,1/2-z
loop_
_atom_site_type_symbol
_atom_site_label
_atom_site_fract_x
_atom_site_fract_y
_atom_site_fract_z
Si Si1 0.801024 0.680894 0.773064
Si Si2 0.552033 0.356482 0.588079
Si Si3 0.129014 0.325538 0.234840
Si Si4 0.498102 0.419009 0.074262
Si Si5 0.234632 0.648076 0.425605
Si Si6 0.659599 0.936671 0.114079
Si Si7 0.080156 0.962242 0.211177
O O1 0.762558 0.787287 0.724440
O O2 0.687833 0.611500 0.781913
O O3 0.892336 0.641213 0.641428
O O4 0.870111 0.671438 0.936564
O O5 0.557148 0.262992 0.695181
O O6 0.425540 0.393849 0.520925
O O7 0.607234 0.443544 0.687405
O O8 0.233709 0.363318 0.349360
O O9 0.035520 0.411190 0.215939
O O10 0.196475 0.304760 0.072705
O O11 0.420614 0.448338 0.227533
O O12 0.405038 0.359686 0.967085
O O13 0.546429 0.504357 0.965265
O O14 0.282960 0.539832 0.417583
#
# Coordination Sequence:
#
# PCOD9315196 Si02
#       7
#     4   4   4   4   4   4   4
#     4  11  27  43  69 104 138 186 228 291 357 423
#     4  11  26  44  67 103 141 180 240 289 357 417
#     4  11  25  40  71 102 130 188 234 290 351 418
#     4  10  24  45  67  99 141 185 229 287 354 420
#     4  11  23  45  72  98 141 185 237 291 347 428
#     4  10  23  46  68 102 139 181 240 293 342 427
#     4  12  24  43  70  98 142 179 230 291 356 413
#
# _framework density 21.018899999999999
#
# number of rings (size 3 to 8) (size 9 to 14) (size 15 to 20)
#    0.000    1.143    2.857    1.714    8.000    0.000 
#    0.000    2.857    0.000    0.000    0.000    0.000 
#    0.000    0.000    0.000    0.000    0.000    0.000 
#
# Total GULP energy -156611.609979 kJ/mol
# GULP energy per Si atom -5593.271785 kJ/mol
# Density = 2.097106 g / cm^3
# Si number density = 21.018900 Si / 1000 Ang^3
#
#
#
# Elastic Constant Matrix: (Units=GPa)
#
#
# Indices 1 2 3 4 5 6 
#
# 1 109.3437 36.7320 41.4474 0.0000 0.0000 0.0000
# 2 36.7320 112.9468 56.9384 0.0000 0.0000 0.0000
# 3 41.4474 56.9384 66.8228 0.0000 0.0000 0.0000
# 4 0.0000 0.0000 0.0000 40.5681 0.0000 0.0000
# 5 0.0000 0.0000 0.0000 0.0000 33.0367 0.0000
# 6 0.0000 0.0000 0.0000 0.0000 0.0000 20.2051
#
#
#
# Elastic Compliance Matrix: (Units=1/GPa)
#
#
# Indices 1 2 3 4 5 6 
#
# 1 0.011961 -0.000263 -0.007195 0.000000 0.000000 0.000000
# 2 -0.000263 0.015526 -0.013067 0.000000 0.000000 0.000000
# 3 -0.007195 -0.013067 0.030562 0.000000 0.000000 0.000000
# 4 0.000000 0.000000 0.000000 0.024650 0.000000 0.000000
# 5 0.000000 0.000000 0.000000 0.000000 0.030269 0.000000
# 6 0.000000 0.000000 0.000000 0.000000 0.000000 0.049493
#
#
# Mechanical properties :
#
#
# Convention : Reuss Voigt Hill
#
# Bulk Modulus (GPa) = 58.82360 62.14989 60.48675
# Shear Modulus (GPa) = 23.90323 29.02833 26.46578
#
# Velocity S-wave (km/s) = 3.37594 3.72029 3.55229
# Velocity P-wave (km/s) = 6.57592 6.93447 6.75757
#
# Compressibility (1/GPa) = 0.01699998
#
# Stress axis : x y z
#
# Youngs Moduli (GPa) = 83.60453 64.40662 32.72072
#
# Poissons Ratio (x) = 0.01692 0.23543
# Poissons Ratio (y) = 0.02197 0.42755
# Poissons Ratio (z) = 0.60154 0.84158
#
# Static dielectric constant tensor:
#      x y z
#    x 1.729610 0.000000 0.000000 
#    y 0.000000 1.716080 0.000000 
#    z 0.000000 0.000000 1.777470 
# 
# From -- ./inp_files/3456.got.cif
#   From: 2010.05.17/outbox.cif.g08.bks.cpg/sg19_2_cif.got.tgz:3456.got - 2010.06.03 22:46:19.
