data_PCOD9315036
_publ_section_title
;
Structure prediction by ZEFSAII (Michael W. Deem and Ramdas Pophale) SiO2 
 PCOD9315036
Probable space group: P 21 21 21
;
_chemical_formula_sum "Si O2"
_cell_formula_units_Z 32
_cell_length_a 32.181296
_cell_length_b 8.020301
_cell_length_c 5.433295
_cell_angle_alpha 90.000000
_cell_angle_beta 90.000000
_cell_angle_gamma 90.000000
_cell_volume 1402.353437
_symmetry_space_group_name_H-M "P 21 21 21"
_symmetry_group_IT_number 19
_symmetry_cell_setting 'orthorhombic'
loop_
_space_group_symop_operation_xyz
x,y,z
1/2-x,-y,1/2+z
1/2+x,1/2-y,-z
-x,1/2+y,1/2-z
loop_
_atom_site_type_symbol
_atom_site_label
_atom_site_fract_x
_atom_site_fract_y
_atom_site_fract_z
Si Si1 0.715410 0.710818 0.521408
Si Si2 0.530577 0.268311 0.020389
Si Si3 0.192104 0.223181 0.979407
Si Si4 0.986576 0.337833 0.481758
Si Si5 0.358716 0.995887 0.090676
Si Si6 0.189828 0.609518 0.987996
Si Si7 0.105001 0.781425 0.966266
Si Si8 0.112141 0.152037 0.194692
O O1 0.762424 0.645920 0.497075
O O2 0.679749 0.573823 0.561814
O O3 0.704801 0.791178 0.255119
O O4 0.712105 0.830913 0.760263
O O5 0.505927 0.193124 0.786673
O O6 0.579214 0.244621 0.955871
O O7 0.523947 0.467314 0.007303
O O8 0.515080 0.207150 0.284443
O O9 0.165836 0.116063 0.786443
O O10 0.197979 0.417596 0.928061
O O11 0.158653 0.223541 0.198653
O O12 0.942944 0.236596 0.503748
O O13 0.394776 0.877041 0.982378
O O14 0.383508 0.155633 0.193030
O O15 0.140861 0.650571 0.030070
O O16 0.111356 0.957440 0.110208
#
# Coordination Sequence:
#
# PCOD9315036 Si02
#       8
#     4   4   4   4   4   4   4   4
#     4  11  25  43  66  94 138 175 230 264 345 398
#     4  11  26  44  71  98 140 169 227 273 345 395
#     4  11  26  38  67 100 132 173 228 289 323 390
#     4  11  25  44  72 102 132 179 220 284 329 414
#     4  10  23  41  68  93 129 182 222 277 324 406
#     4  11  24  44  64  97 134 179 212 283 339 398
#     4   9  22  43  68  90 131 177 225 253 347 406
#     4  10  23  43  66  94 134 180 220 277 332 399
#
# _framework density 22.818784999999998
#
# number of rings (size 3 to 8) (size 9 to 14) (size 15 to 20)
#    0.000    1.500    1.250    1.500   14.000    2.000 
#    0.000    0.000    0.000    0.000    0.000    0.000 
#    0.000    0.000    0.000    0.000    0.000    0.000 
#
# Total GULP energy -178418.655913 kJ/mol
# GULP energy per Si atom -5575.582997 kJ/mol
# Density = 2.276685 g / cm^3
# Si number density = 22.818785 Si / 1000 Ang^3
#
#
#
# Elastic Constant Matrix: (Units=GPa)
#
#
# Indices 1 2 3 4 5 6 
#
# 1 90.8328 -5.7480 30.9064 0.0000 0.0000 0.0000
# 2 -5.7480 37.4685 10.4714 0.0000 0.0000 0.0000
# 3 30.9064 10.4714 56.9644 0.0000 0.0000 0.0000
# 4 0.0000 0.0000 0.0000 17.2734 0.0000 0.0000
# 5 0.0000 0.0000 0.0000 0.0000 23.2049 0.0000
# 6 0.0000 0.0000 0.0000 0.0000 0.0000 26.6415
#
#
#
# Elastic Compliance Matrix: (Units=1/GPa)
#
#
# Indices 1 2 3 4 5 6 
#
# 1 0.014207 0.004568 -0.008548 0.000000 0.000000 0.000000
# 2 0.004568 0.029603 -0.007920 0.000000 0.000000 0.000000
# 3 -0.008548 -0.007920 0.023648 0.000000 0.000000 0.000000
# 4 0.000000 0.000000 0.000000 0.057893 0.000000 0.000000
# 5 0.000000 0.000000 0.000000 0.000000 0.043094 0.000000
# 6 0.000000 0.000000 0.000000 0.000000 0.000000 0.037535
#
#
# Mechanical properties :
#
#
# Convention : Reuss Voigt Hill
#
# Bulk Modulus (GPa) = 22.90479 28.50280 25.70380
# Shear Modulus (GPa) = 20.46384 23.39968 21.93176
#
# Velocity S-wave (km/s) = 2.99791 3.20575 3.10357
# Velocity P-wave (km/s) = 4.69497 5.12060 4.91239
#
# Compressibility (1/GPa) = 0.04365898
#
# Stress axis : x y z
#
# Youngs Moduli (GPa) = 70.38921 33.77989 42.28625
#
# Poissons Ratio (x) = -0.15432 0.36145
# Poissons Ratio (y) = -0.32156 0.33492
# Poissons Ratio (z) = 0.60167 0.26755
#
# Static dielectric constant tensor:
#      x y z
#    x 1.916540 0.000000 0.000000 
#    y 0.000000 1.834020 0.000000 
#    z 0.000000 0.000000 2.231800 
# 
# From -- ./inp_files/2307.got.cif
#   From: 2010.05.17/outbox.cif.g08.bks.cpg/sg19_2_cif.got.tgz:2307.got - 2010.06.03 22:46:19.
