data_PCOD9315058
_publ_section_title
;
Structure prediction by ZEFSAII (Michael W. Deem and Ramdas Pophale) SiO2 
 PCOD9315058
Probable space group: P 21 21 21
;
_chemical_formula_sum "Si O2"
_cell_formula_units_Z 28
_cell_length_a 12.515521
_cell_length_b 12.967038
_cell_length_c 7.796879
_cell_angle_alpha 90.000000
_cell_angle_beta 90.000000
_cell_angle_gamma 90.000000
_cell_volume 1265.349539
_symmetry_space_group_name_H-M "P 21 21 21"
_symmetry_group_IT_number 19
_symmetry_cell_setting 'orthorhombic'
loop_
_space_group_symop_operation_xyz
x,y,z
1/2-x,-y,1/2+z
1/2+x,1/2-y,-z
-x,1/2+y,1/2-z
loop_
_atom_site_type_symbol
_atom_site_label
_atom_site_fract_x
_atom_site_fract_y
_atom_site_fract_z
Si Si1 0.627905 0.284103 0.803343
Si Si2 0.378893 0.239103 0.189466
Si Si3 0.968606 0.940159 0.649825
Si Si4 0.137221 0.430663 0.292203
Si Si5 0.510184 0.921298 0.482680
Si Si6 0.948961 0.155830 0.461389
Si Si7 0.231640 0.388834 0.660972
O O1 0.754821 0.284202 0.782099
O O2 0.598342 0.163470 0.821429
O O3 0.556566 0.320288 0.641240
O O4 0.591267 0.355075 0.960403
O O5 0.437525 0.139524 0.114063
O O6 0.399889 0.337082 0.066758
O O7 0.433893 0.274018 0.369406
O O8 0.862929 0.874605 0.703592
O O9 0.002363 0.002522 0.823357
O O10 0.947214 0.035586 0.521643
O O11 0.048099 0.508900 0.359067
O O12 0.184856 0.384709 0.469640
O O13 0.231020 0.494595 0.203574
O O14 0.842280 0.173792 0.345970
#
# Coordination Sequence:
#
# PCOD9315058 Si02
#       7
#     4   4   4   4   4   4   4
#     4  12  24  41  67  95 133 167 218 266 328 393
#     4  11  25  44  64  97 130 171 215 265 331 389
#     4  10  23  42  64  90 134 168 218 273 318 381
#     4  11  21  39  63  95 126 166 217 271 308 380
#     4  10  24  41  62  94 129 169 217 268 317 385
#     4  11  22  41  63  98 126 172 211 266 325 383
#     4  11  19  38  67  91 124 165 216 273 315 367
#
# _framework density 22.128274000000001
#
# number of rings (size 3 to 8) (size 9 to 14) (size 15 to 20)
#    0.000    1.143    4.286    3.429    2.000    2.286 
#    0.000    0.000    0.000    0.000    0.000    0.000 
#    0.000    0.000    0.000    0.000    0.000    0.000 
#
# Total GULP energy -156485.864769 kJ/mol
# GULP energy per Si atom -5588.780885 kJ/mol
# Density = 2.207791 g / cm^3
# Si number density = 22.128274 Si / 1000 Ang^3
#
#
#
# Elastic Constant Matrix: (Units=GPa)
#
#
# Indices 1 2 3 4 5 6 
#
# 1 129.3051 42.7438 26.6393 0.0000 0.0000 0.0000
# 2 42.7438 75.6986 3.5504 0.0000 0.0000 0.0000
# 3 26.6393 3.5504 79.0948 0.0000 0.0000 0.0000
# 4 0.0000 0.0000 0.0000 18.0427 0.0000 0.0000
# 5 0.0000 0.0000 0.0000 0.0000 33.5491 0.0000
# 6 0.0000 0.0000 0.0000 0.0000 0.0000 43.0173
#
#
#
# Elastic Compliance Matrix: (Units=1/GPa)
#
#
# Indices 1 2 3 4 5 6 
#
# 1 0.010258 -0.005642 -0.003202 0.000000 0.000000 0.000000
# 2 -0.005642 0.016342 0.001167 0.000000 0.000000 0.000000
# 3 -0.003202 0.001167 0.013669 0.000000 0.000000 0.000000
# 4 0.000000 0.000000 0.000000 0.055424 0.000000 0.000000
# 5 0.000000 0.000000 0.000000 0.000000 0.029807 0.000000
# 6 0.000000 0.000000 0.000000 0.000000 0.000000 0.023246
#
#
# Mechanical properties :
#
#
# Convention : Reuss Voigt Hill
#
# Bulk Modulus (GPa) = 40.13742 47.77395 43.95569
# Shear Modulus (GPa) = 29.00132 32.99949 31.00040
#
# Velocity S-wave (km/s) = 3.62415 3.86590 3.74698
# Velocity P-wave (km/s) = 5.97415 6.44696 6.21506
#
# Compressibility (1/GPa) = 0.02491441
#
# Stress axis : x y z
#
# Youngs Moduli (GPa) = 97.48074 61.19371 73.15794
#
# Poissons Ratio (x) = 0.34528 0.23424
# Poissons Ratio (y) = 0.55002 -0.08536
# Poissons Ratio (z) = 0.31211 -0.07140
#
# Static dielectric constant tensor:
#      x y z
#    x 1.799530 0.000000 0.000000 
#    y 0.000000 1.805780 0.000000 
#    z 0.000000 0.000000 1.905180 
# 
# From -- ./inp_files/3431.got.cif
#   From: 2010.05.17/outbox.cif.g08.bks.cpg/sg19_2_cif.got.tgz:3431.got - 2010.06.03 22:46:19.
