data_PCOD9315796
_publ_section_title
;
Structure prediction by ZEFSAII (Michael W. Deem and Ramdas Pophale) SiO2 
 PCOD9315796
Probable space group: P 21 21 21
;
_chemical_formula_sum "Si O2"
_cell_formula_units_Z 24
_cell_length_a 5.317693
_cell_length_b 11.592204
_cell_length_c 14.462399
_cell_angle_alpha 90.000000
_cell_angle_beta 90.000000
_cell_angle_gamma 90.000000
_cell_volume 891.516972
_symmetry_space_group_name_H-M "P 21 21 21"
_symmetry_group_IT_number 19
_symmetry_cell_setting 'orthorhombic'
loop_
_space_group_symop_operation_xyz
x,y,z
1/2-x,-y,1/2+z
1/2+x,1/2-y,-z
-x,1/2+y,1/2-z
loop_
_atom_site_type_symbol
_atom_site_label
_atom_site_fract_x
_atom_site_fract_y
_atom_site_fract_z
Si Si1 0.801231 0.775935 0.251262
Si Si2 0.145127 0.880148 0.087939
Si Si3 0.605433 0.906352 0.653725
Si Si4 0.525651 0.171528 0.008831
Si Si5 0.499509 0.696204 0.108808
Si Si6 0.674372 0.015308 0.851170
O O1 0.632586 0.676572 0.206744
O O2 0.666153 0.875189 0.311371
O O3 0.946263 0.821999 0.159335
O O4 0.002891 0.718933 0.319339
O O5 0.408368 0.828079 0.121456
O O6 0.070512 0.013722 0.088437
O O7 0.141000 0.824493 0.986127
O O8 0.872645 0.890909 0.602787
O O9 0.582067 0.969523 0.752551
O O10 0.504655 0.073020 0.929908
O O11 0.272286 0.246755 0.011380
O O12 0.291014 0.597483 0.103839
#
# Coordination Sequence:
#
# PCOD9315796 Si02
#       6
#     4   4   4   4   4   4
#     4  11  25  45  69 105 143 196 251 319 382 455
#     4  11  24  45  67 103 142 190 246 309 380 462
#     4  11  25  49  74 111 151 197 262 313 391 457
#     4  12  28  53  80 114 159 209 265 320 392 468
#     4  12  24  44  69 103 145 193 252 306 392 453
#     4  11  26  46  73 110 148 199 250 323 381 461
#
# _framework density 26.920406
#
# number of rings (size 3 to 8) (size 9 to 14) (size 15 to 20)
#    0.000    0.667    6.667    0.000    4.667    1.333 
#    6.000    0.000    0.000    0.000    0.000    0.000 
#    0.000    0.000    0.000    0.000    0.000    0.000 
#
# Total GULP energy -133992.375986 kJ/mol
# GULP energy per Si atom -5583.015666 kJ/mol
# Density = 2.685913 g / cm^3
# Si number density = 26.920406 Si / 1000 Ang^3
#
#
#
# Elastic Constant Matrix: (Units=GPa)
#
#
# Indices 1 2 3 4 5 6 
#
# 1 64.3116 8.4916 17.2938 0.0000 0.0000 0.0000
# 2 8.4916 96.1022 19.3260 0.0000 0.0000 0.0000
# 3 17.2938 19.3260 127.3768 0.0000 0.0000 0.0000
# 4 0.0000 0.0000 0.0000 51.5800 0.0000 0.0000
# 5 0.0000 0.0000 0.0000 0.0000 43.3683 0.0000
# 6 0.0000 0.0000 0.0000 0.0000 0.0000 28.5586
#
#
#
# Elastic Compliance Matrix: (Units=1/GPa)
#
#
# Indices 1 2 3 4 5 6 
#
# 1 0.016235 -0.001022 -0.002049 0.000000 0.000000 0.000000
# 2 -0.001022 0.010797 -0.001499 0.000000 0.000000 0.000000
# 3 -0.002049 -0.001499 0.008356 0.000000 0.000000 0.000000
# 4 0.000000 0.000000 0.000000 0.019387 0.000000 0.000000
# 5 0.000000 0.000000 0.000000 0.000000 0.023058 0.000000
# 6 0.000000 0.000000 0.000000 0.000000 0.000000 0.035016
#
#
# Mechanical properties :
#
#
# Convention : Reuss Voigt Hill
#
# Bulk Modulus (GPa) = 38.09932 42.00151 40.05041
# Shear Modulus (GPa) = 38.24335 40.87999 39.56167
#
# Velocity S-wave (km/s) = 3.77318 3.90109 3.83767
# Velocity P-wave (km/s) = 5.75898 5.99394 5.87763
#
# Compressibility (1/GPa) = 0.02624719
#
# Stress axis : x y z
#
# Youngs Moduli (GPa) = 61.59411 92.61439 119.66844
#
# Poissons Ratio (x) = 0.09470 0.24521
# Poissons Ratio (y) = 0.06298 0.17943
# Poissons Ratio (z) = 0.12621 0.13887
#
# Static dielectric constant tensor:
#      x y z
#    x 2.183000 0.000000 0.000000 
#    y 0.000000 2.239050 0.000000 
#    z 0.000000 0.000000 2.212200 
# 
# From -- ./inp_files/932.got.cif
#   From: 2010.05.17/outbox.cif.g08.bks.cpg/sg19_1_cif.got.tgz:932.got - 2010.06.03 22:46:19.
