data_PCOD9315176
_publ_section_title
;
Structure prediction by ZEFSAII (Michael W. Deem and Ramdas Pophale) SiO2 
 PCOD9315176
Probable space group: P 21 21 21
;
_chemical_formula_sum "Si O2"
_cell_formula_units_Z 24
_cell_length_a 16.494514
_cell_length_b 5.159293
_cell_length_c 11.873330
_cell_angle_alpha 90.000000
_cell_angle_beta 90.000000
_cell_angle_gamma 90.000000
_cell_volume 1010.420747
_symmetry_space_group_name_H-M "P 21 21 21"
_symmetry_group_IT_number 19
_symmetry_cell_setting 'orthorhombic'
loop_
_space_group_symop_operation_xyz
x,y,z
1/2-x,-y,1/2+z
1/2+x,1/2-y,-z
-x,1/2+y,1/2-z
loop_
_atom_site_type_symbol
_atom_site_label
_atom_site_fract_x
_atom_site_fract_y
_atom_site_fract_z
Si Si1 0.844585 0.299713 0.939507
Si Si2 0.504010 0.383436 0.182068
Si Si3 0.580892 0.162303 0.878990
Si Si4 0.598932 0.900738 0.644678
Si Si5 0.797813 0.802831 0.980669
Si Si6 0.623952 0.657468 0.013253
O O1 0.819801 0.575102 0.896884
O O2 0.932460 0.220312 0.897505
O O3 0.845655 0.309104 0.077664
O O4 0.784163 0.068309 0.913328
O O5 0.468768 0.621317 0.255693
O O6 0.574039 0.525647 0.112792
O O7 0.612396 0.021286 0.766293
O O8 0.490211 0.274949 0.856131
O O9 0.625280 0.424481 0.920749
O O10 0.582707 0.923794 0.968395
O O11 0.623698 0.132747 0.557867
O O12 0.715531 0.733448 0.043169
#
# Coordination Sequence:
#
# PCOD9315176 Si02
#       6
#     4   4   4   4   4   4
#     4  10  23  45  67  95 139 180 230 278 354 404
#     4  12  26  45  71  99 131 191 245 283 330 419
#     4  12  25  41  77 107 137 185 234 292 347 428
#     4  10  26  41  74 104 141 176 236 279 364 411
#     4  10  24  46  67  99 148 181 214 294 355 402
#     4  12  26  48  68 106 148 175 239 294 344 412
#
# _framework density 23.752479999999998
#
# number of rings (size 3 to 8) (size 9 to 14) (size 15 to 20)
#    1.000    0.000    1.667    4.000    9.333    0.000 
#    9.000    0.000    0.000    0.000    0.000    0.000 
#    0.000    0.000    0.000    0.000    0.000    0.000 
#
# Total GULP energy -133713.188698 kJ/mol
# GULP energy per Si atom -5571.382862 kJ/mol
# Density = 2.369842 g / cm^3
# Si number density = 23.752480 Si / 1000 Ang^3
#
#
#
# Elastic Constant Matrix: (Units=GPa)
#
#
# Indices 1 2 3 4 5 6 
#
# 1 78.4474 28.6626 15.8001 0.0000 0.0000 0.0000
# 2 28.6626 166.9309 32.6065 0.0000 0.0000 0.0000
# 3 15.8001 32.6065 57.7816 0.0000 0.0000 0.0000
# 4 0.0000 0.0000 0.0000 26.3135 0.0000 0.0000
# 5 0.0000 0.0000 0.0000 0.0000 1.6782 0.0000
# 6 0.0000 0.0000 0.0000 0.0000 0.0000 40.7290
#
#
#
# Elastic Compliance Matrix: (Units=1/GPa)
#
#
# Indices 1 2 3 4 5 6 
#
# 1 0.013986 -0.001859 -0.002775 0.000000 0.000000 0.000000
# 2 -0.001859 0.006980 -0.003430 0.000000 0.000000 0.000000
# 3 -0.002775 -0.003430 0.020001 0.000000 0.000000 0.000000
# 4 0.000000 0.000000 0.000000 0.038003 0.000000 0.000000
# 5 0.000000 0.000000 0.000000 0.000000 0.595869 0.000000
# 6 0.000000 0.000000 0.000000 0.000000 0.000000 0.024553
#
#
# Mechanical properties :
#
#
# Convention : Reuss Voigt Hill
#
# Bulk Modulus (GPa) = 40.26228 50.81091 45.53660
# Shear Modulus (GPa) = 6.90798 28.81685 17.86242
#
# Velocity S-wave (km/s) = 1.70723 3.48690 2.74528
# Velocity P-wave (km/s) = 4.56878 6.13593 5.40941
#
# Compressibility (1/GPa) = 0.02483714
#
# Stress axis : x y z
#
# Youngs Moduli (GPa) = 71.50171 143.27060 49.99721
#
# Poissons Ratio (x) = 0.26639 0.13875
# Poissons Ratio (y) = 0.13295 0.17151
# Poissons Ratio (z) = 0.19842 0.49146
#
# Static dielectric constant tensor:
#      x y z
#    x 1.929000 0.000000 0.000000 
#    y 0.000000 2.058260 0.000000 
#    z 0.000000 0.000000 1.981200 
# 
# From -- ./inp_files/5159.got.cif
#   From: 2010.05.17/outbox.cif.g08.bks.cpg/sg19_3_cif.got.tgz:5159.got - 2010.06.03 22:46:19.
