data_PCOD9315559
_publ_section_title
;
Structure prediction by ZEFSAII (Michael W. Deem and Ramdas Pophale) SiO2 
 PCOD9315559
Probable space group: P 21 21 21
;
_chemical_formula_sum "Si O2"
_cell_formula_units_Z 28
_cell_length_a 8.737720
_cell_length_b 11.142709
_cell_length_c 11.580661
_cell_angle_alpha 90.000000
_cell_angle_beta 90.000000
_cell_angle_gamma 90.000000
_cell_volume 1127.514826
_symmetry_space_group_name_H-M "P 21 21 21"
_symmetry_group_IT_number 19
_symmetry_cell_setting 'orthorhombic'
loop_
_space_group_symop_operation_xyz
x,y,z
1/2-x,-y,1/2+z
1/2+x,1/2-y,-z
-x,1/2+y,1/2-z
loop_
_atom_site_type_symbol
_atom_site_label
_atom_site_fract_x
_atom_site_fract_y
_atom_site_fract_z
Si Si1 0.679296 0.468892 0.465954
Si Si2 0.600346 0.718357 0.094230
Si Si3 0.593736 0.324103 0.238084
Si Si4 0.054463 0.517844 0.168389
Si Si5 0.965876 0.615756 0.481575
Si Si6 0.947556 0.267484 0.207965
Si Si7 0.690527 0.084733 0.493690
O O1 0.783182 0.378551 0.543881
O O2 0.618491 0.411621 0.347664
O O3 0.546627 0.502597 0.553689
O O4 0.801743 0.571322 0.437247
O O5 0.537599 0.729850 0.224037
O O6 0.442985 0.681630 0.030078
O O7 0.680263 0.843540 0.062366
O O8 0.764598 0.274284 0.218781
O O9 0.545091 0.383806 0.119272
O O10 0.005730 0.646511 0.222945
O O11 0.226831 0.537605 0.123007
O O12 0.020966 0.395983 0.240784
O O13 0.002338 0.740483 0.422530
O O14 0.106205 0.527958 0.449987
#
# Coordination Sequence:
#
# PCOD9315559 Si02
#       7
#     4   4   4   4   4   4   4
#     4  11  24  48  78 115 158 216 273 339 420 500
#     4  11  21  44  78 112 160 204 280 334 398 506
#     4  12  24  49  77 114 161 213 271 344 416 496
#     4  12  25  50  82 115 165 222 276 348 419 504
#     4  11  29  47  72 117 163 213 277 347 422 499
#     4  12  28  50  79 117 171 217 280 345 426 499
#     4  11  23  44  76 118 152 211 275 339 411 492
#
# _framework density 24.833376999999999
#
# number of rings (size 3 to 8) (size 9 to 14) (size 15 to 20)
#    0.000    0.571    5.714    0.857    2.000    4.571 
#    5.143    0.000    0.000    0.000    0.000    0.000 
#    0.000    0.000    0.000    0.000    0.000    0.000 
#
# Total GULP energy -156551.269392 kJ/mol
# GULP energy per Si atom -5591.116764 kJ/mol
# Density = 2.477686 g / cm^3
# Si number density = 24.833377 Si / 1000 Ang^3
#
#
#
# Elastic Constant Matrix: (Units=GPa)
#
#
# Indices 1 2 3 4 5 6 
#
# 1 100.6158 67.8144 25.2022 0.0000 0.0000 0.0000
# 2 67.8144 136.5781 60.7841 0.0000 0.0000 0.0000
# 3 25.2022 60.7841 97.7582 0.0000 0.0000 0.0000
# 4 0.0000 0.0000 0.0000 42.5015 0.0000 0.0000
# 5 0.0000 0.0000 0.0000 0.0000 34.1754 0.0000
# 6 0.0000 0.0000 0.0000 0.0000 0.0000 13.2263
#
#
#
# Elastic Compliance Matrix: (Units=1/GPa)
#
#
# Indices 1 2 3 4 5 6 
#
# 1 0.015016 -0.007927 0.001057 0.000000 0.000000 0.000000
# 2 -0.007927 0.014307 -0.006852 0.000000 0.000000 0.000000
# 3 0.001057 -0.006852 0.014217 0.000000 0.000000 0.000000
# 4 0.000000 0.000000 0.000000 0.023529 0.000000 0.000000
# 5 0.000000 0.000000 0.000000 0.000000 0.029261 0.000000
# 6 0.000000 0.000000 0.000000 0.000000 0.000000 0.075607
#
#
# Mechanical properties :
#
#
# Convention : Reuss Voigt Hill
#
# Bulk Modulus (GPa) = 62.12071 71.39483 66.75777
# Shear Modulus (GPa) = 24.42040 30.05741 27.23891
#
# Velocity S-wave (km/s) = 3.13928 3.48280 3.31549
# Velocity P-wave (km/s) = 6.18137 6.70710 6.44959
#
# Compressibility (1/GPa) = 0.01609769
#
# Stress axis : x y z
#
# Youngs Moduli (GPa) = 66.59374 69.89460 70.33601
#
# Poissons Ratio (x) = 0.55403 -0.07437
# Poissons Ratio (y) = 0.52786 0.48198
# Poissons Ratio (z) = -0.07041 0.47895
#
# Static dielectric constant tensor:
#      x y z
#    x 1.958140 0.000000 0.000000 
#    y 0.000000 2.028040 0.000000 
#    z 0.000000 0.000000 2.015660 
# 
# From -- ./inp_files/4623.got.cif
#   From: 2010.05.17/outbox.cif.g08.bks.cpg/sg19_3_cif.got.tgz:4623.got - 2010.06.03 22:46:19.
