data_PCOD9315619
_publ_section_title
;
Structure prediction by ZEFSAII (Michael W. Deem and Ramdas Pophale) SiO2 
 PCOD9315619
Probable space group: P 21 21 21
;
_chemical_formula_sum "Si O2"
_cell_formula_units_Z 32
_cell_length_a 11.845443
_cell_length_b 9.129387
_cell_length_c 13.478913
_cell_angle_alpha 90.000000
_cell_angle_beta 90.000000
_cell_angle_gamma 90.000000
_cell_volume 1457.631667
_symmetry_space_group_name_H-M "P 21 21 21"
_symmetry_group_IT_number 19
_symmetry_cell_setting 'orthorhombic'
loop_
_space_group_symop_operation_xyz
x,y,z
1/2-x,-y,1/2+z
1/2+x,1/2-y,-z
-x,1/2+y,1/2-z
loop_
_atom_site_type_symbol
_atom_site_label
_atom_site_fract_x
_atom_site_fract_y
_atom_site_fract_z
Si Si1 0.485324 0.033311 0.265820
Si Si2 0.850285 0.179013 0.408881
Si Si3 0.231039 0.925774 0.238112
Si Si4 0.198756 0.376033 0.302616
Si Si5 0.469072 0.842082 0.751294
Si Si6 0.922196 0.185969 0.622221
Si Si7 0.154915 0.691337 0.391126
Si Si8 0.178381 0.578194 0.600220
O O1 0.356377 0.989865 0.244587
O O2 0.549564 0.974835 0.166973
O O3 0.554948 0.954821 0.354628
O O4 0.486499 0.200672 0.305311
O O5 0.796354 0.323011 0.357404
O O6 0.930987 0.200960 0.504354
O O7 0.930487 0.107845 0.324080
O O8 0.746612 0.068686 0.430870
O O9 0.215565 0.821323 0.333641
O O10 0.134423 0.048404 0.242837
O O11 0.076361 0.306279 0.301530
O O12 0.289040 0.283664 0.364452
O O13 0.199473 0.537442 0.347414
O O14 0.248556 0.365121 0.192148
O O15 0.525330 0.806550 0.645892
O O16 0.169988 0.685967 0.507998
#
# Coordination Sequence:
#
# PCOD9315619 Si02
#       8
#     4   4   4   4   4   4   4   4
#     4  11  26  46  69 101 141 183 227 291 350 414
#     4  11  24  43  76 102 136 187 236 275 357 429
#     4  11  24  47  67 102 141 173 233 298 340 412
#     4  11  22  45  64  94 138 177 222 281 342 406
#     4  11  24  43  71 100 135 175 228 296 337 406
#     4  11  25  45  71  99 138 187 229 284 349 418
#     4  11  23  41  70  96 132 182 226 279 350 414
#     4  11  24  42  68  98 135 184 225 274 355 425
#
# _framework density 21.953420000000001
#
# number of rings (size 3 to 8) (size 9 to 14) (size 15 to 20)
#    0.000    1.000    5.000    2.250    5.250    2.000 
#    4.500    0.000    0.000    0.000    0.000    0.000 
#    0.000    0.000    0.000    0.000    0.000    0.000 
#
# Total GULP energy -178577.903824 kJ/mol
# GULP energy per Si atom -5580.559495 kJ/mol
# Density = 2.190345 g / cm^3
# Si number density = 21.953420 Si / 1000 Ang^3
#
#
#
# Elastic Constant Matrix: (Units=GPa)
#
#
# Indices 1 2 3 4 5 6 
#
# 1 88.5440 -1.2348 -0.7405 0.0000 0.0000 0.0000
# 2 -1.2348 34.6986 -1.0801 0.0000 0.0000 0.0000
# 3 -0.7405 -1.0801 98.4744 0.0000 0.0000 0.0000
# 4 0.0000 0.0000 0.0000 13.2239 0.0000 0.0000
# 5 0.0000 0.0000 0.0000 0.0000 22.9119 0.0000
# 6 0.0000 0.0000 0.0000 0.0000 0.0000 30.8823
#
#
#
# Elastic Compliance Matrix: (Units=1/GPa)
#
#
# Indices 1 2 3 4 5 6 
#
# 1 0.011300 0.000405 0.000089 0.000000 0.000000 0.000000
# 2 0.000405 0.028844 0.000319 0.000000 0.000000 0.000000
# 3 0.000089 0.000319 0.010159 0.000000 0.000000 0.000000
# 4 0.000000 0.000000 0.000000 0.075620 0.000000 0.000000
# 5 0.000000 0.000000 0.000000 0.000000 0.043645 0.000000
# 6 0.000000 0.000000 0.000000 0.000000 0.000000 0.032381
#
#
# Mechanical properties :
#
#
# Convention : Reuss Voigt Hill
#
# Bulk Modulus (GPa) = 19.25640 23.95624 21.60632
# Shear Modulus (GPa) = 22.97445 28.38844 25.68144
#
# Velocity S-wave (km/s) = 3.23849 3.59990 3.42397
# Velocity P-wave (km/s) = 4.77224 5.31178 5.04922
#
# Compressibility (1/GPa) = 0.05193079
#
# Stress axis : x y z
#
# Youngs Moduli (GPa) = 88.49387 34.66926 98.43388
#
# Poissons Ratio (x) = -0.01404 -0.00880
# Poissons Ratio (y) = -0.03583 -0.03144
# Poissons Ratio (z) = -0.00791 -0.01107
#
# Static dielectric constant tensor:
#      x y z
#    x 1.805730 0.000000 0.000000 
#    y 0.000000 1.858530 0.000000 
#    z 0.000000 0.000000 1.813700 
# 
# From -- ./inp_files/6169.got.cif
#   From: 2010.05.17/outbox.cif.g08.bks.cpg/sg19_4_cif.got.tgz:6169.got - 2010.06.03 22:46:19.
