data_PCOD9315923
_publ_section_title
;
Structure prediction by ZEFSAII (Michael W. Deem and Ramdas Pophale) SiO2 
 PCOD9315923
Probable space group: P 21 21 21
;
_chemical_formula_sum "Si O2"
_cell_formula_units_Z 32
_cell_length_a 28.303440
_cell_length_b 8.636275
_cell_length_c 4.986469
_cell_angle_alpha 90.000000
_cell_angle_beta 90.000000
_cell_angle_gamma 90.000000
_cell_volume 1218.873989
_symmetry_space_group_name_H-M "P 21 21 21"
_symmetry_group_IT_number 19
_symmetry_cell_setting 'orthorhombic'
loop_
_space_group_symop_operation_xyz
x,y,z
1/2-x,-y,1/2+z
1/2+x,1/2-y,-z
-x,1/2+y,1/2-z
loop_
_atom_site_type_symbol
_atom_site_label
_atom_site_fract_x
_atom_site_fract_y
_atom_site_fract_z
Si Si1 0.409961 0.459464 0.728781
Si Si2 0.545678 0.499627 0.467052
Si Si3 0.818343 0.606087 0.577967
Si Si4 0.137550 0.854126 0.317728
Si Si5 0.130865 0.396301 0.752576
Si Si6 0.493286 0.827851 0.553364
Si Si7 0.277571 0.449472 0.518744
Si Si8 0.275605 0.173809 0.179565
O O1 0.387721 0.289842 0.671668
O O2 0.410987 0.556984 0.455674
O O3 0.379607 0.547858 0.954761
O O4 0.459782 0.423246 0.862852
O O5 0.598132 0.571730 0.485525
O O6 0.530162 0.409850 0.201592
O O7 0.512302 0.652675 0.511301
O O8 0.540764 0.368813 0.698207
O O9 0.844740 0.487695 0.381240
O O10 0.854249 0.718685 0.725512
O O11 0.786468 0.506144 0.779322
O O12 0.777491 0.697885 0.419844
O O13 0.180573 0.784442 0.489764
O O14 0.174817 0.482224 0.895163
O O15 0.263680 0.488748 0.819612
O O16 0.279569 0.267976 0.454041
#
# Coordination Sequence:
#
# PCOD9315923 Si02
#       8
#     4   4   4   4   4   4   4   4
#     4  11  26  49  75 103 145 187 239 294 360 434
#     4  11  26  48  79 108 146 187 241 292 374 442
#     4  12  28  42  69 103 145 191 242 298 360 406
#     4  11  27  47  71 102 142 195 235 292 363 438
#     4  12  26  44  71 107 140 186 246 296 341 422
#     4  11  25  49  77 112 143 191 230 303 376 437
#     4  12  26  43  71  98 136 189 248 294 347 414
#     4  12  26  44  67  95 147 190 237 295 357 417
#
# _framework density 26.253741000000002
#
# number of rings (size 3 to 8) (size 9 to 14) (size 15 to 20)
#    0.000    0.500    3.750    3.000    7.000    5.000 
#    0.000    0.000    0.000    0.000    0.000    0.000 
#    0.000    0.000    0.000    0.000    0.000    0.000 
#
# Total GULP energy -179501.530749 kJ/mol
# GULP energy per Si atom -5609.422836 kJ/mol
# Density = 2.619399 g / cm^3
# Si number density = 26.253741 Si / 1000 Ang^3
#
#
#
# Elastic Constant Matrix: (Units=GPa)
#
#
# Indices 1 2 3 4 5 6 
#
# 1 107.8854 29.4529 13.6842 0.0000 0.0000 0.0000
# 2 29.4529 112.3729 18.1296 0.0000 0.0000 0.0000
# 3 13.6842 18.1296 90.8045 0.0000 0.0000 0.0000
# 4 0.0000 0.0000 0.0000 45.5731 0.0000 0.0000
# 5 0.0000 0.0000 0.0000 0.0000 33.1251 0.0000
# 6 0.0000 0.0000 0.0000 0.0000 0.0000 38.4057
#
#
#
# Elastic Compliance Matrix: (Units=1/GPa)
#
#
# Indices 1 2 3 4 5 6 
#
# 1 0.010075 -0.002475 -0.001024 0.000000 0.000000 0.000000
# 2 -0.002475 0.009803 -0.001584 0.000000 0.000000 0.000000
# 3 -0.001024 -0.001584 0.011483 0.000000 0.000000 0.000000
# 4 0.000000 0.000000 0.000000 0.021943 0.000000 0.000000
# 5 0.000000 0.000000 0.000000 0.000000 0.030189 0.000000
# 6 0.000000 0.000000 0.000000 0.000000 0.000000 0.026038
#
#
# Mechanical properties :
#
#
# Convention : Reuss Voigt Hill
#
# Bulk Modulus (GPa) = 47.18304 48.17736 47.68020
# Shear Modulus (GPa) = 39.44383 40.07386 39.75884
#
# Velocity S-wave (km/s) = 3.88030 3.91116 3.89576
# Velocity P-wave (km/s) = 6.17143 6.22790 6.19973
#
# Compressibility (1/GPa) = 0.02119406
#
# Stress axis : x y z
#
# Youngs Moduli (GPa) = 99.25792 102.00617 87.08297
#
# Poissons Ratio (x) = 0.25250 0.08918
# Poissons Ratio (y) = 0.24570 0.13796
# Poissons Ratio (z) = 0.10164 0.16160
#
# Static dielectric constant tensor:
#      x y z
#    x 2.122730 0.000000 0.000000 
#    y 0.000000 2.084880 0.000000 
#    z 0.000000 0.000000 2.029180 
# 
# From -- ./inp_files/2347.got.cif
#   From: 2010.05.17/outbox.cif.g08.bks.cpg/sg19_2_cif.got.tgz:2347.got - 2010.06.03 22:46:19.
