data_PCOD9315510
_publ_section_title
;
Structure prediction by ZEFSAII (Michael W. Deem and Ramdas Pophale) SiO2 
 PCOD9315510
Probable space group: P 21 21 21
;
_chemical_formula_sum "Si O2"
_cell_formula_units_Z 28
_cell_length_a 5.255722
_cell_length_b 9.012511
_cell_length_c 22.769197
_cell_angle_alpha 90.000000
_cell_angle_beta 90.000000
_cell_angle_gamma 90.000000
_cell_volume 1078.514300
_symmetry_space_group_name_H-M "P 21 21 21"
_symmetry_group_IT_number 19
_symmetry_cell_setting 'orthorhombic'
loop_
_space_group_symop_operation_xyz
x,y,z
1/2-x,-y,1/2+z
1/2+x,1/2-y,-z
-x,1/2+y,1/2-z
loop_
_atom_site_type_symbol
_atom_site_label
_atom_site_fract_x
_atom_site_fract_y
_atom_site_fract_z
Si Si1 0.045366 0.905056 0.873417
Si Si2 0.205095 0.118723 0.960043
Si Si3 0.783661 0.592865 0.734668
Si Si4 0.779207 0.726671 0.287413
Si Si5 0.119495 0.354061 0.423171
Si Si6 0.309545 0.412177 0.549587
Si Si7 0.533176 0.339049 0.908025
O O1 0.198197 0.758926 0.888665
O O2 0.748518 0.881267 0.873533
O O3 0.990108 0.000411 0.936819
O O4 0.170195 0.013393 0.828506
O O5 0.260611 0.260803 0.920243
O O6 0.451694 0.022540 0.946529
O O7 0.163194 0.160637 0.027326
O O8 0.752699 0.447353 0.774260
O O9 0.540164 0.699597 0.735496
O O10 0.039467 0.689861 0.741632
O O11 0.804135 0.741632 0.358139
O O12 0.264293 0.428385 0.477397
O O13 0.895918 0.262666 0.454652
O O14 0.013288 0.493232 0.387957
#
# Coordination Sequence:
#
# PCOD9315510 Si02
#       7
#     4   4   4   4   4   4   4
#     4  11  24  43  71  99 150 193 244 308 392 444
#     4  11  24  41  65 103 148 192 238 312 378 459
#     4  12  29  57  82 116 151 210 267 339 391 472
#     4  12  30  55  85 115 160 205 277 328 404 471
#     4  11  22  36  62 103 139 194 237 304 366 473
#     4  11  20  41  60 100 147 193 247 289 375 457
#     4  12  25  43  71 112 151 197 254 316 396 472
#
# _framework density 25.961642000000001
#
# number of rings (size 3 to 8) (size 9 to 14) (size 15 to 20)
#    0.000    0.571    4.286    3.429    6.000    2.286 
#    0.000    0.000    0.000    0.000    0.000    0.000 
#    0.000    0.000    0.000    0.000    0.000    0.000 
#
# Total GULP energy -156239.886606 kJ/mol
# GULP energy per Si atom -5579.995950 kJ/mol
# Density = 2.590255 g / cm^3
# Si number density = 25.961642 Si / 1000 Ang^3
#
#
#
# Elastic Constant Matrix: (Units=GPa)
#
#
# Indices 1 2 3 4 5 6 
#
# 1 137.1830 35.6339 6.2529 0.0000 0.0000 0.0000
# 2 35.6339 127.4422 13.2926 0.0000 0.0000 0.0000
# 3 6.2529 13.2926 56.9616 0.0000 0.0000 0.0000
# 4 0.0000 0.0000 0.0000 40.9693 0.0000 0.0000
# 5 0.0000 0.0000 0.0000 0.0000 17.2207 0.0000
# 6 0.0000 0.0000 0.0000 0.0000 0.0000 45.3342
#
#
#
# Elastic Compliance Matrix: (Units=1/GPa)
#
#
# Indices 1 2 3 4 5 6 
#
# 1 0.007868 -0.002162 -0.000359 0.000000 0.000000 0.000000
# 2 -0.002162 0.008637 -0.001778 0.000000 0.000000 0.000000
# 3 -0.000359 -0.001778 0.018010 0.000000 0.000000 0.000000
# 4 0.000000 0.000000 0.000000 0.024408 0.000000 0.000000
# 5 0.000000 0.000000 0.000000 0.000000 0.058070 0.000000
# 6 0.000000 0.000000 0.000000 0.000000 0.000000 0.022058
#
#
# Mechanical properties :
#
#
# Convention : Reuss Voigt Hill
#
# Bulk Modulus (GPa) = 38.58718 47.99393 43.29055
# Shear Modulus (GPa) = 31.99210 38.46534 35.22872
#
# Velocity S-wave (km/s) = 3.51420 3.85336 3.68768
# Velocity P-wave (km/s) = 5.60014 6.19067 5.90280
#
# Compressibility (1/GPa) = 0.02591535
#
# Stress axis : x y z
#
# Youngs Moduli (GPa) = 127.10373 115.78395 55.52454
#
# Poissons Ratio (x) = 0.25037 0.01994
# Poissons Ratio (y) = 0.27485 0.09873
# Poissons Ratio (z) = 0.04564 0.20588
#
# Static dielectric constant tensor:
#      x y z
#    x 2.056600 0.000000 0.000000 
#    y 0.000000 2.161340 0.000000 
#    z 0.000000 0.000000 2.260530 
# 
# From -- ./inp_files/7266.got.cif
#   From: 2010.05.17/outbox.cif.g08.bks.cpg/sg19_4_cif.got.tgz:7266.got - 2010.06.03 22:46:19.
