data_PCOD9315454
_publ_section_title
;
Structure prediction by ZEFSAII (Michael W. Deem and Ramdas Pophale) SiO2 
 PCOD9315454
Probable space group: P 21 21 21
;
_chemical_formula_sum "Si O2"
_cell_formula_units_Z 32
_cell_length_a 16.700885
_cell_length_b 6.885577
_cell_length_c 11.265850
_cell_angle_alpha 90.000000
_cell_angle_beta 90.000000
_cell_angle_gamma 90.000000
_cell_volume 1295.519008
_symmetry_space_group_name_H-M "P 21 21 21"
_symmetry_group_IT_number 19
_symmetry_cell_setting 'orthorhombic'
loop_
_space_group_symop_operation_xyz
x,y,z
1/2-x,-y,1/2+z
1/2+x,1/2-y,-z
-x,1/2+y,1/2-z
loop_
_atom_site_type_symbol
_atom_site_label
_atom_site_fract_x
_atom_site_fract_y
_atom_site_fract_z
Si Si1 0.294835 0.966509 0.270369
Si Si2 0.398893 0.609706 0.686562
Si Si3 0.038996 0.675464 0.373183
Si Si4 0.091853 0.754113 0.851373
Si Si5 0.578286 0.150360 0.228844
Si Si6 0.640104 0.443049 0.625510
Si Si7 0.697835 0.770524 0.932986
Si Si8 0.861428 0.885964 0.974160
O O1 0.372162 0.839059 0.307669
O O2 0.243212 0.879058 0.158834
O O3 0.338245 0.174390 0.260930
O O4 0.231120 0.983858 0.376269
O O5 0.459264 0.469040 0.761005
O O6 0.452298 0.739078 0.598492
O O7 0.364606 0.771812 0.776427
O O8 0.337022 0.455008 0.637692
O O9 0.083584 0.547983 0.469874
O O10 0.092454 0.863174 0.348464
O O11 0.079490 0.523242 0.862678
O O12 0.008012 0.819695 0.790916
O O13 0.126618 0.810469 0.982541
O O14 0.634375 0.080336 0.336408
O O15 0.607837 0.330829 0.509281
O O16 0.769166 0.866750 0.011836
#
# Coordination Sequence:
#
# PCOD9315454 Si02
#       8
#     4   4   4   4   4   4   4   4
#     4  11  25  48  72 103 145 187 243 304 359 427
#     4  11  24  43  68 106 141 180 237 299 360 431
#     4  11  23  43  69 102 144 183 229 298 369 422
#     4  12  26  50  73 102 149 195 240 299 369 429
#     4  11  27  48  71 104 146 194 244 297 358 444
#     4  11  23  43  71 101 143 188 230 303 365 423
#     4  11  26  46  72 107 143 188 247 298 359 444
#     4  10  26  43  68 103 141 185 242 296 355 436
#
# _framework density 24.700527999999998
#
# number of rings (size 3 to 8) (size 9 to 14) (size 15 to 20)
#    0.000    1.000    5.000    0.000    7.000    4.000 
#    2.250    0.000    0.000    0.000    0.000    0.000 
#    0.000    0.000    0.000    0.000    0.000    0.000 
#
# Total GULP energy -178420.932549 kJ/mol
# GULP energy per Si atom -5575.654142 kJ/mol
# Density = 2.464431 g / cm^3
# Si number density = 24.700528 Si / 1000 Ang^3
#
#
#
# Elastic Constant Matrix: (Units=GPa)
#
#
# Indices 1 2 3 4 5 6 
#
# 1 53.8106 -11.8618 0.0097 0.0000 0.0000 0.0000
# 2 -11.8618 73.5279 13.7913 0.0000 0.0000 0.0000
# 3 0.0097 13.7913 38.9443 0.0000 0.0000 0.0000
# 4 0.0000 0.0000 0.0000 15.7409 0.0000 0.0000
# 5 0.0000 0.0000 0.0000 0.0000 28.5101 0.0000
# 6 0.0000 0.0000 0.0000 0.0000 0.0000 52.2914
#
#
#
# Elastic Compliance Matrix: (Units=1/GPa)
#
#
# Indices 1 2 3 4 5 6 
#
# 1 0.019320 0.003340 -0.001187 0.000000 0.000000 0.000000
# 2 0.003340 0.015145 -0.005364 0.000000 0.000000 0.000000
# 3 -0.001187 -0.005364 0.027578 0.000000 0.000000 0.000000
# 4 0.000000 0.000000 0.000000 0.063529 0.000000 0.000000
# 5 0.000000 0.000000 0.000000 0.000000 0.035075 0.000000
# 6 0.000000 0.000000 0.000000 0.000000 0.000000 0.019124
#
#
# Mechanical properties :
#
#
# Convention : Reuss Voigt Hill
#
# Bulk Modulus (GPa) = 17.97959 18.90681 18.44320
# Shear Modulus (GPa) = 24.42190 30.26472 27.34331
#
# Velocity S-wave (km/s) = 3.14780 3.50418 3.33076
# Velocity P-wave (km/s) = 4.52840 4.90341 4.71963
#
# Compressibility (1/GPa) = 0.05561862
#
# Stress axis : x y z
#
# Youngs Moduli (GPa) = 51.75966 66.02771 36.26128
#
# Poissons Ratio (x) = -0.22050 0.04306
# Poissons Ratio (y) = -0.17285 0.19451
# Poissons Ratio (z) = 0.06146 0.35418
#
# Static dielectric constant tensor:
#      x y z
#    x 2.049600 0.000000 0.000000 
#    y 0.000000 1.990990 0.000000 
#    z 0.000000 0.000000 2.056760 
# 
# From -- ./inp_files/6338.got.cif
#   From: 2010.05.17/outbox.cif.g08.bks.cpg/sg19_4_cif.got.tgz:6338.got - 2010.06.03 22:46:19.
