data_PCOD9315117
_publ_section_title
;
Structure prediction by ZEFSAII (Michael W. Deem and Ramdas Pophale) SiO2 
 PCOD9315117
Probable space group: P 21 21 21
;
_chemical_formula_sum "Si O2"
_cell_formula_units_Z 32
_cell_length_a 15.108294
_cell_length_b 10.188061
_cell_length_c 9.016301
_cell_angle_alpha 90.000000
_cell_angle_beta 90.000000
_cell_angle_gamma 90.000000
_cell_volume 1387.827107
_symmetry_space_group_name_H-M "P 21 21 21"
_symmetry_group_IT_number 19
_symmetry_cell_setting 'orthorhombic'
loop_
_space_group_symop_operation_xyz
x,y,z
1/2-x,-y,1/2+z
1/2+x,1/2-y,-z
-x,1/2+y,1/2-z
loop_
_atom_site_type_symbol
_atom_site_label
_atom_site_fract_x
_atom_site_fract_y
_atom_site_fract_z
Si Si1 0.490032 0.881782 0.336582
Si Si2 0.142339 0.278305 0.670269
Si Si3 0.908304 0.869993 0.302981
Si Si4 0.760954 0.793734 0.110606
Si Si5 0.199428 0.874244 0.281207
Si Si6 0.375359 0.515077 0.384767
Si Si7 0.819139 0.481964 0.519057
Si Si8 0.055322 0.656666 0.339563
O O1 0.450347 0.761332 0.241125
O O2 0.546584 0.847978 0.481818
O O3 0.547160 0.959800 0.217823
O O4 0.406838 0.961906 0.403250
O O5 0.153630 0.305648 0.498566
O O6 0.209731 0.160692 0.697416
O O7 0.178663 0.393902 0.772147
O O8 0.807705 0.826885 0.264851
O O9 0.910893 0.904387 0.476904
O O10 0.972824 0.744946 0.279365
O O11 0.935306 0.008080 0.223093
O O12 0.709850 0.657091 0.091391
O O13 0.689567 0.901112 0.063102
O O14 0.138374 0.748228 0.297832
O O15 0.233802 0.929627 0.437282
O O16 0.159463 0.971258 0.156528
#
# Coordination Sequence:
#
# PCOD9315117 Si02
#       8
#     4   4   4   4   4   4   4   4
#     4  11  26  45  70 106 148 195 247 308 377 446
#     4  10  23  47  64 101 139 188 242 302 357 455
#     4  12  28  44  75 111 148 196 254 312 384 449
#     4  11  25  44  73 102 146 196 244 305 379 443
#     4  10  23  43  73 100 150 190 258 300 384 435
#     4  12  25  44  73 101 145 189 250 300 383 445
#     4  10  24  44  72 107 147 198 249 311 372 460
#     4  12  26  47  72 110 155 198 252 320 374 459
#
# _framework density 23.05763
#
# number of rings (size 3 to 8) (size 9 to 14) (size 15 to 20)
#    0.000    1.000    1.250    4.500    7.000    4.000 
#    0.000    0.000    0.000    0.000    0.000    0.000 
#    0.000    0.000    0.000    0.000    0.000    0.000 
#
# Total GULP energy -178668.891644 kJ/mol
# GULP energy per Si atom -5583.402864 kJ/mol
# Density = 2.300515 g / cm^3
# Si number density = 23.057630 Si / 1000 Ang^3
#
#
#
# Elastic Constant Matrix: (Units=GPa)
#
#
# Indices 1 2 3 4 5 6 
#
# 1 60.6212 9.6682 28.8093 0.0000 0.0000 0.0000
# 2 9.6682 72.1490 8.5088 0.0000 0.0000 0.0000
# 3 28.8093 8.5088 91.5276 0.0000 0.0000 0.0000
# 4 0.0000 0.0000 0.0000 34.8177 0.0000 0.0000
# 5 0.0000 0.0000 0.0000 0.0000 14.4379 0.0000
# 6 0.0000 0.0000 0.0000 0.0000 0.0000 44.0796
#
#
#
# Elastic Compliance Matrix: (Units=1/GPa)
#
#
# Indices 1 2 3 4 5 6 
#
# 1 0.019659 -0.001926 -0.006009 0.000000 0.000000 0.000000
# 2 -0.001926 0.014202 -0.000714 0.000000 0.000000 0.000000
# 3 -0.006009 -0.000714 0.012883 0.000000 0.000000 0.000000
# 4 0.000000 0.000000 0.000000 0.028721 0.000000 0.000000
# 5 0.000000 0.000000 0.000000 0.000000 0.069262 0.000000
# 6 0.000000 0.000000 0.000000 0.000000 0.000000 0.022686
#
#
# Mechanical properties :
#
#
# Convention : Reuss Voigt Hill
#
# Bulk Modulus (GPa) = 33.95907 35.36338 34.66122
# Shear Modulus (GPa) = 25.70340 30.48782 28.09561
#
# Velocity S-wave (km/s) = 3.34240 3.64021 3.49448
# Velocity P-wave (km/s) = 5.44568 5.74791 5.59883
#
# Compressibility (1/GPa) = 0.02944722
#
# Stress axis : x y z
#
# Youngs Moduli (GPa) = 50.86842 70.41021 77.61947
#
# Poissons Ratio (x) = 0.13559 0.46639
# Poissons Ratio (y) = 0.09796 0.05544
# Poissons Ratio (z) = 0.30565 0.05029
#
# Static dielectric constant tensor:
#      x y z
#    x 1.892750 0.000000 0.000000 
#    y 0.000000 1.964910 0.000000 
#    z 0.000000 0.000000 1.917980 
# 
# From -- ./inp_files/3955.got.cif
#   From: 2010.05.17/outbox.cif.g08.bks.cpg/sg19_2_cif.got.tgz:3955.got - 2010.06.03 22:46:19.
