data_PCOD9315326
_publ_section_title
;
Structure prediction by ZEFSAII (Michael W. Deem and Ramdas Pophale) SiO2 
 PCOD9315326
Probable space group: P 21 21 21
;
_chemical_formula_sum "Si O2"
_cell_formula_units_Z 20
_cell_length_a 10.299960
_cell_length_b 13.931076
_cell_length_c 4.928854
_cell_angle_alpha 90.000000
_cell_angle_beta 90.000000
_cell_angle_gamma 90.000000
_cell_volume 707.238922
_symmetry_space_group_name_H-M "P 21 21 21"
_symmetry_group_IT_number 19
_symmetry_cell_setting 'orthorhombic'
loop_
_space_group_symop_operation_xyz
x,y,z
1/2-x,-y,1/2+z
1/2+x,1/2-y,-z
-x,1/2+y,1/2-z
loop_
_atom_site_type_symbol
_atom_site_label
_atom_site_fract_x
_atom_site_fract_y
_atom_site_fract_z
Si Si1 0.407988 0.748127 0.639222
Si Si2 0.775013 0.872252 0.787606
Si Si3 0.949997 0.010032 0.529111
Si Si4 0.431062 0.277819 0.358612
Si Si5 0.823471 0.530104 0.338262
O O1 0.298483 0.682006 0.498842
O O2 0.470224 0.727185 0.930709
O O3 0.356620 0.857319 0.642952
O O4 0.531912 0.739512 0.434851
O O5 0.667784 0.956275 0.829324
O O6 0.707895 0.792614 0.989446
O O7 0.901988 0.939396 0.760843
O O8 0.982366 0.112381 0.659005
O O9 0.062578 0.978197 0.329379
O O10 0.704404 0.515544 0.128865
#
# Coordination Sequence:
#
# PCOD9315326 Si02
#       5
#     4   4   4   4   4
#     4  11  23  47  69 108 147 193 243 311 362 448
#     4  10  24  44  79 107 149 197 253 309 383 432
#     4   9  23  45  73 110 146 199 244 313 368 456
#     4   9  24  43  70  99 152 182 241 311 360 438
#     4  11  24  47  79 104 156 199 243 304 379 458
#
# _framework density 28.278984999999999
#
# number of rings (size 3 to 8) (size 9 to 14) (size 15 to 20)
#    1.200    0.800    0.000    2.400    2.800    6.400 
#    0.000    8.000    0.000    0.000    0.000    0.000 
#    0.000    0.000    0.000    0.000    0.000    0.000 
#
# Total GULP energy -111647.396889 kJ/mol
# GULP energy per Si atom -5582.369844 kJ/mol
# Density = 2.821462 g / cm^3
# Si number density = 28.278985 Si / 1000 Ang^3
#
#
#
# Elastic Constant Matrix: (Units=GPa)
#
#
# Indices 1 2 3 4 5 6 
#
# 1 125.2794 23.2279 27.4156 0.0000 0.0000 0.0000
# 2 23.2279 120.0589 51.0501 0.0000 0.0000 0.0000
# 3 27.4156 51.0501 150.4969 0.0000 0.0000 0.0000
# 4 0.0000 0.0000 0.0000 47.1363 0.0000 0.0000
# 5 0.0000 0.0000 0.0000 0.0000 55.9354 0.0000
# 6 0.0000 0.0000 0.0000 0.0000 0.0000 33.5839
#
#
#
# Elastic Compliance Matrix: (Units=1/GPa)
#
#
# Indices 1 2 3 4 5 6 
#
# 1 0.008446 -0.001145 -0.001150 0.000000 0.000000 0.000000
# 2 -0.001145 0.009888 -0.003146 0.000000 0.000000 0.000000
# 3 -0.001150 -0.003146 0.007921 0.000000 0.000000 0.000000
# 4 0.000000 0.000000 0.000000 0.021215 0.000000 0.000000
# 5 0.000000 0.000000 0.000000 0.000000 0.017878 0.000000
# 6 0.000000 0.000000 0.000000 0.000000 0.000000 0.029776
#
#
# Mechanical properties :
#
#
# Convention : Reuss Voigt Hill
#
# Bulk Modulus (GPa) = 65.04495 66.58028 65.81262
# Shear Modulus (GPa) = 44.99190 46.94055 45.96623
#
# Velocity S-wave (km/s) = 3.99306 4.07862 4.03607
# Velocity P-wave (km/s) = 6.65661 6.76575 6.71140
#
# Compressibility (1/GPa) = 0.01537398
#
# Stress axis : x y z
#
# Youngs Moduli (GPa) = 118.39695 101.12934 126.24319
#
# Poissons Ratio (x) = 0.11579 0.14521
# Poissons Ratio (y) = 0.13557 0.39712
# Poissons Ratio (z) = 0.13618 0.31812
#
# Static dielectric constant tensor:
#      x y z
#    x 2.532870 0.000000 0.000000 
#    y 0.000000 2.193740 0.000000 
#    z 0.000000 0.000000 2.187890 
# 
# From -- ./inp_files/972.got.cif
#   From: 2010.05.17/outbox.cif.g08.bks.cpg/sg19_1_cif.got.tgz:972.got - 2010.06.03 22:46:19.
