data_PCOD9315860
_publ_section_title
;
Structure prediction by ZEFSAII (Michael W. Deem and Ramdas Pophale) SiO2 
 PCOD9315860
Probable space group: P 21 21 21
;
_chemical_formula_sum "Si O2"
_cell_formula_units_Z 32
_cell_length_a 14.309424
_cell_length_b 8.953464
_cell_length_c 9.803511
_cell_angle_alpha 90.000000
_cell_angle_beta 90.000000
_cell_angle_gamma 90.000000
_cell_volume 1256.015169
_symmetry_space_group_name_H-M "P 21 21 21"
_symmetry_group_IT_number 19
_symmetry_cell_setting 'orthorhombic'
loop_
_space_group_symop_operation_xyz
x,y,z
1/2-x,-y,1/2+z
1/2+x,1/2-y,-z
-x,1/2+y,1/2-z
loop_
_atom_site_type_symbol
_atom_site_label
_atom_site_fract_x
_atom_site_fract_y
_atom_site_fract_z
Si Si1 0.885892 0.864707 0.009631
Si Si2 0.912392 0.855883 0.526983
Si Si3 0.903379 0.194972 0.909517
Si Si4 0.801923 0.434614 0.091256
Si Si5 0.568679 0.331687 0.757113
Si Si6 0.777567 0.653710 0.846203
Si Si7 0.217760 0.555696 0.810726
Si Si8 0.620230 0.891225 0.836935
O O1 0.779660 0.878009 0.068476
O O2 0.939219 0.793326 0.136965
O O3 0.868098 0.749225 0.888593
O O4 0.917992 0.022857 0.953701
O O5 0.895519 0.742653 0.398173
O O6 0.002000 0.788458 0.601226
O O7 0.832330 0.909286 0.629776
O O8 0.930330 0.020915 0.459685
O O9 0.846846 0.173436 0.767753
O O10 0.845419 0.284458 0.025932
O O11 0.870315 0.537464 0.186876
O O12 0.774446 0.526824 0.959128
O O13 0.961400 0.121034 0.226360
O O14 0.676981 0.738714 0.852945
O O15 0.783293 0.595996 0.692422
O O16 0.295646 0.500048 0.705544
#
# Coordination Sequence:
#
# PCOD9315860 Si02
#       8
#     4   4   4   4   4   4   4   4
#     4  11  24  48  79 112 162 210 271 334 417 492
#     4  12  26  47  79 118 155 212 271 342 415 491
#     4  12  27  49  78 118 163 209 277 344 413 505
#     4  11  27  46  79 121 162 207 274 354 407 483
#     4  11  26  47  77 118 154 204 279 345 397 493
#     4  11  25  45  74 117 158 210 270 341 409 491
#     4  12  25  48  80 117 153 220 264 337 417 502
#     4  12  24  48  78 113 153 210 278 325 415 493
#
# _framework density 25.477398999999998
#
# number of rings (size 3 to 8) (size 9 to 14) (size 15 to 20)
#    0.000    0.500    5.000    2.250    3.500    1.000 
#    4.500    1.250    0.000    0.000    0.000    0.000 
#    0.000    0.000    0.000    0.000    0.000    0.000 
#
# Total GULP energy -179000.861557 kJ/mol
# GULP energy per Si atom -5593.776924 kJ/mol
# Density = 2.541941 g / cm^3
# Si number density = 25.477399 Si / 1000 Ang^3
#
#
#
# Elastic Constant Matrix: (Units=GPa)
#
#
# Indices 1 2 3 4 5 6 
#
# 1 76.7500 15.5620 9.3436 0.0000 0.0000 0.0000
# 2 15.5620 101.6294 11.1595 0.0000 0.0000 0.0000
# 3 9.3436 11.1595 75.1629 0.0000 0.0000 0.0000
# 4 0.0000 0.0000 0.0000 58.4318 0.0000 0.0000
# 5 0.0000 0.0000 0.0000 0.0000 34.0109 0.0000
# 6 0.0000 0.0000 0.0000 0.0000 0.0000 45.3197
#
#
#
# Elastic Compliance Matrix: (Units=1/GPa)
#
#
# Indices 1 2 3 4 5 6 
#
# 1 0.013591 -0.001927 -0.001403 0.000000 0.000000 0.000000
# 2 -0.001927 0.010276 -0.001286 0.000000 0.000000 0.000000
# 3 -0.001403 -0.001286 0.013670 0.000000 0.000000 0.000000
# 4 0.000000 0.000000 0.000000 0.017114 0.000000 0.000000
# 5 0.000000 0.000000 0.000000 0.000000 0.029402 0.000000
# 6 0.000000 0.000000 0.000000 0.000000 0.000000 0.022065
#
#
# Mechanical properties :
#
#
# Convention : Reuss Voigt Hill
#
# Bulk Modulus (GPa) = 35.33115 36.18583 35.75849
# Shear Modulus (GPa) = 40.06858 42.05097 41.05977
#
# Velocity S-wave (km/s) = 3.97004 4.06707 4.01885
# Velocity P-wave (km/s) = 5.90870 6.02401 5.96663
#
# Compressibility (1/GPa) = 0.02830364
#
# Stress axis : x y z
#
# Youngs Moduli (GPa) = 73.57875 97.31437 73.15365
#
# Poissons Ratio (x) = 0.18752 0.10266
# Poissons Ratio (y) = 0.14179 0.09409
# Poissons Ratio (z) = 0.10326 0.12516
#
# Static dielectric constant tensor:
#      x y z
#    x 2.019940 0.000000 0.000000 
#    y 0.000000 2.090840 0.000000 
#    z 0.000000 0.000000 2.107050 
# 
# From -- ./inp_files/5409.got.cif
#   From: 2010.05.17/outbox.cif.g08.bks.cpg/sg19_3_cif.got.tgz:5409.got - 2010.06.03 22:46:19.
