data_PCOD9315184
_publ_section_title
;
Structure prediction by ZEFSAII (Michael W. Deem and Ramdas Pophale) SiO2 
 PCOD9315184
Probable space group: P 21 21 21
;
_chemical_formula_sum "Si O2"
_cell_formula_units_Z 28
_cell_length_a 11.878261
_cell_length_b 5.188378
_cell_length_c 18.496923
_cell_angle_alpha 90.000000
_cell_angle_beta 90.000000
_cell_angle_gamma 90.000000
_cell_volume 1139.945167
_symmetry_space_group_name_H-M "P 21 21 21"
_symmetry_group_IT_number 19
_symmetry_cell_setting 'orthorhombic'
loop_
_space_group_symop_operation_xyz
x,y,z
1/2-x,-y,1/2+z
1/2+x,1/2-y,-z
-x,1/2+y,1/2-z
loop_
_atom_site_type_symbol
_atom_site_label
_atom_site_fract_x
_atom_site_fract_y
_atom_site_fract_z
Si Si1 0.675185 0.926704 0.924587
Si Si2 0.926279 0.081100 0.267336
Si Si3 0.121827 0.310194 0.934595
Si Si4 0.302051 0.932105 0.969484
Si Si5 0.423374 0.000815 0.243068
Si Si6 0.244033 0.677352 0.834846
Si Si7 0.108105 0.773578 0.593848
O O1 0.611298 0.877227 0.850492
O O2 0.792735 0.070645 0.908085
O O3 0.710248 0.689163 0.975497
O O4 0.612371 0.108959 0.981884
O O5 0.816181 0.991830 0.221300
O O6 0.014003 0.841106 0.261388
O O7 0.141608 0.539766 0.877924
O O8 0.015200 0.148317 0.908231
O O9 0.239797 0.166896 0.931747
O O10 0.391931 0.043606 0.023803
O O11 0.327263 0.750346 0.901924
O O12 0.522179 0.218187 0.251589
O O13 0.318484 0.088467 0.293263
O O14 0.377845 0.046923 0.162605
#
# Coordination Sequence:
#
# PCOD9315184 Si02
#       7
#     4   4   4   4   4   4   4
#     4  10  25  45  68 109 142 198 246 308 362 452
#     4  12  31  49  77 109 149 204 250 306 371 443
#     4  10  23  45  70 109 144 195 246 311 372 439
#     4  10  25  45  74 101 155 192 248 312 365 449
#     4  12  26  43  77 114 151 192 239 312 384 437
#     4  11  25  48  72 109 151 189 257 307 370 443
#     4  11  23  43  74 107 148 192 250 306 378 433
#
# _framework density 24.562586
#
# number of rings (size 3 to 8) (size 9 to 14) (size 15 to 20)
#    0.000    1.143    2.857    0.857   10.000    4.571 
#    0.000    0.000    0.000    0.000    0.000    0.000 
#    0.000    0.000    0.000    0.000    0.000    0.000 
#
# Total GULP energy -156501.559610 kJ/mol
# GULP energy per Si atom -5589.341415 kJ/mol
# Density = 2.450668 g / cm^3
# Si number density = 24.562586 Si / 1000 Ang^3
#
#
#
# Elastic Constant Matrix: (Units=GPa)
#
#
# Indices 1 2 3 4 5 6 
#
# 1 63.0804 -1.6892 31.9731 0.0000 0.0000 0.0000
# 2 -1.6892 56.4908 1.9766 0.0000 0.0000 0.0000
# 3 31.9731 1.9766 119.0495 0.0000 0.0000 0.0000
# 4 0.0000 0.0000 0.0000 36.7991 0.0000 0.0000
# 5 0.0000 0.0000 0.0000 0.0000 33.7004 0.0000
# 6 0.0000 0.0000 0.0000 0.0000 0.0000 19.1022
#
#
#
# Elastic Compliance Matrix: (Units=1/GPa)
#
#
# Indices 1 2 3 4 5 6 
#
# 1 0.018380 0.000723 -0.004948 0.000000 0.000000 0.000000
# 2 0.000723 0.017741 -0.000489 0.000000 0.000000 0.000000
# 3 -0.004948 -0.000489 0.009737 0.000000 0.000000 0.000000
# 4 0.000000 0.000000 0.000000 0.027175 0.000000 0.000000
# 5 0.000000 0.000000 0.000000 0.000000 0.029673 0.000000
# 6 0.000000 0.000000 0.000000 0.000000 0.000000 0.052350
#
#
# Mechanical properties :
#
#
# Convention : Reuss Voigt Hill
#
# Bulk Modulus (GPa) = 27.45037 33.68240 30.56638
# Shear Modulus (GPa) = 28.30815 31.67769 29.99292
#
# Velocity S-wave (km/s) = 3.39852 3.59510 3.49819
# Velocity P-wave (km/s) = 5.15750 5.56557 5.36542
#
# Compressibility (1/GPa) = 0.03642939
#
# Stress axis : x y z
#
# Youngs Moduli (GPa) = 54.40611 56.36754 102.70142
#
# Poissons Ratio (x) = -0.04074 0.50821
# Poissons Ratio (y) = -0.03932 0.05019
# Poissons Ratio (z) = 0.26922 0.02754
#
# Static dielectric constant tensor:
#      x y z
#    x 1.978450 0.000000 0.000000 
#    y 0.000000 1.983960 0.000000 
#    z 0.000000 0.000000 1.966910 
# 
# From -- ./inp_files/1066.got.cif
#   From: 2010.05.17/outbox.cif.g08.bks.cpg/sg19_1_cif.got.tgz:1066.got - 2010.06.03 22:46:19.
