data_PCOD9315829
_publ_section_title
;
Structure prediction by ZEFSAII (Michael W. Deem and Ramdas Pophale) SiO2 
 PCOD9315829
Probable space group: P 21 21 21
;
_chemical_formula_sum "Si O2"
_cell_formula_units_Z 16
_cell_length_a 5.234376
_cell_length_b 12.410215
_cell_length_c 9.488217
_cell_angle_alpha 90.000000
_cell_angle_beta 90.000000
_cell_angle_gamma 90.000000
_cell_volume 616.352029
_symmetry_space_group_name_H-M "P 21 21 21"
_symmetry_group_IT_number 19
_symmetry_cell_setting 'orthorhombic'
loop_
_space_group_symop_operation_xyz
x,y,z
1/2-x,-y,1/2+z
1/2+x,1/2-y,-z
-x,1/2+y,1/2-z
loop_
_atom_site_type_symbol
_atom_site_label
_atom_site_fract_x
_atom_site_fract_y
_atom_site_fract_z
Si Si1 0.629670 0.715957 0.356329
Si Si2 0.255216 0.565780 0.220654
Si Si3 0.986128 0.568433 0.496824
Si Si4 0.919274 0.716196 0.080096
O O1 0.382808 0.677840 0.270555
O O2 0.598328 0.814305 0.460828
O O3 0.831814 0.750697 0.236606
O O4 0.714915 0.607561 0.437907
O O5 0.131372 0.518156 0.362007
O O6 0.033885 0.597402 0.110048
O O7 0.466552 0.499300 0.136741
O O8 0.659463 0.721231 0.988546
#
# Coordination Sequence:
#
# PCOD9315829 Si02
#       4
#     4   4   4   4
#     4  11  24  49  76 112 161 205 250 332 394 453
#     4  11  26  47  75 115 151 212 261 322 387 471
#     4  11  26  48  75 113 157 205 259 324 392 465
#     4  11  24  46  76 114 155 200 260 318 383 459
#
# _framework density 25.959192000000002
#
# number of rings (size 3 to 8) (size 9 to 14) (size 15 to 20)
#    0.000    1.000    5.000    0.000    3.500    4.000 
#    4.500    0.000    0.000    0.000    0.000    0.000 
#    0.000    0.000    0.000    0.000    0.000    0.000 
#
# Total GULP energy -89420.817986 kJ/mol
# GULP energy per Si atom -5588.801124 kJ/mol
# Density = 2.590011 g / cm^3
# Si number density = 25.959192 Si / 1000 Ang^3
#
#
#
# Elastic Constant Matrix: (Units=GPa)
#
#
# Indices 1 2 3 4 5 6 
#
# 1 118.6282 16.9225 27.9527 0.0000 0.0000 0.0000
# 2 16.9225 50.4382 42.9401 0.0000 0.0000 0.0000
# 3 27.9527 42.9401 102.6904 0.0000 0.0000 0.0000
# 4 0.0000 0.0000 0.0000 62.8787 0.0000 0.0000
# 5 0.0000 0.0000 0.0000 0.0000 52.0755 0.0000
# 6 0.0000 0.0000 0.0000 0.0000 0.0000 -30.0842
#
#
#
# Elastic Compliance Matrix: (Units=1/GPa)
#
#
# Indices 1 2 3 4 5 6 
#
# 1 0.009076 -0.001463 -0.001859 0.000000 0.000000 0.000000
# 2 -0.001463 0.031021 -0.012573 0.000000 0.000000 0.000000
# 3 -0.001859 -0.012573 0.015502 0.000000 0.000000 0.000000
# 4 0.000000 0.000000 0.000000 0.015904 0.000000 0.000000
# 5 0.000000 0.000000 0.000000 0.000000 0.019203 0.000000
# 6 0.000000 0.000000 0.000000 0.000000 0.000000 -0.033240
#
#
# Mechanical properties :
#
#
# Convention : Reuss Voigt Hill
#
# Bulk Modulus (GPa) = 42.00059 49.70970 45.85514
# Shear Modulus (GPa) = 51.44442 29.23677 40.34059
#
# Velocity S-wave (km/s) = 4.45651 3.35962 3.94636
# Velocity P-wave (km/s) = 6.53415 5.85151 6.20223
#
# Compressibility (1/GPa) = 0.02380919
#
# Stress axis : x y z
#
# Youngs Moduli (GPa) = 110.17599 32.23596 64.50917
#
# Poissons Ratio (x) = 0.04715 0.11993
# Poissons Ratio (y) = 0.16113 0.81110
# Poissons Ratio (z) = 0.20482 0.40532
#
# Static dielectric constant tensor:
#      x y z
#    x 2.115270 0.000000 0.000000 
#    y 0.000000 2.071790 0.000000 
#    z 0.000000 0.000000 2.340950 
# 
# From -- ./inp_files/1366.got.cif
#   From: 2010.05.17/outbox.cif.g08.bks.cpg/sg19_1_cif.got.tgz:1366.got - 2010.06.03 22:46:19.
