data_PCOD9315360
_publ_section_title
;
Structure prediction by ZEFSAII (Michael W. Deem and Ramdas Pophale) SiO2 
 PCOD9315360
Probable space group: P 21 21 21
;
_chemical_formula_sum "Si O2"
_cell_formula_units_Z 20
_cell_length_a 8.278164
_cell_length_b 11.204201
_cell_length_c 9.566232
_cell_angle_alpha 90.000000
_cell_angle_beta 90.000000
_cell_angle_gamma 90.000000
_cell_volume 887.270059
_symmetry_space_group_name_H-M "P 21 21 21"
_symmetry_group_IT_number 19
_symmetry_cell_setting 'orthorhombic'
loop_
_space_group_symop_operation_xyz
x,y,z
1/2-x,-y,1/2+z
1/2+x,1/2-y,-z
-x,1/2+y,1/2-z
loop_
_atom_site_type_symbol
_atom_site_label
_atom_site_fract_x
_atom_site_fract_y
_atom_site_fract_z
Si Si1 0.592924 0.991948 0.158474
Si Si2 0.024964 0.146151 0.902744
Si Si3 0.960419 0.683271 0.063449
Si Si4 0.403976 0.111664 0.386719
Si Si5 0.667468 0.798130 0.660006
O O1 0.459500 0.079597 0.229342
O O2 0.598544 0.888481 0.277694
O O3 0.752600 0.070209 0.146110
O O4 0.535203 0.930359 0.017587
O O5 0.184171 0.206648 0.841445
O O6 0.078577 0.016657 0.961565
O O7 0.944165 0.220588 0.025077
O O8 0.065028 0.709958 0.199931
O O9 0.776062 0.658672 0.100980
O O10 0.976430 0.795083 0.958891
#
# Coordination Sequence:
#
# PCOD9315360 Si02
#       5
#     4   4   4   4   4
#     4  10  24  46  72 105 144 187 247 304 365 437
#     4  10  27  47  71 108 153 183 249 305 368 438
#     4  12  25  46  79 102 147 197 247 297 375 434
#     4  10  26  45  73 107 146 189 245 307 363 442
#     4  12  26  46  73 108 144 200 240 305 373 435
#
# _framework density 22.541052000000001
#
# number of rings (size 3 to 8) (size 9 to 14) (size 15 to 20)
#    1.200    0.000    0.000    4.800    8.400    1.600 
#    0.000    0.000    0.000    0.000    0.000    0.000 
#    0.000    0.000    0.000    0.000    0.000    0.000 
#
# Total GULP energy -111864.697666 kJ/mol
# GULP energy per Si atom -5593.234883 kJ/mol
# Density = 2.248975 g / cm^3
# Si number density = 22.541052 Si / 1000 Ang^3
#
#
#
# Elastic Constant Matrix: (Units=GPa)
#
#
# Indices 1 2 3 4 5 6 
#
# 1 39.9527 10.0965 16.2807 0.0000 0.0000 0.0000
# 2 10.0965 58.1001 11.3797 0.0000 0.0000 0.0000
# 3 16.2807 11.3797 91.9792 0.0000 0.0000 0.0000
# 4 0.0000 0.0000 0.0000 18.6437 0.0000 0.0000
# 5 0.0000 0.0000 0.0000 0.0000 41.9739 0.0000
# 6 0.0000 0.0000 0.0000 0.0000 0.0000 34.6997
#
#
#
# Elastic Compliance Matrix: (Units=1/GPa)
#
#
# Indices 1 2 3 4 5 6 
#
# 1 0.027841 -0.003969 -0.004437 0.000000 0.000000 0.000000
# 2 -0.003969 0.018205 -0.001550 0.000000 0.000000 0.000000
# 3 -0.004437 -0.001550 0.011849 0.000000 0.000000 0.000000
# 4 0.000000 0.000000 0.000000 0.053638 0.000000 0.000000
# 5 0.000000 0.000000 0.000000 0.000000 0.023824 0.000000
# 6 0.000000 0.000000 0.000000 0.000000 0.000000 0.028819
#
#
# Mechanical properties :
#
#
# Convention : Reuss Voigt Hill
#
# Bulk Modulus (GPa) = 26.32737 29.50511 27.91624
# Shear Modulus (GPa) = 25.41324 29.21512 27.31418
#
# Velocity S-wave (km/s) = 3.36135 3.60402 3.48480
# Velocity P-wave (km/s) = 5.17397 5.51693 5.34820
#
# Compressibility (1/GPa) = 0.03798329
#
# Stress axis : x y z
#
# Youngs Moduli (GPa) = 35.91868 54.93010 84.39454
#
# Poissons Ratio (x) = 0.21802 0.37445
# Poissons Ratio (y) = 0.14256 0.13079
# Poissons Ratio (z) = 0.15937 0.08513
#
# Static dielectric constant tensor:
#      x y z
#    x 1.765550 0.000000 0.000000 
#    y 0.000000 1.899270 0.000000 
#    z 0.000000 0.000000 1.820220 
# 
# From -- ./inp_files/2595.got.cif
#   From: 2010.05.17/outbox.cif.g08.bks.cpg/sg19_2_cif.got.tgz:2595.got - 2010.06.03 22:46:19.
