data_PCOD9315359
_publ_section_title
;
Structure prediction by ZEFSAII (Michael W. Deem and Ramdas Pophale) SiO2 
 PCOD9315359
Probable space group: P 21 21 21
;
_chemical_formula_sum "Si O2"
_cell_formula_units_Z 16
_cell_length_a 21.798745
_cell_length_b 5.099579
_cell_length_c 5.050776
_cell_angle_alpha 90.000000
_cell_angle_beta 90.000000
_cell_angle_gamma 90.000000
_cell_volume 561.466596
_symmetry_space_group_name_H-M "P 21 21 21"
_symmetry_group_IT_number 19
_symmetry_cell_setting 'orthorhombic'
loop_
_space_group_symop_operation_xyz
x,y,z
1/2-x,-y,1/2+z
1/2+x,1/2-y,-z
-x,1/2+y,1/2-z
loop_
_atom_site_type_symbol
_atom_site_label
_atom_site_fract_x
_atom_site_fract_y
_atom_site_fract_z
Si Si1 0.094848 0.040433 0.511325
Si Si2 0.516777 0.730263 0.886789
Si Si3 0.826996 0.209921 0.632256
Si Si4 0.195424 0.230268 0.190941
O O1 0.156721 0.202548 0.462069
O O2 0.031849 0.175483 0.615005
O O3 0.076349 0.929893 0.218524
O O4 0.114511 0.805342 0.701083
O O5 0.472004 0.512626 0.749304
O O6 0.765395 0.173652 0.803972
O O7 0.804406 0.445267 0.441761
O O8 0.839850 0.944969 0.479815
#
# Coordination Sequence:
#
# PCOD9315359 Si02
#       4
#     4   4   4   4
#     4  10  24  46  72 104 144 182 244 284 358 430
#     4   8  20  38  72  94 138 194 214 294 352 402
#     4  12  27  43  71 107 144 187 235 297 359 425
#     4  12  27  43  71 107 144 187 235 297 359 425
#
# _framework density 28.496798999999999
#
# number of rings (size 3 to 8) (size 9 to 14) (size 15 to 20)
#    1.500    0.000    2.500    1.500    7.000    0.000 
#    0.000    5.000    0.000    0.000    0.000    0.000 
#    0.000    0.000    0.000    0.000    0.000    0.000 
#
# Total GULP energy -89167.371539 kJ/mol
# GULP energy per Si atom -5572.960721 kJ/mol
# Density = 2.843194 g / cm^3
# Si number density = 28.496799 Si / 1000 Ang^3
#
#
#
# Elastic Constant Matrix: (Units=GPa)
#
#
# Indices 1 2 3 4 5 6 
#
# 1 92.7919 6.1738 2.4446 0.0000 0.0000 0.0000
# 2 6.1738 125.4740 20.8903 0.0000 0.0000 0.0000
# 3 2.4446 20.8903 52.6124 0.0000 0.0000 0.0000
# 4 0.0000 0.0000 0.0000 36.7008 0.0000 0.0000
# 5 0.0000 0.0000 0.0000 0.0000 19.9750 0.0000
# 6 0.0000 0.0000 0.0000 0.0000 0.0000 54.9793
#
#
#
# Elastic Compliance Matrix: (Units=1/GPa)
#
#
# Indices 1 2 3 4 5 6 
#
# 1 0.010817 -0.000480 -0.000312 0.000000 0.000000 0.000000
# 2 -0.000480 0.008555 -0.003375 0.000000 0.000000 0.000000
# 3 -0.000312 -0.003375 0.020361 0.000000 0.000000 0.000000
# 4 0.000000 0.000000 0.000000 0.027247 0.000000 0.000000
# 5 0.000000 0.000000 0.000000 0.000000 0.050063 0.000000
# 6 0.000000 0.000000 0.000000 0.000000 0.000000 0.018189
#
#
# Mechanical properties :
#
#
# Convention : Reuss Voigt Hill
#
# Bulk Modulus (GPa) = 31.84720 36.65506 34.25113
# Shear Modulus (GPa) = 32.46068 38.42232 35.44150
#
# Velocity S-wave (km/s) = 3.37872 3.67591 3.53044
# Velocity P-wave (km/s) = 5.14013 5.55942 5.35388
#
# Compressibility (1/GPa) = 0.03139993
#
# Stress axis : x y z
#
# Youngs Moduli (GPa) = 92.44730 116.88718 49.11262
#
# Poissons Ratio (x) = 0.05614 0.01532
# Poissons Ratio (y) = 0.04440 0.16574
# Poissons Ratio (z) = 0.02883 0.39445
#
# Static dielectric constant tensor:
#      x y z
#    x 2.431800 0.000000 0.000000 
#    y 0.000000 2.168240 0.000000 
#    z 0.000000 0.000000 2.355110 
# 
# From -- ./inp_files/151.got.cif
#   From: 2010.05.17/outbox.cif.g08.bks.cpg/sg19_1_cif.got.tgz:151.got - 2010.06.03 22:46:19.
