data_PCOD9315429
_publ_section_title
;
Structure prediction by ZEFSAII (Michael W. Deem and Ramdas Pophale) SiO2 
 PCOD9315429
Probable space group: P 21 21 21
;
_chemical_formula_sum "Si O2"
_cell_formula_units_Z 16
_cell_length_a 13.376929
_cell_length_b 8.396070
_cell_length_c 5.068812
_cell_angle_alpha 90.000000
_cell_angle_beta 90.000000
_cell_angle_gamma 90.000000
_cell_volume 569.296687
_symmetry_space_group_name_H-M "P 21 21 21"
_symmetry_group_IT_number 19
_symmetry_cell_setting 'orthorhombic'
loop_
_space_group_symop_operation_xyz
x,y,z
1/2-x,-y,1/2+z
1/2+x,1/2-y,-z
-x,1/2+y,1/2-z
loop_
_atom_site_type_symbol
_atom_site_label
_atom_site_fract_x
_atom_site_fract_y
_atom_site_fract_z
Si Si1 0.960345 0.476753 0.741557
Si Si2 0.640582 0.005689 0.631304
Si Si3 0.879961 0.652467 0.240205
Si Si4 0.322699 0.279003 0.443782
O O1 0.943041 0.559171 0.020871
O O2 0.913677 0.300460 0.713431
O O3 0.072908 0.484826 0.631105
O O4 0.896838 0.571267 0.518397
O O5 0.595176 0.160888 0.780316
O O6 0.755745 0.062218 0.609779
O O7 0.639988 0.832028 0.765801
O O8 0.768411 0.656359 0.116351
#
# Coordination Sequence:
#
# PCOD9315429 Si02
#       4
#     4   4   4   4
#     4  12  24  50  74 111 146 204 245 307 373 454
#     4  10  26  43  76 107 154 188 252 304 374 441
#     4  10  27  45  76 105 153 193 249 308 372 442
#     4  10  25  46  72 111 147 195 244 315 365 447
#
# _framework density 28.104852999999999
#
# number of rings (size 3 to 8) (size 9 to 14) (size 15 to 20)
#    1.500    0.000    0.000    3.000    3.500   10.000 
#    0.000    0.000    0.000    0.000    0.000    0.000 
#    0.000    0.000    0.000    0.000    0.000    0.000 
#
# Total GULP energy -89335.374514 kJ/mol
# GULP energy per Si atom -5583.460907 kJ/mol
# Density = 2.804089 g / cm^3
# Si number density = 28.104853 Si / 1000 Ang^3
#
#
#
# Elastic Constant Matrix: (Units=GPa)
#
#
# Indices 1 2 3 4 5 6 
#
# 1 198.5827 44.8415 29.0835 0.0000 0.0000 0.0000
# 2 44.8415 95.7151 58.8764 0.0000 0.0000 0.0000
# 3 29.0835 58.8764 95.3288 0.0000 0.0000 0.0000
# 4 0.0000 0.0000 0.0000 75.0765 0.0000 0.0000
# 5 0.0000 0.0000 0.0000 0.0000 22.6925 0.0000
# 6 0.0000 0.0000 0.0000 0.0000 0.0000 54.4227
#
#
#
# Elastic Compliance Matrix: (Units=1/GPa)
#
#
# Indices 1 2 3 4 5 6 
#
# 1 0.005633 -0.002551 -0.000143 0.000000 0.000000 0.000000
# 2 -0.002551 0.018004 -0.010341 0.000000 0.000000 0.000000
# 3 -0.000143 -0.010341 0.016920 0.000000 0.000000 0.000000
# 4 0.000000 0.000000 0.000000 0.013320 0.000000 0.000000
# 5 0.000000 0.000000 0.000000 0.000000 0.044067 0.000000
# 6 0.000000 0.000000 0.000000 0.000000 0.000000 0.018375
#
#
# Mechanical properties :
#
#
# Convention : Reuss Voigt Hill
#
# Bulk Modulus (GPa) = 69.02802 72.80326 70.91564
# Shear Modulus (GPa) = 33.96328 47.56001 40.76165
#
# Velocity S-wave (km/s) = 3.48005 4.11814 3.81247
# Velocity P-wave (km/s) = 6.38450 6.96940 6.68335
#
# Compressibility (1/GPa) = 0.01448687
#
# Stress axis : x y z
#
# Youngs Moduli (GPa) = 177.53685 55.54383 59.09997
#
# Poissons Ratio (x) = 0.14169 0.00845
# Poissons Ratio (y) = 0.45287 0.61116
# Poissons Ratio (z) = 0.02538 0.57439
#
# Static dielectric constant tensor:
#      x y z
#    x 2.184730 0.000000 0.000000 
#    y 0.000000 2.368790 0.000000 
#    z 0.000000 0.000000 2.395720 
# 
# From -- ./inp_files/1658.got.cif
#   From: 2010.05.17/outbox.cif.g08.bks.cpg/sg19_1_cif.got.tgz:1658.got - 2010.06.03 22:46:19.
