data_PCOD9315918
_publ_section_title
;
Structure prediction by ZEFSAII (Michael W. Deem and Ramdas Pophale) SiO2 
 PCOD9315918
Probable space group: P 21 21 21
;
_chemical_formula_sum "Si O2"
_cell_formula_units_Z 20
_cell_length_a 8.898862
_cell_length_b 9.899311
_cell_length_c 9.495525
_cell_angle_alpha 90.000000
_cell_angle_beta 90.000000
_cell_angle_gamma 90.000000
_cell_volume 836.485509
_symmetry_space_group_name_H-M "P 21 21 21"
_symmetry_group_IT_number 19
_symmetry_cell_setting 'orthorhombic'
loop_
_space_group_symop_operation_xyz
x,y,z
1/2-x,-y,1/2+z
1/2+x,1/2-y,-z
-x,1/2+y,1/2-z
loop_
_atom_site_type_symbol
_atom_site_label
_atom_site_fract_x
_atom_site_fract_y
_atom_site_fract_z
Si Si1 0.839896 0.329129 0.640527
Si Si2 0.008759 0.134931 0.454020
Si Si3 0.441711 0.459130 0.012468
Si Si4 0.231338 0.571821 0.251557
Si Si5 0.986520 0.342489 0.926866
O O1 0.670533 0.313169 0.590791
O O2 0.945458 0.203406 0.595458
O O3 0.914536 0.455215 0.558218
O O4 0.858737 0.352826 0.806421
O O5 0.882068 0.163213 0.337695
O O6 0.018701 0.973882 0.475856
O O7 0.321266 0.483294 0.137604
O O8 0.474060 0.300902 0.999141
O O9 0.368301 0.506080 0.866303
O O10 0.356735 0.650056 0.340968
#
# Coordination Sequence:
#
# PCOD9315918 Si02
#       5
#     4   4   4   4   4
#     4  11  26  45  73 106 149 193 245 306 369 444
#     4  12  27  46  74 107 146 200 246 302 378 440
#     4  11  26  47  78 107 150 194 247 306 373 438
#     4  11  25  48  75 108 151 197 242 311 369 441
#     4  11  26  48  72 108 152 188 252 305 363 447
#
# _framework density 23.909559999999999
#
# number of rings (size 3 to 8) (size 9 to 14) (size 15 to 20)
#    0.000    0.800    2.000    4.800    8.400    1.600 
#    0.000    0.000    0.000    0.000    0.000    0.000 
#    0.000    0.000    0.000    0.000    0.000    0.000 
#
# Total GULP energy -112069.446380 kJ/mol
# GULP energy per Si atom -5603.472319 kJ/mol
# Density = 2.385514 g / cm^3
# Si number density = 23.909560 Si / 1000 Ang^3
#
#
#
# Elastic Constant Matrix: (Units=GPa)
#
#
# Indices 1 2 3 4 5 6 
#
# 1 112.3336 14.3244 2.9678 0.0000 0.0000 0.0000
# 2 14.3244 113.0831 -9.7388 0.0000 0.0000 0.0000
# 3 2.9678 -9.7388 62.9764 0.0000 0.0000 0.0000
# 4 0.0000 0.0000 0.0000 26.5945 0.0000 0.0000
# 5 0.0000 0.0000 0.0000 0.0000 34.0910 0.0000
# 6 0.0000 0.0000 0.0000 0.0000 0.0000 7.4570
#
#
#
# Elastic Compliance Matrix: (Units=1/GPa)
#
#
# Indices 1 2 3 4 5 6 
#
# 1 0.009072 -0.001202 -0.000613 0.000000 0.000000 0.000000
# 2 -0.001202 0.009122 0.001467 0.000000 0.000000 0.000000
# 3 -0.000613 0.001467 0.016135 0.000000 0.000000 0.000000
# 4 0.000000 0.000000 0.000000 0.037602 0.000000 0.000000
# 5 0.000000 0.000000 0.000000 0.000000 0.029333 0.000000
# 6 0.000000 0.000000 0.000000 0.000000 0.000000 0.134101
#
#
# Mechanical properties :
#
#
# Convention : Reuss Voigt Hill
#
# Bulk Modulus (GPa) = 29.73375 33.72222 31.72798
# Shear Modulus (GPa) = 20.22072 32.35115 26.28593
#
# Velocity S-wave (km/s) = 2.91128 3.68239 3.31930
# Velocity P-wave (km/s) = 4.87480 5.67580 5.29048
#
# Compressibility (1/GPa) = 0.03363181
#
# Stress axis : x y z
#
# Youngs Moduli (GPa) = 110.23500 109.62910 61.97799
#
# Poissons Ratio (x) = 0.13177 0.03802
# Poissons Ratio (y) = 0.13249 -0.09094
# Poissons Ratio (z) = 0.06762 -0.16085
#
# Static dielectric constant tensor:
#      x y z
#    x 1.905260 0.000000 0.000000 
#    y 0.000000 1.896080 0.000000 
#    z 0.000000 0.000000 1.893380 
# 
# From -- ./inp_files/2562.got.cif
#   From: 2010.05.17/outbox.cif.g08.bks.cpg/sg19_2_cif.got.tgz:2562.got - 2010.06.03 22:46:19.
