data_PCOD9315531
_publ_section_title
;
Structure prediction by ZEFSAII (Michael W. Deem and Ramdas Pophale) SiO2 
 PCOD9315531
Probable space group: P 21 21 21
;
_chemical_formula_sum "Si O2"
_cell_formula_units_Z 32
_cell_length_a 11.802092
_cell_length_b 19.286793
_cell_length_c 5.581309
_cell_angle_alpha 90.000000
_cell_angle_beta 90.000000
_cell_angle_gamma 90.000000
_cell_volume 1270.442700
_symmetry_space_group_name_H-M "P 21 21 21"
_symmetry_group_IT_number 19
_symmetry_cell_setting 'orthorhombic'
loop_
_space_group_symop_operation_xyz
x,y,z
1/2-x,-y,1/2+z
1/2+x,1/2-y,-z
-x,1/2+y,1/2-z
loop_
_atom_site_type_symbol
_atom_site_label
_atom_site_fract_x
_atom_site_fract_y
_atom_site_fract_z
Si Si1 0.290291 0.591758 0.046211
Si Si2 0.118810 0.552421 0.413902
Si Si3 0.202168 0.205843 0.984728
Si Si4 0.915563 0.148288 0.687150
Si Si5 0.529493 0.597316 0.189632
Si Si6 0.453734 0.229381 0.049315
Si Si7 0.734264 0.377236 0.510817
Si Si8 0.456140 0.971285 0.969172
O O1 0.306936 0.508781 0.030159
O O2 0.215210 0.627306 0.844374
O O3 0.211110 0.597811 0.275331
O O4 0.412854 0.622067 0.075751
O O5 0.051594 0.608482 0.568989
O O6 0.029049 0.507178 0.259107
O O7 0.326123 0.244031 0.942823
O O8 0.213468 0.165654 0.241216
O O9 0.195709 0.158954 0.739385
O O10 0.082217 0.247222 0.017196
O O11 0.938429 0.228566 0.699013
O O12 0.987628 0.105283 0.498898
O O13 0.547404 0.647703 0.415674
O O14 0.632454 0.607681 0.011157
O O15 0.520743 0.521458 0.308627
O O16 0.673649 0.451865 0.547021
#
# Coordination Sequence:
#
# PCOD9315531 Si02
#       8
#     4   4   4   4   4   4   4   4
#     4  11  22  39  70 107 145 184 244 317 381 446
#     4  11  21  39  72 107 142 182 247 312 381 449
#     4  11  27  52  80 111 155 199 264 310 387 456
#     4  11  23  45  73 103 144 199 244 307 388 463
#     4  11  27  45  69 113 147 191 257 319 377 448
#     4  11  27  49  75 110 153 203 253 320 384 465
#     4  11  27  52  76 108 150 206 253 311 378 465
#     4  11  24  45  75 103 146 196 248 308 378 454
#
# _framework density 25.18807
#
# number of rings (size 3 to 8) (size 9 to 14) (size 15 to 20)
#    0.000    1.000    3.750    1.500    1.750   10.000 
#    4.500    0.000    0.000    0.000    0.000    0.000 
#    0.000    0.000    0.000    0.000    0.000    0.000 
#
# Total GULP energy -178377.795787 kJ/mol
# GULP energy per Si atom -5574.306118 kJ/mol
# Density = 2.513074 g / cm^3
# Si number density = 25.188070 Si / 1000 Ang^3
#
#
#
# Elastic Constant Matrix: (Units=GPa)
#
#
# Indices 1 2 3 4 5 6 
#
# 1 167.7447 29.9175 20.7697 0.0000 0.0000 0.0000
# 2 29.9175 47.5874 6.4648 0.0000 0.0000 0.0000
# 3 20.7697 6.4648 87.5943 0.0000 0.0000 0.0000
# 4 0.0000 0.0000 0.0000 16.7806 0.0000 0.0000
# 5 0.0000 0.0000 0.0000 0.0000 41.3335 0.0000
# 6 0.0000 0.0000 0.0000 0.0000 0.0000 39.7463
#
#
#
# Elastic Compliance Matrix: (Units=1/GPa)
#
#
# Indices 1 2 3 4 5 6 
#
# 1 0.006863 -0.004135 -0.001322 0.000000 0.000000 0.000000
# 2 -0.004135 0.023718 -0.000770 0.000000 0.000000 0.000000
# 3 -0.001322 -0.000770 0.011787 0.000000 0.000000 0.000000
# 4 0.000000 0.000000 0.000000 0.059592 0.000000 0.000000
# 5 0.000000 0.000000 0.000000 0.000000 0.024193 0.000000
# 6 0.000000 0.000000 0.000000 0.000000 0.000000 0.025160
#
#
# Mechanical properties :
#
#
# Convention : Reuss Voigt Hill
#
# Bulk Modulus (GPa) = 33.42986 46.35895 39.89440
# Shear Modulus (GPa) = 28.77903 35.95706 32.36805
#
# Velocity S-wave (km/s) = 3.38385 3.78238 3.58865
# Velocity P-wave (km/s) = 5.34492 6.12538 5.74841
#
# Compressibility (1/GPa) = 0.02991338
#
# Stress axis : x y z
#
# Youngs Moduli (GPa) = 145.71791 42.16198 84.84232
#
# Poissons Ratio (x) = 0.17433 0.11216
# Poissons Ratio (y) = 0.60251 0.06534
# Poissons Ratio (z) = 0.19264 0.03247
#
# Static dielectric constant tensor:
#      x y z
#    x 2.072060 0.000000 0.000000 
#    y 0.000000 1.975170 0.000000 
#    z 0.000000 0.000000 2.073780 
# 
# From -- ./inp_files/1251.got.cif
#   From: 2010.05.17/outbox.cif.g08.bks.cpg/sg19_1_cif.got.tgz:1251.got - 2010.06.03 22:46:19.
