data_PCOD9315221
_publ_section_title
;
Structure prediction by ZEFSAII (Michael W. Deem and Ramdas Pophale) SiO2 
 PCOD9315221
Probable space group: P 21 21 21
;
_chemical_formula_sum "Si O2"
_cell_formula_units_Z 24
_cell_length_a 11.556377
_cell_length_b 15.438880
_cell_length_c 4.985158
_cell_angle_alpha 90.000000
_cell_angle_beta 90.000000
_cell_angle_gamma 90.000000
_cell_volume 889.439516
_symmetry_space_group_name_H-M "P 21 21 21"
_symmetry_group_IT_number 19
_symmetry_cell_setting 'orthorhombic'
loop_
_space_group_symop_operation_xyz
x,y,z
1/2-x,-y,1/2+z
1/2+x,1/2-y,-z
-x,1/2+y,1/2-z
loop_
_atom_site_type_symbol
_atom_site_label
_atom_site_fract_x
_atom_site_fract_y
_atom_site_fract_z
Si Si1 0.283838 0.548452 0.696235
Si Si2 0.495386 0.689218 0.373020
Si Si3 0.541257 0.349864 0.009822
Si Si4 0.493436 0.043522 0.530471
Si Si5 0.296956 0.142143 0.768192
Si Si6 0.621700 0.816744 0.006182
O O1 0.246584 0.532315 0.392922
O O2 0.422751 0.554562 0.711578
O O3 0.213569 0.623355 0.846424
O O4 0.413955 0.740515 0.569082
O O5 0.614750 0.657144 0.488494
O O6 0.460394 0.622088 0.153445
O O7 0.530805 0.787756 0.245727
O O8 0.493919 0.450075 0.096869
O O9 0.461399 0.351105 0.729360
O O10 0.670937 0.371410 0.123299
O O11 0.361239 0.065683 0.605571
O O12 0.314706 0.230461 0.597664
#
# Coordination Sequence:
#
# PCOD9315221 Si02
#       6
#     4   4   4   4   4   4
#     4  12  26  45  75 109 147 191 250 309 371 446
#     4   9  23  46  65 104 138 185 248 298 371 442
#     4  10  23  48  65 104 147 181 249 305 379 443
#     4  11  25  45  66 113 134 192 247 307 374 454
#     4  11  24  43  74  95 147 198 241 317 370 456
#     4   9  23  45  67  99 141 189 247 298 379 435
#
# _framework density 26.983284999999999
#
# number of rings (size 3 to 8) (size 9 to 14) (size 15 to 20)
#    1.000    0.667    1.667    1.000    9.333    1.333 
#    3.000    0.000    0.000    0.000    0.000    0.000 
#    0.000    0.000    0.000    0.000    0.000    0.000 
#
# Total GULP energy -133844.267057 kJ/mol
# GULP energy per Si atom -5576.844461 kJ/mol
# Density = 2.692187 g / cm^3
# Si number density = 26.983285 Si / 1000 Ang^3
#
#
#
# Elastic Constant Matrix: (Units=GPa)
#
#
# Indices 1 2 3 4 5 6 
#
# 1 162.0901 38.0490 31.7642 0.0000 0.0000 0.0000
# 2 38.0490 140.8247 43.5002 0.0000 0.0000 0.0000
# 3 31.7642 43.5002 106.1980 0.0000 0.0000 0.0000
# 4 0.0000 0.0000 0.0000 40.1614 0.0000 0.0000
# 5 0.0000 0.0000 0.0000 0.0000 44.0921 0.0000
# 6 0.0000 0.0000 0.0000 0.0000 0.0000 36.9104
#
#
#
# Elastic Compliance Matrix: (Units=1/GPa)
#
#
# Indices 1 2 3 4 5 6 
#
# 1 0.006780 -0.001380 -0.001463 0.000000 0.000000 0.000000
# 2 -0.001380 0.008411 -0.003032 0.000000 0.000000 0.000000
# 3 -0.001463 -0.003032 0.011096 0.000000 0.000000 0.000000
# 4 0.000000 0.000000 0.000000 0.024900 0.000000 0.000000
# 5 0.000000 0.000000 0.000000 0.000000 0.022680 0.000000
# 6 0.000000 0.000000 0.000000 0.000000 0.000000 0.027093
#
#
# Mechanical properties :
#
#
# Convention : Reuss Voigt Hill
#
# Bulk Modulus (GPa) = 68.79241 70.63775 69.71508
# Shear Modulus (GPa) = 42.53367 43.95274 43.24320
#
# Velocity S-wave (km/s) = 3.97457 4.04033 4.00758
# Velocity P-wave (km/s) = 6.82735 6.92826 6.87799
#
# Compressibility (1/GPa) = 0.01453649
#
# Stress axis : x y z
#
# Youngs Moduli (GPa) = 147.49283 118.89804 90.12317
#
# Poissons Ratio (x) = 0.16409 0.13182
# Poissons Ratio (y) = 0.20355 0.27328
# Poissons Ratio (z) = 0.21573 0.36054
#
# Static dielectric constant tensor:
#      x y z
#    x 2.083510 0.000000 0.000000 
#    y 0.000000 2.363350 0.000000 
#    z 0.000000 0.000000 2.152880 
# 
# From -- ./inp_files/881.got.cif
#   From: 2010.05.17/outbox.cif.g08.bks.cpg/sg19_1_cif.got.tgz:881.got - 2010.06.03 22:46:19.
