data_PCOD9315664
_publ_section_title
;
Structure prediction by ZEFSAII (Michael W. Deem and Ramdas Pophale) SiO2 
 PCOD9315664
Probable space group: P 21 21 21
;
_chemical_formula_sum "Si O2"
_cell_formula_units_Z 28
_cell_length_a 7.626287
_cell_length_b 6.552244
_cell_length_c 25.312779
_cell_angle_alpha 90.000000
_cell_angle_beta 90.000000
_cell_angle_gamma 90.000000
_cell_volume 1264.861677
_symmetry_space_group_name_H-M "P 21 21 21"
_symmetry_group_IT_number 19
_symmetry_cell_setting 'orthorhombic'
loop_
_space_group_symop_operation_xyz
x,y,z
1/2-x,-y,1/2+z
1/2+x,1/2-y,-z
-x,1/2+y,1/2-z
loop_
_atom_site_type_symbol
_atom_site_label
_atom_site_fract_x
_atom_site_fract_y
_atom_site_fract_z
Si Si1 0.825482 0.851800 0.709916
Si Si2 0.630184 0.333402 0.322316
Si Si3 0.507393 0.987197 0.641430
Si Si4 0.511836 0.265959 0.550017
Si Si5 0.184471 0.348602 0.079786
Si Si6 0.304175 0.944240 0.484775
Si Si7 0.033726 0.048586 0.871696
O O1 0.821116 0.805512 0.771717
O O2 0.865216 0.643306 0.677802
O O3 0.643132 0.943434 0.688092
O O4 0.988322 0.999813 0.696482
O O5 0.814363 0.428233 0.342419
O O6 0.525867 0.184199 0.362342
O O7 0.590313 0.153132 0.601200
O O8 0.468061 0.780491 0.608305
O O9 0.361926 0.416312 0.571472
O O10 0.446990 0.087117 0.512561
O O11 0.632865 0.417429 0.517595
O O12 0.352782 0.333216 0.116889
O O13 0.219823 0.248235 0.022670
O O14 0.357105 0.909955 0.424677
#
# Coordination Sequence:
#
# PCOD9315664 Si02
#       7
#     4   4   4   4   4   4   4
#     4  12  27  47  74 104 138 185 242 294 365 429
#     4  12  26  48  72 102 138 186 238 299 362 425
#     4  11  26  45  71 103 140 183 236 294 359 425
#     4  11  23  43  63 101 142 184 235 288 356 423
#     4  11  23  42  69 101 141 184 233 290 351 432
#     4  11  25  38  67 101 138 189 234 283 356 429
#     4  12  24  45  72  98 147 187 230 304 357 421
#
# _framework density 22.136807999999998
#
# number of rings (size 3 to 8) (size 9 to 14) (size 15 to 20)
#    0.000    0.571    4.286    3.429    2.000    8.000 
#    2.571    0.000    0.000    0.000    0.000    0.000 
#    0.000    0.000    0.000    0.000    0.000    0.000 
#
# Total GULP energy -156581.605058 kJ/mol
# GULP energy per Si atom -5592.200181 kJ/mol
# Density = 2.208642 g / cm^3
# Si number density = 22.136808 Si / 1000 Ang^3
#
#
#
# Elastic Constant Matrix: (Units=GPa)
#
#
# Indices 1 2 3 4 5 6 
#
# 1 69.6536 7.6100 -2.6195 0.0000 0.0000 0.0000
# 2 7.6100 52.3880 0.1764 0.0000 0.0000 0.0000
# 3 -2.6195 0.1764 54.1893 0.0000 0.0000 0.0000
# 4 0.0000 0.0000 0.0000 37.2936 0.0000 0.0000
# 5 0.0000 0.0000 0.0000 0.0000 32.3857 0.0000
# 6 0.0000 0.0000 0.0000 0.0000 0.0000 27.6825
#
#
#
# Elastic Compliance Matrix: (Units=1/GPa)
#
#
# Indices 1 2 3 4 5 6 
#
# 1 0.014616 -0.002126 0.000713 0.000000 0.000000 0.000000
# 2 -0.002126 0.019398 -0.000166 0.000000 0.000000 0.000000
# 3 0.000713 -0.000166 0.018489 0.000000 0.000000 0.000000
# 4 0.000000 0.000000 0.000000 0.026814 0.000000 0.000000
# 5 0.000000 0.000000 0.000000 0.000000 0.030878 0.000000
# 6 0.000000 0.000000 0.000000 0.000000 0.000000 0.036124
#
#
# Mechanical properties :
#
#
# Convention : Reuss Voigt Hill
#
# Bulk Modulus (GPa) = 20.26492 20.72942 20.49717
# Shear Modulus (GPa) = 30.13445 30.87662 30.50553
#
# Velocity S-wave (km/s) = 3.69356 3.73877 3.71623
# Velocity P-wave (km/s) = 5.23107 5.29362 5.26244
#
# Compressibility (1/GPa) = 0.04934636
#
# Stress axis : x y z
#
# Youngs Moduli (GPa) = 68.41903 51.55265 54.08659
#
# Poissons Ratio (x) = 0.10958 -0.03859
# Poissons Ratio (y) = 0.14543 0.00897
# Poissons Ratio (z) = -0.04881 0.00855
#
# Static dielectric constant tensor:
#      x y z
#    x 1.855280 0.000000 0.000000 
#    y 0.000000 1.822590 0.000000 
#    z 0.000000 0.000000 1.796360 
# 
# From -- ./inp_files/556.got.cif
#   From: 2010.05.17/outbox.cif.g08.bks.cpg/sg19_1_cif.got.tgz:556.got - 2010.06.03 22:46:19.
