data_PCOD9315216
_publ_section_title
;
Structure prediction by ZEFSAII (Michael W. Deem and Ramdas Pophale) SiO2 
 PCOD9315216
Probable space group: P 21 21 21
;
_chemical_formula_sum "Si O2"
_cell_formula_units_Z 28
_cell_length_a 21.320363
_cell_length_b 8.800317
_cell_length_c 6.861981
_cell_angle_alpha 90.000000
_cell_angle_beta 90.000000
_cell_angle_gamma 90.000000
_cell_volume 1287.485724
_symmetry_space_group_name_H-M "P 21 21 21"
_symmetry_group_IT_number 19
_symmetry_cell_setting 'orthorhombic'
loop_
_space_group_symop_operation_xyz
x,y,z
1/2-x,-y,1/2+z
1/2+x,1/2-y,-z
-x,1/2+y,1/2-z
loop_
_atom_site_type_symbol
_atom_site_label
_atom_site_fract_x
_atom_site_fract_y
_atom_site_fract_z
Si Si1 0.031542 0.768744 0.664798
Si Si2 0.954259 0.027164 0.522631
Si Si3 0.954382 0.605136 0.326581
Si Si4 0.749684 0.694775 0.268728
Si Si5 0.832626 0.412464 0.413554
Si Si6 0.649671 0.799401 0.556499
Si Si7 0.127955 0.386339 0.274757
O O1 0.047112 0.686677 0.867059
O O2 0.097055 0.797707 0.556077
O O3 0.987660 0.915126 0.675711
O O4 0.993165 0.666645 0.509533
O O5 0.889491 0.959930 0.437580
O O6 0.999054 0.033151 0.332121
O O7 0.899580 0.497745 0.409544
O O8 0.921268 0.747511 0.215759
O O9 0.783780 0.539483 0.334736
O O10 0.713853 0.778635 0.442434
O O11 0.804699 0.807837 0.202979
O O12 0.697959 0.650214 0.109535
O O13 0.840646 0.273412 0.266408
O O14 0.626490 0.972516 0.577106
#
# Coordination Sequence:
#
# PCOD9315216 Si02
#       7
#     4   4   4   4   4   4   4
#     4  11  26  40  70 103 134 183 230 277 363 422
#     4  11  24  45  67 102 141 184 231 290 350 424
#     4  10  23  47  70  98 143 176 230 294 352 414
#     4  11  26  47  70 100 134 187 236 287 349 413
#     4  11  24  47  73  97 136 182 240 289 338 423
#     4  12  25  42  68 102 137 180 230 281 350 410
#     4  10  26  46  66 100 143 182 223 298 346 410
#
# _framework density 21.747814999999999
#
# number of rings (size 3 to 8) (size 9 to 14) (size 15 to 20)
#    0.000    1.143    4.286    0.000    8.000    0.000 
#    0.000    0.000    0.000    0.000    0.000    0.000 
#    0.000    0.000    0.000    0.000    0.000    0.000 
#
# Total GULP energy -156454.248876 kJ/mol
# GULP energy per Si atom -5587.651746 kJ/mol
# Density = 2.169832 g / cm^3
# Si number density = 21.747815 Si / 1000 Ang^3
#
#
#
# Elastic Constant Matrix: (Units=GPa)
#
#
# Indices 1 2 3 4 5 6 
#
# 1 61.3362 22.7479 20.7456 0.0000 0.0000 0.0000
# 2 22.7479 89.4042 14.1740 0.0000 0.0000 0.0000
# 3 20.7456 14.1740 37.0346 0.0000 0.0000 0.0000
# 4 0.0000 0.0000 0.0000 39.2654 0.0000 0.0000
# 5 0.0000 0.0000 0.0000 0.0000 32.9579 0.0000
# 6 0.0000 0.0000 0.0000 0.0000 0.0000 33.2936
#
#
#
# Elastic Compliance Matrix: (Units=1/GPa)
#
#
# Indices 1 2 3 4 5 6 
#
# 1 0.021230 -0.003743 -0.010459 0.000000 0.000000 0.000000
# 2 -0.003743 0.012568 -0.002713 0.000000 0.000000 0.000000
# 3 -0.010459 -0.002713 0.033899 0.000000 0.000000 0.000000
# 4 0.000000 0.000000 0.000000 0.025468 0.000000 0.000000
# 5 0.000000 0.000000 0.000000 0.000000 0.030342 0.000000
# 6 0.000000 0.000000 0.000000 0.000000 0.000000 0.030036
#
#
# Mechanical properties :
#
#
# Convention : Reuss Voigt Hill
#
# Bulk Modulus (GPa) = 29.52925 33.67890 31.60408
# Shear Modulus (GPa) = 25.16839 29.77721 27.47280
#
# Velocity S-wave (km/s) = 3.40558 3.70429 3.55807
# Velocity P-wave (km/s) = 5.39180 5.81510 5.60744
#
# Compressibility (1/GPa) = 0.03386473
#
# Stress axis : x y z
#
# Youngs Moduli (GPa) = 47.10408 79.56880 29.49920
#
# Poissons Ratio (x) = 0.29786 0.30855
# Poissons Ratio (y) = 0.17633 0.08003
# Poissons Ratio (z) = 0.49268 0.21587
#
# Static dielectric constant tensor:
#      x y z
#    x 1.779510 0.000000 0.000000 
#    y 0.000000 1.808920 0.000000 
#    z 0.000000 0.000000 1.764600 
# 
# From -- ./inp_files/2121.got.cif
#   From: 2010.05.17/outbox.cif.g08.bks.cpg/sg19_2_cif.got.tgz:2121.got - 2010.06.03 22:46:19.
