data_PCOD9315249
_publ_section_title
;
Structure prediction by ZEFSAII (Michael W. Deem and Ramdas Pophale) SiO2 
 PCOD9315249
Probable space group: P 21 21 21
;
_chemical_formula_sum "Si O2"
_cell_formula_units_Z 24
_cell_length_a 4.916170
_cell_length_b 12.655130
_cell_length_c 16.033560
_cell_angle_alpha 90.000000
_cell_angle_beta 90.000000
_cell_angle_gamma 90.000000
_cell_volume 997.524255
_symmetry_space_group_name_H-M "P 21 21 21"
_symmetry_group_IT_number 19
_symmetry_cell_setting 'orthorhombic'
loop_
_space_group_symop_operation_xyz
x,y,z
1/2-x,-y,1/2+z
1/2+x,1/2-y,-z
-x,1/2+y,1/2-z
loop_
_atom_site_type_symbol
_atom_site_label
_atom_site_fract_x
_atom_site_fract_y
_atom_site_fract_z
Si Si1 0.154879 0.105465 0.858350
Si Si2 0.855989 0.823752 0.262985
Si Si3 0.276531 0.474212 0.851622
Si Si4 0.549516 0.622447 0.202529
Si Si5 0.249342 0.967962 0.538105
Si Si6 0.470869 0.684632 0.024155
O O1 0.347052 0.176930 0.801924
O O2 0.847918 0.137557 0.836632
O O3 0.197355 0.986169 0.824213
O O4 0.229285 0.102775 0.955367
O O5 0.835432 0.912381 0.190747
O O6 0.754247 0.713955 0.227498
O O7 0.552600 0.427307 0.889052
O O8 0.144472 0.406550 0.778278
O O9 0.051114 0.480090 0.925018
O O10 0.393778 0.659270 0.119338
O O11 0.385867 0.080824 0.514057
O O12 0.703403 0.773908 0.021204
#
# Coordination Sequence:
#
# PCOD9315249 Si02
#       6
#     4   4   4   4   4   4
#     4  10  24  41  63  92 127 167 211 264 320 377
#     4  11  22  41  64  93 126 165 212 266 320 379
#     4  11  23  40  65  93 126 169 213 262 317 381
#     4  10  24  41  66  96 129 167 213 263 320 379
#     4  11  22  41  61  89 129 168 211 263 316 378
#     4  11  23  38  63  97 129 164 210 268 327 376
#
# _framework density 24.059563000000001
#
# number of rings (size 3 to 8) (size 9 to 14) (size 15 to 20)
#    0.000    1.333    0.000    6.000    0.000   13.333 
#    0.000    3.333    0.000    0.000    0.000    0.000 
#    0.000    0.000    0.000    0.000    0.000    0.000 
#
# Total GULP energy -134569.568453 kJ/mol
# GULP energy per Si atom -5607.065352 kJ/mol
# Density = 2.400480 g / cm^3
# Si number density = 24.059563 Si / 1000 Ang^3
#
#
#
# Elastic Constant Matrix: (Units=GPa)
#
#
# Indices 1 2 3 4 5 6 
#
# 1 69.7916 -4.7840 0.2358 0.0000 0.0000 0.0000
# 2 -4.7840 67.3786 21.2388 0.0000 0.0000 0.0000
# 3 0.2358 21.2388 91.0778 0.0000 0.0000 0.0000
# 4 0.0000 0.0000 0.0000 22.9710 0.0000 0.0000
# 5 0.0000 0.0000 0.0000 0.0000 35.0645 0.0000
# 6 0.0000 0.0000 0.0000 0.0000 0.0000 23.5287
#
#
#
# Elastic Compliance Matrix: (Units=1/GPa)
#
#
# Indices 1 2 3 4 5 6 
#
# 1 0.014406 0.001117 -0.000298 0.000000 0.000000 0.000000
# 2 0.001117 0.016106 -0.003759 0.000000 0.000000 0.000000
# 3 -0.000298 -0.003759 0.011857 0.000000 0.000000 0.000000
# 4 0.000000 0.000000 0.000000 0.043533 0.000000 0.000000
# 5 0.000000 0.000000 0.000000 0.000000 0.028519 0.000000
# 6 0.000000 0.000000 0.000000 0.000000 0.000000 0.042501
#
#
# Mechanical properties :
#
#
# Convention : Reuss Voigt Hill
#
# Bulk Modulus (GPa) = 27.40543 29.06991 28.23767
# Shear Modulus (GPa) = 28.57729 30.41665 29.49697
#
# Velocity S-wave (km/s) = 3.45015 3.55945 3.50522
# Velocity P-wave (km/s) = 5.22367 5.38531 5.30511
#
# Compressibility (1/GPa) = 0.03648912
#
# Stress axis : x y z
#
# Youngs Moduli (GPa) = 69.41587 62.09032 84.33921
#
# Poissons Ratio (x) = -0.06934 0.02511
# Poissons Ratio (y) = -0.07752 0.31700
# Poissons Ratio (z) = 0.02067 0.23337
#
# Static dielectric constant tensor:
#      x y z
#    x 1.865060 0.000000 0.000000 
#    y 0.000000 1.937440 0.000000 
#    z 0.000000 0.000000 1.919740 
# 
# From -- ./inp_files/4444.got.cif
#   From: 2010.05.17/outbox.cif.g08.bks.cpg/sg19_3_cif.got.tgz:4444.got - 2010.06.03 22:46:19.
