data_PCOD9315280
_publ_section_title
;
Structure prediction by ZEFSAII (Michael W. Deem and Ramdas Pophale) SiO2 
 PCOD9315280
Probable space group: P 21 21 21
;
_chemical_formula_sum "Si O2"
_cell_formula_units_Z 20
_cell_length_a 7.495966
_cell_length_b 9.072071
_cell_length_c 12.050597
_cell_angle_alpha 90.000000
_cell_angle_beta 90.000000
_cell_angle_gamma 90.000000
_cell_volume 819.488024
_symmetry_space_group_name_H-M "P 21 21 21"
_symmetry_group_IT_number 19
_symmetry_cell_setting 'orthorhombic'
loop_
_space_group_symop_operation_xyz
x,y,z
1/2-x,-y,1/2+z
1/2+x,1/2-y,-z
-x,1/2+y,1/2-z
loop_
_atom_site_type_symbol
_atom_site_label
_atom_site_fract_x
_atom_site_fract_y
_atom_site_fract_z
Si Si1 0.094637 0.938858 0.073392
Si Si2 0.214297 0.825570 0.682607
Si Si3 0.472706 0.441112 0.708741
Si Si4 0.599248 0.970086 0.243875
Si Si5 0.697757 0.876771 0.005118
O O1 0.055604 0.939906 0.206561
O O2 0.901594 0.934512 0.013582
O O3 0.195264 0.792689 0.035201
O O4 0.208811 0.091168 0.072897
O O5 0.382884 0.816097 0.766007
O O6 0.128391 0.664924 0.671198
O O7 0.075943 0.933486 0.743740
O O8 0.269851 0.421580 0.750103
O O9 0.432837 0.462796 0.580088
O O10 0.611633 0.892147 0.124908
#
# Coordination Sequence:
#
# PCOD9315280 Si02
#       5
#     4   4   4   4   4
#     4   9  22  37  69 103 139 177 245 296 339 443
#     4  10  24  43  64 110 145 176 240 309 342 419
#     4   9  22  41  65 106 141 171 243 309 331 420
#     4  11  24  42  73 102 141 194 238 284 370 435
#     4  11  20  43  73 101 134 200 240 276 374 447
#
# _framework density 24.405481000000002
#
# number of rings (size 3 to 8) (size 9 to 14) (size 15 to 20)
#    1.200    0.800    0.000    3.600    5.600    0.000 
#    0.000    2.000    0.000    0.000    0.000    0.000 
#    0.000    0.000    0.000    0.000    0.000    0.000 
#
# Total GULP energy -111404.081467 kJ/mol
# GULP energy per Si atom -5570.204073 kJ/mol
# Density = 2.434993 g / cm^3
# Si number density = 24.405481 Si / 1000 Ang^3
#
#
#
# Elastic Constant Matrix: (Units=GPa)
#
#
# Indices 1 2 3 4 5 6 
#
# 1 100.9074 32.7334 -10.3791 0.0000 0.0000 0.0000
# 2 32.7334 89.2301 19.1666 0.0000 0.0000 0.0000
# 3 -10.3791 19.1666 78.7124 0.0000 0.0000 0.0000
# 4 0.0000 0.0000 0.0000 36.7906 0.0000 0.0000
# 5 0.0000 0.0000 0.0000 0.0000 22.3351 0.0000
# 6 0.0000 0.0000 0.0000 0.0000 0.0000 -134.6068
#
#
#
# Elastic Compliance Matrix: (Units=1/GPa)
#
#
# Indices 1 2 3 4 5 6 
#
# 1 0.011787 -0.004915 0.002751 0.000000 0.000000 0.000000
# 2 -0.004915 0.013875 -0.004027 0.000000 0.000000 0.000000
# 3 0.002751 -0.004027 0.014048 0.000000 0.000000 0.000000
# 4 0.000000 0.000000 0.000000 0.027181 0.000000 0.000000
# 5 0.000000 0.000000 0.000000 0.000000 0.044773 0.000000
# 6 0.000000 0.000000 0.000000 0.000000 0.000000 -0.007429
#
#
# Mechanical properties :
#
#
# Convention : Reuss Voigt Hill
#
# Bulk Modulus (GPa) = 36.59129 39.09909 37.84519
# Shear Modulus (GPa) = 39.76916 0.05904 19.91410
#
# Velocity S-wave (km/s) = 4.04111 0.15570 2.85961
# Velocity P-wave (km/s) = 6.06627 4.01095 5.14234
#
# Compressibility (1/GPa) = 0.02732891
#
# Stress axis : x y z
#
# Youngs Moduli (GPa) = 84.83593 72.07222 71.18577
#
# Poissons Ratio (x) = 0.35424 -0.19584
# Poissons Ratio (y) = 0.41698 0.28664
# Poissons Ratio (z) = -0.23340 0.29021
#
# Static dielectric constant tensor:
#      x y z
#    x 2.023620 0.000000 0.000000 
#    y 0.000000 1.997010 0.000000 
#    z 0.000000 0.000000 2.022450 
# 
# From -- ./inp_files/3477.got.cif
#   From: 2010.05.17/outbox.cif.g08.bks.cpg/sg19_2_cif.got.tgz:3477.got - 2010.06.03 22:46:19.
