data_PCOD9315765
_publ_section_title
;
Structure prediction by ZEFSAII (Michael W. Deem and Ramdas Pophale) SiO2 
 PCOD9315765
Probable space group: P 21 21 21
;
_chemical_formula_sum "Si O2"
_cell_formula_units_Z 32
_cell_length_a 29.403531
_cell_length_b 8.685972
_cell_length_c 5.051371
_cell_angle_alpha 90.000000
_cell_angle_beta 90.000000
_cell_angle_gamma 90.000000
_cell_volume 1290.111298
_symmetry_space_group_name_H-M "P 21 21 21"
_symmetry_group_IT_number 19
_symmetry_cell_setting 'orthorhombic'
loop_
_space_group_symop_operation_xyz
x,y,z
1/2-x,-y,1/2+z
1/2+x,1/2-y,-z
-x,1/2+y,1/2-z
loop_
_atom_site_type_symbol
_atom_site_label
_atom_site_fract_x
_atom_site_fract_y
_atom_site_fract_z
Si Si1 0.996331 0.459681 0.996253
Si Si2 0.222235 0.032918 0.742979
Si Si3 0.457209 0.686736 0.991549
Si Si4 0.212538 0.315391 0.059385
Si Si5 0.208891 0.607512 0.831440
Si Si6 0.354212 0.160810 0.521906
Si Si7 0.863891 0.946522 0.060630
Si Si8 0.905060 0.275251 0.002221
O O1 0.977618 0.637134 0.008078
O O2 0.954646 0.341731 0.035987
O O3 0.018689 0.416451 0.716477
O O4 0.031308 0.401308 0.218789
O O5 0.209943 0.211759 0.801728
O O6 0.265244 0.003950 0.941814
O O7 0.177652 0.958230 0.872376
O O8 0.402530 0.674857 0.033899
O O9 0.256321 0.264258 0.229790
O O10 0.166663 0.359046 0.215529
O O11 0.235327 0.476513 0.981257
O O12 0.172133 0.520870 0.646975
O O13 0.178790 0.693603 0.051928
O O14 0.391980 0.207987 0.305600
O O15 0.373897 0.119850 0.804640
O O16 0.894404 0.102855 0.105603
#
# Coordination Sequence:
#
# PCOD9315765 Si02
#       8
#     4   4   4   4   4   4   4   4
#     4  12  27  52  82 112 155 191 243 306 389 452
#     4  12  28  43  65  96 141 190 241 302 357 418
#     4  12  28  50  80 114 148 195 242 308 377 455
#     4  12  25  42  69  97 144 192 245 298 360 420
#     4  11  24  43  68 101 140 194 242 297 352 427
#     4  11  24  44  66 102 142 187 240 293 356 423
#     4  11  26  43  70 108 142 189 247 300 357 443
#     4  11  24  45  74 102 144 184 234 294 366 436
#
# _framework density 24.804064
#
# number of rings (size 3 to 8) (size 9 to 14) (size 15 to 20)
#    0.000    0.500    3.750    3.750    8.750    2.000 
#    0.000    0.000    0.000    0.000    0.000    0.000 
#    0.000    0.000    0.000    0.000    0.000    0.000 
#
# Total GULP energy -178558.387240 kJ/mol
# GULP energy per Si atom -5579.949601 kJ/mol
# Density = 2.474761 g / cm^3
# Si number density = 24.804064 Si / 1000 Ang^3
#
#
#
# Elastic Constant Matrix: (Units=GPa)
#
#
# Indices 1 2 3 4 5 6 
#
# 1 94.2511 27.8944 -11.6564 0.0000 0.0000 0.0000
# 2 27.8944 63.2454 17.9211 0.0000 0.0000 0.0000
# 3 -11.6564 17.9211 56.8196 0.0000 0.0000 0.0000
# 4 0.0000 0.0000 0.0000 31.4675 0.0000 0.0000
# 5 0.0000 0.0000 0.0000 0.0000 35.1403 0.0000
# 6 0.0000 0.0000 0.0000 0.0000 0.0000 36.1991
#
#
#
# Elastic Compliance Matrix: (Units=1/GPa)
#
#
# Indices 1 2 3 4 5 6 
#
# 1 0.013413 -0.007353 0.005071 0.000000 0.000000 0.000000
# 2 -0.007353 0.021394 -0.008256 0.000000 0.000000 0.000000
# 3 0.005071 -0.008256 0.021244 0.000000 0.000000 0.000000
# 4 0.000000 0.000000 0.000000 0.031779 0.000000 0.000000
# 5 0.000000 0.000000 0.000000 0.000000 0.028457 0.000000
# 6 0.000000 0.000000 0.000000 0.000000 0.000000 0.027625
#
#
# Mechanical properties :
#
#
# Convention : Reuss Voigt Hill
#
# Bulk Modulus (GPa) = 28.59209 31.40380 29.99794
# Shear Modulus (GPa) = 28.30516 32.57185 30.43851
#
# Velocity S-wave (km/s) = 3.38176 3.62769 3.50688
# Velocity P-wave (km/s) = 5.17693 5.49865 5.34021
#
# Compressibility (1/GPa) = 0.03497471
#
# Stress axis : x y z
#
# Youngs Moduli (GPa) = 74.55352 46.74257 47.07247
#
# Poissons Ratio (x) = 0.34369 -0.23869
# Poissons Ratio (y) = 0.54817 0.38863
# Poissons Ratio (z) = -0.37804 0.38591
#
# Static dielectric constant tensor:
#      x y z
#    x 2.081650 0.000000 0.000000 
#    y 0.000000 2.089590 0.000000 
#    z 0.000000 0.000000 2.117790 
# 
# From -- ./inp_files/2318.got.cif
#   From: 2010.05.17/outbox.cif.g08.bks.cpg/sg19_2_cif.got.tgz:2318.got - 2010.06.03 22:46:19.
