data_PCOD9315691
_publ_section_title
;
Structure prediction by ZEFSAII (Michael W. Deem and Ramdas Pophale) SiO2 
 PCOD9315691
Probable space group: P 21 21 21
;
_chemical_formula_sum "Si O2"
_cell_formula_units_Z 24
_cell_length_a 8.696808
_cell_length_b 9.732298
_cell_length_c 13.165735
_cell_angle_alpha 90.000000
_cell_angle_beta 90.000000
_cell_angle_gamma 90.000000
_cell_volume 1114.346851
_symmetry_space_group_name_H-M "P 21 21 21"
_symmetry_group_IT_number 19
_symmetry_cell_setting 'orthorhombic'
loop_
_space_group_symop_operation_xyz
x,y,z
1/2-x,-y,1/2+z
1/2+x,1/2-y,-z
-x,1/2+y,1/2-z
loop_
_atom_site_type_symbol
_atom_site_label
_atom_site_fract_x
_atom_site_fract_y
_atom_site_fract_z
Si Si1 0.894563 0.355245 0.458178
Si Si2 0.708849 0.207958 0.176553
Si Si3 0.325956 0.621828 0.106981
Si Si4 0.862574 0.867006 0.449676
Si Si5 0.062238 0.111374 0.179584
Si Si6 0.817015 0.499862 0.121989
O O1 0.821825 0.215927 0.417285
O O2 0.931090 0.458978 0.366850
O O3 0.770865 0.428844 0.530632
O O4 0.043702 0.337186 0.527416
O O5 0.625770 0.155046 0.277798
O O6 0.716951 0.372843 0.166112
O O7 0.884635 0.154948 0.186976
O O8 0.645435 0.150456 0.070576
O O9 0.274422 0.465290 0.088490
O O10 0.856808 0.718980 0.395776
O O11 0.023454 0.934140 0.416413
O O12 0.143043 0.105274 0.288316
#
# Coordination Sequence:
#
# PCOD9315691 Si02
#       6
#     4   4   4   4   4   4
#     4  12  26  46  68 103 140 181 237 289 351 421
#     4  11  23  44  71 104 137 183 235 290 350 416
#     4  12  26  45  69 105 140 182 236 289 352 418
#     4  11  24  44  75 100 136 183 239 289 346 421
#     4  11  23  44  73  99 142 187 228 280 364 412
#     4  11  24  45  72 101 139 190 229 289 355 416
#
# _framework density 21.537279000000002
#
# number of rings (size 3 to 8) (size 9 to 14) (size 15 to 20)
#    0.000    0.667    6.667    1.000    0.000    2.667 
#    6.000    0.000    0.000    0.000    0.000    0.000 
#    0.000    0.000    0.000    0.000    0.000    0.000 
#
# Total GULP energy -134389.929366 kJ/mol
# GULP energy per Si atom -5599.580390 kJ/mol
# Density = 2.148826 g / cm^3
# Si number density = 21.537279 Si / 1000 Ang^3
#
#
#
# Elastic Constant Matrix: (Units=GPa)
#
#
# Indices 1 2 3 4 5 6 
#
# 1 30.5187 2.2153 12.2983 0.0000 0.0000 0.0000
# 2 2.2153 64.3599 12.5165 0.0000 0.0000 0.0000
# 3 12.2983 12.5165 93.1845 0.0000 0.0000 0.0000
# 4 0.0000 0.0000 0.0000 39.6781 0.0000 0.0000
# 5 0.0000 0.0000 0.0000 0.0000 32.8227 0.0000
# 6 0.0000 0.0000 0.0000 0.0000 0.0000 6.2191
#
#
#
# Elastic Compliance Matrix: (Units=1/GPa)
#
#
# Indices 1 2 3 4 5 6 
#
# 1 0.034613 -0.000311 -0.004526 0.000000 0.000000 0.000000
# 2 -0.000311 0.015957 -0.002102 0.000000 0.000000 0.000000
# 3 -0.004526 -0.002102 0.011611 0.000000 0.000000 0.000000
# 4 0.000000 0.000000 0.000000 0.025203 0.000000 0.000000
# 5 0.000000 0.000000 0.000000 0.000000 0.030467 0.000000
# 6 0.000000 0.000000 0.000000 0.000000 0.000000 0.160795
#
#
# Mechanical properties :
#
#
# Convention : Reuss Voigt Hill
#
# Bulk Modulus (GPa) = 20.70304 26.90258 23.80281
# Shear Modulus (GPa) = 16.20080 26.47951 21.34016
#
# Velocity S-wave (km/s) = 2.74564 3.51019 3.15119
# Velocity P-wave (km/s) = 4.43677 5.38023 4.93111
#
# Compressibility (1/GPa) = 0.04830208
#
# Stress axis : x y z
#
# Youngs Moduli (GPa) = 28.89054 62.66770 86.12397
#
# Poissons Ratio (x) = 0.01950 0.38983
# Poissons Ratio (y) = 0.00899 0.18106
# Poissons Ratio (z) = 0.13077 0.13175
#
# Static dielectric constant tensor:
#      x y z
#    x 1.767720 0.000000 0.000000 
#    y 0.000000 1.771180 0.000000 
#    z 0.000000 0.000000 1.759910 
# 
# From -- ./inp_files/2673.got.cif
#   From: 2010.05.17/outbox.cif.g08.bks.cpg/sg19_2_cif.got.tgz:2673.got - 2010.06.03 22:46:19.
