data_PCOD9315133
_publ_section_title
;
Structure prediction by ZEFSAII (Michael W. Deem and Ramdas Pophale) SiO2 
 PCOD9315133
Probable space group: P 21 21 21
;
_chemical_formula_sum "Si O2"
_cell_formula_units_Z 20
_cell_length_a 5.073203
_cell_length_b 8.367158
_cell_length_c 18.360242
_cell_angle_alpha 90.000000
_cell_angle_beta 90.000000
_cell_angle_gamma 90.000000
_cell_volume 779.360896
_symmetry_space_group_name_H-M "P 21 21 21"
_symmetry_group_IT_number 19
_symmetry_cell_setting 'orthorhombic'
loop_
_space_group_symop_operation_xyz
x,y,z
1/2-x,-y,1/2+z
1/2+x,1/2-y,-z
-x,1/2+y,1/2-z
loop_
_atom_site_type_symbol
_atom_site_label
_atom_site_fract_x
_atom_site_fract_y
_atom_site_fract_z
Si Si1 0.026734 0.635155 0.214217
Si Si2 0.465644 0.303932 0.352917
Si Si3 0.488685 0.097573 0.917223
Si Si4 0.012821 0.438535 0.519005
Si Si5 0.352601 0.944516 0.626037
O O1 0.794182 0.755140 0.190311
O O2 0.996806 0.480537 0.162705
O O3 0.987503 0.581956 0.296519
O O4 0.300137 0.718849 0.193448
O O5 0.558301 0.487604 0.360099
O O6 0.462317 0.217803 0.432027
O O7 0.695485 0.998789 0.965104
O O8 0.596999 0.275654 0.912428
O O9 0.198905 0.065858 0.948548
O O10 0.965591 0.428969 0.432899
#
# Coordination Sequence:
#
# PCOD9315133 Si02
#       5
#     4   4   4   4   4
#     4  10  24  44  65  96 138 176 222 282 344 405
#     4  10  25  44  64  98 139 175 220 284 343 404
#     4  10  23  44  65  95 135 176 224 282 339 408
#     4  10  24  44  65  96 138 175 222 284 344 403
#     4  12  24  42  75 101 130 186 240 280 344 420
#
# _framework density 25.662051000000002
#
# number of rings (size 3 to 8) (size 9 to 14) (size 15 to 20)
#    0.000    1.600    0.000    2.400    0.000   17.600 
#    0.000    0.000    0.000    0.000    0.000    0.000 
#    0.000    0.000    0.000    0.000    0.000    0.000 
#
# Total GULP energy -112170.710211 kJ/mol
# GULP energy per Si atom -5608.535511 kJ/mol
# Density = 2.560364 g / cm^3
# Si number density = 25.662051 Si / 1000 Ang^3
#
#
#
# Elastic Constant Matrix: (Units=GPa)
#
#
# Indices 1 2 3 4 5 6 
#
# 1 99.4115 43.7844 37.5163 0.0000 0.0000 0.0000
# 2 43.7844 143.7771 33.1744 0.0000 0.0000 0.0000
# 3 37.5163 33.1744 176.5017 0.0000 0.0000 0.0000
# 4 0.0000 0.0000 0.0000 31.0113 0.0000 0.0000
# 5 0.0000 0.0000 0.0000 0.0000 21.6884 0.0000
# 6 0.0000 0.0000 0.0000 0.0000 0.0000 45.5731
#
#
#
# Elastic Compliance Matrix: (Units=1/GPa)
#
#
# Indices 1 2 3 4 5 6 
#
# 1 0.012251 -0.003272 -0.001989 0.000000 0.000000 0.000000
# 2 -0.003272 0.008144 -0.000835 0.000000 0.000000 0.000000
# 3 -0.001989 -0.000835 0.006245 0.000000 0.000000 0.000000
# 4 0.000000 0.000000 0.000000 0.032246 0.000000 0.000000
# 5 0.000000 0.000000 0.000000 0.000000 0.046108 0.000000
# 6 0.000000 0.000000 0.000000 0.000000 0.000000 0.021943
#
#
# Mechanical properties :
#
#
# Convention : Reuss Voigt Hill
#
# Bulk Modulus (GPa) = 69.21236 72.07118 70.64177
# Shear Modulus (GPa) = 34.73531 40.00223 37.36877
#
# Velocity S-wave (km/s) = 3.68308 3.95246 3.82014
# Velocity P-wave (km/s) = 6.71684 6.99821 6.85897
#
# Compressibility (1/GPa) = 0.01444829
#
# Stress axis : x y z
#
# Youngs Moduli (GPa) = 81.62698 122.78506 160.11659
#
# Poissons Ratio (x) = 0.40173 0.31848
# Poissons Ratio (y) = 0.26707 0.13375
# Poissons Ratio (z) = 0.16236 0.10257
#
# Static dielectric constant tensor:
#      x y z
#    x 2.001490 0.000000 0.000000 
#    y 0.000000 2.051420 0.000000 
#    z 0.000000 0.000000 1.979780 
# 
# From -- ./inp_files/6379.got.cif
#   From: 2010.05.17/outbox.cif.g08.bks.cpg/sg19_4_cif.got.tgz:6379.got - 2010.06.03 22:46:19.
