data_PCOD9315428
_publ_section_title
;
Structure prediction by ZEFSAII (Michael W. Deem and Ramdas Pophale) SiO2 
 PCOD9315428
Probable space group: P 21 21 21
;
_chemical_formula_sum "Si O2"
_cell_formula_units_Z 28
_cell_length_a 8.655624
_cell_length_b 6.235437
_cell_length_c 21.893083
_cell_angle_alpha 90.000000
_cell_angle_beta 90.000000
_cell_angle_gamma 90.000000
_cell_volume 1181.604678
_symmetry_space_group_name_H-M "P 21 21 21"
_symmetry_group_IT_number 19
_symmetry_cell_setting 'orthorhombic'
loop_
_space_group_symop_operation_xyz
x,y,z
1/2-x,-y,1/2+z
1/2+x,1/2-y,-z
-x,1/2+y,1/2-z
loop_
_atom_site_type_symbol
_atom_site_label
_atom_site_fract_x
_atom_site_fract_y
_atom_site_fract_z
Si Si1 0.571422 0.961881 0.822141
Si Si2 0.288732 0.588996 0.995426
Si Si3 0.692647 0.791034 0.387159
Si Si4 0.450794 0.817463 0.229533
Si Si5 0.154306 0.704115 0.297650
Si Si6 0.610061 0.605874 0.923961
Si Si7 0.593809 0.002392 0.120771
O O1 0.739156 0.072027 0.831221
O O2 0.436952 0.128093 0.838386
O O3 0.544922 0.911052 0.751160
O O4 0.570867 0.771168 0.869979
O O5 0.452773 0.578788 0.961863
O O6 0.152655 0.549555 0.946456
O O7 0.290858 0.418768 0.050010
O O8 0.241780 0.806657 0.029866
O O9 0.811758 0.596499 0.393080
O O10 0.518925 0.708459 0.379616
O O11 0.503653 0.571985 0.251482
O O12 0.275925 0.816726 0.252346
O O13 0.496723 0.824674 0.157979
O O14 0.252085 0.547187 0.340088
#
# Coordination Sequence:
#
# PCOD9315428 Si02
#       7
#     4   4   4   4   4   4   4
#     4  11  28  45  70 102 149 192 242 316 380 464
#     4  11  25  45  75 105 143 191 252 310 389 451
#     4  11  25  49  70 104 147 191 249 313 382 462
#     4  10  25  46  71 109 152 194 254 313 380 464
#     4  11  27  44  73 106 147 197 251 310 387 468
#     4  11  25  47  72 106 146 191 249 313 383 462
#     4  11  25  44  75 106 144 196 253 317 385 463
#
# _framework density 23.696588999999999
#
# number of rings (size 3 to 8) (size 9 to 14) (size 15 to 20)
#    0.000    1.143    0.000    3.429   16.000    5.714 
#    2.571    0.000    0.000    0.000    0.000    0.000 
#    0.000    0.000    0.000    0.000    0.000    0.000 
#
# Total GULP energy -156398.294337 kJ/mol
# GULP energy per Si atom -5585.653369 kJ/mol
# Density = 2.364265 g / cm^3
# Si number density = 23.696589 Si / 1000 Ang^3
#
#
#
# Elastic Constant Matrix: (Units=GPa)
#
#
# Indices 1 2 3 4 5 6 
#
# 1 59.1511 10.5431 -2.6125 0.0000 0.0000 0.0000
# 2 10.5431 70.4370 16.8132 0.0000 0.0000 0.0000
# 3 -2.6125 16.8132 84.8205 0.0000 0.0000 0.0000
# 4 0.0000 0.0000 0.0000 26.2459 0.0000 0.0000
# 5 0.0000 0.0000 0.0000 0.0000 48.4641 0.0000
# 6 0.0000 0.0000 0.0000 0.0000 0.0000 43.2430
#
#
#
# Elastic Compliance Matrix: (Units=1/GPa)
#
#
# Indices 1 2 3 4 5 6 
#
# 1 0.017468 -0.002879 0.001109 0.000000 0.000000 0.000000
# 2 -0.002879 0.015377 -0.003137 0.000000 0.000000 0.000000
# 3 0.001109 -0.003137 0.012446 0.000000 0.000000 0.000000
# 4 0.000000 0.000000 0.000000 0.038101 0.000000 0.000000
# 5 0.000000 0.000000 0.000000 0.000000 0.020634 0.000000
# 6 0.000000 0.000000 0.000000 0.000000 0.000000 0.023125
#
#
# Mechanical properties :
#
#
# Convention : Reuss Voigt Hill
#
# Bulk Modulus (GPa) = 28.18818 29.32181 28.75500
# Shear Modulus (GPa) = 33.60436 36.23492 34.91964
#
# Velocity S-wave (km/s) = 3.76986 3.91464 3.84293
# Velocity P-wave (km/s) = 5.55612 5.73003 5.64374
#
# Compressibility (1/GPa) = 0.03547586
#
# Stress axis : x y z
#
# Youngs Moduli (GPa) = 57.24742 65.03311 80.35027
#
# Poissons Ratio (x) = 0.18725 -0.08909
# Poissons Ratio (y) = 0.16483 0.25203
# Poissons Ratio (z) = -0.06347 0.20399
#
# Static dielectric constant tensor:
#      x y z
#    x 1.894810 0.000000 0.000000 
#    y 0.000000 1.955690 0.000000 
#    z 0.000000 0.000000 1.876290 
# 
# From -- ./inp_files/2114.got.cif
#   From: 2010.05.17/outbox.cif.g08.bks.cpg/sg19_2_cif.got.tgz:2114.got - 2010.06.03 22:46:19.
