data_PCOD9315569
_publ_section_title
;
Structure prediction by ZEFSAII (Michael W. Deem and Ramdas Pophale) SiO2 
 PCOD9315569
Probable space group: P 21 21 21
;
_chemical_formula_sum "Si O2"
_cell_formula_units_Z 16
_cell_length_a 5.230129
_cell_length_b 15.448772
_cell_length_c 7.743207
_cell_angle_alpha 90.000000
_cell_angle_beta 90.000000
_cell_angle_gamma 90.000000
_cell_volume 625.643928
_symmetry_space_group_name_H-M "P 21 21 21"
_symmetry_group_IT_number 19
_symmetry_cell_setting 'orthorhombic'
loop_
_space_group_symop_operation_xyz
x,y,z
1/2-x,-y,1/2+z
1/2+x,1/2-y,-z
-x,1/2+y,1/2-z
loop_
_atom_site_type_symbol
_atom_site_label
_atom_site_fract_x
_atom_site_fract_y
_atom_site_fract_z
Si Si1 0.129808 0.657677 0.636328
Si Si2 0.462644 0.909554 0.920022
Si Si3 0.130835 0.759593 0.270644
Si Si4 0.037962 0.485550 0.435714
O O1 0.139908 0.711947 0.456845
O O2 0.041865 0.564172 0.574526
O O3 0.413488 0.667434 0.711900
O O4 0.913207 0.702604 0.752407
O O5 0.182196 0.921482 0.998112
O O6 0.678797 0.946205 0.047959
O O7 0.538946 0.813446 0.861083
O O8 0.479148 0.968899 0.746470
#
# Coordination Sequence:
#
# PCOD9315569 Si02
#       4
#     4   4   4   4
#     4   9  17  31  53  79 104 137 186 232 264 309
#     4  11  22  37  59  85 114 147 184 230 280 331
#     4   9  17  31  53  79 104 137 186 232 264 309
#     4  11  22  37  59  85 114 147 184 230 280 331
#
# _framework density 25.573649
#
# number of rings (size 3 to 8) (size 9 to 14) (size 15 to 20)
#    0.000    2.000    0.000    4.500    0.000    8.000 
#    0.000    0.000    0.000   30.000    0.000    0.000 
#    0.000    0.000    0.000    0.000    0.000    0.000 
#
# Total GULP energy -89770.344920 kJ/mol
# GULP energy per Si atom -5610.646558 kJ/mol
# Density = 2.551544 g / cm^3
# Si number density = 25.573649 Si / 1000 Ang^3
#
#
#
# Elastic Constant Matrix: (Units=GPa)
#
#
# Indices 1 2 3 4 5 6 
#
# 1 165.3010 16.6727 36.5248 0.0000 0.0000 0.0000
# 2 16.6727 55.9865 6.5699 0.0000 0.0000 0.0000
# 3 36.5248 6.5699 135.1844 0.0000 0.0000 0.0000
# 4 0.0000 0.0000 0.0000 42.4407 0.0000 0.0000
# 5 0.0000 0.0000 0.0000 0.0000 52.9725 0.0000
# 6 0.0000 0.0000 0.0000 0.0000 0.0000 52.6937
#
#
#
# Elastic Compliance Matrix: (Units=1/GPa)
#
#
# Indices 1 2 3 4 5 6 
#
# 1 0.006603 -0.001767 -0.001698 0.000000 0.000000 0.000000
# 2 -0.001767 0.018437 -0.000419 0.000000 0.000000 0.000000
# 3 -0.001698 -0.000419 0.007876 0.000000 0.000000 0.000000
# 4 0.000000 0.000000 0.000000 0.023562 0.000000 0.000000
# 5 0.000000 0.000000 0.000000 0.000000 0.018878 0.000000
# 6 0.000000 0.000000 0.000000 0.000000 0.000000 0.018978
#
#
# Mechanical properties :
#
#
# Convention : Reuss Voigt Hill
#
# Bulk Modulus (GPa) = 39.76361 52.88965 46.32663
# Shear Modulus (GPa) = 45.25525 49.40168 47.32847
#
# Velocity S-wave (km/s) = 4.21123 4.39993 4.30661
# Velocity P-wave (km/s) = 6.26326 6.82193 6.54855
#
# Compressibility (1/GPa) = 0.02514862
#
# Stress axis : x y z
#
# Youngs Moduli (GPa) = 151.44567 54.23935 126.96049
#
# Poissons Ratio (x) = 0.09585 0.21560
# Poissons Ratio (y) = 0.26762 0.05314
# Poissons Ratio (z) = 0.25718 0.02270
#
# Static dielectric constant tensor:
#      x y z
#    x 1.899780 0.000000 0.000000 
#    y 0.000000 2.020850 0.000000 
#    z 0.000000 0.000000 2.037500 
# 
# From -- ./inp_files/284.got.cif
#   From: 2010.05.17/outbox.cif.g08.bks.cpg/sg19_1_cif.got.tgz:284.got - 2010.06.03 22:46:19.
