data_PCOD9315723
_publ_section_title
;
Structure prediction by ZEFSAII (Michael W. Deem and Ramdas Pophale) SiO2 
 PCOD9315723
Probable space group: P 21 21 21
;
_chemical_formula_sum "Si O2"
_cell_formula_units_Z 28
_cell_length_a 9.286593
_cell_length_b 12.027554
_cell_length_c 10.439733
_cell_angle_alpha 90.000000
_cell_angle_beta 90.000000
_cell_angle_gamma 90.000000
_cell_volume 1166.065965
_symmetry_space_group_name_H-M "P 21 21 21"
_symmetry_group_IT_number 19
_symmetry_cell_setting 'orthorhombic'
loop_
_space_group_symop_operation_xyz
x,y,z
1/2-x,-y,1/2+z
1/2+x,1/2-y,-z
-x,1/2+y,1/2-z
loop_
_atom_site_type_symbol
_atom_site_label
_atom_site_fract_x
_atom_site_fract_y
_atom_site_fract_z
Si Si1 0.666114 0.624347 0.555604
Si Si2 0.969311 0.005614 0.250382
Si Si3 0.676205 0.815763 0.928115
Si Si4 0.342264 0.055378 0.534808
Si Si5 0.508454 0.295940 0.104127
Si Si6 0.529153 0.113874 0.306364
Si Si7 0.840030 0.081989 0.704739
O O1 0.586933 0.562942 0.670693
O O2 0.701364 0.521328 0.459550
O O3 0.564983 0.722356 0.504706
O O4 0.824462 0.674737 0.585384
O O5 0.039907 0.017046 0.111323
O O6 0.828617 0.930845 0.230332
O O7 0.923117 0.117159 0.326227
O O8 0.669771 0.682086 0.916073
O O9 0.838501 0.856652 0.900321
O O10 0.637662 0.852675 0.072436
O O11 0.394590 0.070548 0.388185
O O12 0.489972 0.225493 0.234086
O O13 0.408030 0.395357 0.153680
O O14 0.591984 0.040171 0.190023
#
# Coordination Sequence:
#
# PCOD9315723 Si02
#       7
#     4   4   4   4   4   4   4
#     4  12  29  47  74 108 150 199 255 311 383 454
#     4  11  27  46  72 108 149 191 254 312 376 459
#     4  11  25  45  77 107 149 200 246 312 389 443
#     4  12  26  45  73 110 147 193 255 306 375 458
#     4  12  26  47  75 104 153 196 248 315 381 444
#     4  11  24  44  71 106 144 195 244 306 372 453
#     4  11  23  46  74 105 146 192 250 310 378 451
#
# _framework density 24.012362
#
# number of rings (size 3 to 8) (size 9 to 14) (size 15 to 20)
#    0.000    0.571    4.286    2.571    4.000    8.000 
#    0.000    0.000    0.000    0.000    0.000    0.000 
#    0.000    0.000    0.000    0.000    0.000    0.000 
#
# Total GULP energy -156414.417194 kJ/mol
# GULP energy per Si atom -5586.229185 kJ/mol
# Density = 2.395771 g / cm^3
# Si number density = 24.012362 Si / 1000 Ang^3
#
#
#
# Elastic Constant Matrix: (Units=GPa)
#
#
# Indices 1 2 3 4 5 6 
#
# 1 94.4187 -5.7843 14.1188 0.0000 0.0000 0.0000
# 2 -5.7843 60.0089 12.0393 0.0000 0.0000 0.0000
# 3 14.1188 12.0393 53.0453 0.0000 0.0000 0.0000
# 4 0.0000 0.0000 0.0000 -0.6317 0.0000 0.0000
# 5 0.0000 0.0000 0.0000 0.0000 47.1551 0.0000
# 6 0.0000 0.0000 0.0000 0.0000 0.0000 25.0011
#
#
#
# Elastic Compliance Matrix: (Units=1/GPa)
#
#
# Indices 1 2 3 4 5 6 
#
# 1 0.011204 0.001758 -0.003381 0.000000 0.000000 0.000000
# 2 0.001758 0.017735 -0.004493 0.000000 0.000000 0.000000
# 3 -0.003381 -0.004493 0.020772 0.000000 0.000000 0.000000
# 4 0.000000 0.000000 0.000000 -1.583138 0.000000 0.000000
# 5 0.000000 0.000000 0.000000 0.000000 0.021207 0.000000
# 6 0.000000 0.000000 0.000000 0.000000 0.000000 0.039998
#
#
# Mechanical properties :
#
#
# Convention : Reuss Voigt Hill
#
# Bulk Modulus (GPa) = 26.68171 27.58006 27.13088
# Shear Modulus (GPa) = -3.45424 26.77818 11.66197
#
# Velocity S-wave (km/s) = -1.20069 3.34306 2.20617
# Velocity P-wave (km/s) = 3.03539 5.13927 4.22053
#
# Compressibility (1/GPa) = 0.03747886
#
# Stress axis : x y z
#
# Youngs Moduli (GPa) = 89.25010 56.38520 48.14269
#
# Poissons Ratio (x) = -0.09915 0.16279
# Poissons Ratio (y) = -0.15694 0.21632
# Poissons Ratio (z) = 0.30178 0.25335
#
# Static dielectric constant tensor:
#      x y z
#    x 1.968880 0.000000 0.000000 
#    y 0.000000 2.084470 0.000000 
#    z 0.000000 0.000000 1.971110 
# 
# From -- ./inp_files/4622.got.cif
#   From: 2010.05.17/outbox.cif.g08.bks.cpg/sg19_3_cif.got.tgz:4622.got - 2010.06.03 22:46:19.
