data_PCOD9315451
_publ_section_title
;
Structure prediction by ZEFSAII (Michael W. Deem and Ramdas Pophale) SiO2 
 PCOD9315451
Probable space group: P 21 21 21
;
_chemical_formula_sum "Si O2"
_cell_formula_units_Z 32
_cell_length_a 22.886882
_cell_length_b 11.251742
_cell_length_c 5.363573
_cell_angle_alpha 90.000000
_cell_angle_beta 90.000000
_cell_angle_gamma 90.000000
_cell_volume 1381.212791
_symmetry_space_group_name_H-M "P 21 21 21"
_symmetry_group_IT_number 19
_symmetry_cell_setting 'orthorhombic'
loop_
_space_group_symop_operation_xyz
x,y,z
1/2-x,-y,1/2+z
1/2+x,1/2-y,-z
-x,1/2+y,1/2-z
loop_
_atom_site_type_symbol
_atom_site_label
_atom_site_fract_x
_atom_site_fract_y
_atom_site_fract_z
Si Si1 0.409767 0.856890 0.749831
Si Si2 0.590045 0.598699 0.489430
Si Si3 0.502409 0.277795 0.127219
Si Si4 0.383896 0.413300 0.201020
Si Si5 0.199642 0.138372 0.935231
Si Si6 0.349753 0.278969 0.699053
Si Si7 0.208147 0.874693 0.826357
Si Si8 0.377978 0.692438 0.124979
O O1 0.471744 0.828372 0.630869
O O2 0.361294 0.905361 0.560575
O O3 0.413303 0.960917 0.951573
O O4 0.381706 0.732651 0.838970
O O5 0.531095 0.652540 0.383049
O O6 0.601486 0.678581 0.737060
O O7 0.645133 0.625177 0.311293
O O8 0.451513 0.369383 0.201893
O O9 0.561118 0.250108 0.278163
O O10 0.360506 0.365133 0.465190
O O11 0.377770 0.553987 0.176511
O O12 0.351910 0.354895 0.956374
O O13 0.176013 0.237940 0.748045
O O14 0.224971 0.013470 0.838112
O O15 0.244292 0.183813 0.144634
O O16 0.298168 0.194586 0.588689
#
# Coordination Sequence:
#
# PCOD9315451 Si02
#       8
#     4   4   4   4   4   4   4   4
#     4  11  24  42  65 105 149 192 241 312 377 437
#     4  11  23  43  73 105 147 188 251 308 370 445
#     4  10  26  38  68 108 141 205 246 304 362 445
#     4  11  27  46  74 101 155 199 249 298 368 444
#     4  11  26  43  73 115 142 190 240 321 387 431
#     4  11  24  46  74 107 139 197 243 302 361 443
#     4  12  23  45  78 112 148 183 253 318 380 445
#     4  11  27  45  69 105 159 194 249 305 377 450
#
# _framework density 23.168046
#
# number of rings (size 3 to 8) (size 9 to 14) (size 15 to 20)
#    0.000    1.000    5.000    0.750   10.500    0.000 
#    0.000    0.000    5.500    0.000    0.000    0.000 
#    0.000    0.000    0.000    0.000    0.000    0.000 
#
# Total GULP energy -178642.917924 kJ/mol
# GULP energy per Si atom -5582.591185 kJ/mol
# Density = 2.311531 g / cm^3
# Si number density = 23.168046 Si / 1000 Ang^3
#
#
#
# Elastic Constant Matrix: (Units=GPa)
#
#
# Indices 1 2 3 4 5 6 
#
# 1 97.6774 10.6759 24.0337 0.0000 0.0000 0.0000
# 2 10.6759 150.7852 37.5509 0.0000 0.0000 0.0000
# 3 24.0337 37.5509 88.8794 0.0000 0.0000 0.0000
# 4 0.0000 0.0000 0.0000 29.9665 0.0000 0.0000
# 5 0.0000 0.0000 0.0000 0.0000 30.7069 0.0000
# 6 0.0000 0.0000 0.0000 0.0000 0.0000 30.5404
#
#
#
# Elastic Compliance Matrix: (Units=1/GPa)
#
#
# Indices 1 2 3 4 5 6 
#
# 1 0.010968 -0.000042 -0.002948 0.000000 0.000000 0.000000
# 2 -0.000042 0.007412 -0.003120 0.000000 0.000000 0.000000
# 3 -0.002948 -0.003120 0.013367 0.000000 0.000000 0.000000
# 4 0.000000 0.000000 0.000000 0.033371 0.000000 0.000000
# 5 0.000000 0.000000 0.000000 0.000000 0.032566 0.000000
# 6 0.000000 0.000000 0.000000 0.000000 0.000000 0.032743
#
#
# Mechanical properties :
#
#
# Convention : Reuss Voigt Hill
#
# Bulk Modulus (GPa) = 51.21474 53.54032 52.37753
# Shear Modulus (GPa) = 33.52209 35.91486 34.71848
#
# Velocity S-wave (km/s) = 3.80795 3.94152 3.87531
# Velocity P-wave (km/s) = 6.44110 6.62373 6.53305
#
# Compressibility (1/GPa) = 0.01952563
#
# Stress axis : x y z
#
# Youngs Moduli (GPa) = 91.17642 134.91723 74.81382
#
# Poissons Ratio (x) = 0.00572 0.22054
# Poissons Ratio (y) = 0.00387 0.23342
# Poissons Ratio (z) = 0.26877 0.42094
#
# Static dielectric constant tensor:
#      x y z
#    x 1.853030 0.000000 0.000000 
#    y 0.000000 1.836650 0.000000 
#    z 0.000000 0.000000 2.036610 
# 
# From -- ./inp_files/2049.got.cif
#   From: 2010.05.17/outbox.cif.g08.bks.cpg/sg19_2_cif.got.tgz:2049.got - 2010.06.03 22:46:19.
