data_PCOD9315739
_publ_section_title
;
Structure prediction by ZEFSAII (Michael W. Deem and Ramdas Pophale) SiO2 
 PCOD9315739
Probable space group: P 21 21 21
;
_chemical_formula_sum "Si O2"
_cell_formula_units_Z 28
_cell_length_a 8.986694
_cell_length_b 14.598541
_cell_length_c 8.761421
_cell_angle_alpha 90.000000
_cell_angle_beta 90.000000
_cell_angle_gamma 90.000000
_cell_volume 1149.433783
_symmetry_space_group_name_H-M "P 21 21 21"
_symmetry_group_IT_number 19
_symmetry_cell_setting 'orthorhombic'
loop_
_space_group_symop_operation_xyz
x,y,z
1/2-x,-y,1/2+z
1/2+x,1/2-y,-z
-x,1/2+y,1/2-z
loop_
_atom_site_type_symbol
_atom_site_label
_atom_site_fract_x
_atom_site_fract_y
_atom_site_fract_z
Si Si1 0.880176 0.948161 0.132483
Si Si2 0.298928 0.100144 0.758636
Si Si3 0.633811 0.851283 0.929406
Si Si4 0.305894 0.708342 0.353717
Si Si5 0.600953 0.734191 0.197676
Si Si6 0.680359 0.908532 0.392950
Si Si7 0.317733 0.912395 0.916380
O O1 0.765668 0.971454 0.270305
O O2 0.025975 0.905159 0.210075
O O3 0.777353 0.882161 0.026964
O O4 0.911385 0.031322 0.014617
O O5 0.237003 0.184121 0.860532
O O6 0.222729 0.103310 0.592615
O O7 0.259917 0.006769 0.846197
O O8 0.679845 0.823346 0.762806
O O9 0.495595 0.918495 0.915913
O O10 0.569392 0.765476 0.025109
O O11 0.461795 0.685525 0.273987
O O12 0.295061 0.650989 0.506802
O O13 0.605731 0.828571 0.294152
O O14 0.746024 0.670244 0.183457
#
# Coordination Sequence:
#
# PCOD9315739 Si02
#       7
#     4   4   4   4   4   4   4
#     4  11  26  49  73 106 146 194 243 306 380 435
#     4  12  28  44  74 108 149 193 243 313 368 454
#     4  11  23  49  75 103 142 195 246 302 371 452
#     4  12  26  46  72 109 143 194 246 305 376 442
#     4  11  25  46  72 104 146 194 246 309 363 447
#     4  11  27  44  77 104 145 191 250 303 367 453
#     4  12  27  46  73 110 149 195 248 308 377 441
#
# _framework density 24.359821
#
# number of rings (size 3 to 8) (size 9 to 14) (size 15 to 20)
#    0.000    0.571    2.857    3.429   10.000    1.143 
#    0.000    0.000    0.000    0.000    0.000    0.000 
#    0.000    0.000    0.000    0.000    0.000    0.000 
#
# Total GULP energy -156505.550059 kJ/mol
# GULP energy per Si atom -5589.483931 kJ/mol
# Density = 2.430438 g / cm^3
# Si number density = 24.359821 Si / 1000 Ang^3
#
#
#
# Elastic Constant Matrix: (Units=GPa)
#
#
# Indices 1 2 3 4 5 6 
#
# 1 72.1736 4.8346 -0.3994 0.0000 0.0000 0.0000
# 2 4.8346 88.8463 15.2042 0.0000 0.0000 0.0000
# 3 -0.3994 15.2042 76.2083 0.0000 0.0000 0.0000
# 4 0.0000 0.0000 0.0000 51.5348 0.0000 0.0000
# 5 0.0000 0.0000 0.0000 0.0000 21.7481 0.0000
# 6 0.0000 0.0000 0.0000 0.0000 0.0000 27.8227
#
#
#
# Elastic Compliance Matrix: (Units=1/GPa)
#
#
# Indices 1 2 3 4 5 6 
#
# 1 0.013910 -0.000797 0.000232 0.000000 0.000000 0.000000
# 2 -0.000797 0.011699 -0.002338 0.000000 0.000000 0.000000
# 3 0.000232 -0.002338 0.013590 0.000000 0.000000 0.000000
# 4 0.000000 0.000000 0.000000 0.019404 0.000000 0.000000
# 5 0.000000 0.000000 0.000000 0.000000 0.045981 0.000000
# 6 0.000000 0.000000 0.000000 0.000000 0.000000 0.035942
#
#
# Mechanical properties :
#
#
# Convention : Reuss Voigt Hill
#
# Bulk Modulus (GPa) = 29.94667 30.72301 30.33484
# Shear Modulus (GPa) = 31.75352 34.72703 33.24027
#
# Velocity S-wave (km/s) = 3.61435 3.77979 3.69799
# Velocity P-wave (km/s) = 5.45327 5.62927 5.54197
#
# Compressibility (1/GPa) = 0.03339269
#
# Stress axis : x y z
#
# Youngs Moduli (GPa) = 71.89007 85.47835 73.58550
#
# Poissons Ratio (x) = 0.06809 -0.01706
# Poissons Ratio (y) = 0.05727 0.17206
# Poissons Ratio (z) = -0.01667 0.19987
#
# Static dielectric constant tensor:
#      x y z
#    x 1.935610 0.000000 0.000000 
#    y 0.000000 2.042880 0.000000 
#    z 0.000000 0.000000 1.893370 
# 
# From -- ./inp_files/2851.got.cif
#   From: 2010.05.17/outbox.cif.g08.bks.cpg/sg19_2_cif.got.tgz:2851.got - 2010.06.03 22:46:19.
