data_PCOD9315103
_publ_section_title
;
Structure prediction by ZEFSAII (Michael W. Deem and Ramdas Pophale) SiO2 
 PCOD9315103
Probable space group: P 21 21 21
;
_chemical_formula_sum "Si O2"
_cell_formula_units_Z 32
_cell_length_a 8.717990
_cell_length_b 19.062616
_cell_length_c 8.575113
_cell_angle_alpha 90.000000
_cell_angle_beta 90.000000
_cell_angle_gamma 90.000000
_cell_volume 1425.078270
_symmetry_space_group_name_H-M "P 21 21 21"
_symmetry_group_IT_number 19
_symmetry_cell_setting 'orthorhombic'
loop_
_space_group_symop_operation_xyz
x,y,z
1/2-x,-y,1/2+z
1/2+x,1/2-y,-z
-x,1/2+y,1/2-z
loop_
_atom_site_type_symbol
_atom_site_label
_atom_site_fract_x
_atom_site_fract_y
_atom_site_fract_z
Si Si1 0.027304 0.272800 0.608906
Si Si2 0.836319 0.587857 0.173100
Si Si3 0.012580 0.413990 0.782556
Si Si4 0.042559 0.540722 0.605691
Si Si5 0.815963 0.631231 0.811608
Si Si6 0.828821 0.741035 0.215573
Si Si7 0.172124 0.373291 0.088033
Si Si8 0.482578 0.047045 0.697169
O O1 0.128974 0.211633 0.688235
O O2 0.064680 0.267848 0.425866
O O3 0.065698 0.349122 0.675520
O O4 0.846651 0.261836 0.648147
O O5 0.667285 0.573502 0.244865
O O6 0.880992 0.661776 0.252793
O O7 0.937298 0.519665 0.198689
O O8 0.840403 0.605182 0.989690
O O9 0.097271 0.485517 0.737511
O O10 0.046545 0.391198 0.958302
O O11 0.167870 0.593227 0.535630
O O12 0.915519 0.588213 0.688017
O O13 0.984756 0.487791 0.472265
O O14 0.642021 0.608656 0.784049
O O15 0.826463 0.792679 0.361999
O O16 0.135721 0.416315 0.245689
#
# Coordination Sequence:
#
# PCOD9315103 Si02
#       8
#     4   4   4   4   4   4   4   4
#     4  10  23  44  70  95 135 175 229 283 345 418
#     4  10  23  43  68  98 125 176 226 278 337 411
#     4  11  23  44  65  95 139 175 224 282 341 413
#     4  12  24  44  68  99 141 174 229 286 346 408
#     4  11  21  43  71  97 130 175 230 286 337 414
#     4  10  23  46  66  99 131 175 229 278 353 412
#     4  12  27  44  64 103 142 181 222 290 349 417
#     4  12  24  42  70 102 133 183 237 273 356 409
#
# _framework density 22.454906999999999
#
# number of rings (size 3 to 8) (size 9 to 14) (size 15 to 20)
#    0.000    1.000    3.750    2.250    5.250    1.000 
#   11.250    0.000    0.000    0.000    0.000    0.000 
#    0.000    0.000    0.000    0.000    0.000    0.000 
#
# Total GULP energy -178827.232735 kJ/mol
# GULP energy per Si atom -5588.351023 kJ/mol
# Density = 2.240380 g / cm^3
# Si number density = 22.454907 Si / 1000 Ang^3
#
#
#
# Elastic Constant Matrix: (Units=GPa)
#
#
# Indices 1 2 3 4 5 6 
#
# 1 33.9327 3.8590 -7.3632 0.0000 0.0000 0.0000
# 2 3.8590 82.9488 -21.1291 0.0000 0.0000 0.0000
# 3 -7.3632 -21.1291 23.1693 0.0000 0.0000 0.0000
# 4 0.0000 0.0000 0.0000 30.8911 0.0000 0.0000
# 5 0.0000 0.0000 0.0000 0.0000 23.7106 0.0000
# 6 0.0000 0.0000 0.0000 0.0000 0.0000 33.5097
#
#
#
# Elastic Compliance Matrix: (Units=1/GPa)
#
#
# Indices 1 2 3 4 5 6 
#
# 1 0.031782 0.001425 0.011400 0.000000 0.000000 0.000000
# 2 0.001425 0.015767 0.014832 0.000000 0.000000 0.000000
# 3 0.011400 0.014832 0.060309 0.000000 0.000000 0.000000
# 4 0.000000 0.000000 0.000000 0.032372 0.000000 0.000000
# 5 0.000000 0.000000 0.000000 0.000000 0.042175 0.000000
# 6 0.000000 0.000000 0.000000 0.000000 0.000000 0.029842
#
#
# Mechanical properties :
#
#
# Convention : Reuss Voigt Hill
#
# Bulk Modulus (GPa) = 6.12847 10.08713 8.10780
# Shear Modulus (GPa) = 23.66033 28.60120 26.13077
#
# Velocity S-wave (km/s) = 3.24957 3.57279 3.41501
# Velocity P-wave (km/s) = 4.10058 4.63915 4.37815
#
# Compressibility (1/GPa) = 0.16317294
#
# Stress axis : x y z
#
# Youngs Moduli (GPa) = 31.46455 63.42214 16.58118
#
# Poissons Ratio (x) = -0.09039 -0.18903
# Poissons Ratio (y) = -0.04485 -0.24593
# Poissons Ratio (z) = -0.35870 -0.94067
#
# Static dielectric constant tensor:
#      x y z
#    x 1.850110 0.000000 0.000000 
#    y 0.000000 1.824140 0.000000 
#    z 0.000000 0.000000 1.863610 
# 
# From -- ./inp_files/3102.got.cif
#   From: 2010.05.17/outbox.cif.g08.bks.cpg/sg19_2_cif.got.tgz:3102.got - 2010.06.03 22:46:19.
