data_PCOD9315166
_publ_section_title
;
Structure prediction by ZEFSAII (Michael W. Deem and Ramdas Pophale) SiO2 
 PCOD9315166
Probable space group: P 21 21 21
;
_chemical_formula_sum "Si O2"
_cell_formula_units_Z 28
_cell_length_a 4.892773
_cell_length_b 12.483922
_cell_length_c 18.306593
_cell_angle_alpha 90.000000
_cell_angle_beta 90.000000
_cell_angle_gamma 90.000000
_cell_volume 1118.184943
_symmetry_space_group_name_H-M "P 21 21 21"
_symmetry_group_IT_number 19
_symmetry_cell_setting 'orthorhombic'
loop_
_space_group_symop_operation_xyz
x,y,z
1/2-x,-y,1/2+z
1/2+x,1/2-y,-z
-x,1/2+y,1/2-z
loop_
_atom_site_type_symbol
_atom_site_label
_atom_site_fract_x
_atom_site_fract_y
_atom_site_fract_z
Si Si1 0.414631 0.564059 0.606740
Si Si2 0.661854 0.478624 0.299128
Si Si3 0.408120 0.946264 0.490157
Si Si4 0.006394 0.311288 0.525533
Si Si5 0.691812 0.916410 0.634440
Si Si6 0.625712 0.719978 0.729114
Si Si7 0.242652 0.129624 0.327125
O O1 0.107224 0.566455 0.579282
O O2 0.464774 0.643751 0.673115
O O3 0.523866 0.448920 0.633646
O O4 0.611392 0.588378 0.537072
O O5 0.458429 0.509171 0.364366
O O6 0.674282 0.356555 0.274479
O O7 0.593771 0.552178 0.228597
O O8 0.964029 0.517277 0.320931
O O9 0.546085 0.888649 0.558575
O O10 0.429300 0.073157 0.508073
O O11 0.815644 0.221243 0.489390
O O12 0.930322 0.320885 0.610335
O O13 0.763988 0.808742 0.677842
O O14 0.420245 0.781380 0.782426
#
# Coordination Sequence:
#
# PCOD9315166 Si02
#       7
#     4   4   4   4   4   4   4
#     4  10  23  44  71  99 140 182 223 287 350 407
#     4  10  24  44  67 100 137 179 228 288 344 404
#     4  11  24  46  65  99 145 174 230 292 336 413
#     4  11  24  42  68 100 133 186 228 279 355 415
#     4  11  25  45  68 103 140 177 235 291 334 413
#     4  10  24  45  74 101 136 190 234 281 361 410
#     4   9  22  44  67 100 141 174 228 288 338 418
#
# _framework density 25.040579000000001
#
# number of rings (size 3 to 8) (size 9 to 14) (size 15 to 20)
#    0.000    1.714    0.000    2.571    2.000   18.286 
#    2.571    0.000    0.000    0.000    0.000    0.000 
#    0.000    0.000    0.000    0.000    0.000    0.000 
#
# Total GULP energy -157009.734622 kJ/mol
# GULP energy per Si atom -5607.490522 kJ/mol
# Density = 2.498359 g / cm^3
# Si number density = 25.040579 Si / 1000 Ang^3
#
#
#
# Elastic Constant Matrix: (Units=GPa)
#
#
# Indices 1 2 3 4 5 6 
#
# 1 63.9082 22.5276 -0.4086 0.0000 0.0000 0.0000
# 2 22.5276 103.8799 42.6951 0.0000 0.0000 0.0000
# 3 -0.4086 42.6951 92.5981 0.0000 0.0000 0.0000
# 4 0.0000 0.0000 0.0000 37.5534 0.0000 0.0000
# 5 0.0000 0.0000 0.0000 0.0000 33.7952 0.0000
# 6 0.0000 0.0000 0.0000 0.0000 0.0000 21.2959
#
#
#
# Elastic Compliance Matrix: (Units=1/GPa)
#
#
# Indices 1 2 3 4 5 6 
#
# 1 0.017308 -0.004670 0.002229 0.000000 0.000000 0.000000
# 2 -0.004670 0.013137 -0.006078 0.000000 0.000000 0.000000
# 3 0.002229 -0.006078 0.013612 0.000000 0.000000 0.000000
# 4 0.000000 0.000000 0.000000 0.026629 0.000000 0.000000
# 5 0.000000 0.000000 0.000000 0.000000 0.029590 0.000000
# 6 0.000000 0.000000 0.000000 0.000000 0.000000 0.046957
#
#
# Mechanical properties :
#
#
# Convention : Reuss Voigt Hill
#
# Bulk Modulus (GPa) = 37.00921 43.33493 40.17207
# Shear Modulus (GPa) = 28.85572 31.56703 30.21138
#
# Velocity S-wave (km/s) = 3.39832 3.55439 3.47723
# Velocity P-wave (km/s) = 5.49635 5.84709 5.67443
#
# Compressibility (1/GPa) = 0.02702030
#
# Stress axis : x y z
#
# Youngs Moduli (GPa) = 57.77748 76.11951 73.46671
#
# Poissons Ratio (x) = 0.35546 -0.16379
# Poissons Ratio (y) = 0.26980 0.44652
# Poissons Ratio (z) = -0.12881 0.46265
#
# Static dielectric constant tensor:
#      x y z
#    x 1.927350 0.000000 0.000000 
#    y 0.000000 1.968220 0.000000 
#    z 0.000000 0.000000 2.009880 
# 
# From -- ./inp_files/6438.got.cif
#   From: 2010.05.17/outbox.cif.g08.bks.cpg/sg19_4_cif.got.tgz:6438.got - 2010.06.03 22:46:19.
