data_PCOD9315590
_publ_section_title
;
Structure prediction by ZEFSAII (Michael W. Deem and Ramdas Pophale) SiO2 
 PCOD9315590
Probable space group: P 21 21 21
;
_chemical_formula_sum "Si O2"
_cell_formula_units_Z 20
_cell_length_a 5.229178
_cell_length_b 4.731938
_cell_length_c 27.297191
_cell_angle_alpha 90.000000
_cell_angle_beta 90.000000
_cell_angle_gamma 90.000000
_cell_volume 675.445682
_symmetry_space_group_name_H-M "P 21 21 21"
_symmetry_group_IT_number 19
_symmetry_cell_setting 'orthorhombic'
loop_
_space_group_symop_operation_xyz
x,y,z
1/2-x,-y,1/2+z
1/2+x,1/2-y,-z
-x,1/2+y,1/2-z
loop_
_atom_site_type_symbol
_atom_site_label
_atom_site_fract_x
_atom_site_fract_y
_atom_site_fract_z
Si Si1 0.835820 0.935143 0.232700
Si Si2 0.398494 0.315622 0.471503
Si Si3 0.767549 0.837653 0.887205
Si Si4 0.092840 0.683321 0.405603
Si Si5 0.393114 0.912735 0.314793
O O1 0.229926 0.198675 0.307846
O O2 0.045462 0.191962 0.230265
O O3 0.599640 0.169954 0.228010
O O4 0.474205 0.182111 0.418878
O O5 0.417380 0.549406 0.584874
O O6 0.177521 0.167817 0.503519
O O7 0.254383 0.594834 0.452852
O O8 0.838017 0.960322 0.833897
O O9 0.616309 0.547353 0.888510
O O10 0.277309 0.740451 0.360038
#
# Coordination Sequence:
#
# PCOD9315590 Si02
#       5
#     4   4   4   4   4
#     4   9  19  38  72 112 150 200 248 316 392 458
#     4  12  27  54  75 114 160 210 266 342 391 462
#     4  12  26  49  74 109 150 206 266 322 395 461
#     4  12  26  49  74 109 150 206 266 322 395 461
#     4  11  22  42  73 104 150 202 262 316 379 480
#
# _framework density 29.610074000000001
#
# number of rings (size 3 to 8) (size 9 to 14) (size 15 to 20)
#    0.000    0.800    2.000    6.000    0.000    0.000 
#   10.800    0.000    0.000   67.200    0.000    0.000 
#    0.000    0.000    0.000    0.000    0.000    0.000 
#
# Total GULP energy -111784.490052 kJ/mol
# GULP energy per Si atom -5589.224503 kJ/mol
# Density = 2.954268 g / cm^3
# Si number density = 29.610074 Si / 1000 Ang^3
#
#
#
# Elastic Constant Matrix: (Units=GPa)
#
#
# Indices 1 2 3 4 5 6 
#
# 1 170.8945 32.7488 44.1515 0.0000 0.0000 0.0000
# 2 32.7488 195.3351 54.6691 0.0000 0.0000 0.0000
# 3 44.1515 54.6691 94.1020 0.0000 0.0000 0.0000
# 4 0.0000 0.0000 0.0000 65.6756 0.0000 0.0000
# 5 0.0000 0.0000 0.0000 0.0000 70.5561 0.0000
# 6 0.0000 0.0000 0.0000 0.0000 0.0000 54.5365
#
#
#
# Elastic Compliance Matrix: (Units=1/GPa)
#
#
# Indices 1 2 3 4 5 6 
#
# 1 0.006672 -0.000290 -0.002962 0.000000 0.000000 0.000000
# 2 -0.000290 0.006126 -0.003423 0.000000 0.000000 0.000000
# 3 -0.002962 -0.003423 0.014005 0.000000 0.000000 0.000000
# 4 0.000000 0.000000 0.000000 0.015226 0.000000 0.000000
# 5 0.000000 0.000000 0.000000 0.000000 0.014173 0.000000
# 6 0.000000 0.000000 0.000000 0.000000 0.000000 0.018336
#
#
# Mechanical properties :
#
#
# Convention : Reuss Voigt Hill
#
# Bulk Modulus (GPa) = 74.32908 80.38560 77.35734
# Shear Modulus (GPa) = 54.12773 60.07114 57.09943
#
# Velocity S-wave (km/s) = 4.28017 4.50904 4.39609
# Velocity P-wave (km/s) = 7.04156 7.36991 7.20761
#
# Compressibility (1/GPa) = 0.01345369
#
# Stress axis : x y z
#
# Youngs Moduli (GPa) = 149.87113 163.23924 71.40139
#
# Poissons Ratio (x) = 0.04727 0.21152
# Poissons Ratio (y) = 0.04340 0.24441
# Poissons Ratio (z) = 0.44398 0.55878
#
# Static dielectric constant tensor:
#      x y z
#    x 2.414550 0.000000 0.000000 
#    y 0.000000 2.249300 0.000000 
#    z 0.000000 0.000000 2.544350 
# 
# From -- ./inp_files/2210.got.cif
#   From: 2010.05.17/outbox.cif.g08.bks.cpg/sg19_2_cif.got.tgz:2210.got - 2010.06.03 22:46:19.
