data_PCOD9315572
_publ_section_title
;
Structure prediction by ZEFSAII (Michael W. Deem and Ramdas Pophale) SiO2 
 PCOD9315572
Probable space group: P 21 21 21
;
_chemical_formula_sum "Si O2"
_cell_formula_units_Z 20
_cell_length_a 5.009089
_cell_length_b 9.029820
_cell_length_c 16.831054
_cell_angle_alpha 90.000000
_cell_angle_beta 90.000000
_cell_angle_gamma 90.000000
_cell_volume 761.288299
_symmetry_space_group_name_H-M "P 21 21 21"
_symmetry_group_IT_number 19
_symmetry_cell_setting 'orthorhombic'
loop_
_space_group_symop_operation_xyz
x,y,z
1/2-x,-y,1/2+z
1/2+x,1/2-y,-z
-x,1/2+y,1/2-z
loop_
_atom_site_type_symbol
_atom_site_label
_atom_site_fract_x
_atom_site_fract_y
_atom_site_fract_z
Si Si1 0.684497 0.400940 0.555981
Si Si2 0.323282 0.163262 0.215258
Si Si3 0.679314 0.165494 0.361571
Si Si4 0.046585 0.920638 0.301091
Si Si5 0.511058 0.668298 0.461648
O O1 0.465274 0.294812 0.598752
O O2 0.707000 0.538873 0.619739
O O3 0.579838 0.496144 0.482530
O O4 0.980267 0.338011 0.562896
O O5 0.495361 0.222814 0.289696
O O6 0.050790 0.257701 0.212452
O O7 0.477606 0.175470 0.133264
O O8 0.208838 0.999748 0.231813
O O9 0.773347 0.009850 0.321522
O O10 0.239317 0.721080 0.503729
#
# Coordination Sequence:
#
# PCOD9315572 Si02
#       5
#     4   4   4   4   4
#     4   9  18  38  53  91 127 173 201 283 328 377
#     4  11  22  39  68 102 136 177 223 280 338 407
#     4   9  20  37  59  86 131 169 214 263 333 393
#     4   9  21  39  60  98 134 171 224 268 335 399
#     4  12  23  35  64 101 138 166 226 290 338 376
#
# _framework density 26.271256000000001
#
# number of rings (size 3 to 8) (size 9 to 14) (size 15 to 20)
#    1.200    0.800    2.000    2.400    2.800    3.200 
#    0.000    0.000    0.000    0.000   41.600    0.000 
#    0.000    0.000    0.000    0.000    0.000    0.000 
#
# Total GULP energy -111567.158599 kJ/mol
# GULP energy per Si atom -5578.357930 kJ/mol
# Density = 2.621146 g / cm^3
# Si number density = 26.271256 Si / 1000 Ang^3
#
#
#
# Elastic Constant Matrix: (Units=GPa)
#
#
# Indices 1 2 3 4 5 6 
#
# 1 140.2275 -1.7770 13.9223 0.0000 0.0000 0.0000
# 2 -1.7770 53.3554 11.3422 0.0000 0.0000 0.0000
# 3 13.9223 11.3422 148.3783 0.0000 0.0000 0.0000
# 4 0.0000 0.0000 0.0000 30.2311 0.0000 0.0000
# 5 0.0000 0.0000 0.0000 0.0000 14.2621 0.0000
# 6 0.0000 0.0000 0.0000 0.0000 0.0000 20.6998
#
#
#
# Elastic Compliance Matrix: (Units=1/GPa)
#
#
# Indices 1 2 3 4 5 6 
#
# 1 0.007206 0.000390 -0.000706 0.000000 0.000000 0.000000
# 2 0.000390 0.019073 -0.001495 0.000000 0.000000 0.000000
# 3 -0.000706 -0.001495 0.006920 0.000000 0.000000 0.000000
# 4 0.000000 0.000000 0.000000 0.033078 0.000000 0.000000
# 5 0.000000 0.000000 0.000000 0.000000 0.070116 0.000000
# 6 0.000000 0.000000 0.000000 0.000000 0.000000 0.048310
#
#
# Mechanical properties :
#
#
# Convention : Reuss Voigt Hill
#
# Bulk Modulus (GPa) = 33.80851 43.21514 38.51182
# Shear Modulus (GPa) = 25.22911 34.27018 29.74964
#
# Velocity S-wave (km/s) = 3.10228 3.61567 3.36877
# Velocity P-wave (km/s) = 5.07239 5.82375 5.46101
#
# Compressibility (1/GPa) = 0.02957835
#
# Stress axis : x y z
#
# Youngs Moduli (GPa) = 138.76736 52.43025 144.50826
#
# Poissons Ratio (x) = -0.02045 0.10202
# Poissons Ratio (y) = -0.05413 0.21598
# Poissons Ratio (z) = 0.09797 0.07836
#
# Static dielectric constant tensor:
#      x y z
#    x 2.047970 0.000000 0.000000 
#    y 0.000000 2.171610 0.000000 
#    z 0.000000 0.000000 2.144000 
# 
# From -- ./inp_files/5641.got.cif
#   From: 2010.05.17/outbox.cif.g08.bks.cpg/sg19_3_cif.got.tgz:5641.got - 2010.06.03 22:46:19.
