data_PCOD9315107
_publ_section_title
;
Structure prediction by ZEFSAII (Michael W. Deem and Ramdas Pophale) SiO2 
 PCOD9315107
Probable space group: P 21 21 21
;
_chemical_formula_sum "Si O2"
_cell_formula_units_Z 32
_cell_length_a 10.352086
_cell_length_b 5.289505
_cell_length_c 21.684090
_cell_angle_alpha 90.000000
_cell_angle_beta 90.000000
_cell_angle_gamma 90.000000
_cell_volume 1187.364621
_symmetry_space_group_name_H-M "P 21 21 21"
_symmetry_group_IT_number 19
_symmetry_cell_setting 'orthorhombic'
loop_
_space_group_symop_operation_xyz
x,y,z
1/2-x,-y,1/2+z
1/2+x,1/2-y,-z
-x,1/2+y,1/2-z
loop_
_atom_site_type_symbol
_atom_site_label
_atom_site_fract_x
_atom_site_fract_y
_atom_site_fract_z
Si Si1 0.198921 0.285071 0.279695
Si Si2 0.141260 0.936382 0.382818
Si Si3 0.362391 0.640204 0.440328
Si Si4 0.427077 0.632063 0.232014
Si Si5 0.404725 0.431188 0.102481
Si Si6 0.559175 0.298834 0.492511
Si Si7 0.703889 0.410607 0.934345
Si Si8 0.447582 0.935070 0.674452
O O1 0.299926 0.504343 0.262654
O O2 0.059018 0.400760 0.295102
O O3 0.168923 0.105029 0.221814
O O4 0.228976 0.115011 0.339579
O O5 0.227079 0.699689 0.407490
O O6 0.021555 0.821867 0.345401
O O7 0.088669 0.098432 0.440166
O O8 0.418035 0.374061 0.465395
O O9 0.355069 0.798731 0.503851
O O10 0.473118 0.743741 0.394545
O O11 0.466345 0.913431 0.252193
O O12 0.416541 0.627386 0.157762
O O13 0.412629 0.519328 0.030945
O O14 0.264225 0.311216 0.107136
O O15 0.670930 0.436493 0.453287
O O16 0.604696 0.548031 0.889895
#
# Coordination Sequence:
#
# PCOD9315107 Si02
#       8
#     4   4   4   4   4   4   4   4
#     4  12  28  46  80 109 151 208 268 331 398 482
#     4  11  25  46  69 112 150 198 260 325 396 478
#     4  10  23  43  70 105 145 192 248 311 398 471
#     4  12  31  53  81 116 160 215 270 335 404 483
#     4  11  25  45  72 106 146 196 256 320 397 472
#     4  10  24  43  75 105 144 199 250 325 400 477
#     4  10  23  44  68 100 148 191 245 318 390 475
#     4  12  25  46  71 105 150 199 255 325 397 472
#
# _framework density 26.950443
#
# number of rings (size 3 to 8) (size 9 to 14) (size 15 to 20)
#    0.000    1.000    3.750    0.750    8.750    5.000 
#    0.000    0.000    0.000    0.000    0.000    0.000 
#    0.000    0.000    0.000    0.000    0.000    0.000 
#
# Total GULP energy -179182.957655 kJ/mol
# GULP energy per Si atom -5599.467427 kJ/mol
# Density = 2.688910 g / cm^3
# Si number density = 26.950443 Si / 1000 Ang^3
#
#
#
# Elastic Constant Matrix: (Units=GPa)
#
#
# Indices 1 2 3 4 5 6 
#
# 1 108.0085 24.5010 33.6490 0.0000 0.0000 0.0000
# 2 24.5010 51.9074 11.4399 0.0000 0.0000 0.0000
# 3 33.6490 11.4399 119.4533 0.0000 0.0000 0.0000
# 4 0.0000 0.0000 0.0000 38.0814 0.0000 0.0000
# 5 0.0000 0.0000 0.0000 0.0000 46.4024 0.0000
# 6 0.0000 0.0000 0.0000 0.0000 0.0000 50.3047
#
#
#
# Elastic Compliance Matrix: (Units=1/GPa)
#
#
# Indices 1 2 3 4 5 6 
#
# 1 0.011158 -0.004673 -0.002696 0.000000 0.000000 0.000000
# 2 -0.004673 0.021637 -0.000756 0.000000 0.000000 0.000000
# 3 -0.002696 -0.000756 0.009203 0.000000 0.000000 0.000000
# 4 0.000000 0.000000 0.000000 0.026260 0.000000 0.000000
# 5 0.000000 0.000000 0.000000 0.000000 0.021551 0.000000
# 6 0.000000 0.000000 0.000000 0.000000 0.000000 0.019879
#
#
# Mechanical properties :
#
#
# Convention : Reuss Voigt Hill
#
# Bulk Modulus (GPa) = 38.83482 46.50544 42.67013
# Shear Modulus (GPa) = 37.16922 40.94300 39.05611
#
# Velocity S-wave (km/s) = 3.71775 3.90191 3.81094
# Velocity P-wave (km/s) = 5.73322 6.13134 5.93562
#
# Compressibility (1/GPa) = 0.02575009
#
# Stress axis : x y z
#
# Youngs Moduli (GPa) = 89.61908 46.21655 108.65760
#
# Poissons Ratio (x) = 0.21596 0.29291
# Poissons Ratio (y) = 0.41877 0.08213
# Poissons Ratio (z) = 0.24159 0.03493
#
# Static dielectric constant tensor:
#      x y z
#    x 2.120850 0.000000 0.000000 
#    y 0.000000 2.169990 0.000000 
#    z 0.000000 0.000000 2.045260 
# 
# From -- ./inp_files/7182.got.cif
#   From: 2010.05.17/outbox.cif.g08.bks.cpg/sg19_4_cif.got.tgz:7182.got - 2010.06.03 22:46:19.
