data_PCOD9315347
_publ_section_title
;
Structure prediction by ZEFSAII (Michael W. Deem and Ramdas Pophale) SiO2 
 PCOD9315347
Probable space group: P 21 21 21
;
_chemical_formula_sum "Si O2"
_cell_formula_units_Z 32
_cell_length_a 14.314342
_cell_length_b 5.531539
_cell_length_c 16.919729
_cell_angle_alpha 90.000000
_cell_angle_beta 90.000000
_cell_angle_gamma 90.000000
_cell_volume 1339.709912
_symmetry_space_group_name_H-M "P 21 21 21"
_symmetry_group_IT_number 19
_symmetry_cell_setting 'orthorhombic'
loop_
_space_group_symop_operation_xyz
x,y,z
1/2-x,-y,1/2+z
1/2+x,1/2-y,-z
-x,1/2+y,1/2-z
loop_
_atom_site_type_symbol
_atom_site_label
_atom_site_fract_x
_atom_site_fract_y
_atom_site_fract_z
Si Si1 0.200531 0.478431 0.932013
Si Si2 0.455174 0.164282 0.448800
Si Si3 0.211384 0.838265 0.705765
Si Si4 0.475835 0.277201 0.792725
Si Si5 0.627526 0.296667 0.923877
Si Si6 0.372718 0.670759 0.155382
Si Si7 0.784192 0.405116 0.151381
Si Si8 0.857562 0.716748 0.017517
O O1 0.125798 0.679008 0.910799
O O2 0.197346 0.262417 0.870019
O O3 0.307879 0.565382 0.936266
O O4 0.169417 0.410105 0.020555
O O5 0.524449 0.092461 0.376980
O O6 0.531586 0.293993 0.506364
O O7 0.405252 0.983711 0.508804
O O8 0.292317 0.866730 0.638961
O O9 0.170361 0.568976 0.694383
O O10 0.140015 0.068772 0.698127
O O11 0.259467 0.877628 0.790351
O O12 0.494452 0.549333 0.762318
O O13 0.536630 0.241088 0.871754
O O14 0.366362 0.238601 0.805668
O O15 0.323881 0.739877 0.071530
O O16 0.820948 0.490394 0.065790
#
# Coordination Sequence:
#
# PCOD9315347 Si02
#       8
#     4   4   4   4   4   4   4   4
#     4  12  24  43  78 110 154 206 265 323 397 477
#     4  10  25  43  79 106 152 197 272 320 391 457
#     4  12  26  46  76 109 154 206 257 317 402 468
#     4  12  30  47  76 118 167 207 253 326 413 478
#     4  12  25  44  74 112 154 204 260 318 394 484
#     4  10  26  48  74 105 148 207 258 323 379 465
#     4  12  28  44  76 113 163 205 262 328 407 478
#     4  10  24  45  73 109 152 202 257 327 393 465
#
# _framework density 23.885770000000001
#
# number of rings (size 3 to 8) (size 9 to 14) (size 15 to 20)
#    0.750    0.000    2.500    3.750   10.500    0.000 
#    0.000    0.000    5.500    0.000    0.000    0.000 
#    0.000    0.000    0.000    0.000    0.000    0.000 
#
# Total GULP energy -178530.855366 kJ/mol
# GULP energy per Si atom -5579.089230 kJ/mol
# Density = 2.383140 g / cm^3
# Si number density = 23.885770 Si / 1000 Ang^3
#
#
#
# Elastic Constant Matrix: (Units=GPa)
#
#
# Indices 1 2 3 4 5 6 
#
# 1 82.2370 17.0044 39.2845 0.0000 0.0000 0.0000
# 2 17.0044 67.0808 20.0102 0.0000 0.0000 0.0000
# 3 39.2845 20.0102 57.9964 0.0000 0.0000 0.0000
# 4 0.0000 0.0000 0.0000 32.9610 0.0000 0.0000
# 5 0.0000 0.0000 0.0000 0.0000 32.5347 0.0000
# 6 0.0000 0.0000 0.0000 0.0000 0.0000 30.7103
#
#
#
# Elastic Compliance Matrix: (Units=1/GPa)
#
#
# Indices 1 2 3 4 5 6 
#
# 1 0.018041 -0.001034 -0.011863 0.000000 0.000000 0.000000
# 2 -0.001034 0.016677 -0.005053 0.000000 0.000000 0.000000
# 3 -0.011863 -0.005053 0.027022 0.000000 0.000000 0.000000
# 4 0.000000 0.000000 0.000000 0.030339 0.000000 0.000000
# 5 0.000000 0.000000 0.000000 0.000000 0.030736 0.000000
# 6 0.000000 0.000000 0.000000 0.000000 0.000000 0.032562
#
#
# Mechanical properties :
#
#
# Convention : Reuss Voigt Hill
#
# Bulk Modulus (GPa) = 38.70332 39.99027 39.34680
# Shear Modulus (GPa) = 25.01350 27.97554 26.49452
#
# Velocity S-wave (km/s) = 3.23958 3.42602 3.33411
# Velocity P-wave (km/s) = 5.49835 5.69463 5.59735
#
# Compressibility (1/GPa) = 0.02583757
#
# Stress axis : x y z
#
# Youngs Moduli (GPa) = 55.42941 59.96277 37.00726
#
# Poissons Ratio (x) = 0.06202 0.43903
# Poissons Ratio (y) = 0.05734 0.18701
# Poissons Ratio (z) = 0.65758 0.30301
#
# Static dielectric constant tensor:
#      x y z
#    x 1.925030 0.000000 0.000000 
#    y 0.000000 1.985640 0.000000 
#    z 0.000000 0.000000 1.927920 
# 
# From -- ./inp_files/6775.got.cif
#   From: 2010.05.17/outbox.cif.g08.bks.cpg/sg19_4_cif.got.tgz:6775.got - 2010.06.03 22:46:19.
