data_PCOD9315459
_publ_section_title
;
Structure prediction by ZEFSAII (Michael W. Deem and Ramdas Pophale) SiO2 
 PCOD9315459
Probable space group: P 21 21 21
;
_chemical_formula_sum "Si O2"
_cell_formula_units_Z 20
_cell_length_a 9.236282
_cell_length_b 10.226470
_cell_length_c 9.366630
_cell_angle_alpha 90.000000
_cell_angle_beta 90.000000
_cell_angle_gamma 90.000000
_cell_volume 884.720923
_symmetry_space_group_name_H-M "P 21 21 21"
_symmetry_group_IT_number 19
_symmetry_cell_setting 'orthorhombic'
loop_
_space_group_symop_operation_xyz
x,y,z
1/2-x,-y,1/2+z
1/2+x,1/2-y,-z
-x,1/2+y,1/2-z
loop_
_atom_site_type_symbol
_atom_site_label
_atom_site_fract_x
_atom_site_fract_y
_atom_site_fract_z
Si Si1 0.688218 0.770553 0.187999
Si Si2 0.812932 0.470938 0.498991
Si Si3 0.469494 0.492110 0.486529
Si Si4 0.499775 0.640175 0.746716
Si Si5 0.499065 0.771011 0.460979
O O1 0.662224 0.624325 0.133137
O O2 0.610375 0.871678 0.082474
O O3 0.859051 0.795559 0.184882
O O4 0.623475 0.794025 0.345195
O O5 0.642648 0.482844 0.470522
O O6 0.885906 0.403320 0.362289
O O7 0.890280 0.608626 0.527836
O O8 0.446386 0.513655 0.655635
O O9 0.423953 0.632414 0.419867
O O10 0.554868 0.735450 0.620305
#
# Coordination Sequence:
#
# PCOD9315459 Si02
#       5
#     4   4   4   4   4
#     4  12  25  48  74 113 144 199 249 308 379 449
#     4  12  26  47  79 106 148 199 252 306 376 455
#     4  10  27  46  74 104 151 194 243 313 379 438
#     4  10  28  45  73 107 153 190 255 303 375 438
#     4  10  26  44  76 104 150 192 247 308 373 444
#
# _framework density 22.605998
#
# number of rings (size 3 to 8) (size 9 to 14) (size 15 to 20)
#    1.200    0.000    0.000    3.600   14.000    0.000 
#    3.600    0.000    0.000    0.000    0.000    0.000 
#    0.000    0.000    0.000    0.000    0.000    0.000 
#
# Total GULP energy -111832.602280 kJ/mol
# GULP energy per Si atom -5591.630114 kJ/mol
# Density = 2.255455 g / cm^3
# Si number density = 22.605998 Si / 1000 Ang^3
#
#
#
# Elastic Constant Matrix: (Units=GPa)
#
#
# Indices 1 2 3 4 5 6 
#
# 1 55.0712 56.9405 46.5974 0.0000 0.0000 0.0000
# 2 56.9405 132.7950 52.4233 0.0000 0.0000 0.0000
# 3 46.5974 52.4233 90.1279 0.0000 0.0000 0.0000
# 4 0.0000 0.0000 0.0000 22.6378 0.0000 0.0000
# 5 0.0000 0.0000 0.0000 0.0000 36.9658 0.0000
# 6 0.0000 0.0000 0.0000 0.0000 0.0000 32.1549
#
#
#
# Elastic Compliance Matrix: (Units=1/GPa)
#
#
# Indices 1 2 3 4 5 6 
#
# 1 0.044888 -0.013092 -0.015593 0.000000 0.000000 0.000000
# 2 -0.013092 0.013593 -0.001138 0.000000 0.000000 0.000000
# 3 -0.015593 -0.001138 0.019819 0.000000 0.000000 0.000000
# 4 0.000000 0.000000 0.000000 0.044174 0.000000 0.000000
# 5 0.000000 0.000000 0.000000 0.000000 0.027052 0.000000
# 6 0.000000 0.000000 0.000000 0.000000 0.000000 0.031099
#
#
# Mechanical properties :
#
#
# Convention : Reuss Voigt Hill
#
# Bulk Modulus (GPa) = 53.60467 65.54629 59.57548
# Shear Modulus (GPa) = 20.28486 26.48721 23.38604
#
# Velocity S-wave (km/s) = 2.99878 3.42671 3.21986
# Velocity P-wave (km/s) = 5.97949 6.68689 6.34306
#
# Compressibility (1/GPa) = 0.01865509
#
# Stress axis : x y z
#
# Youngs Moduli (GPa) = 22.27763 73.56641 50.45671
#
# Poissons Ratio (x) = 0.96311 0.78677
# Poissons Ratio (y) = 0.29165 0.05741
# Poissons Ratio (z) = 0.34737 0.08371
#
# Static dielectric constant tensor:
#      x y z
#    x 1.782930 0.000000 0.000000 
#    y 0.000000 1.875320 0.000000 
#    z 0.000000 0.000000 1.848990 
# 
# From -- ./inp_files/2627.got.cif
#   From: 2010.05.17/outbox.cif.g08.bks.cpg/sg19_2_cif.got.tgz:2627.got - 2010.06.03 22:46:19.
