data_PCOD9315700
_publ_section_title
;
Structure prediction by ZEFSAII (Michael W. Deem and Ramdas Pophale) SiO2 
 PCOD9315700
Probable space group: P 21 21 21
;
_chemical_formula_sum "Si O2"
_cell_formula_units_Z 28
_cell_length_a 10.908856
_cell_length_b 17.606231
_cell_length_c 5.704405
_cell_angle_alpha 90.000000
_cell_angle_beta 90.000000
_cell_angle_gamma 90.000000
_cell_volume 1095.609922
_symmetry_space_group_name_H-M "P 21 21 21"
_symmetry_group_IT_number 19
_symmetry_cell_setting 'orthorhombic'
loop_
_space_group_symop_operation_xyz
x,y,z
1/2-x,-y,1/2+z
1/2+x,1/2-y,-z
-x,1/2+y,1/2-z
loop_
_atom_site_type_symbol
_atom_site_label
_atom_site_fract_x
_atom_site_fract_y
_atom_site_fract_z
Si Si1 0.341891 0.415647 0.259445
Si Si2 0.978726 0.281475 0.066802
Si Si3 0.914765 0.937394 0.427017
Si Si4 0.034523 0.190501 0.471851
Si Si5 0.509906 0.442489 0.883762
Si Si6 0.720389 0.289879 0.149720
Si Si7 0.273464 0.961625 0.326437
O O1 0.368210 0.495075 0.400817
O O2 0.195700 0.407351 0.238452
O O3 0.423246 0.348586 0.378149
O O4 0.377710 0.422910 0.983787
O O5 0.986039 0.266508 0.346602
O O6 0.017653 0.363880 0.970750
O O7 0.093556 0.231556 0.977125
O O8 0.839301 0.251598 0.031069
O O9 0.010090 0.980229 0.258038
O O10 0.163602 0.213341 0.589073
O O11 0.058381 0.121855 0.288360
O O12 0.581751 0.450873 0.125635
O O13 0.769392 0.375856 0.144378
O O14 0.240533 0.006035 0.566529
#
# Coordination Sequence:
#
# PCOD9315700 Si02
#       7
#     4   4   4   4   4   4   4
#     4  11  23  44  76 108 152 203 262 339 406 489
#     4  12  30  47  77 113 162 211 270 336 417 500
#     4  11  26  44  74 115 156 202 274 330 411 498
#     4  11  25  49  75 105 154 214 267 328 417 479
#     4  11  23  46  73 107 146 206 254 330 403 478
#     4  12  29  51  74 117 156 212 272 338 415 505
#     4  12  26  47  81 111 154 202 273 341 411 489
#
# _framework density 25.556539999999998
#
# number of rings (size 3 to 8) (size 9 to 14) (size 15 to 20)
#    0.000    0.571    4.286    1.714   10.000    1.143 
#    0.000    0.000    0.000    0.000    0.000    0.000 
#    0.000    0.000    0.000    0.000    0.000    0.000 
#
# Total GULP energy -156000.065738 kJ/mol
# GULP energy per Si atom -5571.430919 kJ/mol
# Density = 2.549837 g / cm^3
# Si number density = 25.556540 Si / 1000 Ang^3
#
#
#
# Elastic Constant Matrix: (Units=GPa)
#
#
# Indices 1 2 3 4 5 6 
#
# 1 108.8174 -0.8906 17.5550 0.0000 0.0000 0.0000
# 2 -0.8906 63.2758 20.5717 0.0000 0.0000 0.0000
# 3 17.5550 20.5717 67.4135 0.0000 0.0000 0.0000
# 4 0.0000 0.0000 0.0000 37.1790 0.0000 0.0000
# 5 0.0000 0.0000 0.0000 0.0000 44.5559 0.0000
# 6 0.0000 0.0000 0.0000 0.0000 0.0000 30.6245
#
#
#
# Elastic Compliance Matrix: (Units=1/GPa)
#
#
# Indices 1 2 3 4 5 6 
#
# 1 0.009656 0.001058 -0.002838 0.000000 0.000000 0.000000
# 2 0.001058 0.017660 -0.005665 0.000000 0.000000 0.000000
# 3 -0.002838 -0.005665 0.017301 0.000000 0.000000 0.000000
# 4 0.000000 0.000000 0.000000 0.026897 0.000000 0.000000
# 5 0.000000 0.000000 0.000000 0.000000 0.022444 0.000000
# 6 0.000000 0.000000 0.000000 0.000000 0.000000 0.032654
#
#
# Mechanical properties :
#
#
# Convention : Reuss Voigt Hill
#
# Bulk Modulus (GPa) = 33.63593 34.88655 34.26124
# Shear Modulus (GPa) = 33.02292 35.95659 34.48976
#
# Velocity S-wave (km/s) = 3.59855 3.75499 3.67760
# Velocity P-wave (km/s) = 5.51870 5.69915 5.60965
#
# Compressibility (1/GPa) = 0.02973011
#
# Stress axis : x y z
#
# Youngs Moduli (GPa) = 103.56117 56.62377 57.79884
#
# Poissons Ratio (x) = -0.05993 0.16401
# Poissons Ratio (y) = -0.10961 0.32742
# Poissons Ratio (z) = 0.29386 0.32076
#
# Static dielectric constant tensor:
#      x y z
#    x 2.177280 0.000000 0.000000 
#    y 0.000000 2.099160 0.000000 
#    z 0.000000 0.000000 2.125010 
# 
# From -- ./inp_files/1135.got.cif
#   From: 2010.05.17/outbox.cif.g08.bks.cpg/sg19_1_cif.got.tgz:1135.got - 2010.06.03 22:46:19.
