data_PCOD9315729
_publ_section_title
;
Structure prediction by ZEFSAII (Michael W. Deem and Ramdas Pophale) SiO2 
 PCOD9315729
Probable space group: P 21 21 21
;
_chemical_formula_sum "Si O2"
_cell_formula_units_Z 32
_cell_length_a 12.936484
_cell_length_b 19.102890
_cell_length_c 5.004268
_cell_angle_alpha 90.000000
_cell_angle_beta 90.000000
_cell_angle_gamma 90.000000
_cell_volume 1236.675880
_symmetry_space_group_name_H-M "P 21 21 21"
_symmetry_group_IT_number 19
_symmetry_cell_setting 'orthorhombic'
loop_
_space_group_symop_operation_xyz
x,y,z
1/2-x,-y,1/2+z
1/2+x,1/2-y,-z
-x,1/2+y,1/2-z
loop_
_atom_site_type_symbol
_atom_site_label
_atom_site_fract_x
_atom_site_fract_y
_atom_site_fract_z
Si Si1 0.641449 0.351504 0.184126
Si Si2 0.437697 0.608078 0.670651
Si Si3 0.812776 0.516430 0.974658
Si Si4 0.237375 0.544092 0.442333
Si Si5 0.066980 0.662699 0.405227
Si Si6 0.445832 0.092270 0.353095
Si Si7 0.303441 0.208295 0.176105
Si Si8 0.085605 0.247848 0.438062
O O1 0.655704 0.403042 0.433757
O O2 0.534964 0.371985 0.040990
O O3 0.611504 0.271995 0.261302
O O4 0.751798 0.344983 0.040416
O O5 0.323685 0.582642 0.618953
O O6 0.478509 0.621264 0.376379
O O7 0.443747 0.676492 0.848894
O O8 0.506093 0.562015 0.873994
O O9 0.714645 0.502481 0.776809
O O10 0.895664 0.470014 0.820557
O O11 0.289202 0.514712 0.168529
O O12 0.148778 0.599921 0.366417
O O13 0.127481 0.727613 0.556893
O O14 0.010178 0.698698 0.151992
O O15 0.365056 0.156926 0.375470
O O16 0.198207 0.236504 0.305528
#
# Coordination Sequence:
#
# PCOD9315729 Si02
#       8
#     4   4   4   4   4   4   4   4
#     4  11  27  43  73 113 148 199 257 311 387 463
#     4  12  27  48  76 113 144 202 258 309 383 459
#     4  12  26  47  73 108 150 202 244 310 384 454
#     4  12  30  53  77 109 155 208 257 314 385 468
#     4  11  26  47  74 108 151 199 253 322 382 447
#     4  12  26  46  76 109 153 194 249 316 376 452
#     4  11  23  47  72 109 150 192 252 318 385 448
#     4  11  25  45  77 109 149 194 260 318 384 457
#
# _framework density 25.875817999999999
#
# number of rings (size 3 to 8) (size 9 to 14) (size 15 to 20)
#    0.000    0.500    3.750    3.000   10.500    2.000 
#    0.000    0.000    0.000    0.000    0.000    0.000 
#    0.000    0.000    0.000    0.000    0.000    0.000 
#
# Total GULP energy -178720.973806 kJ/mol
# GULP energy per Si atom -5585.030431 kJ/mol
# Density = 2.581692 g / cm^3
# Si number density = 25.875818 Si / 1000 Ang^3
#
#
#
# Elastic Constant Matrix: (Units=GPa)
#
#
# Indices 1 2 3 4 5 6 
#
# 1 129.7358 31.7560 46.9472 0.0000 0.0000 0.0000
# 2 31.7560 70.4841 -5.4129 0.0000 0.0000 0.0000
# 3 46.9472 -5.4129 88.6242 0.0000 0.0000 0.0000
# 4 0.0000 0.0000 0.0000 16.1438 0.0000 0.0000
# 5 0.0000 0.0000 0.0000 0.0000 488.2059 0.0000
# 6 0.0000 0.0000 0.0000 0.0000 0.0000 36.9193
#
#
#
# Elastic Compliance Matrix: (Units=1/GPa)
#
#
# Indices 1 2 3 4 5 6 
#
# 1 0.011392 -0.005623 -0.006378 0.000000 0.000000 0.000000
# 2 -0.005623 0.017029 0.004019 0.000000 0.000000 0.000000
# 3 -0.006378 0.004019 0.014908 0.000000 0.000000 0.000000
# 4 0.000000 0.000000 0.000000 0.061943 0.000000 0.000000
# 5 0.000000 0.000000 0.000000 0.000000 0.002048 0.000000
# 6 0.000000 0.000000 0.000000 0.000000 0.000000 0.027086
#
#
# Mechanical properties :
#
#
# Convention : Reuss Voigt Hill
#
# Bulk Modulus (GPa) = 36.54303 48.38049 42.46176
# Shear Modulus (GPa) = 31.34921 122.62406 76.98664
#
# Velocity S-wave (km/s) = 3.48447 6.89147 5.46049
# Velocity P-wave (km/s) = 5.50835 9.05875 7.49676
#
# Compressibility (1/GPa) = 0.02736500
#
# Stress axis : x y z
#
# Youngs Moduli (GPa) = 87.77843 58.72197 67.07883
#
# Poissons Ratio (x) = 0.33017 0.42785
# Poissons Ratio (y) = 0.49354 -0.26956
# Poissons Ratio (z) = 0.55988 -0.23598
#
# Static dielectric constant tensor:
#      x y z
#    x 2.280570 0.000000 0.000000 
#    y 0.000000 2.159690 0.000000 
#    z 0.000000 0.000000 2.069930 
# 
# From -- ./inp_files/1253.got.cif
#   From: 2010.05.17/outbox.cif.g08.bks.cpg/sg19_1_cif.got.tgz:1253.got - 2010.06.03 22:46:19.
