data_PCOD9315270
_publ_section_title
;
Structure prediction by ZEFSAII (Michael W. Deem and Ramdas Pophale) SiO2 
 PCOD9315270
Probable space group: P 21 21 21
;
_chemical_formula_sum "Si O2"
_cell_formula_units_Z 32
_cell_length_a 15.080686
_cell_length_b 8.681449
_cell_length_c 11.575689
_cell_angle_alpha 90.000000
_cell_angle_beta 90.000000
_cell_angle_gamma 90.000000
_cell_volume 1515.514744
_symmetry_space_group_name_H-M "P 21 21 21"
_symmetry_group_IT_number 19
_symmetry_cell_setting 'orthorhombic'
loop_
_space_group_symop_operation_xyz
x,y,z
1/2-x,-y,1/2+z
1/2+x,1/2-y,-z
-x,1/2+y,1/2-z
loop_
_atom_site_type_symbol
_atom_site_label
_atom_site_fract_x
_atom_site_fract_y
_atom_site_fract_z
Si Si1 0.070709 0.139006 0.193366
Si Si2 0.591633 0.701337 0.222504
Si Si3 0.591844 0.640606 0.655800
Si Si4 0.595287 0.070173 0.186432
Si Si5 0.828050 0.903781 0.429545
Si Si6 0.809962 0.312782 0.947934
Si Si7 0.731639 0.796951 0.813069
Si Si8 0.664603 0.558260 0.988533
O O1 0.142215 0.268322 0.157793
O O2 0.983100 0.240615 0.194720
O O3 0.078044 0.035646 0.307317
O O4 0.086926 0.008448 0.094831
O O5 0.496568 0.644728 0.269957
O O6 0.666120 0.655100 0.316257
O O7 0.620121 0.623252 0.102733
O O8 0.592175 0.886304 0.208299
O O9 0.602124 0.657839 0.519920
O O10 0.681078 0.702614 0.714453
O O11 0.675349 0.145199 0.261719
O O12 0.616847 0.093541 0.049017
O O13 0.726754 0.860094 0.461049
O O14 0.826266 0.058606 0.356873
O O15 0.733445 0.418940 0.002276
O O16 0.725296 0.684555 0.923404
#
# Coordination Sequence:
#
# PCOD9315270 Si02
#       8
#     4   4   4   4   4   4   4   4
#     4  10  24  42  69  98 140 176 224 292 345 417
#     4  12  28  46  71 105 142 192 235 293 356 424
#     4  11  23  43  68 102 132 184 226 284 354 416
#     4  12  27  44  72 103 145 185 239 293 357 427
#     4  11  22  45  68 100 138 179 230 291 343 420
#     4  11  25  41  73  95 137 180 233 285 347 411
#     4  11  23  45  70 101 136 183 231 291 348 418
#     4  10  26  44  69 100 140 179 238 283 350 421
#
# _framework density 21.114937999999999
#
# number of rings (size 3 to 8) (size 9 to 14) (size 15 to 20)
#    0.000    1.000    3.750    1.500   12.250    0.000 
#    0.000    0.000    0.000    0.000    0.000    0.000 
#    0.000    0.000    0.000    0.000    0.000    0.000 
#
# Total GULP energy -178579.530864 kJ/mol
# GULP energy per Si atom -5580.610339 kJ/mol
# Density = 2.106688 g / cm^3
# Si number density = 21.114938 Si / 1000 Ang^3
#
#
#
# Elastic Constant Matrix: (Units=GPa)
#
#
# Indices 1 2 3 4 5 6 
#
# 1 89.5781 15.7602 17.3804 0.0000 0.0000 0.0000
# 2 15.7602 90.4993 6.6547 0.0000 0.0000 0.0000
# 3 17.3804 6.6547 60.6394 0.0000 0.0000 0.0000
# 4 0.0000 0.0000 0.0000 25.9680 0.0000 0.0000
# 5 0.0000 0.0000 0.0000 0.0000 20.6884 0.0000
# 6 0.0000 0.0000 0.0000 0.0000 0.0000 31.8606
#
#
#
# Elastic Compliance Matrix: (Units=1/GPa)
#
#
# Indices 1 2 3 4 5 6 
#
# 1 0.012127 -0.001871 -0.003271 0.000000 0.000000 0.000000
# 2 -0.001871 0.011428 -0.000718 0.000000 0.000000 0.000000
# 3 -0.003271 -0.000718 0.017507 0.000000 0.000000 0.000000
# 4 0.000000 0.000000 0.000000 0.038509 0.000000 0.000000
# 5 0.000000 0.000000 0.000000 0.000000 0.048336 0.000000
# 6 0.000000 0.000000 0.000000 0.000000 0.000000 0.031387
#
#
# Mechanical properties :
#
#
# Convention : Reuss Voigt Hill
#
# Bulk Modulus (GPa) = 34.07930 35.58972 34.83451
# Shear Modulus (GPa) = 27.65558 29.09818 28.37688
#
# Velocity S-wave (km/s) = 3.62299 3.71628 3.66993
# Velocity P-wave (km/s) = 5.80313 5.94190 5.87293
#
# Compressibility (1/GPa) = 0.02934332
#
# Stress axis : x y z
#
# Youngs Moduli (GPa) = 82.45881 87.50060 57.11970
#
# Poissons Ratio (x) = 0.16375 0.18681
# Poissons Ratio (y) = 0.15432 0.04100
# Poissons Ratio (z) = 0.26968 0.06281
#
# Static dielectric constant tensor:
#      x y z
#    x 1.816100 0.000000 0.000000 
#    y 0.000000 1.764290 0.000000 
#    z 0.000000 0.000000 1.805050 
# 
# From -- ./inp_files/4736.got.cif
#   From: 2010.05.17/outbox.cif.g08.bks.cpg/sg19_3_cif.got.tgz:4736.got - 2010.06.03 22:46:19.
