data_PCOD9315625
_publ_section_title
;
Structure prediction by ZEFSAII (Michael W. Deem and Ramdas Pophale) SiO2 
 PCOD9315625
Probable space group: P 21 21 21
;
_chemical_formula_sum "Si O2"
_cell_formula_units_Z 32
_cell_length_a 10.616469
_cell_length_b 14.314493
_cell_length_c 9.100758
_cell_angle_alpha 90.000000
_cell_angle_beta 90.000000
_cell_angle_gamma 90.000000
_cell_volume 1383.036471
_symmetry_space_group_name_H-M "P 21 21 21"
_symmetry_group_IT_number 19
_symmetry_cell_setting 'orthorhombic'
loop_
_space_group_symop_operation_xyz
x,y,z
1/2-x,-y,1/2+z
1/2+x,1/2-y,-z
-x,1/2+y,1/2-z
loop_
_atom_site_type_symbol
_atom_site_label
_atom_site_fract_x
_atom_site_fract_y
_atom_site_fract_z
Si Si1 0.477553 0.438476 0.384114
Si Si2 0.832186 0.884455 0.722030
Si Si3 0.366064 0.980381 0.822937
Si Si4 0.486622 0.781012 0.333932
Si Si5 0.293461 0.656152 0.938523
Si Si6 0.332541 0.161916 0.373417
Si Si7 0.443117 0.358577 0.852266
Si Si8 0.456108 0.160746 0.691155
O O1 0.431097 0.534719 0.312755
O O2 0.561514 0.459064 0.525393
O O3 0.544200 0.365801 0.275393
O O4 0.344555 0.387797 0.421748
O O5 0.691101 0.908160 0.671847
O O6 0.870745 0.788646 0.640741
O O7 0.832912 0.865208 0.895538
O O8 0.227759 0.936135 0.829125
O O9 0.444381 0.925827 0.697375
O O10 0.376241 0.089279 0.787936
O O11 0.588027 0.713745 0.252566
O O12 0.539480 0.824707 0.481956
O O13 0.280648 0.767036 0.913210
O O14 0.398347 0.627505 0.819664
O O15 0.409530 0.156537 0.523776
O O16 0.444929 0.265404 0.751576
#
# Coordination Sequence:
#
# PCOD9315625 Si02
#       8
#     4   4   4   4   4   4   4   4
#     4  11  26  43  71 102 136 183 228 284 343 402
#     4  12  24  44  73  98 140 175 234 285 333 409
#     4  12  26  46  70 102 141 179 231 280 350 416
#     4  11  27  44  68 106 139 180 227 288 345 405
#     4  11  22  45  72  97 133 181 231 277 337 405
#     4  11  24  47  68  95 143 181 221 280 354 409
#     4  12  26  44  70 107 134 183 236 283 340 402
#     4  12  25  45  74  99 136 186 230 283 342 414
#
# _framework density 23.137497
#
# number of rings (size 3 to 8) (size 9 to 14) (size 15 to 20)
#    0.000    0.500    5.000    3.000    5.250    3.000 
#    0.000    0.000    0.000    0.000    0.000    0.000 
#    0.000    0.000    0.000    0.000    0.000    0.000 
#
# Total GULP energy -179256.587491 kJ/mol
# GULP energy per Si atom -5601.768359 kJ/mol
# Density = 2.308484 g / cm^3
# Si number density = 23.137497 Si / 1000 Ang^3
#
#
#
# Elastic Constant Matrix: (Units=GPa)
#
#
# Indices 1 2 3 4 5 6 
#
# 1 41.3237 6.9533 22.1633 0.0000 0.0000 0.0000
# 2 6.9533 77.1568 -26.7369 0.0000 0.0000 0.0000
# 3 22.1633 -26.7369 11.1294 0.0000 0.0000 0.0000
# 4 0.0000 0.0000 0.0000 28.1488 0.0000 0.0000
# 5 0.0000 0.0000 0.0000 0.0000 4.1668 0.0000
# 6 0.0000 0.0000 0.0000 0.0000 0.0000 39.3640
#
#
#
# Elastic Compliance Matrix: (Units=1/GPa)
#
#
# Indices 1 2 3 4 5 6 
#
# 1 -0.003531 0.016447 0.046544 0.000000 0.000000 0.000000
# 2 0.016447 0.000768 -0.030906 0.000000 0.000000 0.000000
# 3 0.046544 -0.030906 -0.077085 0.000000 0.000000 0.000000
# 4 0.000000 0.000000 0.000000 0.035526 0.000000 0.000000
# 5 0.000000 0.000000 0.000000 0.000000 0.239992 0.000000
# 6 0.000000 0.000000 0.000000 0.000000 0.000000 0.025404
#
#
# Mechanical properties :
#
#
# Convention : Reuss Voigt Hill
#
# Bulk Modulus (GPa) = -63.77838 14.92993 -24.42422
# Shear Modulus (GPa) = 32.96436 22.81792 27.89114
#
# Velocity S-wave (km/s) = 3.77864 3.14377 3.47573
# Velocity P-wave (km/s) = 2.93042 4.43220 2.35129
#
# Compressibility (1/GPa) = -0.01567930
#
# Stress axis : x y z
#
# Youngs Moduli (GPa) = -283.18692 1301.24589 -12.97273
#
# Poissons Ratio (x) = -21.40145 0.60380
# Poissons Ratio (y) = 4.65754 -0.40094
# Poissons Ratio (z) = 13.18056 40.21692
#
# Static dielectric constant tensor:
#      x y z
#    x 1.912010 0.000000 0.000000 
#    y 0.000000 1.874820 0.000000 
#    z 0.000000 0.000000 1.818400 
# 
# From -- ./inp_files/3648.got.cif
#   From: 2010.05.17/outbox.cif.g08.bks.cpg/sg19_2_cif.got.tgz:3648.got - 2010.06.03 22:46:19.
