data_PCOD9315793
_publ_section_title
;
Structure prediction by ZEFSAII (Michael W. Deem and Ramdas Pophale) SiO2 
 PCOD9315793
Probable space group: P 21 21 21
;
_chemical_formula_sum "Si O2"
_cell_formula_units_Z 28
_cell_length_a 24.105189
_cell_length_b 5.301666
_cell_length_c 9.583415
_cell_angle_alpha 90.000000
_cell_angle_beta 90.000000
_cell_angle_gamma 90.000000
_cell_volume 1224.738021
_symmetry_space_group_name_H-M "P 21 21 21"
_symmetry_group_IT_number 19
_symmetry_cell_setting 'orthorhombic'
loop_
_space_group_symop_operation_xyz
x,y,z
1/2-x,-y,1/2+z
1/2+x,1/2-y,-z
-x,1/2+y,1/2-z
loop_
_atom_site_type_symbol
_atom_site_label
_atom_site_fract_x
_atom_site_fract_y
_atom_site_fract_z
Si Si1 0.505255 0.717169 0.009625
Si Si2 0.600538 0.920255 0.500795
Si Si3 0.708882 0.884411 0.344757
Si Si4 0.163955 0.130910 0.784408
Si Si5 0.895536 0.297714 0.293771
Si Si6 0.663454 0.215721 0.899634
Si Si7 0.947737 0.448895 0.798792
O O1 0.444023 0.633882 0.962501
O O2 0.529114 0.564075 0.143221
O O3 0.494321 0.980903 0.088452
O O4 0.548337 0.694652 0.885097
O O5 0.666379 0.936228 0.473547
O O6 0.593436 0.734005 0.630683
O O7 0.578899 0.806577 0.354797
O O8 0.688257 0.646429 0.250378
O O9 0.770679 0.820093 0.389343
O O10 0.704883 0.148860 0.264213
O O11 0.105003 0.137364 0.703611
O O12 0.150776 0.193812 0.943514
O O13 0.859747 0.550513 0.311151
O O14 0.864177 0.047165 0.351763
#
# Coordination Sequence:
#
# PCOD9315793 Si02
#       7
#     4   4   4   4   4   4   4
#     4  12  25  45  76 103 146 195 244 306 361 442
#     4  11  28  47  71 111 144 194 244 308 368 435
#     4  11  26  46  78 101 143 188 249 302 360 430
#     4  11  24  48  72 109 136 190 249 295 356 433
#     4  12  31  47  74 110 152 194 238 305 379 438
#     4  12  28  49  74 106 148 195 241 306 365 444
#     4  11  24  44  75 102 143 188 251 294 359 430
#
# _framework density 22.862031000000002
#
# number of rings (size 3 to 8) (size 9 to 14) (size 15 to 20)
#    0.000    0.571    4.286    1.714   14.000    0.000 
#    0.000    0.000    0.000    0.000    0.000    0.000 
#    0.000    0.000    0.000    0.000    0.000    0.000 
#
# Total GULP energy -156370.374541 kJ/mol
# GULP energy per Si atom -5584.656234 kJ/mol
# Density = 2.281000 g / cm^3
# Si number density = 22.862031 Si / 1000 Ang^3
#
#
#
# Elastic Constant Matrix: (Units=GPa)
#
#
# Indices 1 2 3 4 5 6 
#
# 1 107.4026 35.5012 14.6944 0.0000 0.0000 0.0000
# 2 35.5012 98.1092 -12.1535 0.0000 0.0000 0.0000
# 3 14.6944 -12.1535 56.0805 0.0000 0.0000 0.0000
# 4 0.0000 0.0000 0.0000 23.2739 0.0000 0.0000
# 5 0.0000 0.0000 0.0000 0.0000 19.4794 0.0000
# 6 0.0000 0.0000 0.0000 0.0000 0.0000 38.8354
#
#
#
# Elastic Compliance Matrix: (Units=1/GPa)
#
#
# Indices 1 2 3 4 5 6 
#
# 1 0.011380 -0.004611 -0.003981 0.000000 0.000000 0.000000
# 2 -0.004611 0.012342 0.003883 0.000000 0.000000 0.000000
# 3 -0.003981 0.003883 0.019716 0.000000 0.000000 0.000000
# 4 0.000000 0.000000 0.000000 0.042967 0.000000 0.000000
# 5 0.000000 0.000000 0.000000 0.000000 0.051336 0.000000
# 6 0.000000 0.000000 0.000000 0.000000 0.000000 0.025750
#
#
# Mechanical properties :
#
#
# Convention : Reuss Voigt Hill
#
# Bulk Modulus (GPa) = 29.39452 37.51962 33.45707
# Shear Modulus (GPa) = 27.13732 31.22109 29.17921
#
# Velocity S-wave (km/s) = 3.44903 3.69945 3.57643
# Velocity P-wave (km/s) = 5.36156 5.89024 5.63211
#
# Compressibility (1/GPa) = 0.03401995
#
# Stress axis : x y z
#
# Youngs Moduli (GPa) = 87.87726 81.02287 50.71999
#
# Poissons Ratio (x) = 0.37359 0.20191
# Poissons Ratio (y) = 0.40519 -0.19694
# Poissons Ratio (z) = 0.34983 -0.31460
#
# Static dielectric constant tensor:
#      x y z
#    x 1.877640 0.000000 0.000000 
#    y 0.000000 1.951410 0.000000 
#    z 0.000000 0.000000 1.837090 
# 
# From -- ./inp_files/531.got.cif
#   From: 2010.05.17/outbox.cif.g08.bks.cpg/sg19_1_cif.got.tgz:531.got - 2010.06.03 22:46:19.
