data_PCOD9315059
_publ_section_title
;
Structure prediction by ZEFSAII (Michael W. Deem and Ramdas Pophale) SiO2 
 PCOD9315059
Probable space group: P 21 21 21
;
_chemical_formula_sum "Si O2"
_cell_formula_units_Z 20
_cell_length_a 8.200192
_cell_length_b 9.909583
_cell_length_c 9.960344
_cell_angle_alpha 90.000000
_cell_angle_beta 90.000000
_cell_angle_gamma 90.000000
_cell_volume 809.382367
_symmetry_space_group_name_H-M "P 21 21 21"
_symmetry_group_IT_number 19
_symmetry_cell_setting 'orthorhombic'
loop_
_space_group_symop_operation_xyz
x,y,z
1/2-x,-y,1/2+z
1/2+x,1/2-y,-z
-x,1/2+y,1/2-z
loop_
_atom_site_type_symbol
_atom_site_label
_atom_site_fract_x
_atom_site_fract_y
_atom_site_fract_z
Si Si1 0.817475 0.947450 0.985536
Si Si2 0.426926 0.973920 0.999717
Si Si3 0.685105 0.266453 0.708272
Si Si4 0.573857 0.263718 0.277207
Si Si5 0.502765 0.271558 0.991097
O O1 0.622449 0.955738 0.988656
O O2 0.864833 0.872775 0.847407
O O3 0.876898 0.850133 0.106117
O O4 0.899316 0.091858 0.000210
O O5 0.345372 0.905330 0.871053
O O6 0.405041 0.132112 0.011180
O O7 0.370968 0.888278 0.129599
O O8 0.591455 0.262780 0.848093
O O9 0.877176 0.240627 0.721427
O O10 0.618628 0.274350 0.122691
#
# Coordination Sequence:
#
# PCOD9315059 Si02
#       5
#     4   4   4   4   4
#     4  10  23  44  66  90 126 168 209 259 317 376
#     4  10  23  44  66  90 126 168 209 259 317 376
#     4  10  23  42  64  93 128 167 211 259 314 376
#     4  10  23  42  64  93 128 167 211 259 314 376
#     4  12  22  36  64  96 126 162 208 258 312 374
#
# _framework density 24.710201000000001
#
# number of rings (size 3 to 8) (size 9 to 14) (size 15 to 20)
#    0.000    1.600    0.000    3.600    0.000    9.600 
#    0.000    8.000    0.000    0.000    0.000    0.000 
#    0.000    0.000    0.000    0.000    0.000    0.000 
#
# Total GULP energy -112190.562751 kJ/mol
# GULP energy per Si atom -5609.528138 kJ/mol
# Density = 2.465396 g / cm^3
# Si number density = 24.710201 Si / 1000 Ang^3
#
#
#
# Elastic Constant Matrix: (Units=GPa)
#
#
# Indices 1 2 3 4 5 6 
#
# 1 31.1188 17.4928 17.0939 0.0000 0.0000 0.0000
# 2 17.4928 137.1999 36.4521 0.0000 0.0000 0.0000
# 3 17.0939 36.4521 167.5444 0.0000 0.0000 0.0000
# 4 0.0000 0.0000 0.0000 30.6355 0.0000 0.0000
# 5 0.0000 0.0000 0.0000 0.0000 33.5369 0.0000
# 6 0.0000 0.0000 0.0000 0.0000 0.0000 32.0543
#
#
#
# Elastic Compliance Matrix: (Units=1/GPa)
#
#
# Indices 1 2 3 4 5 6 
#
# 1 0.035833 -0.003818 -0.002825 0.000000 0.000000 0.000000
# 2 -0.003818 0.008143 -0.001382 0.000000 0.000000 0.000000
# 3 -0.002825 -0.001382 0.006557 0.000000 0.000000 0.000000
# 4 0.000000 0.000000 0.000000 0.032642 0.000000 0.000000
# 5 0.000000 0.000000 0.000000 0.000000 0.029818 0.000000
# 6 0.000000 0.000000 0.000000 0.000000 0.000000 0.031197
#
#
# Mechanical properties :
#
#
# Convention : Reuss Voigt Hill
#
# Bulk Modulus (GPa) = 29.00015 53.10453 41.05234
# Shear Modulus (GPa) = 29.11466 36.90029 33.00747
#
# Velocity S-wave (km/s) = 3.43628 3.86854 3.65880
# Velocity P-wave (km/s) = 5.24458 6.44141 5.87356
#
# Compressibility (1/GPa) = 0.03448258
#
# Stress axis : x y z
#
# Youngs Moduli (GPa) = 27.90719 122.81074 152.49725
#
# Poissons Ratio (x) = 0.46890 0.43084
# Poissons Ratio (y) = 0.10655 0.21075
# Poissons Ratio (z) = 0.07884 0.16973
#
# Static dielectric constant tensor:
#      x y z
#    x 1.931340 0.000000 0.000000 
#    y 0.000000 1.936500 0.000000 
#    z 0.000000 0.000000 1.963900 
# 
# From -- ./inp_files/2563.got.cif
#   From: 2010.05.17/outbox.cif.g08.bks.cpg/sg19_2_cif.got.tgz:2563.got - 2010.06.03 22:46:19.
