data_PCOD9315241
_publ_section_title
;
Structure prediction by ZEFSAII (Michael W. Deem and Ramdas Pophale) SiO2 
 PCOD9315241
Probable space group: P 21 21 21
;
_chemical_formula_sum "Si O2"
_cell_formula_units_Z 20
_cell_length_a 18.944049
_cell_length_b 4.818005
_cell_length_c 8.262840
_cell_angle_alpha 90.000000
_cell_angle_beta 90.000000
_cell_angle_gamma 90.000000
_cell_volume 754.170252
_symmetry_space_group_name_H-M "P 21 21 21"
_symmetry_group_IT_number 19
_symmetry_cell_setting 'orthorhombic'
loop_
_space_group_symop_operation_xyz
x,y,z
1/2-x,-y,1/2+z
1/2+x,1/2-y,-z
-x,1/2+y,1/2-z
loop_
_atom_site_type_symbol
_atom_site_label
_atom_site_fract_x
_atom_site_fract_y
_atom_site_fract_z
Si Si1 0.690587 0.218887 0.698332
Si Si2 0.534947 0.066968 0.676394
Si Si3 0.833183 0.914434 0.702776
Si Si4 0.020511 0.634228 0.856487
Si Si5 0.303875 0.110469 0.096471
O O1 0.617557 0.064742 0.713223
O O2 0.757443 0.029569 0.643931
O O3 0.720310 0.346787 0.866185
O O4 0.681391 0.463867 0.570071
O O5 0.502345 0.763723 0.690343
O O6 0.515837 0.216540 0.507970
O O7 0.828032 0.599321 0.759425
O O8 0.901534 0.012527 0.606502
O O9 0.839438 0.094920 0.870065
O O10 0.978861 0.374390 0.780677
#
# Coordination Sequence:
#
# PCOD9315241 Si02
#       5
#     4   4   4   4   4
#     4  10  26  43  71  97 140 173 237 273 345 400
#     4  12  29  45  70 104 149 182 226 294 358 412
#     4  10  24  39  71  95 133 175 233 270 334 404
#     4  12  25  46  72 102 142 185 234 282 353 416
#     4  10  24  41  72  96 130 173 230 285 328 398
#
# _framework density 26.519214000000002
#
# number of rings (size 3 to 8) (size 9 to 14) (size 15 to 20)
#    1.200    0.000    0.000    4.800    8.400    1.600 
#    0.000    0.000    0.000    0.000    0.000    0.000 
#    0.000    0.000    0.000    0.000    0.000    0.000 
#
# Total GULP energy -112066.237106 kJ/mol
# GULP energy per Si atom -5603.311855 kJ/mol
# Density = 2.645885 g / cm^3
# Si number density = 26.519214 Si / 1000 Ang^3
#
#
#
# Elastic Constant Matrix: (Units=GPa)
#
#
# Indices 1 2 3 4 5 6 
#
# 1 175.9092 9.9247 3.0163 0.0000 0.0000 0.0000
# 2 9.9247 94.2651 4.5019 0.0000 0.0000 0.0000
# 3 3.0163 4.5019 81.1037 0.0000 0.0000 0.0000
# 4 0.0000 0.0000 0.0000 51.8048 0.0000 0.0000
# 5 0.0000 0.0000 0.0000 0.0000 27.7843 0.0000
# 6 0.0000 0.0000 0.0000 0.0000 0.0000 33.1925
#
#
#
# Elastic Compliance Matrix: (Units=1/GPa)
#
#
# Indices 1 2 3 4 5 6 
#
# 1 0.005721 -0.000594 -0.000180 0.000000 0.000000 0.000000
# 2 -0.000594 0.010698 -0.000572 0.000000 0.000000 0.000000
# 3 -0.000180 -0.000572 0.012368 0.000000 0.000000 0.000000
# 4 0.000000 0.000000 0.000000 0.019303 0.000000 0.000000
# 5 0.000000 0.000000 0.000000 0.000000 0.035991 0.000000
# 6 0.000000 0.000000 0.000000 0.000000 0.000000 0.030127
#
#
# Mechanical properties :
#
#
# Convention : Reuss Voigt Hill
#
# Bulk Modulus (GPa) = 38.31834 42.90706 40.61270
# Shear Modulus (GPa) = 39.80902 44.81199 42.31051
#
# Velocity S-wave (km/s) = 3.87866 4.11517 3.99866
# Velocity P-wave (km/s) = 5.87701 6.22850 6.05531
#
# Compressibility (1/GPa) = 0.02609716
#
# Stress axis : x y z
#
# Youngs Moduli (GPa) = 174.78437 93.47363 80.85172
#
# Poissons Ratio (x) = 0.05550 0.01454
# Poissons Ratio (y) = 0.10378 0.04623
# Poissons Ratio (z) = 0.03143 0.05344
#
# Static dielectric constant tensor:
#      x y z
#    x 2.077360 0.000000 0.000000 
#    y 0.000000 1.989440 0.000000 
#    z 0.000000 0.000000 2.189770 
# 
# From -- ./inp_files/357.got.cif
#   From: 2010.05.17/outbox.cif.g08.bks.cpg/sg19_1_cif.got.tgz:357.got - 2010.06.03 22:46:19.
