data_PCOD9315696
_publ_section_title
;
Structure prediction by ZEFSAII (Michael W. Deem and Ramdas Pophale) SiO2 
 PCOD9315696
Probable space group: P 21 21 21
;
_chemical_formula_sum "Si O2"
_cell_formula_units_Z 32
_cell_length_a 13.765696
_cell_length_b 9.872042
_cell_length_c 9.007379
_cell_angle_alpha 90.000000
_cell_angle_beta 90.000000
_cell_angle_gamma 90.000000
_cell_volume 1224.062535
_symmetry_space_group_name_H-M "P 21 21 21"
_symmetry_group_IT_number 19
_symmetry_cell_setting 'orthorhombic'
loop_
_space_group_symop_operation_xyz
x,y,z
1/2-x,-y,1/2+z
1/2+x,1/2-y,-z
-x,1/2+y,1/2-z
loop_
_atom_site_type_symbol
_atom_site_label
_atom_site_fract_x
_atom_site_fract_y
_atom_site_fract_z
Si Si1 0.855474 0.543840 0.230707
Si Si2 0.030901 0.015647 0.762612
Si Si3 0.764205 0.816745 0.337646
Si Si4 0.918945 0.855451 0.966950
Si Si5 0.959298 0.183323 0.315166
Si Si6 0.712909 0.391235 0.409293
Si Si7 0.340891 0.452732 0.443581
Si Si8 0.076243 0.665692 0.513843
O O1 0.829705 0.686483 0.309552
O O2 0.815321 0.425688 0.335241
O O3 0.970568 0.549933 0.201595
O O4 0.797821 0.552154 0.075580
O O5 0.005291 0.877687 0.848045
O O6 0.942379 0.028064 0.645920
O O7 0.017365 0.136392 0.884786
O O8 0.133107 0.030157 0.688304
O O9 0.809407 0.913892 0.464389
O O10 0.887991 0.008383 0.998362
O O11 0.733158 0.895974 0.184256
O O12 0.832330 0.760365 0.911785
O O13 0.969410 0.786829 0.104751
O O14 0.871220 0.149468 0.424463
O O15 0.934877 0.222951 0.148328
O O16 0.161377 0.737049 0.601077
#
# Coordination Sequence:
#
# PCOD9315696 Si02
#       8
#     4   4   4   4   4   4   4   4
#     4  11  28  46  71 109 155 192 249 306 380 457
#     4   9  21  44  73 101 143 194 250 300 370 443
#     4  11  26  47  77 115 145 197 253 321 363 455
#     4   9  22  44  76 102 146 191 243 309 364 443
#     4  11  23  46  71 110 148 198 244 306 375 442
#     4  11  24  47  70 108 151 196 245 308 383 439
#     4  11  23  44  75 107 146 188 257 302 379 432
#     4   9  23  46  73 108 144 192 255 300 370 441
#
# _framework density 26.142453
#
# number of rings (size 3 to 8) (size 9 to 14) (size 15 to 20)
#    0.750    1.000    2.500    0.750   10.500    1.000 
#    6.750    0.000    0.000    0.000    0.000    0.000 
#    0.000    0.000    0.000    0.000    0.000    0.000 
#
# Total GULP energy -179113.835324 kJ/mol
# GULP energy per Si atom -5597.307354 kJ/mol
# Density = 2.608295 g / cm^3
# Si number density = 26.142453 Si / 1000 Ang^3
#
#
#
# Elastic Constant Matrix: (Units=GPa)
#
#
# Indices 1 2 3 4 5 6 
#
# 1 64.2918 26.0652 34.4374 0.0000 0.0000 0.0000
# 2 26.0652 100.6869 40.8767 0.0000 0.0000 0.0000
# 3 34.4374 40.8767 152.2840 0.0000 0.0000 0.0000
# 4 0.0000 0.0000 0.0000 38.8259 0.0000 0.0000
# 5 0.0000 0.0000 0.0000 0.0000 53.7307 0.0000
# 6 0.0000 0.0000 0.0000 0.0000 0.0000 29.2357
#
#
#
# Elastic Compliance Matrix: (Units=1/GPa)
#
#
# Indices 1 2 3 4 5 6 
#
# 1 0.018744 -0.003514 -0.003295 0.000000 0.000000 0.000000
# 2 -0.003514 0.011805 -0.002374 0.000000 0.000000 0.000000
# 3 -0.003295 -0.002374 0.007949 0.000000 0.000000 0.000000
# 4 0.000000 0.000000 0.000000 0.025756 0.000000 0.000000
# 5 0.000000 0.000000 0.000000 0.000000 0.018611 0.000000
# 6 0.000000 0.000000 0.000000 0.000000 0.000000 0.034205
#
#
# Mechanical properties :
#
#
# Convention : Reuss Voigt Hill
#
# Bulk Modulus (GPa) = 49.67536 57.78013 53.72775
# Shear Modulus (GPa) = 35.17438 38.75071 36.96254
#
# Velocity S-wave (km/s) = 3.67207 3.85423 3.76425
# Velocity P-wave (km/s) = 6.08456 6.47741 6.28405
#
# Compressibility (1/GPa) = 0.02013070
#
# Stress axis : x y z
#
# Youngs Moduli (GPa) = 53.35014 84.70686 125.79942
#
# Poissons Ratio (x) = 0.29770 0.41456
# Poissons Ratio (y) = 0.18750 0.29866
# Poissons Ratio (z) = 0.17581 0.20110
#
# Static dielectric constant tensor:
#      x y z
#    x 2.043930 0.000000 0.000000 
#    y 0.000000 2.086620 0.000000 
#    z 0.000000 0.000000 2.052450 
# 
# From -- ./inp_files/3941.got.cif
#   From: 2010.05.17/outbox.cif.g08.bks.cpg/sg19_2_cif.got.tgz:3941.got - 2010.06.03 22:46:19.
