data_PCOD9315857
_publ_section_title
;
Structure prediction by ZEFSAII (Michael W. Deem and Ramdas Pophale) SiO2 
 PCOD9315857
Probable space group: P 21 21 21
;
_chemical_formula_sum "Si O2"
_cell_formula_units_Z 32
_cell_length_a 5.364485
_cell_length_b 7.971166
_cell_length_c 28.374709
_cell_angle_alpha 90.000000
_cell_angle_beta 90.000000
_cell_angle_gamma 90.000000
_cell_volume 1213.336619
_symmetry_space_group_name_H-M "P 21 21 21"
_symmetry_group_IT_number 19
_symmetry_cell_setting 'orthorhombic'
loop_
_space_group_symop_operation_xyz
x,y,z
1/2-x,-y,1/2+z
1/2+x,1/2-y,-z
-x,1/2+y,1/2-z
loop_
_atom_site_type_symbol
_atom_site_label
_atom_site_fract_x
_atom_site_fract_y
_atom_site_fract_z
Si Si1 0.307610 0.510844 0.077981
Si Si2 0.416756 0.567693 0.666614
Si Si3 0.971766 0.610582 0.297058
Si Si4 0.208436 0.249202 0.718942
Si Si5 0.951953 0.274146 0.470447
Si Si6 0.248361 0.676730 0.488775
Si Si7 0.395126 0.491638 0.898969
Si Si8 0.317019 0.171040 0.353462
O O1 0.496989 0.632611 0.103474
O O2 0.225448 0.387393 0.118778
O O3 0.068478 0.621517 0.065885
O O4 0.396067 0.434246 0.029260
O O5 0.341436 0.705366 0.705149
O O6 0.343706 0.377700 0.682518
O O7 0.702241 0.514964 0.657032
O O8 0.220546 0.654724 0.267202
O O9 0.028385 0.607681 0.352767
O O10 0.821940 0.441022 0.283292
O O11 0.935344 0.264364 0.696331
O O12 0.220594 0.256856 0.494696
O O13 0.911657 0.439846 0.438606
O O14 0.522017 0.689449 0.512579
O O15 0.281535 0.606992 0.435741
O O16 0.306487 0.661358 0.873942
#
# Coordination Sequence:
#
# PCOD9315857 Si02
#       8
#     4   4   4   4   4   4   4   4
#     4  11  25  44  75 103 157 207 262 327 410 483
#     4  11  24  48  76 110 157 202 270 341 413 495
#     4  12  25  49  80 112 159 210 268 343 434 507
#     4  11  25  50  78 112 156 209 267 350 423 522
#     4  12  25  44  78 113 158 219 270 332 405 485
#     4  12  31  47  71 113 169 214 277 338 407 494
#     4  12  26  46  80 114 161 208 284 337 416 508
#     4  11  25  48  78 115 153 209 278 340 424 500
#
# _framework density 26.373555
#
# number of rings (size 3 to 8) (size 9 to 14) (size 15 to 20)
#    0.000    0.500    5.000    2.250    5.250    3.000 
#    2.250    0.000    0.000    0.000    0.000    0.000 
#    0.000    0.000    0.000    0.000    0.000    0.000 
#
# Total GULP energy -178160.079733 kJ/mol
# GULP energy per Si atom -5567.502492 kJ/mol
# Density = 2.631353 g / cm^3
# Si number density = 26.373555 Si / 1000 Ang^3
#
#
#
# Elastic Constant Matrix: (Units=GPa)
#
#
# Indices 1 2 3 4 5 6 
#
# 1 59.5851 5.4099 16.0300 0.0000 0.0000 0.0000
# 2 5.4099 83.1516 24.8722 0.0000 0.0000 0.0000
# 3 16.0300 24.8722 126.7000 0.0000 0.0000 0.0000
# 4 0.0000 0.0000 0.0000 59.9952 0.0000 0.0000
# 5 0.0000 0.0000 0.0000 0.0000 43.0897 0.0000
# 6 0.0000 0.0000 0.0000 0.0000 0.0000 23.3787
#
#
#
# Elastic Compliance Matrix: (Units=1/GPa)
#
#
# Indices 1 2 3 4 5 6 
#
# 1 0.017394 -0.000503 -0.002102 0.000000 0.000000 0.000000
# 2 -0.000503 0.012791 -0.002447 0.000000 0.000000 0.000000
# 3 -0.002102 -0.002447 0.008639 0.000000 0.000000 0.000000
# 4 0.000000 0.000000 0.000000 0.016668 0.000000 0.000000
# 5 0.000000 0.000000 0.000000 0.000000 0.023207 0.000000
# 6 0.000000 0.000000 0.000000 0.000000 0.000000 0.042774
#
#
# Mechanical properties :
#
#
# Convention : Reuss Voigt Hill
#
# Bulk Modulus (GPa) = 34.81960 40.22899 37.52429
# Shear Modulus (GPa) = 35.42311 40.16770 37.79541
#
# Velocity S-wave (km/s) = 3.66885 3.90683 3.78971
# Velocity P-wave (km/s) = 5.58376 5.96974 5.77997
#
# Compressibility (1/GPa) = 0.02871946
#
# Stress axis : x y z
#
# Youngs Moduli (GPa) = 57.49160 78.18003 115.75377
#
# Poissons Ratio (x) = 0.03932 0.24331
# Poissons Ratio (y) = 0.02891 0.28329
# Poissons Ratio (z) = 0.12084 0.19133
#
# Static dielectric constant tensor:
#      x y z
#    x 2.489330 0.000000 0.000000 
#    y 0.000000 2.416000 0.000000 
#    z 0.000000 0.000000 2.061970 
# 
# From -- ./inp_files/7533.got.cif
#   From: 2010.05.17/outbox.cif.g08.bks.cpg/sg19_4_cif.got.tgz:7533.got - 2010.06.03 22:46:19.
