data_PCOD9315487
_publ_section_title
;
Structure prediction by ZEFSAII (Michael W. Deem and Ramdas Pophale) SiO2 
 PCOD9315487
Probable space group: P 21 21 21
;
_chemical_formula_sum "Si O2"
_cell_formula_units_Z 28
_cell_length_a 11.181975
_cell_length_b 8.500212
_cell_length_c 11.820646
_cell_angle_alpha 90.000000
_cell_angle_beta 90.000000
_cell_angle_gamma 90.000000
_cell_volume 1123.542450
_symmetry_space_group_name_H-M "P 21 21 21"
_symmetry_group_IT_number 19
_symmetry_cell_setting 'orthorhombic'
loop_
_space_group_symop_operation_xyz
x,y,z
1/2-x,-y,1/2+z
1/2+x,1/2-y,-z
-x,1/2+y,1/2-z
loop_
_atom_site_type_symbol
_atom_site_label
_atom_site_fract_x
_atom_site_fract_y
_atom_site_fract_z
Si Si1 0.012442 0.906380 0.499336
Si Si2 0.373890 0.820939 0.664516
Si Si3 0.052806 0.448816 0.390030
Si Si4 0.229675 0.987355 0.956293
Si Si5 0.871843 0.181030 0.434897
Si Si6 0.000337 0.097163 0.865713
Si Si7 0.764294 0.035761 0.749468
O O1 0.017538 0.780962 0.602013
O O2 0.951073 0.808277 0.400281
O O3 0.133426 0.972039 0.445516
O O4 0.928512 0.054871 0.519759
O O5 0.284475 0.716605 0.736312
O O6 0.470859 0.951099 0.697546
O O7 0.301451 0.910154 0.567419
O O8 0.033318 0.505373 0.518378
O O9 0.188501 0.498672 0.362885
O O10 0.986635 0.279706 0.385631
O O11 0.204130 0.809570 0.995239
O O12 0.140545 0.049109 0.857121
O O13 0.791706 0.086731 0.342898
O O14 0.905045 0.043583 0.773058
#
# Coordination Sequence:
#
# PCOD9315487 Si02
#       7
#     4   4   4   4   4   4   4
#     4   9  16  32  50  69 108 136 167 214 252 313
#     4   8  17  30  49  79  97 137 173 202 271 309
#     4   9  19  33  47  81 111 127 176 225 257 308
#     4   9  17  31  47  76 109 129 174 218 246 318
#     4   9  20  28  51  80 100 133 174 222 271 291
#     4   9  20  32  51  80  99 148 175 192 274 314
#     4  11  17  32  55  75 108 138 169 221 263 315
#
# _framework density 24.921177
#
# number of rings (size 3 to 8) (size 9 to 14) (size 15 to 20)
#    0.000    3.429    1.429    0.857    4.000    0.000 
#    0.000    0.000    0.000    3.429    0.000    0.000 
#    0.000    0.000    0.000    0.000    0.000    0.000 
#
# Total GULP energy -156111.812919 kJ/mol
# GULP energy per Si atom -5575.421890 kJ/mol
# Density = 2.486446 g / cm^3
# Si number density = 24.921177 Si / 1000 Ang^3
#
#
#
# Elastic Constant Matrix: (Units=GPa)
#
#
# Indices 1 2 3 4 5 6 
#
# 1 86.0500 44.0950 17.8146 0.0000 0.0000 0.0000
# 2 44.0950 146.4489 22.2686 0.0000 0.0000 0.0000
# 3 17.8146 22.2686 51.2309 0.0000 0.0000 0.0000
# 4 0.0000 0.0000 0.0000 13.5423 0.0000 0.0000
# 5 0.0000 0.0000 0.0000 0.0000 21.6850 0.0000
# 6 0.0000 0.0000 0.0000 0.0000 0.0000 9.8728
#
#
#
# Elastic Compliance Matrix: (Units=1/GPa)
#
#
# Indices 1 2 3 4 5 6 
#
# 1 0.014246 -0.003786 -0.003308 0.000000 0.000000 0.000000
# 2 -0.003786 0.008318 -0.002299 0.000000 0.000000 0.000000
# 3 -0.003308 -0.002299 0.021669 0.000000 0.000000 0.000000
# 4 0.000000 0.000000 0.000000 0.073843 0.000000 0.000000
# 5 0.000000 0.000000 0.000000 0.000000 0.046115 0.000000
# 6 0.000000 0.000000 0.000000 0.000000 0.000000 0.101289
#
#
# Mechanical properties :
#
#
# Convention : Reuss Voigt Hill
#
# Bulk Modulus (GPa) = 39.29808 50.23179 44.76493
# Shear Modulus (GPa) = 17.07952 22.32347 19.70149
#
# Velocity S-wave (km/s) = 2.62074 2.99618 2.81473
# Velocity P-wave (km/s) = 4.99609 5.67181 5.34464
#
# Compressibility (1/GPa) = 0.02544653
#
# Stress axis : x y z
#
# Youngs Moduli (GPa) = 70.19361 120.22154 46.14880
#
# Poissons Ratio (x) = 0.45522 0.15266
# Poissons Ratio (y) = 0.26579 0.10609
# Poissons Ratio (z) = 0.23220 0.27638
#
# Static dielectric constant tensor:
#      x y z
#    x 2.074730 0.000000 0.000000 
#    y 0.000000 2.012620 0.000000 
#    z 0.000000 0.000000 2.068470 
# 
# From -- ./inp_files/4204.got.cif
#   From: 2010.05.17/outbox.cif.g08.bks.cpg/sg19_3_cif.got.tgz:4204.got - 2010.06.03 22:46:19.
