data_PCOD9315864
_publ_section_title
;
Structure prediction by ZEFSAII (Michael W. Deem and Ramdas Pophale) SiO2 
 PCOD9315864
Probable space group: P 21 21 21
;
_chemical_formula_sum "Si O2"
_cell_formula_units_Z 28
_cell_length_a 10.144819
_cell_length_b 8.135277
_cell_length_c 14.002780
_cell_angle_alpha 90.000000
_cell_angle_beta 90.000000
_cell_angle_gamma 90.000000
_cell_volume 1155.662213
_symmetry_space_group_name_H-M "P 21 21 21"
_symmetry_group_IT_number 19
_symmetry_cell_setting 'orthorhombic'
loop_
_space_group_symop_operation_xyz
x,y,z
1/2-x,-y,1/2+z
1/2+x,1/2-y,-z
-x,1/2+y,1/2-z
loop_
_atom_site_type_symbol
_atom_site_label
_atom_site_fract_x
_atom_site_fract_y
_atom_site_fract_z
Si Si1 0.833655 0.256625 0.568774
Si Si2 0.142447 0.521171 0.104411
Si Si3 0.553994 0.248978 0.284102
Si Si4 0.410539 0.340071 0.103057
Si Si5 0.777125 0.048237 0.185020
Si Si6 0.772207 0.512405 0.913760
Si Si7 0.021657 0.168103 0.082212
O O1 0.746378 0.392789 0.514404
O O2 0.953112 0.319186 0.635617
O O3 0.890923 0.150758 0.478238
O O4 0.752222 0.129044 0.636414
O O5 0.295860 0.472650 0.088771
O O6 0.140317 0.561956 0.216199
O O7 0.062591 0.354008 0.096668
O O8 0.459097 0.341164 0.210462
O O9 0.641438 0.137274 0.213144
O O10 0.652770 0.368073 0.341038
O O11 0.349907 0.159353 0.081738
O O12 0.528044 0.364109 0.030261
O O13 0.872007 0.139949 0.111676
O O14 0.627663 0.458314 0.874672
#
# Coordination Sequence:
#
# PCOD9315864 Si02
#       7
#     4   4   4   4   4   4   4
#     4  12  26  49  79 114 156 199 264 323 377 472
#     4  11  24  49  72 111 151 200 253 316 393 448
#     4  12  26  48  77 115 148 205 260 312 389 464
#     4  11  25  50  76 111 155 201 256 319 390 467
#     4  12  26  47  75 110 156 202 254 326 386 456
#     4  11  28  46  78 116 146 207 260 316 399 452
#     4  11  27  49  73 109 158 202 253 330 386 455
#
# _framework density 24.228532999999999
#
# number of rings (size 3 to 8) (size 9 to 14) (size 15 to 20)
#    0.000    0.571    4.286    2.571    8.000    0.000 
#    2.571    0.000    0.000    0.000    0.000    0.000 
#    0.000    0.000    0.000    0.000    0.000    0.000 
#
# Total GULP energy -156607.577060 kJ/mol
# GULP energy per Si atom -5593.127752 kJ/mol
# Density = 2.417339 g / cm^3
# Si number density = 24.228533 Si / 1000 Ang^3
#
#
#
# Elastic Constant Matrix: (Units=GPa)
#
#
# Indices 1 2 3 4 5 6 
#
# 1 94.2300 30.0046 31.5874 0.0000 0.0000 0.0000
# 2 30.0046 58.2494 30.3368 0.0000 0.0000 0.0000
# 3 31.5874 30.3368 139.4735 0.0000 0.0000 0.0000
# 4 0.0000 0.0000 0.0000 22.6826 0.0000 0.0000
# 5 0.0000 0.0000 0.0000 0.0000 47.0053 0.0000
# 6 0.0000 0.0000 0.0000 0.0000 0.0000 32.7898
#
#
#
# Elastic Compliance Matrix: (Units=1/GPa)
#
#
# Indices 1 2 3 4 5 6 
#
# 1 0.013035 -0.005838 -0.001682 0.000000 0.000000 0.000000
# 2 -0.005838 0.021976 -0.003458 0.000000 0.000000 0.000000
# 3 -0.001682 -0.003458 0.008303 0.000000 0.000000 0.000000
# 4 0.000000 0.000000 0.000000 0.044087 0.000000 0.000000
# 5 0.000000 0.000000 0.000000 0.000000 0.021274 0.000000
# 6 0.000000 0.000000 0.000000 0.000000 0.000000 0.030497
#
#
# Mechanical properties :
#
#
# Convention : Reuss Voigt Hill
#
# Bulk Modulus (GPa) = 46.82256 52.86784 49.84520
# Shear Modulus (GPa) = 29.71806 33.83048 31.77427
#
# Velocity S-wave (km/s) = 3.50605 3.74077 3.62531
# Velocity P-wave (km/s) = 5.97973 6.36598 6.17587
#
# Compressibility (1/GPa) = 0.02135722
#
# Stress axis : x y z
#
# Youngs Moduli (GPa) = 76.71470 45.50472 120.43999
#
# Poissons Ratio (x) = 0.26568 0.20261
# Poissons Ratio (y) = 0.44789 0.41644
# Poissons Ratio (z) = 0.12906 0.15734
#
# Static dielectric constant tensor:
#      x y z
#    x 1.930140 0.000000 0.000000 
#    y 0.000000 1.970350 0.000000 
#    z 0.000000 0.000000 1.947280 
# 
# From -- ./inp_files/6065.got.cif
#   From: 2010.05.17/outbox.cif.g08.bks.cpg/sg19_4_cif.got.tgz:6065.got - 2010.06.03 22:46:19.
