data_PCOD9315212
_publ_section_title
;
Structure prediction by ZEFSAII (Michael W. Deem and Ramdas Pophale) SiO2 
 PCOD9315212
Probable space group: P 21 21 21
;
_chemical_formula_sum "Si O2"
_cell_formula_units_Z 32
_cell_length_a 5.352935
_cell_length_b 12.236787
_cell_length_c 17.810533
_cell_angle_alpha 90.000000
_cell_angle_beta 90.000000
_cell_angle_gamma 90.000000
_cell_volume 1166.638453
_symmetry_space_group_name_H-M "P 21 21 21"
_symmetry_group_IT_number 19
_symmetry_cell_setting 'orthorhombic'
loop_
_space_group_symop_operation_xyz
x,y,z
1/2-x,-y,1/2+z
1/2+x,1/2-y,-z
-x,1/2+y,1/2-z
loop_
_atom_site_type_symbol
_atom_site_label
_atom_site_fract_x
_atom_site_fract_y
_atom_site_fract_z
Si Si1 0.247047 0.754789 0.622733
Si Si2 0.496614 0.102454 0.347797
Si Si3 0.621743 0.878635 0.966526
Si Si4 0.670712 0.199269 0.617363
Si Si5 0.632878 0.824794 0.730944
Si Si6 0.393154 0.891921 0.267097
Si Si7 0.017854 0.901978 0.489595
Si Si8 0.687287 0.004642 0.131756
O O1 0.380581 0.831717 0.683969
O O2 0.074898 0.673615 0.673232
O O3 0.167670 0.829123 0.550160
O O4 0.439033 0.672341 0.579701
O O5 0.609764 0.091740 0.430878
O O6 0.329954 0.211557 0.336396
O O7 0.763469 0.112064 0.302928
O O8 0.347044 0.002699 0.312370
O O9 0.534963 0.769959 0.923719
O O10 0.639309 0.842577 0.052754
O O11 0.418967 0.976588 0.958348
O O12 0.581579 0.078950 0.642873
O O13 0.678655 0.697461 0.745062
O O14 0.820489 0.878550 0.671523
O O15 0.503524 0.932863 0.186975
O O16 0.806763 0.950902 0.546071
#
# Coordination Sequence:
#
# PCOD9315212 Si02
#       8
#     4   4   4   4   4   4   4   4
#     4  12  26  46  73 104 141 188 242 290 361 419
#     4  11  24  44  68 100 140 180 236 294 354 427
#     4  11  24  42  65 106 134 186 238 286 358 421
#     4  11  23  41  68  95 140 184 229 295 352 423
#     4  11  25  46  70 104 135 187 237 290 357 426
#     4  11  24  46  71 101 142 181 232 302 349 425
#     4  11  25  46  71 102 141 185 238 297 348 427
#     4  10  23  47  68 100 143 181 234 290 355 418
#
# _framework density 27.429237000000001
#
# number of rings (size 3 to 8) (size 9 to 14) (size 15 to 20)
#    0.000    1.000    5.000    0.750    3.500    1.000 
#    4.500    0.000    0.000    0.000    0.000    0.000 
#    0.000    0.000    0.000    0.000    0.000    0.000 
#
# Total GULP energy -178160.146803 kJ/mol
# GULP energy per Si atom -5567.504588 kJ/mol
# Density = 2.736681 g / cm^3
# Si number density = 27.429237 Si / 1000 Ang^3
#
#
#
# Elastic Constant Matrix: (Units=GPa)
#
#
# Indices 1 2 3 4 5 6 
#
# 1 22.1670 -9.9445 -14.0524 0.0000 0.0000 0.0000
# 2 -9.9445 115.5283 -26.1263 0.0000 0.0000 0.0000
# 3 -14.0524 -26.1263 96.2445 0.0000 0.0000 0.0000
# 4 0.0000 0.0000 0.0000 23.4512 0.0000 0.0000
# 5 0.0000 0.0000 0.0000 0.0000 25.5847 0.0000
# 6 0.0000 0.0000 0.0000 0.0000 0.0000 24.2116
#
#
#
# Elastic Compliance Matrix: (Units=1/GPa)
#
#
# Indices 1 2 3 4 5 6 
#
# 1 0.054438 0.006908 0.009823 0.000000 0.000000 0.000000
# 2 0.006908 0.010098 0.003750 0.000000 0.000000 0.000000
# 3 0.009823 0.003750 0.012842 0.000000 0.000000 0.000000
# 4 0.000000 0.000000 0.000000 0.042642 0.000000 0.000000
# 5 0.000000 0.000000 0.000000 0.000000 0.039086 0.000000
# 6 0.000000 0.000000 0.000000 0.000000 0.000000 0.041303
#
#
# Mechanical properties :
#
#
# Convention : Reuss Voigt Hill
#
# Bulk Modulus (GPa) = 8.45016 14.85483 11.65249
# Shear Modulus (GPa) = 25.13892 33.58702 29.36297
#
# Velocity S-wave (km/s) = 3.03066 3.50308 3.27540
# Velocity P-wave (km/s) = 3.91586 4.66792 4.30833
#
# Compressibility (1/GPa) = 0.11834102
#
# Stress axis : x y z
#
# Youngs Moduli (GPa) = 18.36940 99.02463 77.86690
#
# Poissons Ratio (x) = -0.68402 -0.76492
# Poissons Ratio (y) = -0.12689 -0.29199
# Poissons Ratio (z) = -0.18045 -0.37133
#
# Static dielectric constant tensor:
#      x y z
#    x 2.305220 0.000000 0.000000 
#    y 0.000000 2.380240 0.000000 
#    z 0.000000 0.000000 2.411830 
# 
# From -- ./inp_files/6902.got.cif
#   From: 2010.05.17/outbox.cif.g08.bks.cpg/sg19_4_cif.got.tgz:6902.got - 2010.06.03 22:46:19.
