data_PCOD9315985
_publ_section_title
;
Structure prediction by ZEFSAII (Michael W. Deem and Ramdas Pophale) SiO2 
 PCOD9315985
Probable space group: P 21 21 21
;
_chemical_formula_sum "Si O2"
_cell_formula_units_Z 20
_cell_length_a 11.821930
_cell_length_b 7.176526
_cell_length_c 9.772818
_cell_angle_alpha 90.000000
_cell_angle_beta 90.000000
_cell_angle_gamma 90.000000
_cell_volume 829.129671
_symmetry_space_group_name_H-M "P 21 21 21"
_symmetry_group_IT_number 19
_symmetry_cell_setting 'orthorhombic'
loop_
_space_group_symop_operation_xyz
x,y,z
1/2-x,-y,1/2+z
1/2+x,1/2-y,-z
-x,1/2+y,1/2-z
loop_
_atom_site_type_symbol
_atom_site_label
_atom_site_fract_x
_atom_site_fract_y
_atom_site_fract_z
Si Si1 0.420240 0.022794 0.474419
Si Si2 0.380341 0.608380 0.529863
Si Si3 0.567168 0.504720 0.342982
Si Si4 0.259670 0.287958 0.649433
Si Si5 0.595840 0.772794 0.582740
O O1 0.361164 0.819404 0.485095
O O2 0.431072 0.062139 0.314268
O O3 0.346448 0.166797 0.557799
O O4 0.540127 0.970857 0.543772
O O5 0.439880 0.500141 0.403048
O O6 0.488038 0.642070 0.632884
O O7 0.277816 0.495251 0.591797
O O8 0.640333 0.317102 0.358059
O O9 0.620287 0.663118 0.441450
O O10 0.311585 0.286089 0.801581
#
# Coordination Sequence:
#
# PCOD9315985 Si02
#       5
#     4   4   4   4   4
#     4   9  21  38  59  85 123 158 197 259 298 359
#     4   8  23  36  55  91 119 157 198 244 309 355
#     4   9  21  37  61  91 121 155 211 243 301 370
#     4  12  18  39  67  85 121 165 202 254 302 367
#     4   8  21  38  56  90 116 155 202 244 310 355
#
# _framework density 24.121680999999999
#
# number of rings (size 3 to 8) (size 9 to 14) (size 15 to 20)
#    2.400    0.000    0.000    2.400    5.600    0.000 
#    0.000   12.000    0.000    0.000    0.000    0.000 
#    0.000    0.000    0.000    0.000    0.000    0.000 
#
# Total GULP energy -111504.156044 kJ/mol
# GULP energy per Si atom -5575.207802 kJ/mol
# Density = 2.406678 g / cm^3
# Si number density = 24.121681 Si / 1000 Ang^3
#
#
#
# Elastic Constant Matrix: (Units=GPa)
#
#
# Indices 1 2 3 4 5 6 
#
# 1 68.5134 25.7177 13.2019 0.0000 0.0000 0.0000
# 2 25.7177 96.1410 40.0278 0.0000 0.0000 0.0000
# 3 13.2019 40.0278 134.9543 0.0000 0.0000 0.0000
# 4 0.0000 0.0000 0.0000 19.5518 0.0000 0.0000
# 5 0.0000 0.0000 0.0000 0.0000 25.3986 0.0000
# 6 0.0000 0.0000 0.0000 0.0000 0.0000 43.0876
#
#
#
# Elastic Compliance Matrix: (Units=1/GPa)
#
#
# Indices 1 2 3 4 5 6 
#
# 1 0.016239 -0.004201 -0.000342 0.000000 0.000000 0.000000
# 2 -0.004201 0.012954 -0.003431 0.000000 0.000000 0.000000
# 3 -0.000342 -0.003431 0.008461 0.000000 0.000000 0.000000
# 4 0.000000 0.000000 0.000000 0.051146 0.000000 0.000000
# 5 0.000000 0.000000 0.000000 0.000000 0.039372 0.000000
# 6 0.000000 0.000000 0.000000 0.000000 0.000000 0.023209
#
#
# Mechanical properties :
#
#
# Convention : Reuss Voigt Hill
#
# Bulk Modulus (GPa) = 46.07476 50.83373 48.45425
# Shear Modulus (GPa) = 28.64263 32.31834 30.48049
#
# Velocity S-wave (km/s) = 3.44964 3.66431 3.55859
# Velocity P-wave (km/s) = 5.91685 6.24680 6.08406
#
# Compressibility (1/GPa) = 0.02170386
#
# Stress axis : x y z
#
# Youngs Moduli (GPa) = 61.58133 77.19755 118.18792
#
# Poissons Ratio (x) = 0.32433 0.04047
# Poissons Ratio (y) = 0.25872 0.40552
# Poissons Ratio (z) = 0.02109 0.26488
#
# Static dielectric constant tensor:
#      x y z
#    x 2.038830 0.000000 0.000000 
#    y 0.000000 1.946540 0.000000 
#    z 0.000000 0.000000 1.881960 
# 
# From -- ./inp_files/3820.got.cif
#   From: 2010.05.17/outbox.cif.g08.bks.cpg/sg19_2_cif.got.tgz:3820.got - 2010.06.03 22:46:19.
