data_PCOD9315681
_publ_section_title
;
Structure prediction by ZEFSAII (Michael W. Deem and Ramdas Pophale) SiO2 
 PCOD9315681
Probable space group: P 21 21 21
;
_chemical_formula_sum "Si O2"
_cell_formula_units_Z 28
_cell_length_a 11.280690
_cell_length_b 20.174111
_cell_length_c 5.341483
_cell_angle_alpha 90.000000
_cell_angle_beta 90.000000
_cell_angle_gamma 90.000000
_cell_volume 1215.603442
_symmetry_space_group_name_H-M "P 21 21 21"
_symmetry_group_IT_number 19
_symmetry_cell_setting 'orthorhombic'
loop_
_space_group_symop_operation_xyz
x,y,z
1/2-x,-y,1/2+z
1/2+x,1/2-y,-z
-x,1/2+y,1/2-z
loop_
_atom_site_type_symbol
_atom_site_label
_atom_site_fract_x
_atom_site_fract_y
_atom_site_fract_z
Si Si1 0.934022 0.142707 0.637569
Si Si2 0.698472 0.817934 0.634443
Si Si3 0.947288 0.501160 0.769989
Si Si4 0.459143 0.124214 0.505970
Si Si5 0.890303 0.765268 0.965069
Si Si6 0.215700 0.928697 0.382268
Si Si7 0.792459 0.305527 0.840180
O O1 0.872733 0.151157 0.366698
O O2 0.669366 0.191490 0.242297
O O3 0.990459 0.070051 0.669746
O O4 0.843118 0.149628 0.872484
O O5 0.969805 0.703351 0.866061
O O6 0.673628 0.741180 0.570362
O O7 0.008258 0.446267 0.592499
O O8 0.819224 0.519540 0.654233
O O9 0.903910 0.462589 0.015702
O O10 0.545607 0.177315 0.630361
O O11 0.335298 0.108353 0.642338
O O12 0.413507 0.168552 0.275833
O O13 0.788571 0.732986 0.141505
O O14 0.268469 0.872284 0.562492
#
# Coordination Sequence:
#
# PCOD9315681 Si02
#       7
#     4   4   4   4   4   4   4
#     4  12  28  45  76 107 148 195 251 300 382 439
#     4  12  26  48  69 109 146 191 248 301 365 452
#     4  11  25  42  71 105 143 199 234 317 366 449
#     4  11  24  46  69 111 144 193 247 307 380 439
#     4  12  25  45  75 107 147 194 250 312 371 443
#     4  11  23  43  70 105 151 185 251 301 380 446
#     4  11  23  43  70 108 145 189 243 308 368 440
#
# _framework density 23.033828
#
# number of rings (size 3 to 8) (size 9 to 14) (size 15 to 20)
#    0.000    0.571    4.286    3.429    8.000    2.286 
#    0.000    1.429    0.000    0.000    0.000    0.000 
#    0.000    0.000    0.000    0.000    0.000    0.000 
#
# Total GULP energy -156147.858077 kJ/mol
# GULP energy per Si atom -5576.709217 kJ/mol
# Density = 2.298140 g / cm^3
# Si number density = 23.033828 Si / 1000 Ang^3
#
#
#
# Elastic Constant Matrix: (Units=GPa)
#
#
# Indices 1 2 3 4 5 6 
#
# 1 49.6453 48.9165 28.2910 0.0000 0.0000 0.0000
# 2 48.9165 154.6926 33.4694 0.0000 0.0000 0.0000
# 3 28.2910 33.4694 97.9775 0.0000 0.0000 0.0000
# 4 0.0000 0.0000 0.0000 32.0879 0.0000 0.0000
# 5 0.0000 0.0000 0.0000 0.0000 27.5473 0.0000
# 6 0.0000 0.0000 0.0000 0.0000 0.0000 31.3845
#
#
#
# Elastic Compliance Matrix: (Units=1/GPa)
#
#
# Indices 1 2 3 4 5 6 
#
# 1 0.032551 -0.008919 -0.006352 0.000000 0.000000 0.000000
# 2 -0.008919 0.009424 -0.000644 0.000000 0.000000 0.000000
# 3 -0.006352 -0.000644 0.012261 0.000000 0.000000 0.000000
# 4 0.000000 0.000000 0.000000 0.031164 0.000000 0.000000
# 5 0.000000 0.000000 0.000000 0.000000 0.036301 0.000000
# 6 0.000000 0.000000 0.000000 0.000000 0.000000 0.031863
#
#
# Mechanical properties :
#
#
# Convention : Reuss Voigt Hill
#
# Bulk Modulus (GPa) = 44.63243 58.18546 51.40894
# Shear Modulus (GPa) = 25.92527 30.97984 28.45255
#
# Velocity S-wave (km/s) = 3.35853 3.67136 3.51843
# Velocity P-wave (km/s) = 5.87015 6.57933 6.23483
#
# Compressibility (1/GPa) = 0.02240524
#
# Stress axis : x y z
#
# Youngs Moduli (GPa) = 30.72145 106.11198 81.56169
#
# Poissons Ratio (x) = 0.94638 0.51811
# Poissons Ratio (y) = 0.27399 0.05253
# Poissons Ratio (z) = 0.19515 0.06834
#
# Static dielectric constant tensor:
#      x y z
#    x 2.009400 0.000000 0.000000 
#    y 0.000000 1.975200 0.000000 
#    z 0.000000 0.000000 2.045310 
# 
# From -- ./inp_files/1063.got.cif
#   From: 2010.05.17/outbox.cif.g08.bks.cpg/sg19_1_cif.got.tgz:1063.got - 2010.06.03 22:46:19.
