data_PCOD9315688
_publ_section_title
;
Structure prediction by ZEFSAII (Michael W. Deem and Ramdas Pophale) SiO2 
 PCOD9315688
Probable space group: P 21 21 21
;
_chemical_formula_sum "Si O2"
_cell_formula_units_Z 16
_cell_length_a 8.312935
_cell_length_b 8.344798
_cell_length_c 9.864491
_cell_angle_alpha 90.000000
_cell_angle_beta 90.000000
_cell_angle_gamma 90.000000
_cell_volume 684.297406
_symmetry_space_group_name_H-M "P 21 21 21"
_symmetry_group_IT_number 19
_symmetry_cell_setting 'orthorhombic'
loop_
_space_group_symop_operation_xyz
x,y,z
1/2-x,-y,1/2+z
1/2+x,1/2-y,-z
-x,1/2+y,1/2-z
loop_
_atom_site_type_symbol
_atom_site_label
_atom_site_fract_x
_atom_site_fract_y
_atom_site_fract_z
Si Si1 0.842501 0.104609 0.397633
Si Si2 0.839824 0.293466 0.673363
Si Si3 0.988647 0.095801 0.903344
Si Si4 0.006754 0.282594 0.182791
O O1 0.875252 0.191427 0.538808
O O2 0.857188 0.232098 0.275795
O O3 0.670678 0.016609 0.404652
O O4 0.970297 0.964249 0.365087
O O5 0.954839 0.234132 0.794491
O O6 0.661729 0.252600 0.723724
O O7 0.869200 0.477949 0.639323
O O8 0.012128 0.171968 0.050230
#
# Coordination Sequence:
#
# PCOD9315688 Si02
#       4
#     4   4   4   4
#     4  11  23  44  67  97 132 172 223 281 338 401
#     4  11  24  42  67  96 132 177 224 277 336 401
#     4  11  24  43  64  97 134 175 225 279 335 401
#     4  11  25  43  68  98 134 178 224 279 339 399
#
# _framework density 23.381644000000001
#
# number of rings (size 3 to 8) (size 9 to 14) (size 15 to 20)
#    0.000    1.000    0.000    7.500    0.000   12.000 
#    0.000    0.000    0.000    0.000    0.000    0.000 
#    0.000    0.000    0.000    0.000    0.000    0.000 
#
# Total GULP energy -89675.408536 kJ/mol
# GULP energy per Si atom -5604.713034 kJ/mol
# Density = 2.332843 g / cm^3
# Si number density = 23.381644 Si / 1000 Ang^3
#
#
#
# Elastic Constant Matrix: (Units=GPa)
#
#
# Indices 1 2 3 4 5 6 
#
# 1 46.7182 37.1268 16.4550 0.0000 0.0000 0.0000
# 2 37.1268 81.7052 65.7609 0.0000 0.0000 0.0000
# 3 16.4550 65.7609 182.6428 0.0000 0.0000 0.0000
# 4 0.0000 0.0000 0.0000 60.9012 0.0000 0.0000
# 5 0.0000 0.0000 0.0000 0.0000 36.9622 0.0000
# 6 0.0000 0.0000 0.0000 0.0000 0.0000 35.5342
#
#
#
# Elastic Compliance Matrix: (Units=1/GPa)
#
#
# Indices 1 2 3 4 5 6 
#
# 1 0.035140 -0.018895 0.003637 0.000000 0.000000 0.000000
# 2 -0.018895 0.027393 -0.008161 0.000000 0.000000 0.000000
# 3 0.003637 -0.008161 0.008086 0.000000 0.000000 0.000000
# 4 0.000000 0.000000 0.000000 0.016420 0.000000 0.000000
# 5 0.000000 0.000000 0.000000 0.000000 0.027055 0.000000
# 6 0.000000 0.000000 0.000000 0.000000 0.000000 0.028142
#
#
# Mechanical properties :
#
#
# Convention : Reuss Voigt Hill
#
# Bulk Modulus (GPa) = 42.04880 61.08350 51.56615
# Shear Modulus (GPa) = 25.38087 39.46107 32.42097
#
# Velocity S-wave (km/s) = 3.29827 4.11261 3.72775
# Velocity P-wave (km/s) = 5.70329 6.98088 6.37418
#
# Compressibility (1/GPa) = 0.02378189
#
# Stress axis : x y z
#
# Youngs Moduli (GPa) = 28.45797 36.50556 123.67481
#
# Poissons Ratio (x) = 0.68977 -0.44984
# Poissons Ratio (y) = 0.53771 1.00926
# Poissons Ratio (z) = -0.10351 0.29791
#
# Static dielectric constant tensor:
#      x y z
#    x 1.931240 0.000000 0.000000 
#    y 0.000000 1.874390 0.000000 
#    z 0.000000 0.000000 1.811270 
# 
# From -- ./inp_files/2531.got.cif
#   From: 2010.05.17/outbox.cif.g08.bks.cpg/sg19_2_cif.got.tgz:2531.got - 2010.06.03 22:46:19.
