data_PCOD9315861
_publ_section_title
;
Structure prediction by ZEFSAII (Michael W. Deem and Ramdas Pophale) SiO2 
 PCOD9315861
Probable space group: P 21 21 21
;
_chemical_formula_sum "Si O2"
_cell_formula_units_Z 24
_cell_length_a 7.136209
_cell_length_b 9.109620
_cell_length_c 14.329030
_cell_angle_alpha 90.000000
_cell_angle_beta 90.000000
_cell_angle_gamma 90.000000
_cell_volume 931.503764
_symmetry_space_group_name_H-M "P 21 21 21"
_symmetry_group_IT_number 19
_symmetry_cell_setting 'orthorhombic'
loop_
_space_group_symop_operation_xyz
x,y,z
1/2-x,-y,1/2+z
1/2+x,1/2-y,-z
-x,1/2+y,1/2-z
loop_
_atom_site_type_symbol
_atom_site_label
_atom_site_fract_x
_atom_site_fract_y
_atom_site_fract_z
Si Si1 0.522518 0.139225 0.643035
Si Si2 0.393838 0.302010 0.827110
Si Si3 0.361689 0.082664 0.983806
Si Si4 0.971581 0.471899 0.647908
Si Si5 0.336706 0.774336 0.023631
Si Si6 0.560607 0.714469 0.319323
O O1 0.481479 0.228305 0.736098
O O2 0.344151 0.163736 0.575916
O O3 0.687677 0.203203 0.578386
O O4 0.548098 0.969138 0.661914
O O5 0.453175 0.201050 0.914771
O O6 0.166746 0.302153 0.819832
O O7 0.174072 0.040416 0.926208
O O8 0.354539 0.157966 0.084148
O O9 0.454577 0.923565 0.001718
O O10 0.089592 0.610194 0.687773
O O11 0.087089 0.349709 0.592655
O O12 0.875881 0.390157 0.735159
#
# Coordination Sequence:
#
# PCOD9315861 Si02
#       6
#     4   4   4   4   4   4
#     4  12  27  52  79 118 163 209 282 329 413 483
#     4  11  27  52  80 117 161 221 268 345 399 492
#     4  11  26  46  79 116 159 210 269 331 402 483
#     4  11  24  48  80 115 157 222 267 333 408 479
#     4  12  25  48  79 114 161 214 264 338 400 479
#     4  11  25  48  79 114 163 212 274 332 414 484
#
# _framework density 25.764790999999999
#
# number of rings (size 3 to 8) (size 9 to 14) (size 15 to 20)
#    0.000    0.667    3.333    3.000    7.000    1.333 
#    3.000    0.000    0.000    0.000    0.000    0.000 
#    0.000    0.000    0.000    0.000    0.000    0.000 
#
# Total GULP energy -134529.909599 kJ/mol
# GULP energy per Si atom -5605.412900 kJ/mol
# Density = 2.570615 g / cm^3
# Si number density = 25.764791 Si / 1000 Ang^3
#
#
#
# Elastic Constant Matrix: (Units=GPa)
#
#
# Indices 1 2 3 4 5 6 
#
# 1 85.4436 28.5715 -1.9090 0.0000 0.0000 0.0000
# 2 28.5715 246.0099 75.8911 0.0000 0.0000 0.0000
# 3 -1.9090 75.8911 163.0603 0.0000 0.0000 0.0000
# 4 0.0000 0.0000 0.0000 68.4141 0.0000 0.0000
# 5 0.0000 0.0000 0.0000 0.0000 33.0542 0.0000
# 6 0.0000 0.0000 0.0000 0.0000 0.0000 38.6561
#
#
#
# Elastic Compliance Matrix: (Units=1/GPa)
#
#
# Indices 1 2 3 4 5 6 
#
# 1 0.012300 -0.001720 0.000944 0.000000 0.000000 0.000000
# 2 -0.001720 0.004987 -0.002341 0.000000 0.000000 0.000000
# 3 0.000944 -0.002341 0.007233 0.000000 0.000000 0.000000
# 4 0.000000 0.000000 0.000000 0.014617 0.000000 0.000000
# 5 0.000000 0.000000 0.000000 0.000000 0.030253 0.000000
# 6 0.000000 0.000000 0.000000 0.000000 0.000000 0.025869
#
#
# Mechanical properties :
#
#
# Convention : Reuss Voigt Hill
#
# Bulk Modulus (GPa) = 54.68367 77.73570 66.20968
# Shear Modulus (GPa) = 46.47360 54.15556 50.31458
#
# Velocity S-wave (km/s) = 4.25168 4.58965 4.42389
# Velocity P-wave (km/s) = 6.73592 7.63697 7.20055
#
# Compressibility (1/GPa) = 0.01828700
#
# Stress axis : x y z
#
# Youngs Moduli (GPa) = 81.30198 200.52874 138.24877
#
# Poissons Ratio (x) = 0.34488 -0.13057
# Poissons Ratio (y) = 0.13983 0.32365
# Poissons Ratio (z) = -0.07678 0.46945
#
# Static dielectric constant tensor:
#      x y z
#    x 2.180380 0.000000 0.000000 
#    y 0.000000 2.015560 0.000000 
#    z 0.000000 0.000000 1.986590 
# 
# From -- ./inp_files/5836.got.cif
#   From: 2010.05.17/outbox.cif.g08.bks.cpg/sg19_3_cif.got.tgz:5836.got - 2010.06.03 22:46:19.
