data_PCOD9315547
_publ_section_title
;
Structure prediction by ZEFSAII (Michael W. Deem and Ramdas Pophale) SiO2 
 PCOD9315547
Probable space group: P 21 21 21
;
_chemical_formula_sum "Si O2"
_cell_formula_units_Z 20
_cell_length_a 9.679913
_cell_length_b 6.317769
_cell_length_c 13.916026
_cell_angle_alpha 90.000000
_cell_angle_beta 90.000000
_cell_angle_gamma 90.000000
_cell_volume 851.040892
_symmetry_space_group_name_H-M "P 21 21 21"
_symmetry_group_IT_number 19
_symmetry_cell_setting 'orthorhombic'
loop_
_space_group_symop_operation_xyz
x,y,z
1/2-x,-y,1/2+z
1/2+x,1/2-y,-z
-x,1/2+y,1/2-z
loop_
_atom_site_type_symbol
_atom_site_label
_atom_site_fract_x
_atom_site_fract_y
_atom_site_fract_z
Si Si1 0.866572 0.881096 0.967990
Si Si2 0.162689 0.371208 0.163941
Si Si3 0.628876 0.851411 0.648633
Si Si4 0.910513 0.638002 0.637534
Si Si5 0.121397 0.987611 0.651887
O O1 0.743588 0.023344 0.924177
O O2 0.011950 0.950111 0.917787
O O3 0.835221 0.646990 0.931589
O O4 0.878186 0.946975 0.077870
O O5 0.157683 0.548025 0.247008
O O6 0.257616 0.167956 0.187653
O O7 0.011774 0.280097 0.145406
O O8 0.752374 0.693571 0.619929
O O9 0.927979 0.606393 0.752117
O O10 0.998635 0.844761 0.611802
#
# Coordination Sequence:
#
# PCOD9315547 Si02
#       5
#     4   4   4   4   4
#     4  11  25  45  72 101 133 185 239 273 342 418
#     4  11  26  47  66 104 143 179 226 285 352 400
#     4  12  25  46  69 101 145 181 221 293 344 408
#     4  11  21  42  70  96 133 177 226 282 337 400
#     4  11  21  44  69  96 130 176 230 281 335 410
#
# _framework density 23.500633000000001
#
# number of rings (size 3 to 8) (size 9 to 14) (size 15 to 20)
#    0.000    0.800    4.000    3.600    0.000    1.600 
#   14.400    0.000    0.000    0.000    0.000    0.000 
#    0.000    0.000    0.000    0.000    0.000    0.000 
#
# Total GULP energy -111997.695094 kJ/mol
# GULP energy per Si atom -5599.884755 kJ/mol
# Density = 2.344715 g / cm^3
# Si number density = 23.500633 Si / 1000 Ang^3
#
#
#
# Elastic Constant Matrix: (Units=GPa)
#
#
# Indices 1 2 3 4 5 6 
#
# 1 162.3022 28.6724 9.0307 0.0000 0.0000 0.0000
# 2 28.6724 69.0118 -10.8019 0.0000 0.0000 0.0000
# 3 9.0307 -10.8019 48.7916 0.0000 0.0000 0.0000
# 4 0.0000 0.0000 0.0000 16.5779 0.0000 0.0000
# 5 0.0000 0.0000 0.0000 0.0000 9.8387 0.0000
# 6 0.0000 0.0000 0.0000 0.0000 0.0000 -1.1147
#
#
#
# Elastic Compliance Matrix: (Units=1/GPa)
#
#
# Indices 1 2 3 4 5 6 
#
# 1 0.006825 -0.003142 -0.001959 0.000000 0.000000 0.000000
# 2 -0.003142 0.016457 0.004225 0.000000 0.000000 0.000000
# 3 -0.001959 0.004225 0.021793 0.000000 0.000000 0.000000
# 4 0.000000 0.000000 0.000000 0.060321 0.000000 0.000000
# 5 0.000000 0.000000 0.000000 0.000000 0.101639 0.000000
# 6 0.000000 0.000000 0.000000 0.000000 0.000000 -0.897113
#
#
# Mechanical properties :
#
#
# Convention : Reuss Voigt Hill
#
# Bulk Modulus (GPa) = 23.08232 37.10090 30.09161
# Shear Modulus (GPa) = -7.41969 21.94068 7.26050
#
# Velocity S-wave (km/s) = -1.77879 3.05884 1.75960
# Velocity P-wave (km/s) = 2.37161 5.31947 4.11833
#
# Compressibility (1/GPa) = 0.04332321
#
# Stress axis : x y z
#
# Youngs Moduli (GPa) = 146.50957 60.76376 45.88565
#
# Poissons Ratio (x) = 0.19095 0.08989
# Poissons Ratio (y) = 0.46040 -0.19387
# Poissons Ratio (z) = 0.28701 -0.25673
#
# Static dielectric constant tensor:
#      x y z
#    x 1.867550 0.000000 0.000000 
#    y 0.000000 1.895880 0.000000 
#    z 0.000000 0.000000 1.855780 
# 
# From -- ./inp_files/2369.got.cif
#   From: 2010.05.17/outbox.cif.g08.bks.cpg/sg19_2_cif.got.tgz:2369.got - 2010.06.03 22:46:19.
