data_PCOD9315993
_publ_section_title
;
Structure prediction by ZEFSAII (Michael W. Deem and Ramdas Pophale) SiO2 
 PCOD9315993
Probable space group: P 21 21 21
;
_chemical_formula_sum "Si O2"
_cell_formula_units_Z 28
_cell_length_a 5.167912
_cell_length_b 17.902804
_cell_length_c 12.371968
_cell_angle_alpha 90.000000
_cell_angle_beta 90.000000
_cell_angle_gamma 90.000000
_cell_volume 1144.655910
_symmetry_space_group_name_H-M "P 21 21 21"
_symmetry_group_IT_number 19
_symmetry_cell_setting 'orthorhombic'
loop_
_space_group_symop_operation_xyz
x,y,z
1/2-x,-y,1/2+z
1/2+x,1/2-y,-z
-x,1/2+y,1/2-z
loop_
_atom_site_type_symbol
_atom_site_label
_atom_site_fract_x
_atom_site_fract_y
_atom_site_fract_z
Si Si1 0.959174 0.106931 0.645201
Si Si2 0.460136 0.045254 0.771021
Si Si3 0.482804 0.865011 0.787237
Si Si4 0.518689 0.224240 0.312382
Si Si5 0.525584 0.273106 0.062023
Si Si6 0.092905 0.596884 0.437069
Si Si7 0.586070 0.523460 0.484632
O O1 0.986619 0.195430 0.631465
O O2 0.990311 0.060986 0.533071
O O3 0.195602 0.074203 0.717194
O O4 0.695340 0.083812 0.706673
O O5 0.490520 0.954842 0.778556
O O6 0.446921 0.059412 0.898667
O O7 0.220453 0.830833 0.831641
O O8 0.499907 0.849026 0.658043
O O9 0.723695 0.821927 0.838202
O O10 0.524703 0.246215 0.184662
O O11 0.811187 0.270203 0.009678
O O12 0.424870 0.357274 0.047446
O O13 0.381633 0.569812 0.412109
O O14 0.882582 0.531780 0.449949
#
# Coordination Sequence:
#
# PCOD9315993 Si02
#       7
#     4   4   4   4   4   4   4
#     4  12  25  45  67  97 134 172 215 277 327 379
#     4  12  25  44  70  96 129 176 224 265 323 387
#     4  12  23  42  64  93 129 172 212 261 323 388
#     4  12  24  40  60  94 134 167 210 270 327 383
#     4  12  21  32  54  86 121 156 195 247 322 387
#     4  12  22  40  64  91 131 166 208 273 322 385
#     4  12  24  43  67  95 124 169 228 267 314 383
#
# _framework density 24.461501999999999
#
# number of rings (size 3 to 8) (size 9 to 14) (size 15 to 20)
#    0.000    0.000    5.714    6.000    0.000    0.000 
#    0.000    1.429    0.000    0.000    0.000    0.000 
#    0.000    0.000    0.000    0.000    0.000    0.000 
#
# Total GULP energy -156615.965390 kJ/mol
# GULP energy per Si atom -5593.427335 kJ/mol
# Density = 2.440583 g / cm^3
# Si number density = 24.461502 Si / 1000 Ang^3
#
#
#
# Elastic Constant Matrix: (Units=GPa)
#
#
# Indices 1 2 3 4 5 6 
#
# 1 153.2971 40.9671 6.0087 0.0000 0.0000 0.0000
# 2 40.9671 120.2225 -26.0678 0.0000 0.0000 0.0000
# 3 6.0087 -26.0678 20.7710 0.0000 0.0000 0.0000
# 4 0.0000 0.0000 0.0000 38.2729 0.0000 0.0000
# 5 0.0000 0.0000 0.0000 0.0000 15.7647 0.0000
# 6 0.0000 0.0000 0.0000 0.0000 0.0000 38.6047
#
#
#
# Elastic Compliance Matrix: (Units=1/GPa)
#
#
# Indices 1 2 3 4 5 6 
#
# 1 0.008021 -0.004446 -0.007901 0.000000 0.000000 0.000000
# 2 -0.004446 0.013892 0.018721 0.000000 0.000000 0.000000
# 3 -0.007901 0.018721 0.073925 0.000000 0.000000 0.000000
# 4 0.000000 0.000000 0.000000 0.026128 0.000000 0.000000
# 5 0.000000 0.000000 0.000000 0.000000 0.063433 0.000000
# 6 0.000000 0.000000 0.000000 0.000000 0.000000 0.025904
#
#
# Mechanical properties :
#
#
# Convention : Reuss Voigt Hill
#
# Bulk Modulus (GPa) = 9.20914 37.34516 23.27715
# Shear Modulus (GPa) = 21.29918 36.75398 29.02658
#
# Velocity S-wave (km/s) = 2.95400 3.88044 3.44848
# Velocity P-wave (km/s) = 3.92527 5.94787 5.03909
#
# Compressibility (1/GPa) = 0.10858773
#
# Stress axis : x y z
#
# Youngs Moduli (GPa) = 124.66928 71.98154 13.52715
#
# Poissons Ratio (x) = 0.32006 0.10687
# Poissons Ratio (y) = 0.55433 -0.25325
# Poissons Ratio (z) = 0.98498 -1.34760
#
# Static dielectric constant tensor:
#      x y z
#    x 1.912660 0.000000 0.000000 
#    y 0.000000 2.022650 0.000000 
#    z 0.000000 0.000000 2.041690 
# 
# From -- ./inp_files/1516.got.cif
#   From: 2010.05.17/outbox.cif.g08.bks.cpg/sg19_1_cif.got.tgz:1516.got - 2010.06.03 22:46:19.
