data_PCOD9315616
_publ_section_title
;
Structure prediction by ZEFSAII (Michael W. Deem and Ramdas Pophale) SiO2 
 PCOD9315616
Probable space group: P 21 21 21
;
_chemical_formula_sum "Si O2"
_cell_formula_units_Z 24
_cell_length_a 18.515994
_cell_length_b 7.993721
_cell_length_c 6.116440
_cell_angle_alpha 90.000000
_cell_angle_beta 90.000000
_cell_angle_gamma 90.000000
_cell_volume 905.304622
_symmetry_space_group_name_H-M "P 21 21 21"
_symmetry_group_IT_number 19
_symmetry_cell_setting 'orthorhombic'
loop_
_space_group_symop_operation_xyz
x,y,z
1/2-x,-y,1/2+z
1/2+x,1/2-y,-z
-x,1/2+y,1/2-z
loop_
_atom_site_type_symbol
_atom_site_label
_atom_site_fract_x
_atom_site_fract_y
_atom_site_fract_z
Si Si1 0.427609 0.793900 0.390765
Si Si2 0.396779 0.608510 0.809192
Si Si3 0.910152 0.174724 0.804621
Si Si4 0.191386 0.846245 0.429420
Si Si5 0.796099 0.705444 0.928515
Si Si6 0.560587 0.659701 0.894250
O O1 0.393287 0.656233 0.550083
O O2 0.510012 0.743637 0.338643
O O3 0.375489 0.810770 0.183135
O O4 0.431081 0.981355 0.486204
O O5 0.477464 0.690821 0.835956
O O6 0.406981 0.463249 0.998706
O O7 0.317570 0.672506 0.879636
O O8 0.913447 0.182532 0.539019
O O9 0.834601 0.266970 0.846817
O O10 0.241386 0.746792 0.261917
O O11 0.114155 0.864035 0.308481
O O12 0.226161 0.025307 0.477840
#
# Coordination Sequence:
#
# PCOD9315616 Si02
#       6
#     4   4   4   4   4   4
#     4  11  22  44  75 103 146 193 252 306 374 448
#     4  11  25  44  72 110 143 197 252 323 370 437
#     4  11  25  44  72 110 143 197 252 323 370 437
#     4  12  26  45  72 107 146 200 250 306 377 455
#     4  12  26  45  72 107 146 200 250 306 377 455
#     4  11  22  44  75 103 146 193 252 306 374 448
#
# _framework density 26.510414000000001
#
# number of rings (size 3 to 8) (size 9 to 14) (size 15 to 20)
#    0.000    0.667    6.667    1.000    0.000    1.333 
#    6.000    0.000    0.000    0.000    0.000    0.000 
#    0.000    0.000    0.000    0.000    0.000    0.000 
#
# Total GULP energy -133650.500888 kJ/mol
# GULP energy per Si atom -5568.770870 kJ/mol
# Density = 2.645007 g / cm^3
# Si number density = 26.510414 Si / 1000 Ang^3
#
#
#
# Elastic Constant Matrix: (Units=GPa)
#
#
# Indices 1 2 3 4 5 6 
#
# 1 96.3758 -9.9535 -21.0304 0.0000 0.0000 0.0000
# 2 -9.9535 83.4584 6.2933 0.0000 0.0000 0.0000
# 3 -21.0304 6.2933 13.4615 0.0000 0.0000 0.0000
# 4 0.0000 0.0000 0.0000 27.2991 0.0000 0.0000
# 5 0.0000 0.0000 0.0000 0.0000 59.3334 0.0000
# 6 0.0000 0.0000 0.0000 0.0000 0.0000 19.4881
#
#
#
# Elastic Compliance Matrix: (Units=1/GPa)
#
#
# Indices 1 2 3 4 5 6 
#
# 1 0.015743 0.000024 0.024584 0.000000 0.000000 0.000000
# 2 0.000024 0.012420 -0.005769 0.000000 0.000000 0.000000
# 3 0.024584 -0.005769 0.115389 0.000000 0.000000 0.000000
# 4 0.000000 0.000000 0.000000 0.036631 0.000000 0.000000
# 5 0.000000 0.000000 0.000000 0.000000 0.016854 0.000000
# 6 0.000000 0.000000 0.000000 0.000000 0.000000 0.051313
#
#
# Mechanical properties :
#
#
# Convention : Reuss Voigt Hill
#
# Bulk Modulus (GPa) = 5.51788 15.99046 10.75417
# Shear Modulus (GPa) = 18.44448 35.75654 27.10051
#
# Velocity S-wave (km/s) = 2.64056 3.67655 3.20075
# Velocity P-wave (km/s) = 3.37382 4.90587 4.21012
#
# Compressibility (1/GPa) = 0.18122898
#
# Stress axis : x y z
#
# Youngs Moduli (GPa) = 63.52041 80.51603 8.66630
#
# Poissons Ratio (x) = -0.00192 -0.21305
# Poissons Ratio (y) = -0.00151 0.05000
# Poissons Ratio (z) = -1.56156 0.46451
#
# Static dielectric constant tensor:
#      x y z
#    x 1.961320 0.000000 0.000000 
#    y 0.000000 2.253040 0.000000 
#    z 0.000000 0.000000 2.212530 
# 
# From -- ./inp_files/1695.got.cif
#   From: 2010.05.17/outbox.cif.g08.bks.cpg/sg19_1_cif.got.tgz:1695.got - 2010.06.03 22:46:19.
