data_PCOD9315019
_publ_section_title
;
Structure prediction by ZEFSAII (Michael W. Deem and Ramdas Pophale) SiO2 
 PCOD9315019
Probable space group: P 21 21 21
;
_chemical_formula_sum "Si O2"
_cell_formula_units_Z 28
_cell_length_a 16.215301
_cell_length_b 12.352579
_cell_length_c 7.035259
_cell_angle_alpha 90.000000
_cell_angle_beta 90.000000
_cell_angle_gamma 90.000000
_cell_volume 1409.167912
_symmetry_space_group_name_H-M "P 21 21 21"
_symmetry_group_IT_number 19
_symmetry_cell_setting 'orthorhombic'
loop_
_space_group_symop_operation_xyz
x,y,z
1/2-x,-y,1/2+z
1/2+x,1/2-y,-z
-x,1/2+y,1/2-z
loop_
_atom_site_type_symbol
_atom_site_label
_atom_site_fract_x
_atom_site_fract_y
_atom_site_fract_z
Si Si1 0.628040 0.499694 0.583460
Si Si2 0.294870 0.108706 0.266999
Si Si3 0.090237 0.392378 0.423447
Si Si4 0.230611 0.334759 0.156445
Si Si5 0.835594 0.965919 0.684109
Si Si6 0.447334 0.425637 0.627077
Si Si7 0.592407 0.680646 0.885266
O O1 0.707965 0.445708 0.679104
O O2 0.652492 0.530433 0.368840
O O3 0.546145 0.426683 0.602587
O O4 0.606939 0.610299 0.696541
O O5 0.277145 0.221551 0.159519
O O6 0.344035 0.139340 0.456947
O O7 0.146844 0.323451 0.279773
O O8 0.134311 0.411949 0.622468
O O9 0.075974 0.505644 0.313389
O O10 0.000575 0.342907 0.453399
O O11 0.279958 0.430901 0.262004
O O12 0.211400 0.379836 0.947741
O O13 0.909559 0.011033 0.553450
O O14 0.405409 0.309004 0.641510
#
# Coordination Sequence:
#
# PCOD9315019 Si02
#       7
#     4   4   4   4   4   4   4
#     4  11  25  44  65  97 135 168 227 274 321 404
#     4  12  24  43  66  98 131 181 214 269 339 386
#     4  10  23  41  61  94 131 165 216 274 322 392
#     4  11  23  37  66  94 133 168 219 270 332 386
#     4  11  21  40  61  97 129 166 216 278 319 390
#     4  10  23  42  66  91 127 174 222 269 326 392
#     4  11  23  43  67  91 130 178 218 272 329 390
#
# _framework density 19.869882
#
# number of rings (size 3 to 8) (size 9 to 14) (size 15 to 20)
#    0.000    1.143    4.286    1.714    2.000    1.143 
#    2.571    0.000    0.000    0.000    0.000    0.000 
#    0.000    0.000    0.000    0.000    0.000    0.000 
#
# Total GULP energy -156539.754816 kJ/mol
# GULP energy per Si atom -5590.705529 kJ/mol
# Density = 1.982466 g / cm^3
# Si number density = 19.869882 Si / 1000 Ang^3
#
#
#
# Elastic Constant Matrix: (Units=GPa)
#
#
# Indices 1 2 3 4 5 6 
#
# 1 75.0817 -13.5581 18.9768 0.0000 0.0000 0.0000
# 2 -13.5581 40.4401 12.3486 0.0000 0.0000 0.0000
# 3 18.9768 12.3486 84.4200 0.0000 0.0000 0.0000
# 4 0.0000 0.0000 0.0000 11.3218 0.0000 0.0000
# 5 0.0000 0.0000 0.0000 0.0000 36.1086 0.0000
# 6 0.0000 0.0000 0.0000 0.0000 0.0000 25.5799
#
#
#
# Elastic Compliance Matrix: (Units=1/GPa)
#
#
# Indices 1 2 3 4 5 6 
#
# 1 0.015647 0.006615 -0.004485 0.000000 0.000000 0.000000
# 2 0.006615 0.028681 -0.005682 0.000000 0.000000 0.000000
# 3 -0.004485 -0.005682 0.013685 0.000000 0.000000 0.000000
# 4 0.000000 0.000000 0.000000 0.088325 0.000000 0.000000
# 5 0.000000 0.000000 0.000000 0.000000 0.027694 0.000000
# 6 0.000000 0.000000 0.000000 0.000000 0.000000 0.039093
#
#
# Mechanical properties :
#
#
# Convention : Reuss Voigt Hill
#
# Bulk Modulus (GPa) = 19.64291 26.16402 22.90347
# Shear Modulus (GPa) = 21.07935 26.74703 23.91319
#
# Velocity S-wave (km/s) = 3.26063 3.67292 3.47290
# Velocity P-wave (km/s) = 4.90743 5.58421 5.25672
#
# Compressibility (1/GPa) = 0.05090894
#
# Stress axis : x y z
#
# Youngs Moduli (GPa) = 63.91003 34.86631 73.07318
#
# Poissons Ratio (x) = -0.23065 0.32773
# Poissons Ratio (y) = -0.42279 0.41523
# Poissons Ratio (z) = 0.28663 0.19812
#
# Static dielectric constant tensor:
#      x y z
#    x 1.704700 0.000000 0.000000 
#    y 0.000000 1.685730 0.000000 
#    z 0.000000 0.000000 1.661100 
# 
# From -- ./inp_files/1076.got.cif
#   From: 2010.05.17/outbox.cif.g08.bks.cpg/sg19_1_cif.got.tgz:1076.got - 2010.06.03 22:46:19.
