data_PCOD9315659
_publ_section_title
;
Structure prediction by ZEFSAII (Michael W. Deem and Ramdas Pophale) SiO2 
 PCOD9315659
Probable space group: P 21 21 21
;
_chemical_formula_sum "Si O2"
_cell_formula_units_Z 28
_cell_length_a 5.065053
_cell_length_b 8.812427
_cell_length_c 23.437608
_cell_angle_alpha 90.000000
_cell_angle_beta 90.000000
_cell_angle_gamma 90.000000
_cell_volume 1046.147238
_symmetry_space_group_name_H-M "P 21 21 21"
_symmetry_group_IT_number 19
_symmetry_cell_setting 'orthorhombic'
loop_
_space_group_symop_operation_xyz
x,y,z
1/2-x,-y,1/2+z
1/2+x,1/2-y,-z
-x,1/2+y,1/2-z
loop_
_atom_site_type_symbol
_atom_site_label
_atom_site_fract_x
_atom_site_fract_y
_atom_site_fract_z
Si Si1 0.561520 0.522433 0.810659
Si Si2 0.057069 0.314684 0.424859
Si Si3 0.229458 0.771068 0.344186
Si Si4 0.323009 0.723523 0.475167
Si Si5 0.946365 0.190569 0.737537
Si Si6 0.752739 0.982782 0.963189
Si Si7 0.898452 0.417047 0.639752
O O1 0.572361 0.586863 0.874854
O O2 0.471991 0.347492 0.815464
O O3 0.834332 0.569389 0.782616
O O4 0.334608 0.616710 0.777201
O O5 0.122946 0.419819 0.477137
O O6 0.303204 0.228779 0.395870
O O7 0.888761 0.176106 0.446133
O O8 0.278254 0.708469 0.408523
O O9 0.482918 0.772715 0.302731
O O10 0.176095 0.952165 0.349797
O O11 0.573691 0.832353 0.485494
O O12 0.498272 0.594943 0.514239
O O13 0.988235 0.340444 0.698449
O O14 0.896913 0.002349 0.900957
#
# Coordination Sequence:
#
# PCOD9315659 Si02
#       7
#     4   4   4   4   4   4   4
#     4  11  26  49  74 110 148 197 259 316 382 465
#     4  11  23  41  72 105 142 198 246 309 380 467
#     4  12  26  50  77 113 154 200 260 335 385 463
#     4  12  28  47  71 113 153 195 250 316 394 453
#     4  11  27  50  76 107 151 206 257 311 392 468
#     4  12  22  42  74 103 148 198 250 310 379 469
#     4  11  24  47  72 107 150 198 254 315 388 459
#
# _framework density 26.764876000000001
#
# number of rings (size 3 to 8) (size 9 to 14) (size 15 to 20)
#    0.000    0.571    5.714    1.714    0.000    5.714 
#    7.714    0.000    0.000    0.000    0.000    0.000 
#    0.000    0.000    0.000    0.000    0.000    0.000 
#
# Total GULP energy -156298.455410 kJ/mol
# GULP energy per Si atom -5582.087693 kJ/mol
# Density = 2.670396 g / cm^3
# Si number density = 26.764876 Si / 1000 Ang^3
#
#
#
# Elastic Constant Matrix: (Units=GPa)
#
#
# Indices 1 2 3 4 5 6 
#
# 1 80.0535 10.2349 57.5122 0.0000 0.0000 0.0000
# 2 10.2349 143.6292 61.5509 0.0000 0.0000 0.0000
# 3 57.5122 61.5509 187.3001 0.0000 0.0000 0.0000
# 4 0.0000 0.0000 0.0000 63.4144 0.0000 0.0000
# 5 0.0000 0.0000 0.0000 0.0000 19.5049 0.0000
# 6 0.0000 0.0000 0.0000 0.0000 0.0000 14.2437
#
#
#
# Elastic Compliance Matrix: (Units=1/GPa)
#
#
# Indices 1 2 3 4 5 6 
#
# 1 0.016185 0.001136 -0.005343 0.000000 0.000000 0.000000
# 2 0.001136 0.008183 -0.003038 0.000000 0.000000 0.000000
# 3 -0.005343 -0.003038 0.007978 0.000000 0.000000 0.000000
# 4 0.000000 0.000000 0.000000 0.015769 0.000000 0.000000
# 5 0.000000 0.000000 0.000000 0.000000 0.051269 0.000000
# 6 0.000000 0.000000 0.000000 0.000000 0.000000 0.070207
#
#
# Mechanical properties :
#
#
# Convention : Reuss Voigt Hill
#
# Bulk Modulus (GPa) = 56.00166 74.39762 65.19964
# Shear Modulus (GPa) = 26.31112 38.21158 32.26135
#
# Velocity S-wave (km/s) = 3.13876 3.78256 3.47560
# Velocity P-wave (km/s) = 5.83993 6.85085 6.36549
#
# Compressibility (1/GPa) = 0.01785661
#
# Stress axis : x y z
#
# Youngs Moduli (GPa) = 61.78550 122.19893 125.34270
#
# Poissons Ratio (x) = -0.13887 0.66973
# Poissons Ratio (y) = -0.07022 0.38082
# Poissons Ratio (z) = 0.33013 0.37126
#
# Static dielectric constant tensor:
#      x y z
#    x 1.953350 0.000000 0.000000 
#    y 0.000000 3.342710 0.000000 
#    z 0.000000 0.000000 2.190170 
# 
# From -- ./inp_files/2428.got.cif
#   From: 2010.05.17/outbox.cif.g08.bks.cpg/sg19_2_cif.got.tgz:2428.got - 2010.06.03 22:46:19.
