data_PCOD9315232
_publ_section_title
;
Structure prediction by ZEFSAII (Michael W. Deem and Ramdas Pophale) SiO2 
 PCOD9315232
Probable space group: P 21 21 21
;
_chemical_formula_sum "Si O2"
_cell_formula_units_Z 32
_cell_length_a 14.594613
_cell_length_b 10.851709
_cell_length_c 8.426323
_cell_angle_alpha 90.000000
_cell_angle_beta 90.000000
_cell_angle_gamma 90.000000
_cell_volume 1334.531488
_symmetry_space_group_name_H-M "P 21 21 21"
_symmetry_group_IT_number 19
_symmetry_cell_setting 'orthorhombic'
loop_
_space_group_symop_operation_xyz
x,y,z
1/2-x,-y,1/2+z
1/2+x,1/2-y,-z
-x,1/2+y,1/2-z
loop_
_atom_site_type_symbol
_atom_site_label
_atom_site_fract_x
_atom_site_fract_y
_atom_site_fract_z
Si Si1 0.919641 0.925120 0.450798
Si Si2 0.728131 0.858767 0.591270
Si Si3 0.695274 0.217986 0.419041
Si Si4 0.877619 0.198753 0.571996
Si Si5 0.618712 0.528214 0.938287
Si Si6 0.926051 0.944467 0.081422
Si Si7 0.401473 0.193834 0.099649
Si Si8 0.717624 0.476506 0.251253
O O1 0.821807 0.865497 0.493933
O O2 0.936321 0.909778 0.264394
O O3 0.001806 0.859017 0.543519
O O4 0.912367 0.070773 0.496930
O O5 0.759069 0.855866 0.773616
O O6 0.660841 0.748885 0.540773
O O7 0.664533 0.975263 0.561068
O O8 0.766091 0.203838 0.564733
O O9 0.596117 0.170003 0.467846
O O10 0.693803 0.355276 0.351395
O O11 0.896576 0.324845 0.471890
O O12 0.910425 0.210836 0.753090
O O13 0.684559 0.471300 0.071202
O O14 0.516800 0.477910 0.956105
O O15 0.673475 0.505834 0.776192
O O16 0.341644 0.086104 0.177609
#
# Coordination Sequence:
#
# PCOD9315232 Si02
#       8
#     4   4   4   4   4   4   4   4
#     4  12  28  48  79 112 157 205 260 328 381 464
#     4  12  26  47  75 114 154 201 260 320 388 460
#     4  11  24  46  80 105 154 205 256 321 395 457
#     4  10  23  49  72 111 149 206 247 321 385 465
#     4  10  25  44  79 109 156 199 261 311 399 459
#     4  12  26  46  75 114 148 212 259 320 380 475
#     4  11  28  45  79 114 153 198 264 317 397 467
#     4  10  24  49  71 111 151 200 241 330 385 463
#
# _framework density 23.978452000000001
#
# number of rings (size 3 to 8) (size 9 to 14) (size 15 to 20)
#    0.000    1.000    2.500    1.500   12.250    2.000 
#    0.000    0.000    0.000    0.000    0.000    0.000 
#    0.000    0.000    0.000    0.000    0.000    0.000 
#
# Total GULP energy -179117.674573 kJ/mol
# GULP energy per Si atom -5597.427330 kJ/mol
# Density = 2.392388 g / cm^3
# Si number density = 23.978452 Si / 1000 Ang^3
#
#
#
# Elastic Constant Matrix: (Units=GPa)
#
#
# Indices 1 2 3 4 5 6 
#
# 1 126.0883 9.4871 36.8286 0.0000 0.0000 0.0000
# 2 9.4871 59.5013 9.7770 0.0000 0.0000 0.0000
# 3 36.8286 9.7770 100.4834 0.0000 0.0000 0.0000
# 4 0.0000 0.0000 0.0000 26.0561 0.0000 0.0000
# 5 0.0000 0.0000 0.0000 0.0000 23.8526 0.0000
# 6 0.0000 0.0000 0.0000 0.0000 0.0000 33.8723
#
#
#
# Elastic Compliance Matrix: (Units=1/GPa)
#
#
# Indices 1 2 3 4 5 6 
#
# 1 0.008929 -0.000900 -0.003185 0.000000 0.000000 0.000000
# 2 -0.000900 0.017170 -0.001341 0.000000 0.000000 0.000000
# 3 -0.003185 -0.001341 0.011250 0.000000 0.000000 0.000000
# 4 0.000000 0.000000 0.000000 0.038379 0.000000 0.000000
# 5 0.000000 0.000000 0.000000 0.000000 0.041924 0.000000
# 6 0.000000 0.000000 0.000000 0.000000 0.000000 0.029523
#
#
# Mechanical properties :
#
#
# Convention : Reuss Voigt Hill
#
# Bulk Modulus (GPa) = 37.74031 44.25095 40.99563
# Shear Modulus (GPa) = 29.96549 32.08822 31.02685
#
# Velocity S-wave (km/s) = 3.53892 3.66213 3.60105
# Velocity P-wave (km/s) = 5.69843 6.03126 5.86720
#
# Compressibility (1/GPa) = 0.02649687
#
# Stress axis : x y z
#
# Youngs Moduli (GPa) = 111.99482 58.24044 88.89135
#
# Poissons Ratio (x) = 0.05244 0.28312
# Poissons Ratio (y) = 0.10083 0.11917
# Poissons Ratio (z) = 0.35670 0.07808
#
# Static dielectric constant tensor:
#      x y z
#    x 1.938560 0.000000 0.000000 
#    y 0.000000 1.990340 0.000000 
#    z 0.000000 0.000000 1.902790 
# 
# From -- ./inp_files/4003.got.cif
#   From: 2010.05.17/outbox.cif.g08.bks.cpg/sg19_3_cif.got.tgz:4003.got - 2010.06.03 22:46:19.
