data_PCOD9315376
_publ_section_title
;
Structure prediction by ZEFSAII (Michael W. Deem and Ramdas Pophale) SiO2 
 PCOD9315376
Probable space group: P 21 21 21
;
_chemical_formula_sum "Si O2"
_cell_formula_units_Z 28
_cell_length_a 8.056198
_cell_length_b 10.817566
_cell_length_c 11.923873
_cell_angle_alpha 90.000000
_cell_angle_beta 90.000000
_cell_angle_gamma 90.000000
_cell_volume 1039.147093
_symmetry_space_group_name_H-M "P 21 21 21"
_symmetry_group_IT_number 19
_symmetry_cell_setting 'orthorhombic'
loop_
_space_group_symop_operation_xyz
x,y,z
1/2-x,-y,1/2+z
1/2+x,1/2-y,-z
-x,1/2+y,1/2-z
loop_
_atom_site_type_symbol
_atom_site_label
_atom_site_fract_x
_atom_site_fract_y
_atom_site_fract_z
Si Si1 0.630031 0.800322 0.438374
Si Si2 0.886151 0.022512 0.744858
Si Si3 0.926160 0.991353 0.107732
Si Si4 0.673270 0.625317 0.046654
Si Si5 0.469605 0.033834 0.016348
Si Si6 0.821483 0.161506 0.374745
Si Si7 0.643216 0.329658 0.765494
O O1 0.650621 0.886640 0.547236
O O2 0.528149 0.680346 0.474061
O O3 0.787416 0.746263 0.370358
O O4 0.551890 0.888679 0.342775
O O5 0.715197 0.067792 0.684427
O O6 0.822353 0.892426 0.796119
O O7 0.011567 0.012684 0.643409
O O8 0.076655 0.039582 0.184923
O O9 0.998298 0.910377 0.007326
O O10 0.792666 0.508590 0.029186
O O11 0.728898 0.737041 0.965481
O O12 0.707990 0.658699 0.175238
O O13 0.600536 0.957942 0.940119
O O14 0.975803 0.213051 0.300073
#
# Coordination Sequence:
#
# PCOD9315376 Si02
#       7
#     4   4   4   4   4   4   4
#     4  12  26  44  76 107 158 187 267 307 385 456
#     4  11  26  45  73 111 152 200 252 315 392 445
#     4  11  26  47  77 109 149 202 252 321 385 454
#     4  11  24  49  77 105 154 199 257 314 389 463
#     4  11  26  46  73 116 148 204 258 316 379 458
#     4  10  24  47  77 105 157 201 255 311 390 455
#     4  10  24  48  69 111 144 197 247 320 370 457
#
# _framework density 26.945174999999999
#
# number of rings (size 3 to 8) (size 9 to 14) (size 15 to 20)
#    0.000    1.143    1.429    2.571    8.000    3.429 
#    7.714    0.000    0.000    0.000    0.000    0.000 
#    0.000    0.000    0.000    0.000    0.000    0.000 
#
# Total GULP energy -156897.879714 kJ/mol
# GULP energy per Si atom -5603.495704 kJ/mol
# Density = 2.688385 g / cm^3
# Si number density = 26.945175 Si / 1000 Ang^3
#
#
#
# Elastic Constant Matrix: (Units=GPa)
#
#
# Indices 1 2 3 4 5 6 
#
# 1 77.1782 26.2489 44.9447 0.0000 0.0000 0.0000
# 2 26.2489 107.8879 48.6920 0.0000 0.0000 0.0000
# 3 44.9447 48.6920 161.6015 0.0000 0.0000 0.0000
# 4 0.0000 0.0000 0.0000 57.0152 0.0000 0.0000
# 5 0.0000 0.0000 0.0000 0.0000 71.7692 0.0000
# 6 0.0000 0.0000 0.0000 0.0000 0.0000 26.2398
#
#
#
# Elastic Compliance Matrix: (Units=1/GPa)
#
#
# Indices 1 2 3 4 5 6 
#
# 1 0.015887 -0.002166 -0.003766 0.000000 0.000000 0.000000
# 2 -0.002166 0.011023 -0.002719 0.000000 0.000000 0.000000
# 3 -0.003766 -0.002719 0.008055 0.000000 0.000000 0.000000
# 4 0.000000 0.000000 0.000000 0.017539 0.000000 0.000000
# 5 0.000000 0.000000 0.000000 0.000000 0.013934 0.000000
# 6 0.000000 0.000000 0.000000 0.000000 0.000000 0.038110
#
#
# Mechanical properties :
#
#
# Convention : Reuss Voigt Hill
#
# Bulk Modulus (GPa) = 56.61459 65.15987 60.88723
# Shear Modulus (GPa) = 39.14335 46.12366 42.63350
#
# Velocity S-wave (km/s) = 3.81557 4.14183 3.98204
# Velocity P-wave (km/s) = 6.36145 6.86352 6.61725
#
# Compressibility (1/GPa) = 0.01766329
#
# Stress axis : x y z
#
# Youngs Moduli (GPa) = 62.94604 90.72022 124.15115
#
# Poissons Ratio (x) = 0.19646 0.46754
# Poissons Ratio (y) = 0.13631 0.33757
# Poissons Ratio (z) = 0.23705 0.24667
#
# Static dielectric constant tensor:
#      x y z
#    x 2.145320 0.000000 0.000000 
#    y 0.000000 2.144530 0.000000 
#    z 0.000000 0.000000 2.060430 
# 
# From -- ./inp_files/4591.got.cif
#   From: 2010.05.17/outbox.cif.g08.bks.cpg/sg19_3_cif.got.tgz:4591.got - 2010.06.03 22:46:19.
