data_PCOD9315653
_publ_section_title
;
Structure prediction by ZEFSAII (Michael W. Deem and Ramdas Pophale) SiO2 
 PCOD9315653
Probable space group: P 21 21 21
;
_chemical_formula_sum "Si O2"
_cell_formula_units_Z 20
_cell_length_a 18.512662
_cell_length_b 8.824367
_cell_length_c 4.855556
_cell_angle_alpha 90.000000
_cell_angle_beta 90.000000
_cell_angle_gamma 90.000000
_cell_volume 793.215882
_symmetry_space_group_name_H-M "P 21 21 21"
_symmetry_group_IT_number 19
_symmetry_cell_setting 'orthorhombic'
loop_
_space_group_symop_operation_xyz
x,y,z
1/2-x,-y,1/2+z
1/2+x,1/2-y,-z
-x,1/2+y,1/2-z
loop_
_atom_site_type_symbol
_atom_site_label
_atom_site_fract_x
_atom_site_fract_y
_atom_site_fract_z
Si Si1 0.856306 0.589199 0.620413
Si Si2 0.292353 0.205557 0.127762
Si Si3 0.357412 0.356360 0.612463
Si Si4 0.434334 0.613884 0.306712
Si Si5 0.968233 0.399412 0.320949
O O1 0.835286 0.451409 0.820958
O O2 0.784201 0.657724 0.489612
O O3 0.901287 0.723020 0.755731
O O4 0.906204 0.520920 0.378819
O O5 0.294353 0.282740 0.425537
O O6 0.331723 0.321961 0.920956
O O7 0.375816 0.516015 0.475563
O O8 0.431050 0.257419 0.580321
O O9 0.501806 0.620342 0.516514
O O10 0.465786 0.553531 0.020505
#
# Coordination Sequence:
#
# PCOD9315653 Si02
#       5
#     4   4   4   4   4
#     4  11  25  45  72  99 134 182 231 274 336 412
#     4  11  25  44  68  96 134 181 227 278 335 406
#     4  11  24  43  65  98 138 175 226 288 341 396
#     4  12  25  41  68 100 136 178 224 283 342 402
#     4  11  23  41  65  97 136 178 224 277 342 410
#
# _framework density 25.213819999999998
#
# number of rings (size 3 to 8) (size 9 to 14) (size 15 to 20)
#    0.000    0.800    0.000    8.400    0.000    9.600 
#    0.000    0.000    0.000    0.000    0.000    0.000 
#    0.000    0.000    0.000    0.000    0.000    0.000 
#
# Total GULP energy -112079.537529 kJ/mol
# GULP energy per Si atom -5603.976876 kJ/mol
# Density = 2.515643 g / cm^3
# Si number density = 25.213820 Si / 1000 Ang^3
#
#
#
# Elastic Constant Matrix: (Units=GPa)
#
#
# Indices 1 2 3 4 5 6 
#
# 1 92.1658 5.7040 21.7453 0.0000 0.0000 0.0000
# 2 5.7040 55.3838 -6.0353 0.0000 0.0000 0.0000
# 3 21.7453 -6.0353 100.1387 0.0000 0.0000 0.0000
# 4 0.0000 0.0000 0.0000 27.1646 0.0000 0.0000
# 5 0.0000 0.0000 0.0000 0.0000 29.0775 0.0000
# 6 0.0000 0.0000 0.0000 0.0000 0.0000 9.0716
#
#
#
# Elastic Compliance Matrix: (Units=1/GPa)
#
#
# Indices 1 2 3 4 5 6 
#
# 1 0.011554 -0.001473 -0.002598 0.000000 0.000000 0.000000
# 2 -0.001473 0.018363 0.001427 0.000000 0.000000 0.000000
# 3 -0.002598 0.001427 0.010636 0.000000 0.000000 0.000000
# 4 0.000000 0.000000 0.000000 0.036813 0.000000 0.000000
# 5 0.000000 0.000000 0.000000 0.000000 0.034391 0.000000
# 6 0.000000 0.000000 0.000000 0.000000 0.000000 0.110234
#
#
# Mechanical properties :
#
#
# Convention : Reuss Voigt Hill
#
# Bulk Modulus (GPa) = 28.35682 32.27960 30.31821
# Shear Modulus (GPa) = 20.91750 28.14770 24.53260
#
# Velocity S-wave (km/s) = 2.88341 3.34482 3.12265
# Velocity P-wave (km/s) = 4.72825 5.26757 5.00518
#
# Compressibility (1/GPa) = 0.03526488
#
# Stress axis : x y z
#
# Youngs Moduli (GPa) = 86.54950 54.45734 94.01818
#
# Poissons Ratio (x) = 0.08022 0.24424
# Poissons Ratio (y) = 0.12749 -0.13413
# Poissons Ratio (z) = 0.22484 -0.07769
#
# Static dielectric constant tensor:
#      x y z
#    x 1.970150 0.000000 0.000000 
#    y 0.000000 2.034280 0.000000 
#    z 0.000000 0.000000 1.923650 
# 
# From -- ./inp_files/1667.got.cif
#   From: 2010.05.17/outbox.cif.g08.bks.cpg/sg19_1_cif.got.tgz:1667.got - 2010.06.03 22:46:19.
