data_PCOD9315181
_publ_section_title
;
Structure prediction by ZEFSAII (Michael W. Deem and Ramdas Pophale) SiO2 
 PCOD9315181
Probable space group: P 21 21 21
;
_chemical_formula_sum "Si O2"
_cell_formula_units_Z 28
_cell_length_a 5.464864
_cell_length_b 27.112033
_cell_length_c 6.930553
_cell_angle_alpha 90.000000
_cell_angle_beta 90.000000
_cell_angle_gamma 90.000000
_cell_volume 1026.855496
_symmetry_space_group_name_H-M "P 21 21 21"
_symmetry_group_IT_number 19
_symmetry_cell_setting 'orthorhombic'
loop_
_space_group_symop_operation_xyz
x,y,z
1/2-x,-y,1/2+z
1/2+x,1/2-y,-z
-x,1/2+y,1/2-z
loop_
_atom_site_type_symbol
_atom_site_label
_atom_site_fract_x
_atom_site_fract_y
_atom_site_fract_z
Si Si1 0.681695 0.561742 0.776972
Si Si2 0.656659 0.989084 0.150657
Si Si3 0.356568 0.419179 0.689368
Si Si4 0.052780 0.861546 0.952577
Si Si5 0.416082 0.153858 0.990793
Si Si6 0.838530 0.259464 0.394472
Si Si7 0.928041 0.178052 0.069431
O O1 0.428597 0.533373 0.819568
O O2 0.724620 0.594521 0.973270
O O3 0.631364 0.602290 0.613841
O O4 0.923422 0.530170 0.725428
O O5 0.577580 0.966476 0.944392
O O6 0.678593 0.047963 0.169272
O O7 0.461566 0.376891 0.831790
O O8 0.218356 0.383493 0.537448
O O9 0.101151 0.817285 0.095027
O O10 0.073360 0.848467 0.727464
O O11 0.684578 0.174131 0.943626
O O12 0.178132 0.187453 0.957187
O O13 0.553298 0.256469 0.452821
O O14 0.889701 0.220927 0.224323
#
# Coordination Sequence:
#
# PCOD9315181 Si02
#       7
#     4   4   4   4   4   4   4
#     4  11  26  45  64 101 134 177 220 278 332 398
#     4  11  26  43  66  96 135 176 226 270 338 393
#     4  10  24  44  66 100 133 178 223 277 329 401
#     4  10  23  45  69  97 133 173 223 276 332 398
#     4  11  22  40  70  90 136 169 217 274 328 391
#     4  12  21  40  70 100 128 176 224 272 339 400
#     4  11  22  41  67 100 129 177 223 273 334 397
#
# _framework density 27.267713000000001
#
# number of rings (size 3 to 8) (size 9 to 14) (size 15 to 20)
#    0.000    1.143    4.286    1.714    6.000    4.571 
#    0.000    1.429    0.000    0.000    0.000    0.000 
#    0.000    0.000    0.000    0.000    0.000    0.000 
#
# Total GULP energy -156189.203602 kJ/mol
# GULP energy per Si atom -5578.185843 kJ/mol
# Density = 2.720565 g / cm^3
# Si number density = 27.267713 Si / 1000 Ang^3
#
#
#
# Elastic Constant Matrix: (Units=GPa)
#
#
# Indices 1 2 3 4 5 6 
#
# 1 284.1106 -29.0634 57.4005 0.0000 0.0000 0.0000
# 2 -29.0634 144.0140 9.1969 0.0000 0.0000 0.0000
# 3 57.4005 9.1969 95.2469 0.0000 0.0000 0.0000
# 4 0.0000 0.0000 0.0000 51.6825 0.0000 0.0000
# 5 0.0000 0.0000 0.0000 0.0000 31.5307 0.0000
# 6 0.0000 0.0000 0.0000 0.0000 0.0000 -29.6915
#
#
#
# Elastic Compliance Matrix: (Units=1/GPa)
#
#
# Indices 1 2 3 4 5 6 
#
# 1 0.004147 0.001003 -0.002596 0.000000 0.000000 0.000000
# 2 0.001003 0.007229 -0.001302 0.000000 0.000000 0.000000
# 3 -0.002596 -0.001302 0.012189 0.000000 0.000000 0.000000
# 4 0.000000 0.000000 0.000000 0.019349 0.000000 0.000000
# 5 0.000000 0.000000 0.000000 0.000000 0.031715 0.000000
# 6 0.000000 0.000000 0.000000 0.000000 0.000000 -0.033680
#
#
# Mechanical properties :
#
#
# Convention : Reuss Voigt Hill
#
# Bulk Modulus (GPa) = 56.26133 66.49328 61.37731
# Shear Modulus (GPa) = 94.93900 43.09350 69.01625
#
# Velocity S-wave (km/s) = 5.90703 3.97972 5.03642
# Velocity P-wave (km/s) = 8.19766 6.74951 7.50858
#
# Compressibility (1/GPa) = 0.01777420
#
# Stress axis : x y z
#
# Youngs Moduli (GPa) = 241.15101 138.32648 82.03998
#
# Poissons Ratio (x) = -0.13869 0.21297
# Poissons Ratio (y) = -0.24179 0.10684
# Poissons Ratio (z) = 0.62600 0.18014
#
# Static dielectric constant tensor:
#      x y z
#    x 2.253120 0.000000 0.000000 
#    y 0.000000 2.100140 0.000000 
#    z 0.000000 0.000000 2.580450 
# 
# From -- ./inp_files/2466.got.cif
#   From: 2010.05.17/outbox.cif.g08.bks.cpg/sg19_2_cif.got.tgz:2466.got - 2010.06.03 22:46:19.
