data_PCOD9315297
_publ_section_title
;
Structure prediction by ZEFSAII (Michael W. Deem and Ramdas Pophale) SiO2 
 PCOD9315297
Probable space group: P 21 21 21
;
_chemical_formula_sum "Si O2"
_cell_formula_units_Z 24
_cell_length_a 8.381473
_cell_length_b 8.132354
_cell_length_c 14.870039
_cell_angle_alpha 90.000000
_cell_angle_beta 90.000000
_cell_angle_gamma 90.000000
_cell_volume 1013.558297
_symmetry_space_group_name_H-M "P 21 21 21"
_symmetry_group_IT_number 19
_symmetry_cell_setting 'orthorhombic'
loop_
_space_group_symop_operation_xyz
x,y,z
1/2-x,-y,1/2+z
1/2+x,1/2-y,-z
-x,1/2+y,1/2-z
loop_
_atom_site_type_symbol
_atom_site_label
_atom_site_fract_x
_atom_site_fract_y
_atom_site_fract_z
Si Si1 0.365860 0.828299 0.982077
Si Si2 0.525133 0.509497 0.032280
Si Si3 0.651424 0.184299 0.700137
Si Si4 0.524591 0.828963 0.643349
Si Si5 0.640556 0.312209 0.193387
Si Si6 0.988828 0.043181 0.649958
O O1 0.408350 0.810466 0.876903
O O2 0.188024 0.895286 0.991279
O O3 0.385969 0.642497 0.019756
O O4 0.477066 0.939975 0.044636
O O5 0.547174 0.441374 0.131531
O O6 0.506428 0.362422 0.961115
O O7 0.616780 0.251556 0.798618
O O8 0.835764 0.151801 0.677535
O O9 0.565963 0.009403 0.683623
O O10 0.681074 0.717758 0.658298
O O11 0.634767 0.379699 0.294275
O O12 0.551914 0.139220 0.180702
#
# Coordination Sequence:
#
# PCOD9315297 Si02
#       6
#     4   4   4   4   4   4
#     4  11  24  44  70 101 139 186 230 286 349 409
#     4  11  26  46  71 103 140 186 231 288 348 416
#     4  10  24  44  65 103 135 181 231 286 346 415
#     4  10  26  44  70 102 140 179 233 286 351 411
#     4  11  27  46  69 105 139 183 235 287 347 417
#     4  11  25  44  69 100 139 181 232 287 349 414
#
# _framework density 23.678953
#
# number of rings (size 3 to 8) (size 9 to 14) (size 15 to 20)
#    0.000    1.333    1.667    1.000   11.667    0.000 
#    0.000    3.333    0.000    0.000    0.000    0.000 
#    0.000    0.000    0.000    0.000    0.000    0.000 
#
# Total GULP energy -134411.254074 kJ/mol
# GULP energy per Si atom -5600.468920 kJ/mol
# Density = 2.362506 g / cm^3
# Si number density = 23.678953 Si / 1000 Ang^3
#
#
#
# Elastic Constant Matrix: (Units=GPa)
#
#
# Indices 1 2 3 4 5 6 
#
# 1 45.2731 13.8140 -3.0378 0.0000 0.0000 0.0000
# 2 13.8140 66.3571 16.4600 0.0000 0.0000 0.0000
# 3 -3.0378 16.4600 58.3579 0.0000 0.0000 0.0000
# 4 0.0000 0.0000 0.0000 44.3392 0.0000 0.0000
# 5 0.0000 0.0000 0.0000 0.0000 33.3851 0.0000
# 6 0.0000 0.0000 0.0000 0.0000 0.0000 42.2088
#
#
#
# Elastic Compliance Matrix: (Units=1/GPa)
#
#
# Indices 1 2 3 4 5 6 
#
# 1 0.024023 -0.005711 0.002861 0.000000 0.000000 0.000000
# 2 -0.005711 0.017561 -0.005250 0.000000 0.000000 0.000000
# 3 0.002861 -0.005250 0.018765 0.000000 0.000000 0.000000
# 4 0.000000 0.000000 0.000000 0.022553 0.000000 0.000000
# 5 0.000000 0.000000 0.000000 0.000000 0.029953 0.000000
# 6 0.000000 0.000000 0.000000 0.000000 0.000000 0.023692
#
#
# Mechanical properties :
#
#
# Convention : Reuss Voigt Hill
#
# Bulk Modulus (GPa) = 22.65032 24.94005 23.79518
# Shear Modulus (GPa) = 29.85712 33.50342 31.68027
#
# Velocity S-wave (km/s) = 3.55479 3.76560 3.66171
# Velocity P-wave (km/s) = 5.14150 5.42787 5.28663
#
# Compressibility (1/GPa) = 0.04414949
#
# Stress axis : x y z
#
# Youngs Moduli (GPa) = 41.62737 56.94378 53.28936
#
# Poissons Ratio (x) = 0.32519 -0.15247
# Poissons Ratio (y) = 0.23772 0.27979
# Poissons Ratio (z) = -0.11911 0.29898
#
# Static dielectric constant tensor:
#      x y z
#    x 1.902480 0.000000 0.000000 
#    y 0.000000 1.894910 0.000000 
#    z 0.000000 0.000000 1.852290 
# 
# From -- ./inp_files/2784.got.cif
#   From: 2010.05.17/outbox.cif.g08.bks.cpg/sg19_2_cif.got.tgz:2784.got - 2010.06.03 22:46:19.
