data_PCOD9315905
_publ_section_title
;
Structure prediction by ZEFSAII (Michael W. Deem and Ramdas Pophale) SiO2 
 PCOD9315905
Probable space group: P 21 21 21
;
_chemical_formula_sum "Si O2"
_cell_formula_units_Z 24
_cell_length_a 5.356062
_cell_length_b 14.096186
_cell_length_c 11.712189
_cell_angle_alpha 90.000000
_cell_angle_beta 90.000000
_cell_angle_gamma 90.000000
_cell_volume 884.270810
_symmetry_space_group_name_H-M "P 21 21 21"
_symmetry_group_IT_number 19
_symmetry_cell_setting 'orthorhombic'
loop_
_space_group_symop_operation_xyz
x,y,z
1/2-x,-y,1/2+z
1/2+x,1/2-y,-z
-x,1/2+y,1/2-z
loop_
_atom_site_type_symbol
_atom_site_label
_atom_site_fract_x
_atom_site_fract_y
_atom_site_fract_z
Si Si1 0.884440 0.012810 0.415132
Si Si2 0.926012 0.181787 0.729375
Si Si3 0.160305 0.164748 0.159966
Si Si4 0.822502 0.690160 0.987224
Si Si5 0.299262 0.173455 0.904769
Si Si6 0.156521 0.496293 0.331282
O O1 0.072310 0.099976 0.443509
O O2 0.739556 0.034606 0.294369
O O3 0.753216 0.989065 0.537333
O O4 0.037652 0.919013 0.383206
O O5 0.821159 0.287063 0.741996
O O6 0.156992 0.164932 0.646444
O O7 0.027170 0.154688 0.853397
O O8 0.713337 0.114179 0.681653
O O9 0.911287 0.230232 0.149508
O O10 0.100883 0.054395 0.168903
O O11 0.292217 0.182698 0.039914
O O12 0.048707 0.767683 0.993875
#
# Coordination Sequence:
#
# PCOD9315905 Si02
#       6
#     4   4   4   4   4   4
#     4  11  26  46  77 118 157 211 268 342 399 498
#     4  11  26  45  74 109 156 200 266 341 397 495
#     4  12  24  45  76 109 152 202 268 332 407 484
#     4  11  28  50  77 114 162 216 270 327 414 495
#     4  12  25  47  75 114 148 205 271 339 401 484
#     4  11  25  47  73 112 155 202 261 327 414 476
#
# _framework density 27.141006000000001
#
# number of rings (size 3 to 8) (size 9 to 14) (size 15 to 20)
#    0.000    0.667    3.333    3.000    4.667    6.667 
#    0.000    0.000    0.000    0.000    0.000    0.000 
#    0.000    0.000    0.000    0.000    0.000    0.000 
#
# Total GULP energy -134085.689207 kJ/mol
# GULP energy per Si atom -5586.903717 kJ/mol
# Density = 2.707923 g / cm^3
# Si number density = 27.141006 Si / 1000 Ang^3
#
#
#
# Elastic Constant Matrix: (Units=GPa)
#
#
# Indices 1 2 3 4 5 6 
#
# 1 74.2138 36.6149 28.1567 0.0000 0.0000 0.0000
# 2 36.6149 81.8840 40.5957 0.0000 0.0000 0.0000
# 3 28.1567 40.5957 165.7070 0.0000 0.0000 0.0000
# 4 0.0000 0.0000 0.0000 47.3786 0.0000 0.0000
# 5 0.0000 0.0000 0.0000 0.0000 19.9536 0.0000
# 6 0.0000 0.0000 0.0000 0.0000 0.0000 44.7557
#
#
#
# Elastic Compliance Matrix: (Units=1/GPa)
#
#
# Indices 1 2 3 4 5 6 
#
# 1 0.017497 -0.007228 -0.001202 0.000000 0.000000 0.000000
# 2 -0.007228 0.016886 -0.002909 0.000000 0.000000 0.000000
# 3 -0.001202 -0.002909 0.006952 0.000000 0.000000 0.000000
# 4 0.000000 0.000000 0.000000 0.021107 0.000000 0.000000
# 5 0.000000 0.000000 0.000000 0.000000 0.050116 0.000000
# 6 0.000000 0.000000 0.000000 0.000000 0.000000 0.022344
#
#
# Mechanical properties :
#
#
# Convention : Reuss Voigt Hill
#
# Bulk Modulus (GPa) = 53.59882 59.17103 56.38492
# Shear Modulus (GPa) = 30.52547 36.84676 33.68612
#
# Velocity S-wave (km/s) = 3.35729 3.68857 3.52682
# Velocity P-wave (km/s) = 5.90082 6.32371 6.11592
#
# Compressibility (1/GPa) = 0.01865713
#
# Stress axis : x y z
#
# Youngs Moduli (GPa) = 57.15381 59.21933 143.85058
#
# Poissons Ratio (x) = 0.42802 0.17296
# Poissons Ratio (y) = 0.41309 0.41843
# Poissons Ratio (z) = 0.06872 0.17226
#
# Static dielectric constant tensor:
#      x y z
#    x 2.169960 0.000000 0.000000 
#    y 0.000000 2.094610 0.000000 
#    z 0.000000 0.000000 2.188940 
# 
# From -- ./inp_files/1427.got.cif
#   From: 2010.05.17/outbox.cif.g08.bks.cpg/sg19_1_cif.got.tgz:1427.got - 2010.06.03 22:46:19.
