data_PCOD9315001
_publ_section_title
;
Structure prediction by ZEFSAII (Michael W. Deem and Ramdas Pophale) SiO2 
 PCOD9315001
Probable space group: P 21 21 21
;
_chemical_formula_sum "Si O2"
_cell_formula_units_Z 20
_cell_length_a 17.845730
_cell_length_b 5.381945
_cell_length_c 8.697360
_cell_angle_alpha 90.000000
_cell_angle_beta 90.000000
_cell_angle_gamma 90.000000
_cell_volume 835.335657
_symmetry_space_group_name_H-M "P 21 21 21"
_symmetry_group_IT_number 19
_symmetry_cell_setting 'orthorhombic'
loop_
_space_group_symop_operation_xyz
x,y,z
1/2-x,-y,1/2+z
1/2+x,1/2-y,-z
-x,1/2+y,1/2-z
loop_
_atom_site_type_symbol
_atom_site_label
_atom_site_fract_x
_atom_site_fract_y
_atom_site_fract_z
Si Si1 0.242149 0.793511 0.324025
Si Si2 0.491194 0.488859 0.958525
Si Si3 0.169827 0.500801 0.585146
Si Si4 0.794560 0.686494 0.366356
Si Si5 0.932557 0.011837 0.394373
O O1 0.204790 0.561615 0.415989
O O2 0.288603 0.918759 0.461802
O O3 0.294873 0.720251 0.182889
O O4 0.180638 0.985461 0.258097
O O5 0.418115 0.513928 0.064747
O O6 0.529699 0.222479 0.980643
O O7 0.462929 0.487429 0.780716
O O8 0.545398 0.727230 0.969718
O O9 0.209125 0.733180 0.671694
O O10 0.846285 0.928276 0.383671
#
# Coordination Sequence:
#
# PCOD9315001 Si02
#       5
#     4   4   4   4   4
#     4  10  25  39  72 101 144 176 251 284 375 407
#     4  10  23  39  68  99 138 185 241 290 353 428
#     4  10  24  42  69 101 135 188 237 297 346 433
#     4  10  25  41  69 104 138 188 227 308 344 443
#     4  10  23  41  64 103 139 185 234 295 356 427
#
# _framework density 23.942471999999999
#
# number of rings (size 3 to 8) (size 9 to 14) (size 15 to 20)
#    1.200    0.800    0.000    1.200   19.600    0.000 
#    0.000    2.000    0.000    0.000    0.000    0.000 
#    0.000    0.000    0.000    0.000    0.000    0.000 
#
# Total GULP energy -111467.484462 kJ/mol
# GULP energy per Si atom -5573.374223 kJ/mol
# Density = 2.388798 g / cm^3
# Si number density = 23.942472 Si / 1000 Ang^3
#
#
#
# Elastic Constant Matrix: (Units=GPa)
#
#
# Indices 1 2 3 4 5 6 
#
# 1 49.4353 17.6663 17.6319 0.0000 0.0000 0.0000
# 2 17.6663 101.7310 24.7933 0.0000 0.0000 0.0000
# 3 17.6319 24.7933 47.0511 0.0000 0.0000 0.0000
# 4 0.0000 0.0000 0.0000 32.7686 0.0000 0.0000
# 5 0.0000 0.0000 0.0000 0.0000 26.4317 0.0000
# 6 0.0000 0.0000 0.0000 0.0000 0.0000 36.7744
#
#
#
# Elastic Compliance Matrix: (Units=1/GPa)
#
#
# Indices 1 2 3 4 5 6 
#
# 1 0.023789 -0.002247 -0.007731 0.000000 0.000000 0.000000
# 2 -0.002247 0.011490 -0.005213 0.000000 0.000000 0.000000
# 3 -0.007731 -0.005213 0.026897 0.000000 0.000000 0.000000
# 4 0.000000 0.000000 0.000000 0.030517 0.000000 0.000000
# 5 0.000000 0.000000 0.000000 0.000000 0.037833 0.000000
# 6 0.000000 0.000000 0.000000 0.000000 0.000000 0.027193
#
#
# Mechanical properties :
#
#
# Convention : Reuss Voigt Hill
#
# Bulk Modulus (GPa) = 31.45074 35.37784 33.41429
# Shear Modulus (GPa) = 25.16371 28.40333 26.78352
#
# Velocity S-wave (km/s) = 3.24544 3.44803 3.34827
# Velocity P-wave (km/s) = 5.21616 5.53716 5.37906
#
# Compressibility (1/GPa) = 0.03179575
#
# Stress axis : x y z
#
# Youngs Moduli (GPa) = 42.03685 87.02848 37.17850
#
# Poissons Ratio (x) = 0.19556 0.28741
# Poissons Ratio (y) = 0.09446 0.19380
# Poissons Ratio (z) = 0.32497 0.45366
#
# Static dielectric constant tensor:
#      x y z
#    x 1.936450 0.000000 0.000000 
#    y 0.000000 2.002220 0.000000 
#    z 0.000000 0.000000 1.939600 
# 
# From -- ./inp_files/4079.got.cif
#   From: 2010.05.17/outbox.cif.g08.bks.cpg/sg19_3_cif.got.tgz:4079.got - 2010.06.03 22:46:19.
