data_PCOD9315015
_publ_section_title
;
Structure prediction by ZEFSAII (Michael W. Deem and Ramdas Pophale) SiO2 
 PCOD9315015
Probable space group: P 21 21 21
;
_chemical_formula_sum "Si O2"
_cell_formula_units_Z 28
_cell_length_a 5.844577
_cell_length_b 10.233112
_cell_length_c 18.153310
_cell_angle_alpha 90.000000
_cell_angle_beta 90.000000
_cell_angle_gamma 90.000000
_cell_volume 1085.716995
_symmetry_space_group_name_H-M "P 21 21 21"
_symmetry_group_IT_number 19
_symmetry_cell_setting 'orthorhombic'
loop_
_space_group_symop_operation_xyz
x,y,z
1/2-x,-y,1/2+z
1/2+x,1/2-y,-z
-x,1/2+y,1/2-z
loop_
_atom_site_type_symbol
_atom_site_label
_atom_site_fract_x
_atom_site_fract_y
_atom_site_fract_z
Si Si1 0.065203 0.253563 0.587816
Si Si2 0.567290 0.334898 0.574768
Si Si3 0.824356 0.906729 0.432908
Si Si4 0.921372 0.865799 0.267945
Si Si5 0.391232 0.512853 0.347882
Si Si6 0.023248 0.623087 0.444942
Si Si7 0.311738 0.920287 0.709447
O O1 0.321460 0.296862 0.612921
O O2 0.078888 0.255097 0.498413
O O3 0.023438 0.105284 0.612907
O O4 0.821730 0.322119 0.609355
O O5 0.512578 0.482952 0.552128
O O6 0.800909 0.896379 0.345216
O O7 0.588296 0.936084 0.475826
O O8 0.923580 0.766313 0.455931
O O9 0.783865 0.931858 0.202037
O O10 0.940404 0.709911 0.264535
O O11 0.148034 0.953075 0.259631
O O12 0.270178 0.607116 0.405670
O O13 0.542717 0.600987 0.294485
O O14 0.874223 0.564471 0.378035
#
# Coordination Sequence:
#
# PCOD9315015 Si02
#       7
#     4   4   4   4   4   4   4
#     4  10  23  40  70 101 143 189 245 302 379 444
#     4  10  23  42  66 106 139 188 247 309 368 449
#     4  11  24  45  71 106 148 188 247 314 374 467
#     4  10  26  45  70 105 143 190 252 307 384 455
#     4  11  24  46  74  98 144 201 240 311 386 451
#     4  10  25  44  69 107 143 191 243 307 389 445
#     4  10  25  48  72 105 148 191 252 312 380 469
#
# _framework density 25.78941
#
# number of rings (size 3 to 8) (size 9 to 14) (size 15 to 20)
#    0.000    1.714    1.429    0.000   10.000    6.857 
#    0.000    0.000    0.000    0.000    0.000    0.000 
#    0.000    0.000    0.000    0.000    0.000    0.000 
#
# Total GULP energy -156231.803003 kJ/mol
# GULP energy per Si atom -5579.707250 kJ/mol
# Density = 2.573071 g / cm^3
# Si number density = 25.789410 Si / 1000 Ang^3
#
#
#
# Elastic Constant Matrix: (Units=GPa)
#
#
# Indices 1 2 3 4 5 6 
#
# 1 116.4866 41.9191 23.4413 0.0000 0.0000 0.0000
# 2 41.9191 71.1739 -2.6198 0.0000 0.0000 0.0000
# 3 23.4413 -2.6198 65.8252 0.0000 0.0000 0.0000
# 4 0.0000 0.0000 0.0000 -7.8197 0.0000 0.0000
# 5 0.0000 0.0000 0.0000 0.0000 24.7626 0.0000
# 6 0.0000 0.0000 0.0000 0.0000 0.0000 32.7347
#
#
#
# Elastic Compliance Matrix: (Units=1/GPa)
#
#
# Indices 1 2 3 4 5 6 
#
# 1 0.012151 -0.007326 -0.004619 0.000000 0.000000 0.000000
# 2 -0.007326 0.018488 0.003345 0.000000 0.000000 0.000000
# 3 -0.004619 0.003345 0.016970 0.000000 0.000000 0.000000
# 4 0.000000 0.000000 0.000000 -0.127881 0.000000 0.000000
# 5 0.000000 0.000000 0.000000 0.000000 0.040383 0.000000
# 6 0.000000 0.000000 0.000000 0.000000 0.000000 0.030549
#
#
# Mechanical properties :
#
#
# Convention : Reuss Voigt Hill
#
# Bulk Modulus (GPa) = 32.88581 42.10742 37.49661
# Shear Modulus (GPa) = 277.85346 22.65186 150.25266
#
# Velocity S-wave (km/s) = 10.39102 2.96689 7.64119
# Velocity P-wave (km/s) = 12.51973 5.30089 9.61361
#
# Compressibility (1/GPa) = 0.03040825
#
# Stress axis : x y z
#
# Youngs Moduli (GPa) = 82.30084 54.08872 58.92889
#
# Poissons Ratio (x) = 0.39627 0.27217
# Poissons Ratio (y) = 0.60296 -0.19711
# Poissons Ratio (z) = 0.38011 -0.18092
#
# Static dielectric constant tensor:
#      x y z
#    x 2.734550 0.000000 0.000000 
#    y 0.000000 2.045970 0.000000 
#    z 0.000000 0.000000 2.087430 
# 
# From -- ./inp_files/6436.got.cif
#   From: 2010.05.17/outbox.cif.g08.bks.cpg/sg19_4_cif.got.tgz:6436.got - 2010.06.03 22:46:19.
