data_PCOD9315100
_publ_section_title
;
Structure prediction by ZEFSAII (Michael W. Deem and Ramdas Pophale) SiO2 
 PCOD9315100
Probable space group: P 21 21 21
;
_chemical_formula_sum "Si O2"
_cell_formula_units_Z 32
_cell_length_a 5.351637
_cell_length_b 11.411339
_cell_length_c 20.583433
_cell_angle_alpha 90.000000
_cell_angle_beta 90.000000
_cell_angle_gamma 90.000000
_cell_volume 1257.016751
_symmetry_space_group_name_H-M "P 21 21 21"
_symmetry_group_IT_number 19
_symmetry_cell_setting 'orthorhombic'
loop_
_space_group_symop_operation_xyz
x,y,z
1/2-x,-y,1/2+z
1/2+x,1/2-y,-z
-x,1/2+y,1/2-z
loop_
_atom_site_type_symbol
_atom_site_label
_atom_site_fract_x
_atom_site_fract_y
_atom_site_fract_z
Si Si1 0.185953 0.587511 0.869077
Si Si2 0.577925 0.167676 0.153815
Si Si3 0.505378 0.804300 0.892421
Si Si4 0.597907 0.683037 0.565735
Si Si5 0.613746 0.366612 0.246355
Si Si6 0.192151 0.140242 0.526100
Si Si7 0.319132 0.910442 0.557514
Si Si8 0.385447 0.539282 0.680399
O O1 0.246120 0.450511 0.852782
O O2 0.062903 0.598022 0.940093
O O3 0.379658 0.692631 0.857758
O O4 0.953041 0.618350 0.821201
O O5 0.664968 0.275824 0.108085
O O6 0.588963 0.230914 0.223029
O O7 0.316344 0.123243 0.124551
O O8 0.730278 0.759278 0.938186
O O9 0.575759 0.906741 0.843426
O O10 0.317665 0.850064 0.948929
O O11 0.509580 0.809146 0.541653
O O12 0.632035 0.603751 0.503521
O O13 0.415942 0.620102 0.616224
O O14 0.880767 0.419957 0.225540
O O15 0.382146 0.435000 0.211910
O O16 0.394837 0.044075 0.550377
#
# Coordination Sequence:
#
# PCOD9315100 Si02
#       8
#     4   4   4   4   4   4   4   4
#     4  11  27  47  72 105 142 202 241 318 376 451
#     4  10  23  43  67  97 140 178 248 295 366 437
#     4  12  25  46  72 105 154 199 251 312 386 462
#     4  11  20  38  66 100 132 185 229 303 366 427
#     4  11  27  51  74 109 142 199 252 309 371 448
#     4  11  25  43  67 106 144 191 249 306 384 458
#     4  11  20  37  64  97 137 180 236 306 363 441
#     4  11  27  47  76 105 147 192 250 305 368 448
#
# _framework density 25.457097000000001
#
# number of rings (size 3 to 8) (size 9 to 14) (size 15 to 20)
#    0.000    1.000    5.000    0.750    5.250    0.000 
#    4.500    0.000    0.000    0.000    0.000    0.000 
#    0.000    0.000    0.000    0.000    0.000    0.000 
#
# Total GULP energy -178949.510366 kJ/mol
# GULP energy per Si atom -5592.172199 kJ/mol
# Density = 2.539916 g / cm^3
# Si number density = 25.457097 Si / 1000 Ang^3
#
#
#
# Elastic Constant Matrix: (Units=GPa)
#
#
# Indices 1 2 3 4 5 6 
#
# 1 75.2669 31.1577 5.4236 0.0000 0.0000 0.0000
# 2 31.1577 166.5654 35.9072 0.0000 0.0000 0.0000
# 3 5.4236 35.9072 85.4165 0.0000 0.0000 0.0000
# 4 0.0000 0.0000 0.0000 42.6468 0.0000 0.0000
# 5 0.0000 0.0000 0.0000 0.0000 25.8800 0.0000
# 6 0.0000 0.0000 0.0000 0.0000 0.0000 41.0259
#
#
#
# Elastic Compliance Matrix: (Units=1/GPa)
#
#
# Indices 1 2 3 4 5 6 
#
# 1 0.014406 -0.002746 0.000240 0.000000 0.000000 0.000000
# 2 -0.002746 0.007126 -0.002821 0.000000 0.000000 0.000000
# 3 0.000240 -0.002821 0.012878 0.000000 0.000000 0.000000
# 4 0.000000 0.000000 0.000000 0.023448 0.000000 0.000000
# 5 0.000000 0.000000 0.000000 0.000000 0.038640 0.000000
# 6 0.000000 0.000000 0.000000 0.000000 0.000000 0.024375
#
#
# Mechanical properties :
#
#
# Convention : Reuss Voigt Hill
#
# Bulk Modulus (GPa) = 42.09821 52.46954 47.28388
# Shear Modulus (GPa) = 35.85626 38.89455 37.37540
#
# Velocity S-wave (km/s) = 3.75707 3.91301 3.83583
# Velocity P-wave (km/s) = 5.94925 6.40868 6.18324
#
# Compressibility (1/GPa) = 0.02375398
#
# Stress axis : x y z
#
# Youngs Moduli (GPa) = 69.41703 140.34037 77.65178
#
# Poissons Ratio (x) = 0.38543 -0.01862
# Poissons Ratio (y) = 0.19065 0.21906
# Poissons Ratio (z) = -0.01665 0.39590
#
# Static dielectric constant tensor:
#      x y z
#    x 2.106730 0.000000 0.000000 
#    y 0.000000 2.031560 0.000000 
#    z 0.000000 0.000000 2.067920 
# 
# From -- ./inp_files/2048.got.cif
#   From: 2010.05.17/outbox.cif.g08.bks.cpg/sg19_2_cif.got.tgz:2048.got - 2010.06.03 22:46:19.
