data_PCOD9315068
_publ_section_title
;
Structure prediction by ZEFSAII (Michael W. Deem and Ramdas Pophale) SiO2 
 PCOD9315068
Probable space group: P 21 21 21
;
_chemical_formula_sum "Si O2"
_cell_formula_units_Z 28
_cell_length_a 14.441737
_cell_length_b 15.972715
_cell_length_c 5.134146
_cell_angle_alpha 90.000000
_cell_angle_beta 90.000000
_cell_angle_gamma 90.000000
_cell_volume 1184.312707
_symmetry_space_group_name_H-M "P 21 21 21"
_symmetry_group_IT_number 19
_symmetry_cell_setting 'orthorhombic'
loop_
_space_group_symop_operation_xyz
x,y,z
1/2-x,-y,1/2+z
1/2+x,1/2-y,-z
-x,1/2+y,1/2-z
loop_
_atom_site_type_symbol
_atom_site_label
_atom_site_fract_x
_atom_site_fract_y
_atom_site_fract_z
Si Si1 0.970123 0.370978 0.656519
Si Si2 0.047948 0.681024 0.892627
Si Si3 0.143869 0.319368 0.011559
Si Si4 0.212611 0.616186 0.171394
Si Si5 0.870221 0.965248 0.091893
Si Si6 0.810689 0.498053 0.633116
Si Si7 0.432668 0.854033 0.619495
O O1 0.877010 0.420825 0.720336
O O2 0.950933 0.279876 0.535751
O O3 0.047373 0.347483 0.873640
O O4 0.027619 0.435660 0.478243
O O5 0.979827 0.635327 0.098721
O O6 0.151869 0.648434 0.932685
O O7 0.007645 0.667636 0.606115
O O8 0.230961 0.311581 0.816877
O O9 0.127648 0.230912 0.145947
O O10 0.163221 0.395773 0.203007
O O11 0.139829 0.559595 0.325740
O O12 0.296715 0.550697 0.134659
O O13 0.741909 0.472444 0.395633
O O14 0.871482 0.571424 0.498394
#
# Coordination Sequence:
#
# PCOD9315068 Si02
#       7
#     4   4   4   4   4   4   4
#     4  10  25  45  66  96 134 183 221 282 347 403
#     4  11  25  43  73 100 135 183 225 277 346 411
#     4  10  23  42  68  93 140 172 223 283 345 404
#     4  11  24  36  67 106 127 178 221 284 336 410
#     4  11  21  40  64  96 140 167 221 276 349 396
#     4  12  29  46  73 102 136 187 237 287 335 410
#     4  11  25  48  67 101 138 184 228 281 346 402
#
# _framework density 23.642403000000002
#
# number of rings (size 3 to 8) (size 9 to 14) (size 15 to 20)
#    0.000    1.143    2.857    1.714    8.000    1.143 
#    0.000    0.000    0.000    0.000    0.000    0.000 
#    0.000    0.000    0.000    0.000    0.000    0.000 
#
# Total GULP energy -156362.911485 kJ/mol
# GULP energy per Si atom -5584.389696 kJ/mol
# Density = 2.358859 g / cm^3
# Si number density = 23.642403 Si / 1000 Ang^3
#
#
#
# Elastic Constant Matrix: (Units=GPa)
#
#
# Indices 1 2 3 4 5 6 
#
# 1 83.9915 47.5170 0.4334 0.0000 0.0000 0.0000
# 2 47.5170 63.8048 3.1489 0.0000 0.0000 0.0000
# 3 0.4334 3.1489 41.5397 0.0000 0.0000 0.0000
# 4 0.0000 0.0000 0.0000 25.8678 0.0000 0.0000
# 5 0.0000 0.0000 0.0000 0.0000 30.6794 0.0000
# 6 0.0000 0.0000 0.0000 0.0000 0.0000 28.1912
#
#
#
# Elastic Compliance Matrix: (Units=1/GPa)
#
#
# Indices 1 2 3 4 5 6 
#
# 1 0.020612 -0.015397 0.000952 0.000000 0.000000 0.000000
# 2 -0.015397 0.027233 -0.001904 0.000000 0.000000 0.000000
# 3 0.000952 -0.001904 0.024208 0.000000 0.000000 0.000000
# 4 0.000000 0.000000 0.000000 0.038658 0.000000 0.000000
# 5 0.000000 0.000000 0.000000 0.000000 0.032595 0.000000
# 6 0.000000 0.000000 0.000000 0.000000 0.000000 0.035472
#
#
# Mechanical properties :
#
#
# Convention : Reuss Voigt Hill
#
# Bulk Modulus (GPa) = 25.40947 32.39273 28.90110
# Shear Modulus (GPa) = 22.26238 26.16344 24.21291
#
# Velocity S-wave (km/s) = 3.07193 3.33022 3.20368
# Velocity P-wave (km/s) = 4.83250 5.34022 5.09269
#
# Compressibility (1/GPa) = 0.03935540
#
# Stress axis : x y z
#
# Youngs Moduli (GPa) = 48.51603 36.71971 41.30910
#
# Poissons Ratio (x) = 0.56538 -0.03933
# Poissons Ratio (y) = 0.74700 0.07864
# Poissons Ratio (z) = -0.04619 0.06990
#
# Static dielectric constant tensor:
#      x y z
#    x 1.918830 0.000000 0.000000 
#    y 0.000000 1.881940 0.000000 
#    z 0.000000 0.000000 2.019850 
# 
# From -- ./inp_files/1018.got.cif
#   From: 2010.05.17/outbox.cif.g08.bks.cpg/sg19_1_cif.got.tgz:1018.got - 2010.06.03 22:46:19.
