data_PCOD9315822
_publ_section_title
;
Structure prediction by ZEFSAII (Michael W. Deem and Ramdas Pophale) SiO2 
 PCOD9315822
Probable space group: P 21 21 21
;
_chemical_formula_sum "Si O2"
_cell_formula_units_Z 32
_cell_length_a 11.448003
_cell_length_b 8.009277
_cell_length_c 14.749341
_cell_angle_alpha 90.000000
_cell_angle_beta 90.000000
_cell_angle_gamma 90.000000
_cell_volume 1352.370426
_symmetry_space_group_name_H-M "P 21 21 21"
_symmetry_group_IT_number 19
_symmetry_cell_setting 'orthorhombic'
loop_
_space_group_symop_operation_xyz
x,y,z
1/2-x,-y,1/2+z
1/2+x,1/2-y,-z
-x,1/2+y,1/2-z
loop_
_atom_site_type_symbol
_atom_site_label
_atom_site_fract_x
_atom_site_fract_y
_atom_site_fract_z
Si Si1 0.228674 0.928892 0.643473
Si Si2 0.207992 0.359570 0.363087
Si Si3 0.354838 0.983490 0.957910
Si Si4 0.210660 0.162167 0.810780
Si Si5 0.467861 0.014550 0.571495
Si Si6 0.230804 0.471607 0.691293
Si Si7 0.962953 0.145822 0.884118
Si Si8 0.612060 0.894908 0.978889
O O1 0.143566 0.776080 0.617713
O O2 0.194133 0.049714 0.558510
O O3 0.203786 0.006812 0.741195
O O4 0.368192 0.922381 0.629628
O O5 0.172600 0.177738 0.397430
O O6 0.239789 0.376033 0.258390
O O7 0.317845 0.410604 0.426554
O O8 0.090815 0.465312 0.378566
O O9 0.493061 0.000387 0.970848
O O10 0.285888 0.124821 0.901178
O O11 0.261117 0.310688 0.750834
O O12 0.078688 0.208691 0.835942
O O13 0.425474 0.201645 0.540867
O O14 0.495527 0.911017 0.481962
O O15 0.094784 0.485852 0.665411
O O16 0.302498 0.459177 0.599421
#
# Coordination Sequence:
#
# PCOD9315822 Si02
#       8
#     4   4   4   4   4   4   4   4
#     4  12  26  49  75 105 152 198 241 315 373 440
#     4  11  24  46  74 105 148 195 245 312 369 447
#     4  11  26  45  74 106 144 197 244 302 376 443
#     4  12  26  48  70 109 149 195 248 304 377 446
#     4  11  24  48  75 102 150 191 249 303 373 449
#     4  12  27  45  72 108 145 194 248 305 375 440
#     4  12  27  45  75 108 148 191 251 307 365 456
#     4  11  24  46  75 105 144 195 242 300 376 445
#
# _framework density 23.662157000000001
#
# number of rings (size 3 to 8) (size 9 to 14) (size 15 to 20)
#    0.000    0.500    5.000    1.500    8.750    1.000 
#    0.000    0.000    0.000    0.000    0.000    0.000 
#    0.000    0.000    0.000    0.000    0.000    0.000 
#
# Total GULP energy -179036.528693 kJ/mol
# GULP energy per Si atom -5594.891522 kJ/mol
# Density = 2.360830 g / cm^3
# Si number density = 23.662157 Si / 1000 Ang^3
#
#
#
# Elastic Constant Matrix: (Units=GPa)
#
#
# Indices 1 2 3 4 5 6 
#
# 1 113.5988 22.8040 33.3627 0.0000 0.0000 0.0000
# 2 22.8040 58.9192 9.5128 0.0000 0.0000 0.0000
# 3 33.3627 9.5128 67.8822 0.0000 0.0000 0.0000
# 4 0.0000 0.0000 0.0000 32.1489 0.0000 0.0000
# 5 0.0000 0.0000 0.0000 0.0000 34.5377 0.0000
# 6 0.0000 0.0000 0.0000 0.0000 0.0000 33.7471
#
#
#
# Elastic Compliance Matrix: (Units=1/GPa)
#
#
# Indices 1 2 3 4 5 6 
#
# 1 0.010930 -0.003441 -0.004889 0.000000 0.000000 0.000000
# 2 -0.003441 0.018448 -0.000894 0.000000 0.000000 0.000000
# 3 -0.004889 -0.000894 0.017260 0.000000 0.000000 0.000000
# 4 0.000000 0.000000 0.000000 0.031105 0.000000 0.000000
# 5 0.000000 0.000000 0.000000 0.000000 0.028954 0.000000
# 6 0.000000 0.000000 0.000000 0.000000 0.000000 0.029632
#
#
# Mechanical properties :
#
#
# Convention : Reuss Voigt Hill
#
# Bulk Modulus (GPa) = 35.47498 41.30658 38.39078
# Shear Modulus (GPa) = 30.45538 31.73476 31.09507
#
# Velocity S-wave (km/s) = 3.59150 3.66616 3.62902
# Velocity P-wave (km/s) = 5.67656 5.95111 5.81545
#
# Compressibility (1/GPa) = 0.02818888
#
# Stress axis : x y z
#
# Youngs Moduli (GPa) = 91.49468 54.20497 57.93811
#
# Poissons Ratio (x) = 0.18651 0.28329
# Poissons Ratio (y) = 0.31481 0.05181
# Poissons Ratio (z) = 0.44736 0.04847
#
# Static dielectric constant tensor:
#      x y z
#    x 1.877470 0.000000 0.000000 
#    y 0.000000 2.073950 0.000000 
#    z 0.000000 0.000000 1.885130 
# 
# From -- ./inp_files/6120.got.cif
#   From: 2010.05.17/outbox.cif.g08.bks.cpg/sg19_4_cif.got.tgz:6120.got - 2010.06.03 22:46:19.
