data_PCOD9315692
_publ_section_title
;
Structure prediction by ZEFSAII (Michael W. Deem and Ramdas Pophale) SiO2 
 PCOD9315692
Probable space group: P 21 21 21
;
_chemical_formula_sum "Si O2"
_cell_formula_units_Z 24
_cell_length_a 13.273662
_cell_length_b 11.160626
_cell_length_c 6.486723
_cell_angle_alpha 90.000000
_cell_angle_beta 90.000000
_cell_angle_gamma 90.000000
_cell_volume 960.958566
_symmetry_space_group_name_H-M "P 21 21 21"
_symmetry_group_IT_number 19
_symmetry_cell_setting 'orthorhombic'
loop_
_space_group_symop_operation_xyz
x,y,z
1/2-x,-y,1/2+z
1/2+x,1/2-y,-z
-x,1/2+y,1/2-z
loop_
_atom_site_type_symbol
_atom_site_label
_atom_site_fract_x
_atom_site_fract_y
_atom_site_fract_z
Si Si1 0.513052 0.139260 0.302137
Si Si2 0.890911 0.499182 0.966547
Si Si3 0.065767 0.663975 0.091722
Si Si4 0.277657 0.162453 0.731679
Si Si5 0.352812 0.504398 0.906505
Si Si6 0.672951 0.162117 0.980525
O O1 0.496756 0.229429 0.489354
O O2 0.568433 0.187522 0.098543
O O3 0.406673 0.089804 0.225669
O O4 0.592037 0.044675 0.389753
O O5 0.807678 0.595061 0.897886
O O6 0.859090 0.431725 0.176835
O O7 0.002849 0.556000 0.986176
O O8 0.175603 0.729681 0.094296
O O9 0.077911 0.602456 0.314510
O O10 0.235376 0.222615 0.943204
O O11 0.242641 0.449449 0.942690
O O12 0.346097 0.616738 0.749932
#
# Coordination Sequence:
#
# PCOD9315692 Si02
#       6
#     4   4   4   4   4   4
#     4  12  25  44  74 106 148 194 248 305 370 448
#     4  12  26  49  73 108 154 196 249 310 377 447
#     4  11  25  45  74 108 145 197 253 295 375 441
#     4  11  27  49  71 111 149 200 246 313 377 445
#     4  11  24  43  71 108 146 190 248 309 364 439
#     4  11  23  44  71 105 144 191 246 306 375 434
#
# _framework density 24.975062999999999
#
# number of rings (size 3 to 8) (size 9 to 14) (size 15 to 20)
#    0.000    0.667    5.000    2.000    0.000    6.667 
#    0.000    0.000    0.000    0.000    0.000    0.000 
#    0.000    0.000    0.000    0.000    0.000    0.000 
#
# Total GULP energy -133648.909771 kJ/mol
# GULP energy per Si atom -5568.704574 kJ/mol
# Density = 2.491822 g / cm^3
# Si number density = 24.975063 Si / 1000 Ang^3
#
#
#
# Elastic Constant Matrix: (Units=GPa)
#
#
# Indices 1 2 3 4 5 6 
#
# 1 87.4998 33.4004 43.0606 0.0000 0.0000 0.0000
# 2 33.4004 55.4311 9.3276 0.0000 0.0000 0.0000
# 3 43.0606 9.3276 63.3693 0.0000 0.0000 0.0000
# 4 0.0000 0.0000 0.0000 -12.5011 0.0000 0.0000
# 5 0.0000 0.0000 0.0000 0.0000 52.1117 0.0000
# 6 0.0000 0.0000 0.0000 0.0000 0.0000 47.5617
#
#
#
# Elastic Compliance Matrix: (Units=1/GPa)
#
#
# Indices 1 2 3 4 5 6 
#
# 1 0.022375 -0.011201 -0.013556 0.000000 0.000000 0.000000
# 2 -0.011201 0.024106 0.004063 0.000000 0.000000 0.000000
# 3 -0.013556 0.004063 0.024394 0.000000 0.000000 0.000000
# 4 0.000000 0.000000 0.000000 -0.079993 0.000000 0.000000
# 5 0.000000 0.000000 0.000000 0.000000 0.019190 0.000000
# 6 0.000000 0.000000 0.000000 0.000000 0.000000 0.021025
#
#
# Mechanical properties :
#
#
# Convention : Reuss Voigt Hill
#
# Bulk Modulus (GPa) = 33.91251 41.98637 37.94944
# Shear Modulus (GPa) = 60.74293 25.46858 43.10575
#
# Velocity S-wave (km/s) = 4.93703 3.19683 4.15896
# Velocity P-wave (km/s) = 6.79021 5.52034 6.18794
#
# Compressibility (1/GPa) = 0.02948764
#
# Stress axis : x y z
#
# Youngs Moduli (GPa) = 44.69174 41.48320 40.99399
#
# Poissons Ratio (x) = 0.46467 0.55571
# Poissons Ratio (y) = 0.50061 -0.16657
# Poissons Ratio (z) = 0.60583 -0.16856
#
# Static dielectric constant tensor:
#      x y z
#    x 1.989220 0.000000 0.000000 
#    y 0.000000 2.043200 0.000000 
#    z 0.000000 0.000000 1.907780 
# 
# From -- ./inp_files/1430.got.cif
#   From: 2010.05.17/outbox.cif.g08.bks.cpg/sg19_1_cif.got.tgz:1430.got - 2010.06.03 22:46:19.
