data_PCOD9315340
_publ_section_title
;
Structure prediction by ZEFSAII (Michael W. Deem and Ramdas Pophale) SiO2 
 PCOD9315340
Probable space group: P 21 21 21
;
_chemical_formula_sum "Si O2"
_cell_formula_units_Z 28
_cell_length_a 11.979545
_cell_length_b 16.073892
_cell_length_c 6.037214
_cell_angle_alpha 90.000000
_cell_angle_beta 90.000000
_cell_angle_gamma 90.000000
_cell_volume 1162.513325
_symmetry_space_group_name_H-M "P 21 21 21"
_symmetry_group_IT_number 19
_symmetry_cell_setting 'orthorhombic'
loop_
_space_group_symop_operation_xyz
x,y,z
1/2-x,-y,1/2+z
1/2+x,1/2-y,-z
-x,1/2+y,1/2-z
loop_
_atom_site_type_symbol
_atom_site_label
_atom_site_fract_x
_atom_site_fract_y
_atom_site_fract_z
Si Si1 0.050329 0.711066 0.613748
Si Si2 0.911380 0.864080 0.793931
Si Si3 0.366759 0.173804 0.761890
Si Si4 0.516141 0.518825 0.897600
Si Si5 0.737501 0.237297 0.627324
Si Si6 0.726010 0.963427 0.633869
Si Si7 0.342978 0.873029 0.541772
O O1 0.088648 0.741608 0.372082
O O2 0.162152 0.689815 0.746598
O O3 0.994439 0.793546 0.714026
O O4 0.950198 0.646146 0.612581
O O5 0.812614 0.886694 0.624871
O O6 0.842491 0.825750 0.000308
O O7 0.986410 0.943252 0.860922
O O8 0.461484 0.104501 0.733222
O O9 0.302479 0.201617 0.541672
O O10 0.272966 0.133825 0.917449
O O11 0.407966 0.463858 0.837985
O O12 0.625987 0.463454 0.870185
O O13 0.666226 0.298036 0.783305
O O14 0.741225 0.002684 0.384916
#
# Coordination Sequence:
#
# PCOD9315340 Si02
#       7
#     4   4   4   4   4   4   4
#     4  11  24  44  73  99 138 185 238 293 362 432
#     4  11  23  45  72 103 141 188 240 300 363 439
#     4  11  24  45  68  98 138 184 231 295 352 442
#     4  11  25  44  70 103 145 186 236 301 375 429
#     4  11  25  45  69 102 136 183 237 294 355 439
#     4  10  24  45  70 108 144 189 242 303 369 440
#     4  11  27  42  70 105 136 181 242 294 362 441
#
# _framework density 24.085743999999998
#
# number of rings (size 3 to 8) (size 9 to 14) (size 15 to 20)
#    0.000    1.143    2.857    1.714    4.000    5.714 
#    5.143    0.000    0.000    0.000    0.000    0.000 
#    0.000    0.000    0.000    0.000    0.000    0.000 
#
# Total GULP energy -156314.358730 kJ/mol
# GULP energy per Si atom -5582.655669 kJ/mol
# Density = 2.403092 g / cm^3
# Si number density = 24.085744 Si / 1000 Ang^3
#
#
#
# Elastic Constant Matrix: (Units=GPa)
#
#
# Indices 1 2 3 4 5 6 
#
# 1 105.1841 17.8316 31.2278 0.0000 0.0000 0.0000
# 2 17.8316 51.5661 -4.9831 0.0000 0.0000 0.0000
# 3 31.2278 -4.9831 46.4908 0.0000 0.0000 0.0000
# 4 0.0000 0.0000 0.0000 30.6089 0.0000 0.0000
# 5 0.0000 0.0000 0.0000 0.0000 29.5990 0.0000
# 6 0.0000 0.0000 0.0000 0.0000 0.0000 26.0352
#
#
#
# Elastic Compliance Matrix: (Units=1/GPa)
#
#
# Indices 1 2 3 4 5 6 
#
# 1 0.013259 -0.005503 -0.009496 0.000000 0.000000 0.000000
# 2 -0.005503 0.021879 0.006041 0.000000 0.000000 0.000000
# 3 -0.009496 0.006041 0.028536 0.000000 0.000000 0.000000
# 4 0.000000 0.000000 0.000000 0.032670 0.000000 0.000000
# 5 0.000000 0.000000 0.000000 0.000000 0.033785 0.000000
# 6 0.000000 0.000000 0.000000 0.000000 0.000000 0.038410
#
#
# Mechanical properties :
#
#
# Convention : Reuss Voigt Hill
#
# Bulk Modulus (GPa) = 21.85353 32.37709 27.11531
# Shear Modulus (GPa) = 24.78845 27.85959 26.32402
#
# Velocity S-wave (km/s) = 3.21156 3.40470 3.30953
# Velocity P-wave (km/s) = 4.77965 5.37843 5.08786
#
# Compressibility (1/GPa) = 0.04575920
#
# Stress axis : x y z
#
# Youngs Moduli (GPa) = 75.41902 45.70543 35.04388
#
# Poissons Ratio (x) = 0.25150 0.33278
# Poissons Ratio (y) = 0.41501 -0.21171
# Poissons Ratio (z) = 0.71618 -0.27612
#
# Static dielectric constant tensor:
#      x y z
#    x 1.872040 0.000000 0.000000 
#    y 0.000000 1.951310 0.000000 
#    z 0.000000 0.000000 1.991420 
# 
# From -- ./inp_files/1027.got.cif
#   From: 2010.05.17/outbox.cif.g08.bks.cpg/sg19_1_cif.got.tgz:1027.got - 2010.06.03 22:46:19.
