data_PCOD9315983
_publ_section_title
;
Structure prediction by ZEFSAII (Michael W. Deem and Ramdas Pophale) SiO2 
 PCOD9315983
Probable space group: P 21 21 21
;
_chemical_formula_sum "Si O2"
_cell_formula_units_Z 20
_cell_length_a 7.371365
_cell_length_b 10.011801
_cell_length_c 9.598845
_cell_angle_alpha 90.000000
_cell_angle_beta 90.000000
_cell_angle_gamma 90.000000
_cell_volume 708.400899
_symmetry_space_group_name_H-M "P 21 21 21"
_symmetry_group_IT_number 19
_symmetry_cell_setting 'orthorhombic'
loop_
_space_group_symop_operation_xyz
x,y,z
1/2-x,-y,1/2+z
1/2+x,1/2-y,-z
-x,1/2+y,1/2-z
loop_
_atom_site_type_symbol
_atom_site_label
_atom_site_fract_x
_atom_site_fract_y
_atom_site_fract_z
Si Si1 0.183042 0.398475 0.584563
Si Si2 0.342394 0.067506 0.575029
Si Si3 0.045050 0.521357 0.843364
Si Si4 0.692125 0.704317 0.436879
Si Si5 0.030674 0.657785 0.302368
O O1 0.304985 0.440074 0.454087
O O2 0.332933 0.318269 0.677157
O O3 0.986389 0.356772 0.521525
O O4 0.125670 0.517557 0.689769
O O5 0.140209 0.102254 0.626981
O O6 0.285720 0.928483 0.492186
O O7 0.457699 0.995205 0.698224
O O8 0.979809 0.366420 0.865241
O O9 0.634312 0.802690 0.556720
O O10 0.841895 0.737673 0.319468
#
# Coordination Sequence:
#
# PCOD9315983 Si02
#       5
#     4   4   4   4   4
#     4  12  18  36  54  86 114 147 181 229 282 329
#     4   8  22  30  52  84 111 141 177 236 272 317
#     4   9  22  32  57  81 115 144 182 228 273 329
#     4   8  18  35  52  87 108 141 195 234 263 314
#     4   9  18  31  57  80 108 147 185 235 264 317
#
# _framework density 28.232600000000001
#
# number of rings (size 3 to 8) (size 9 to 14) (size 15 to 20)
#    2.400    0.000    2.000    1.200    5.600    0.000 
#    0.000    0.000    0.000    2.400    0.000    0.000 
#    0.000    0.000    0.000    0.000    0.000    0.000 
#
# Total GULP energy -111434.843014 kJ/mol
# GULP energy per Si atom -5571.742151 kJ/mol
# Density = 2.816834 g / cm^3
# Si number density = 28.232600 Si / 1000 Ang^3
#
#
#
# Elastic Constant Matrix: (Units=GPa)
#
#
# Indices 1 2 3 4 5 6 
#
# 1 223.2167 43.6089 83.4851 0.0000 0.0000 0.0000
# 2 43.6089 48.1301 29.0643 0.0000 0.0000 0.0000
# 3 83.4851 29.0643 160.3736 0.0000 0.0000 0.0000
# 4 0.0000 0.0000 0.0000 37.5152 0.0000 0.0000
# 5 0.0000 0.0000 0.0000 0.0000 60.0024 0.0000
# 6 0.0000 0.0000 0.0000 0.0000 0.0000 31.1753
#
#
#
# Elastic Compliance Matrix: (Units=1/GPa)
#
#
# Indices 1 2 3 4 5 6 
#
# 1 0.006218 -0.004131 -0.002488 0.000000 0.000000 0.000000
# 2 -0.004131 0.026075 -0.002575 0.000000 0.000000 0.000000
# 3 -0.002488 -0.002575 0.007997 0.000000 0.000000 0.000000
# 4 0.000000 0.000000 0.000000 0.026656 0.000000 0.000000
# 5 0.000000 0.000000 0.000000 0.000000 0.016666 0.000000
# 6 0.000000 0.000000 0.000000 0.000000 0.000000 0.032077
#
#
# Mechanical properties :
#
#
# Convention : Reuss Voigt Hill
#
# Bulk Modulus (GPa) = 45.65869 82.67078 64.16474
# Shear Modulus (GPa) = 35.36640 44.10938 39.73789
#
# Velocity S-wave (km/s) = 3.54316 3.95695 3.75576
# Velocity P-wave (km/s) = 5.73987 7.08677 6.44858
#
# Compressibility (1/GPa) = 0.02190164
#
# Stress axis : x y z
#
# Youngs Moduli (GPa) = 160.83502 38.35090 125.04270
#
# Poissons Ratio (x) = 0.15843 0.31110
# Poissons Ratio (y) = 0.66442 0.32199
# Poissons Ratio (z) = 0.40015 0.09876
#
# Static dielectric constant tensor:
#      x y z
#    x 2.185910 0.000000 0.000000 
#    y 0.000000 2.800190 0.000000 
#    z 0.000000 0.000000 2.145060 
# 
# From -- ./inp_files/2870.got.cif
#   From: 2010.05.17/outbox.cif.g08.bks.cpg/sg19_2_cif.got.tgz:2870.got - 2010.06.03 22:46:19.
