data_PCOD9315104
_publ_section_title
;
Structure prediction by ZEFSAII (Michael W. Deem and Ramdas Pophale) SiO2 
 PCOD9315104
Probable space group: P 21 21 21
;
_chemical_formula_sum "Si O2"
_cell_formula_units_Z 32
_cell_length_a 17.746427
_cell_length_b 5.413448
_cell_length_c 13.630464
_cell_angle_alpha 90.000000
_cell_angle_beta 90.000000
_cell_angle_gamma 90.000000
_cell_volume 1309.469950
_symmetry_space_group_name_H-M "P 21 21 21"
_symmetry_group_IT_number 19
_symmetry_cell_setting 'orthorhombic'
loop_
_space_group_symop_operation_xyz
x,y,z
1/2-x,-y,1/2+z
1/2+x,1/2-y,-z
-x,1/2+y,1/2-z
loop_
_atom_site_type_symbol
_atom_site_label
_atom_site_fract_x
_atom_site_fract_y
_atom_site_fract_z
Si Si1 0.641308 0.181165 0.368274
Si Si2 0.809775 0.026686 0.672385
Si Si3 0.968143 0.967028 0.035926
Si Si4 0.656554 0.746267 0.654398
Si Si5 0.258978 0.901790 0.972488
Si Si6 0.451849 0.009962 0.261483
Si Si7 0.890224 0.668552 0.541946
Si Si8 0.532640 0.790887 0.793760
O O1 0.659895 0.986805 0.282350
O O2 0.711671 0.231366 0.439626
O O3 0.613511 0.431666 0.314883
O O4 0.571256 0.097169 0.434340
O O5 0.741221 0.830721 0.672399
O O6 0.871546 0.923160 0.596458
O O7 0.770897 0.257750 0.622698
O O8 0.899001 0.061525 0.101752
O O9 0.009991 0.747880 0.093797
O O10 0.035675 0.164144 0.023991
O O11 0.667481 0.538440 0.571295
O O12 0.616319 0.713137 0.759108
O O13 0.188256 0.072474 0.004337
O O14 0.505223 0.764235 0.259643
O O15 0.413719 0.012620 0.368268
O O16 0.486213 0.570857 0.737783
#
# Coordination Sequence:
#
# PCOD9315104 Si02
#       8
#     4   4   4   4   4   4   4   4
#     4  11  24  42  77 103 141 198 234 301 369 445
#     4  10  24  47  64 101 148 187 242 296 369 436
#     4  11  22  45  72 108 138 187 249 300 367 436
#     4  10  23  45  71  97 145 190 243 302 365 436
#     4  11  24  47  68 103 144 190 247 296 370 450
#     4  11  25  45  73 108 144 186 241 302 369 428
#     4  10  25  42  66 104 141 185 235 312 354 438
#     4  10  23  43  69 104 141 183 235 303 361 421
#
# _framework density 24.437369
#
# number of rings (size 3 to 8) (size 9 to 14) (size 15 to 20)
#    0.000    1.500    2.500    0.750    8.750    0.000 
#   11.250    0.000    0.000    0.000    0.000    0.000 
#    0.000    0.000    0.000    0.000    0.000    0.000 
#
# Total GULP energy -178748.975129 kJ/mol
# GULP energy per Si atom -5585.905473 kJ/mol
# Density = 2.438175 g / cm^3
# Si number density = 24.437369 Si / 1000 Ang^3
#
#
#
# Elastic Constant Matrix: (Units=GPa)
#
#
# Indices 1 2 3 4 5 6 
#
# 1 95.4347 19.5099 29.8551 0.0000 0.0000 0.0000
# 2 19.5099 72.8563 19.3891 0.0000 0.0000 0.0000
# 3 29.8551 19.3891 91.2959 0.0000 0.0000 0.0000
# 4 0.0000 0.0000 0.0000 15.3705 0.0000 0.0000
# 5 0.0000 0.0000 0.0000 0.0000 52.4377 0.0000
# 6 0.0000 0.0000 0.0000 0.0000 0.0000 23.8297
#
#
#
# Elastic Compliance Matrix: (Units=1/GPa)
#
#
# Indices 1 2 3 4 5 6 
#
# 1 0.012027 -0.002304 -0.003444 0.000000 0.000000 0.000000
# 2 -0.002304 0.014989 -0.002430 0.000000 0.000000 0.000000
# 3 -0.003444 -0.002430 0.012596 0.000000 0.000000 0.000000
# 4 0.000000 0.000000 0.000000 0.065060 0.000000 0.000000
# 5 0.000000 0.000000 0.000000 0.000000 0.019070 0.000000
# 6 0.000000 0.000000 0.000000 0.000000 0.000000 0.041964
#
#
# Mechanical properties :
#
#
# Convention : Reuss Voigt Hill
#
# Bulk Modulus (GPa) = 42.99899 44.12167 43.56033
# Shear Modulus (GPa) = 26.34166 31.04976 28.69571
#
# Velocity S-wave (km/s) = 3.28674 3.56839 3.43046
# Velocity P-wave (km/s) = 5.66015 5.92217 5.79264
#
# Compressibility (1/GPa) = 0.02325636
#
# Stress axis : x y z
#
# Youngs Moduli (GPa) = 83.14855 66.71407 79.39325
#
# Poissons Ratio (x) = 0.15372 0.27339
# Poissons Ratio (y) = 0.19159 0.19292
# Poissons Ratio (z) = 0.28633 0.16211
#
# Static dielectric constant tensor:
#      x y z
#    x 1.965750 0.000000 0.000000 
#    y 0.000000 1.972820 0.000000 
#    z 0.000000 0.000000 2.022830 
# 
# From -- ./inp_files/1562.got.cif
#   From: 2010.05.17/outbox.cif.g08.bks.cpg/sg19_1_cif.got.tgz:1562.got - 2010.06.03 22:46:19.
