data_PCOD9315233
_publ_section_title
;
Structure prediction by ZEFSAII (Michael W. Deem and Ramdas Pophale) SiO2 
 PCOD9315233
Probable space group: P 21 21 21
;
_chemical_formula_sum "Si O2"
_cell_formula_units_Z 20
_cell_length_a 18.106068
_cell_length_b 7.716483
_cell_length_c 5.350419
_cell_angle_alpha 90.000000
_cell_angle_beta 90.000000
_cell_angle_gamma 90.000000
_cell_volume 747.534678
_symmetry_space_group_name_H-M "P 21 21 21"
_symmetry_group_IT_number 19
_symmetry_cell_setting 'orthorhombic'
loop_
_space_group_symop_operation_xyz
x,y,z
1/2-x,-y,1/2+z
1/2+x,1/2-y,-z
-x,1/2+y,1/2-z
loop_
_atom_site_type_symbol
_atom_site_label
_atom_site_fract_x
_atom_site_fract_y
_atom_site_fract_z
Si Si1 0.990683 0.128838 0.241488
Si Si2 0.649807 0.028780 0.921478
Si Si3 0.259407 0.750658 0.270488
Si Si4 0.420990 0.253015 0.266860
Si Si5 0.352823 0.964138 0.943186
O O1 0.929773 0.975717 0.291100
O O2 0.965847 0.253616 0.474297
O O3 0.073412 0.073934 0.292879
O O4 0.972710 0.198630 0.966809
O O5 0.634621 0.911924 0.173008
O O6 0.686529 0.206200 0.002367
O O7 0.706354 0.912552 0.766045
O O8 0.205402 0.912518 0.306347
O O9 0.312092 0.794514 0.040781
O O10 0.378914 0.080170 0.184008
#
# Coordination Sequence:
#
# PCOD9315233 Si02
#       5
#     4   4   4   4   4
#     4  10  26  46  79 105 151 205 260 315 379 471
#     4  10  25  48  76 107 154 208 255 307 402 468
#     4  12  26  48  75 120 157 208 251 336 393 474
#     4  10  23  49  75 107 148 200 268 310 384 457
#     4  12  26  47  77 117 158 197 270 326 392 456
#
# _framework density 26.754608999999999
#
# number of rings (size 3 to 8) (size 9 to 14) (size 15 to 20)
#    1.200    0.000    2.000    2.400    2.800    6.400 
#    0.000    0.000    0.000    0.000    0.000    0.000 
#    0.000    0.000    0.000    0.000    0.000    0.000 
#
# Total GULP energy -112156.569310 kJ/mol
# GULP energy per Si atom -5607.828465 kJ/mol
# Density = 2.669371 g / cm^3
# Si number density = 26.754609 Si / 1000 Ang^3
#
#
#
# Elastic Constant Matrix: (Units=GPa)
#
#
# Indices 1 2 3 4 5 6 
#
# 1 203.7273 43.3749 55.1097 0.0000 0.0000 0.0000
# 2 43.3749 62.0816 14.6054 0.0000 0.0000 0.0000
# 3 55.1097 14.6054 140.5516 0.0000 0.0000 0.0000
# 4 0.0000 0.0000 0.0000 55.0022 0.0000 0.0000
# 5 0.0000 0.0000 0.0000 0.0000 44.5101 0.0000
# 6 0.0000 0.0000 0.0000 0.0000 0.0000 45.0233
#
#
#
# Elastic Compliance Matrix: (Units=1/GPa)
#
#
# Indices 1 2 3 4 5 6 
#
# 1 0.006301 -0.003917 -0.002063 0.000000 0.000000 0.000000
# 2 -0.003917 0.018946 -0.000433 0.000000 0.000000 0.000000
# 3 -0.002063 -0.000433 0.007969 0.000000 0.000000 0.000000
# 4 0.000000 0.000000 0.000000 0.018181 0.000000 0.000000
# 5 0.000000 0.000000 0.000000 0.000000 0.022467 0.000000
# 6 0.000000 0.000000 0.000000 0.000000 0.000000 0.022211
#
#
# Mechanical properties :
#
#
# Convention : Reuss Voigt Hill
#
# Bulk Modulus (GPa) = 49.04523 70.28228 59.66375
# Shear Modulus (GPa) = 43.21632 48.45848 45.83740
#
# Velocity S-wave (km/s) = 4.02342 4.26046 4.14364
# Velocity P-wave (km/s) = 6.32101 7.10832 6.72620
#
# Compressibility (1/GPa) = 0.02038934
#
# Stress axis : x y z
#
# Youngs Moduli (GPa) = 158.71582 52.78110 125.48793
#
# Poissons Ratio (x) = 0.20672 0.25894
# Poissons Ratio (y) = 0.62163 0.05435
# Poissons Ratio (z) = 0.32750 0.02286
#
# Static dielectric constant tensor:
#      x y z
#    x 2.015140 0.000000 0.000000 
#    y 0.000000 2.155950 0.000000 
#    z 0.000000 0.000000 2.075100 
# 
# From -- ./inp_files/1687.got.cif
#   From: 2010.05.17/outbox.cif.g08.bks.cpg/sg19_1_cif.got.tgz:1687.got - 2010.06.03 22:46:19.
