data_PCOD9315294
_publ_section_title
;
Structure prediction by ZEFSAII (Michael W. Deem and Ramdas Pophale) SiO2 
 PCOD9315294
Probable space group: P 21 21 21
;
_chemical_formula_sum "Si O2"
_cell_formula_units_Z 24
_cell_length_a 9.567874
_cell_length_b 8.186289
_cell_length_c 12.126513
_cell_angle_alpha 90.000000
_cell_angle_beta 90.000000
_cell_angle_gamma 90.000000
_cell_volume 949.813759
_symmetry_space_group_name_H-M "P 21 21 21"
_symmetry_group_IT_number 19
_symmetry_cell_setting 'orthorhombic'
loop_
_space_group_symop_operation_xyz
x,y,z
1/2-x,-y,1/2+z
1/2+x,1/2-y,-z
-x,1/2+y,1/2-z
loop_
_atom_site_type_symbol
_atom_site_label
_atom_site_fract_x
_atom_site_fract_y
_atom_site_fract_z
Si Si1 0.973083 0.122331 0.712876
Si Si2 0.294289 0.597053 0.442301
Si Si3 0.926886 0.397135 0.300992
Si Si4 0.812478 0.427144 0.667307
Si Si5 0.781668 0.759219 0.947955
Si Si6 0.495318 0.275715 0.899015
O O1 0.872954 0.273579 0.735876
O O2 0.061425 0.057154 0.816321
O O3 0.081494 0.189936 0.616808
O O4 0.873435 0.981689 0.662721
O O5 0.171389 0.725432 0.418100
O O6 0.225303 0.443250 0.507350
O O7 0.413283 0.685827 0.511824
O O8 0.816029 0.495959 0.229643
O O9 0.846548 0.254765 0.363433
O O10 0.031002 0.315032 0.216020
O O11 0.978935 0.531976 0.385114
O O12 0.739293 0.641228 0.050167
#
# Coordination Sequence:
#
# PCOD9315294 Si02
#       6
#     4   4   4   4   4   4
#     4  10  24  43  74 108 143 194 249 306 378 447
#     4  11  28  46  76 109 153 196 255 305 384 447
#     4  11  27  46  74 108 150 195 251 309 371 443
#     4  10  24  43  72 101 147 188 248 304 368 447
#     4  10  24  48  74 106 148 199 246 307 374 444
#     4  12  29  48  76 110 153 198 253 311 379 450
#
# _framework density 25.268111000000001
#
# number of rings (size 3 to 8) (size 9 to 14) (size 15 to 20)
#    0.000    1.333    0.000    2.000   21.000    1.333 
#    0.000    0.000    0.000    0.000    0.000    0.000 
#    0.000    0.000    0.000    0.000    0.000    0.000 
#
# Total GULP energy -134405.200549 kJ/mol
# GULP energy per Si atom -5600.216690 kJ/mol
# Density = 2.521060 g / cm^3
# Si number density = 25.268111 Si / 1000 Ang^3
#
#
#
# Elastic Constant Matrix: (Units=GPa)
#
#
# Indices 1 2 3 4 5 6 
#
# 1 92.2078 48.6978 29.7035 0.0000 0.0000 0.0000
# 2 48.6978 122.7257 46.9865 0.0000 0.0000 0.0000
# 3 29.7035 46.9865 70.0031 0.0000 0.0000 0.0000
# 4 0.0000 0.0000 0.0000 40.9829 0.0000 0.0000
# 5 0.0000 0.0000 0.0000 0.0000 17.5798 0.0000
# 6 0.0000 0.0000 0.0000 0.0000 0.0000 43.2199
#
#
#
# Elastic Compliance Matrix: (Units=1/GPa)
#
#
# Indices 1 2 3 4 5 6 
#
# 1 0.014178 -0.004472 -0.003014 0.000000 0.000000 0.000000
# 2 -0.004472 0.012377 -0.006410 0.000000 0.000000 0.000000
# 3 -0.003014 -0.006410 0.019867 0.000000 0.000000 0.000000
# 4 0.000000 0.000000 0.000000 0.024400 0.000000 0.000000
# 5 0.000000 0.000000 0.000000 0.000000 0.056883 0.000000
# 6 0.000000 0.000000 0.000000 0.000000 0.000000 0.023137
#
#
# Mechanical properties :
#
#
# Convention : Reuss Voigt Hill
#
# Bulk Modulus (GPa) = 53.67990 59.52356 56.60173
# Shear Modulus (GPa) = 27.04983 30.99311 29.02147
#
# Velocity S-wave (km/s) = 3.27542 3.50604 3.39269
# Velocity P-wave (km/s) = 5.96613 6.32437 6.14786
#
# Compressibility (1/GPa) = 0.01862895
#
# Stress axis : x y z
#
# Youngs Moduli (GPa) = 70.53308 80.79704 50.33585
#
# Poissons Ratio (x) = 0.36130 0.15174
# Poissons Ratio (y) = 0.31540 0.32265
# Poissons Ratio (z) = 0.21262 0.51790
#
# Static dielectric constant tensor:
#      x y z
#    x 2.014360 0.000000 0.000000 
#    y 0.000000 1.973690 0.000000 
#    z 0.000000 0.000000 2.007740 
# 
# From -- ./inp_files/6050.got.cif
#   From: 2010.05.17/outbox.cif.g08.bks.cpg/sg19_4_cif.got.tgz:6050.got - 2010.06.03 22:46:19.
