data_PCOD9315342
_publ_section_title
;
Structure prediction by ZEFSAII (Michael W. Deem and Ramdas Pophale) SiO2 
 PCOD9315342
Probable space group: P 21 21 21
;
_chemical_formula_sum "Si O2"
_cell_formula_units_Z 28
_cell_length_a 8.209526
_cell_length_b 16.389245
_cell_length_c 9.329045
_cell_angle_alpha 90.000000
_cell_angle_beta 90.000000
_cell_angle_gamma 90.000000
_cell_volume 1255.203721
_symmetry_space_group_name_H-M "P 21 21 21"
_symmetry_group_IT_number 19
_symmetry_cell_setting 'orthorhombic'
loop_
_space_group_symop_operation_xyz
x,y,z
1/2-x,-y,1/2+z
1/2+x,1/2-y,-z
-x,1/2+y,1/2-z
loop_
_atom_site_type_symbol
_atom_site_label
_atom_site_fract_x
_atom_site_fract_y
_atom_site_fract_z
Si Si1 0.621848 0.327221 0.675454
Si Si2 0.741921 0.811092 0.719792
Si Si3 0.219567 0.148817 0.631743
Si Si4 0.650540 0.046260 0.431585
Si Si5 0.359677 0.029116 0.227916
Si Si6 0.572837 0.152894 0.674514
Si Si7 0.593224 0.092555 0.977519
O O1 0.452351 0.318880 0.760321
O O2 0.604629 0.348146 0.507009
O O3 0.734075 0.397993 0.739504
O O4 0.684165 0.233313 0.674950
O O5 0.811818 0.722190 0.758280
O O6 0.808202 0.874438 0.837803
O O7 0.802123 0.842140 0.567035
O O8 0.406532 0.168186 0.585138
O O9 0.217319 0.058398 0.694953
O O10 0.479517 0.017882 0.364402
O O11 0.648084 0.075552 0.595604
O O12 0.786170 0.977515 0.421815
O O13 0.464250 0.055565 0.088749
O O14 0.521333 0.133314 0.836079
#
# Coordination Sequence:
#
# PCOD9315342 Si02
#       7
#     4   4   4   4   4   4   4
#     4  11  24  44  72 100 135 191 232 289 349 424
#     4  10  24  45  70  99 142 178 236 287 356 419
#     4  11  24  44  71 106 133 186 236 298 347 422
#     4  11  22  46  70 100 132 190 230 280 355 423
#     4  11  26  44  74 102 139 184 244 295 348 434
#     4  11  24  44  71  99 143 180 232 290 349 426
#     4  11  26  45  66 108 142 183 230 297 358 416
#
# _framework density 22.307134000000001
#
# number of rings (size 3 to 8) (size 9 to 14) (size 15 to 20)
#    0.000    1.143    2.857    2.571    6.000    2.286 
#   15.429    0.000    0.000    0.000    0.000    0.000 
#    0.000    0.000    0.000    0.000    0.000    0.000 
#
# Total GULP energy -156490.154731 kJ/mol
# GULP energy per Si atom -5588.934098 kJ/mol
# Density = 2.225636 g / cm^3
# Si number density = 22.307134 Si / 1000 Ang^3
#
#
#
# Elastic Constant Matrix: (Units=GPa)
#
#
# Indices 1 2 3 4 5 6 
#
# 1 62.4992 31.7683 23.0801 0.0000 0.0000 0.0000
# 2 31.7683 125.1668 42.4702 0.0000 0.0000 0.0000
# 3 23.0801 42.4702 113.4056 0.0000 0.0000 0.0000
# 4 0.0000 0.0000 0.0000 27.0298 0.0000 0.0000
# 5 0.0000 0.0000 0.0000 0.0000 21.8900 0.0000
# 6 0.0000 0.0000 0.0000 0.0000 0.0000 30.1077
#
#
#
# Elastic Compliance Matrix: (Units=1/GPa)
#
#
# Indices 1 2 3 4 5 6 
#
# 1 0.018901 -0.004000 -0.002349 0.000000 0.000000 0.000000
# 2 -0.004000 0.009999 -0.002930 0.000000 0.000000 0.000000
# 3 -0.002349 -0.002930 0.010393 0.000000 0.000000 0.000000
# 4 0.000000 0.000000 0.000000 0.036996 0.000000 0.000000
# 5 0.000000 0.000000 0.000000 0.000000 0.045683 0.000000
# 6 0.000000 0.000000 0.000000 0.000000 0.000000 0.033214
#
#
# Mechanical properties :
#
#
# Convention : Reuss Voigt Hill
#
# Bulk Modulus (GPa) = 48.22878 55.07876 51.65377
# Shear Modulus (GPa) = 27.67683 29.38904 28.53293
#
# Velocity S-wave (km/s) = 3.52620 3.63364 3.58032
# Velocity P-wave (km/s) = 6.18434 6.50762 6.34804
#
# Compressibility (1/GPa) = 0.02073451
#
# Stress axis : x y z
#
# Youngs Moduli (GPa) = 52.90773 100.01020 96.21550
#
# Poissons Ratio (x) = 0.40007 0.22597
# Poissons Ratio (y) = 0.21165 0.28196
# Poissons Ratio (z) = 0.12426 0.29308
#
# Static dielectric constant tensor:
#      x y z
#    x 1.833140 0.000000 0.000000 
#    y 0.000000 1.842800 0.000000 
#    z 0.000000 0.000000 1.820090 
# 
# From -- ./inp_files/3026.got.cif
#   From: 2010.05.17/outbox.cif.g08.bks.cpg/sg19_2_cif.got.tgz:3026.got - 2010.06.03 22:46:19.
