data_PCOD9315067
_publ_section_title
;
Structure prediction by ZEFSAII (Michael W. Deem and Ramdas Pophale) SiO2 
 PCOD9315067
Probable space group: P 21 21 21
;
_chemical_formula_sum "Si O2"
_cell_formula_units_Z 32
_cell_length_a 16.391871
_cell_length_b 6.183448
_cell_length_c 12.892002
_cell_angle_alpha 90.000000
_cell_angle_beta 90.000000
_cell_angle_gamma 90.000000
_cell_volume 1306.711174
_symmetry_space_group_name_H-M "P 21 21 21"
_symmetry_group_IT_number 19
_symmetry_cell_setting 'orthorhombic'
loop_
_space_group_symop_operation_xyz
x,y,z
1/2-x,-y,1/2+z
1/2+x,1/2-y,-z
-x,1/2+y,1/2-z
loop_
_atom_site_type_symbol
_atom_site_label
_atom_site_fract_x
_atom_site_fract_y
_atom_site_fract_z
Si Si1 0.320074 0.604534 0.208042
Si Si2 0.974367 0.685733 0.718582
Si Si3 0.576032 0.156722 0.004882
Si Si4 0.239722 0.774072 0.818927
Si Si5 0.103924 0.081987 0.202854
Si Si6 0.145466 0.493020 0.474135
Si Si7 0.243237 0.221812 0.893710
Si Si8 0.495592 0.265735 0.603742
O O1 0.384198 0.788662 0.235552
O O2 0.329826 0.369041 0.263869
O O3 0.244803 0.694075 0.275057
O O4 0.325308 0.564992 0.088267
O O5 0.002885 0.933928 0.756142
O O6 0.972998 0.715923 0.594153
O O7 0.668918 0.154777 0.048753
O O8 0.579464 0.260316 0.891320
O O9 0.535428 0.924856 0.985669
O O10 0.303523 0.860497 0.732771
O O11 0.295109 0.633883 0.896005
O O12 0.214142 0.976517 0.887556
O O13 0.048156 0.121159 0.304711
O O14 0.081318 0.848091 0.158042
O O15 0.171249 0.740806 0.451506
O O16 0.056383 0.412507 0.444910
#
# Coordination Sequence:
#
# PCOD9315067 Si02
#       8
#     4   4   4   4   4   4   4   4
#     4  10  23  43  68  95 140 184 247 302 371 449
#     4  11  27  47  72 106 149 197 255 321 381 461
#     4  11  25  43  71 102 144 195 245 308 391 452
#     4  10  24  43  68 102 142 185 244 311 378 456
#     4  11  24  41  70 103 145 188 241 305 386 452
#     4  10  23  42  68 101 138 184 244 299 375 450
#     4  10  24  43  67 101 140 189 241 305 379 450
#     4  11  24  42  68 104 144 190 241 311 375 470
#
# _framework density 24.488962999999998
#
# number of rings (size 3 to 8) (size 9 to 14) (size 15 to 20)
#    0.000    1.500    1.250    1.500    8.750    6.000 
#    0.000    0.000    0.000    0.000    0.000    0.000 
#    0.000    0.000    0.000    0.000    0.000    0.000 
#
# Total GULP energy -178445.102754 kJ/mol
# GULP energy per Si atom -5576.409461 kJ/mol
# Density = 2.443322 g / cm^3
# Si number density = 24.488963 Si / 1000 Ang^3
#
#
#
# Elastic Constant Matrix: (Units=GPa)
#
#
# Indices 1 2 3 4 5 6 
#
# 1 58.0180 30.9008 15.9693 0.0000 0.0000 0.0000
# 2 30.9008 78.4320 19.6085 0.0000 0.0000 0.0000
# 3 15.9693 19.6085 111.0383 0.0000 0.0000 0.0000
# 4 0.0000 0.0000 0.0000 50.4933 0.0000 0.0000
# 5 0.0000 0.0000 0.0000 0.0000 35.2474 0.0000
# 6 0.0000 0.0000 0.0000 0.0000 0.0000 30.0818
#
#
#
# Elastic Compliance Matrix: (Units=1/GPa)
#
#
# Indices 1 2 3 4 5 6 
#
# 1 0.022122 -0.008286 -0.001718 0.000000 0.000000 0.000000
# 2 -0.008286 0.016442 -0.001712 0.000000 0.000000 0.000000
# 3 -0.001718 -0.001712 0.009555 0.000000 0.000000 0.000000
# 4 0.000000 0.000000 0.000000 0.019805 0.000000 0.000000
# 5 0.000000 0.000000 0.000000 0.000000 0.028371 0.000000
# 6 0.000000 0.000000 0.000000 0.000000 0.000000 0.033243
#
#
# Mechanical properties :
#
#
# Convention : Reuss Voigt Hill
#
# Bulk Modulus (GPa) = 40.50669 42.27174 41.38922
# Shear Modulus (GPa) = 31.01734 35.23182 33.12458
#
# Velocity S-wave (km/s) = 3.56277 3.79711 3.68181
# Velocity P-wave (km/s) = 5.78802 6.04343 5.91710
#
# Compressibility (1/GPa) = 0.02468728
#
# Stress axis : x y z
#
# Youngs Moduli (GPa) = 45.20332 60.81806 104.65359
#
# Poissons Ratio (x) = 0.50395 0.17983
# Poissons Ratio (y) = 0.37456 0.17916
# Poissons Ratio (z) = 0.07767 0.10412
#
# Static dielectric constant tensor:
#      x y z
#    x 1.990400 0.000000 0.000000 
#    y 0.000000 2.134730 0.000000 
#    z 0.000000 0.000000 1.955810 
# 
# From -- ./inp_files/5467.got.cif
#   From: 2010.05.17/outbox.cif.g08.bks.cpg/sg19_3_cif.got.tgz:5467.got - 2010.06.03 22:46:19.
