data_PCOD9315948
_publ_section_title
;
Structure prediction by ZEFSAII (Michael W. Deem and Ramdas Pophale) SiO2 
 PCOD9315948
Probable space group: P 21 21 21
;
_chemical_formula_sum "Si O2"
_cell_formula_units_Z 20
_cell_length_a 11.374092
_cell_length_b 7.760058
_cell_length_c 8.315877
_cell_angle_alpha 90.000000
_cell_angle_beta 90.000000
_cell_angle_gamma 90.000000
_cell_volume 733.989354
_symmetry_space_group_name_H-M "P 21 21 21"
_symmetry_group_IT_number 19
_symmetry_cell_setting 'orthorhombic'
loop_
_space_group_symop_operation_xyz
x,y,z
1/2-x,-y,1/2+z
1/2+x,1/2-y,-z
-x,1/2+y,1/2-z
loop_
_atom_site_type_symbol
_atom_site_label
_atom_site_fract_x
_atom_site_fract_y
_atom_site_fract_z
Si Si1 0.238801 0.115824 0.150129
Si Si2 0.446698 0.172900 0.748808
Si Si3 0.162912 0.476265 0.152868
Si Si4 0.897374 0.627683 0.677619
Si Si5 0.601220 0.085759 0.443443
O O1 0.231012 0.307666 0.218185
O O2 0.141286 0.984242 0.219487
O O3 0.358107 0.024710 0.200373
O O4 0.200811 0.130448 0.963877
O O5 0.380779 0.356114 0.753400
O O6 0.529717 0.175841 0.588243
O O7 0.538070 0.115760 0.887368
O O8 0.260657 0.546325 0.030607
O O9 0.897617 0.795104 0.786194
O O10 0.021566 0.577810 0.601130
#
# Coordination Sequence:
#
# PCOD9315948 Si02
#       5
#     4   4   4   4   4
#     4  11  26  47  76 106 151 196 251 308 374 451
#     4  11  26  47  73 110 147 199 254 306 381 454
#     4  12  25  48  76 108 151 200 247 316 376 450
#     4  11  26  49  73 114 147 199 247 313 375 450
#     4  11  27  45  76 110 152 194 253 311 376 447
#
# _framework density 27.248353000000002
#
# number of rings (size 3 to 8) (size 9 to 14) (size 15 to 20)
#    0.000    0.800    4.000    1.200    8.400    0.000 
#    0.000    0.000    0.000    0.000    0.000    0.000 
#    0.000    0.000    0.000    0.000    0.000    0.000 
#
# Total GULP energy -111824.971623 kJ/mol
# GULP energy per Si atom -5591.248581 kJ/mol
# Density = 2.718633 g / cm^3
# Si number density = 27.248353 Si / 1000 Ang^3
#
#
#
# Elastic Constant Matrix: (Units=GPa)
#
#
# Indices 1 2 3 4 5 6 
#
# 1 142.9510 44.2815 70.0551 0.0000 0.0000 0.0000
# 2 44.2815 183.3212 51.9386 0.0000 0.0000 0.0000
# 3 70.0551 51.9386 134.7825 0.0000 0.0000 0.0000
# 4 0.0000 0.0000 0.0000 31.9728 0.0000 0.0000
# 5 0.0000 0.0000 0.0000 0.0000 53.0781 0.0000
# 6 0.0000 0.0000 0.0000 0.0000 0.0000 58.9091
#
#
#
# Elastic Compliance Matrix: (Units=1/GPa)
#
#
# Indices 1 2 3 4 5 6 
#
# 1 0.009550 -0.001011 -0.004574 0.000000 0.000000 0.000000
# 2 -0.001011 0.006230 -0.001875 0.000000 0.000000 0.000000
# 3 -0.004574 -0.001875 0.010520 0.000000 0.000000 0.000000
# 4 0.000000 0.000000 0.000000 0.031277 0.000000 0.000000
# 5 0.000000 0.000000 0.000000 0.000000 0.018840 0.000000
# 6 0.000000 0.000000 0.000000 0.000000 0.000000 0.016975
#
#
# Mechanical properties :
#
#
# Convention : Reuss Voigt Hill
#
# Bulk Modulus (GPa) = 87.88156 88.17834 88.02995
# Shear Modulus (GPa) = 44.60034 48.44397 46.52215
#
# Velocity S-wave (km/s) = 4.05014 4.22105 4.13648
# Velocity P-wave (km/s) = 7.36163 7.49584 7.42904
#
# Compressibility (1/GPa) = 0.01137895
#
# Stress axis : x y z
#
# Youngs Moduli (GPa) = 104.70928 160.50208 95.06013
#
# Poissons Ratio (x) = 0.16225 0.43484
# Poissons Ratio (y) = 0.10585 0.17828
# Poissons Ratio (z) = 0.47898 0.30102
#
# Static dielectric constant tensor:
#      x y z
#    x 2.124660 0.000000 0.000000 
#    y 0.000000 2.059490 0.000000 
#    z 0.000000 0.000000 2.218600 
# 
# From -- ./inp_files/3296.got.cif
#   From: 2010.05.17/outbox.cif.g08.bks.cpg/sg19_2_cif.got.tgz:3296.got - 2010.06.03 22:46:19.
