data_PCOD9315321
_publ_section_title
;
Structure prediction by ZEFSAII (Michael W. Deem and Ramdas Pophale) SiO2 
 PCOD9315321
Probable space group: P 21 21 21
;
_chemical_formula_sum "Si O2"
_cell_formula_units_Z 20
_cell_length_a 19.727756
_cell_length_b 6.879737
_cell_length_c 5.057815
_cell_angle_alpha 90.000000
_cell_angle_beta 90.000000
_cell_angle_gamma 90.000000
_cell_volume 686.455619
_symmetry_space_group_name_H-M "P 21 21 21"
_symmetry_group_IT_number 19
_symmetry_cell_setting 'orthorhombic'
loop_
_space_group_symop_operation_xyz
x,y,z
1/2-x,-y,1/2+z
1/2+x,1/2-y,-z
-x,1/2+y,1/2-z
loop_
_atom_site_type_symbol
_atom_site_label
_atom_site_fract_x
_atom_site_fract_y
_atom_site_fract_z
Si Si1 0.259229 0.139534 0.276843
Si Si2 0.869760 0.094035 0.907148
Si Si3 0.861168 0.783331 0.524457
Si Si4 0.909186 0.391162 0.287208
Si Si5 0.482488 0.437565 0.447111
O O1 0.327273 0.267594 0.292614
O O2 0.205032 0.293678 0.156805
O O3 0.237688 0.027081 0.544428
O O4 0.951052 0.090052 0.845954
O O5 0.848412 0.878138 0.813374
O O6 0.861073 0.222546 0.167523
O O7 0.881330 0.560966 0.472913
O O8 0.926631 0.909325 0.441714
O O9 0.967178 0.270936 0.431736
O O10 0.943810 0.497604 0.033790
#
# Coordination Sequence:
#
# PCOD9315321 Si02
#       5
#     4   4   4   4   4
#     4  12  26  49  81 116 161 213 275 343 408 493
#     4  10  26  45  74 116 149 212 269 328 415 485
#     4  10  25  48  73 114 153 207 268 333 400 490
#     4  12  21  50  75 110 160 201 268 332 409 489
#     4  10  24  44  73 112 149 205 260 326 406 487
#
# _framework density 29.135168
#
# number of rings (size 3 to 8) (size 9 to 14) (size 15 to 20)
#    1.200    0.000    4.000    1.200    0.000    6.400 
#    7.200    0.000    0.000    0.000    0.000    0.000 
#    0.000    0.000    0.000    0.000    0.000    0.000 
#
# Total GULP energy -111671.565073 kJ/mol
# GULP energy per Si atom -5583.578254 kJ/mol
# Density = 2.906886 g / cm^3
# Si number density = 29.135168 Si / 1000 Ang^3
#
#
#
# Elastic Constant Matrix: (Units=GPa)
#
#
# Indices 1 2 3 4 5 6 
#
# 1 84.9294 59.9848 25.4664 0.0000 0.0000 0.0000
# 2 59.9848 230.1281 92.3416 0.0000 0.0000 0.0000
# 3 25.4664 92.3416 157.0498 0.0000 0.0000 0.0000
# 4 0.0000 0.0000 0.0000 67.0204 0.0000 0.0000
# 5 0.0000 0.0000 0.0000 0.0000 27.4082 0.0000
# 6 0.0000 0.0000 0.0000 0.0000 0.0000 70.0414
#
#
#
# Elastic Compliance Matrix: (Units=1/GPa)
#
#
# Indices 1 2 3 4 5 6 
#
# 1 0.014435 -0.003695 -0.000168 0.000000 0.000000 0.000000
# 2 -0.003695 0.006633 -0.003301 0.000000 0.000000 0.000000
# 3 -0.000168 -0.003301 0.008336 0.000000 0.000000 0.000000
# 4 0.000000 0.000000 0.000000 0.014921 0.000000 0.000000
# 5 0.000000 0.000000 0.000000 0.000000 0.036485 0.000000
# 6 0.000000 0.000000 0.000000 0.000000 0.000000 0.014277
#
#
# Mechanical properties :
#
#
# Convention : Reuss Voigt Hill
#
# Bulk Modulus (GPa) = 66.33413 91.96587 79.15000
# Shear Modulus (GPa) = 43.69102 52.51498 48.10300
#
# Velocity S-wave (km/s) = 3.87666 4.25014 4.06769
# Velocity P-wave (km/s) = 6.54639 7.46450 7.02047
#
# Compressibility (1/GPa) = 0.01507520
#
# Stress axis : x y z
#
# Youngs Moduli (GPa) = 69.27765 150.75908 119.96851
#
# Poissons Ratio (x) = 0.55707 0.02016
# Poissons Ratio (y) = 0.25599 0.39601
# Poissons Ratio (z) = 0.01164 0.49764
#
# Static dielectric constant tensor:
#      x y z
#    x 2.330920 0.000000 0.000000 
#    y 0.000000 2.172660 0.000000 
#    z 0.000000 0.000000 2.348460 
# 
# From -- ./inp_files/2214.got.cif
#   From: 2010.05.17/outbox.cif.g08.bks.cpg/sg19_2_cif.got.tgz:2214.got - 2010.06.03 22:46:19.
