data_PCOD9315976
_publ_section_title
;
Structure prediction by ZEFSAII (Michael W. Deem and Ramdas Pophale) SiO2 
 PCOD9315976
Probable space group: P 21 21 21
;
_chemical_formula_sum "Si O2"
_cell_formula_units_Z 20
_cell_length_a 9.330121
_cell_length_b 8.031717
_cell_length_c 10.782901
_cell_angle_alpha 90.000000
_cell_angle_beta 90.000000
_cell_angle_gamma 90.000000
_cell_volume 808.037082
_symmetry_space_group_name_H-M "P 21 21 21"
_symmetry_group_IT_number 19
_symmetry_cell_setting 'orthorhombic'
loop_
_space_group_symop_operation_xyz
x,y,z
1/2-x,-y,1/2+z
1/2+x,1/2-y,-z
-x,1/2+y,1/2-z
loop_
_atom_site_type_symbol
_atom_site_label
_atom_site_fract_x
_atom_site_fract_y
_atom_site_fract_z
Si Si1 0.487913 0.911422 0.514690
Si Si2 0.981562 0.706649 0.022045
Si Si3 0.329548 0.310236 0.752824
Si Si4 0.508688 0.098152 0.163844
Si Si5 0.237670 0.975503 0.855401
O O1 0.551927 0.872202 0.648640
O O2 0.525952 0.758615 0.422875
O O3 0.534894 0.100771 0.488300
O O4 0.319807 0.932883 0.480773
O O5 0.841964 0.666676 0.102422
O O6 0.115446 0.669630 0.113456
O O7 0.994280 0.573886 0.912074
O O8 0.172071 0.381628 0.786095
O O9 0.318677 0.113617 0.776707
O O10 0.391768 0.087642 0.271452
#
# Coordination Sequence:
#
# PCOD9315976 Si02
#       5
#     4   4   4   4   4
#     4  11  28  48  79 113 156 208 262 324 389 462
#     4  12  28  50  81 114 157 212 263 321 400 469
#     4  11  27  50  79 115 156 213 259 330 395 467
#     4  11  29  52  78 118 160 202 271 327 388 473
#     4  11  28  52  77 116 163 203 265 330 384 473
#
# _framework density 24.751338000000001
#
# number of rings (size 3 to 8) (size 9 to 14) (size 15 to 20)
#    0.000    0.800    2.000    1.200   16.800    0.000 
#    0.000    0.000    0.000    0.000    0.000    0.000 
#    0.000    0.000    0.000    0.000    0.000    0.000 
#
# Total GULP energy -111955.839066 kJ/mol
# GULP energy per Si atom -5597.791953 kJ/mol
# Density = 2.469500 g / cm^3
# Si number density = 24.751338 Si / 1000 Ang^3
#
#
#
# Elastic Constant Matrix: (Units=GPa)
#
#
# Indices 1 2 3 4 5 6 
#
# 1 105.4355 29.2704 55.3706 0.0000 0.0000 0.0000
# 2 29.2704 139.0624 37.2051 0.0000 0.0000 0.0000
# 3 55.3706 37.2051 82.3142 0.0000 0.0000 0.0000
# 4 0.0000 0.0000 0.0000 11.3009 0.0000 0.0000
# 5 0.0000 0.0000 0.0000 0.0000 24.8590 0.0000
# 6 0.0000 0.0000 0.0000 0.0000 0.0000 43.8047
#
#
#
# Elastic Compliance Matrix: (Units=1/GPa)
#
#
# Indices 1 2 3 4 5 6 
#
# 1 0.014697 -0.000510 -0.009656 0.000000 0.000000 0.000000
# 2 -0.000510 0.008198 -0.003362 0.000000 0.000000 0.000000
# 3 -0.009656 -0.003362 0.020163 0.000000 0.000000 0.000000
# 4 0.000000 0.000000 0.000000 0.088488 0.000000 0.000000
# 5 0.000000 0.000000 0.000000 0.000000 0.040227 0.000000
# 6 0.000000 0.000000 0.000000 0.000000 0.000000 0.022829
#
#
# Mechanical properties :
#
#
# Convention : Reuss Voigt Hill
#
# Bulk Modulus (GPa) = 62.49152 63.38937 62.94044
# Shear Modulus (GPa) = 22.02721 29.65732 25.84227
#
# Velocity S-wave (km/s) = 2.98642 3.46527 3.23472
# Velocity P-wave (km/s) = 6.09870 6.45577 6.27977
#
# Compressibility (1/GPa) = 0.01600217
#
# Stress axis : x y z
#
# Youngs Moduli (GPa) = 68.04182 121.98202 49.59507
#
# Poissons Ratio (x) = 0.06223 0.47887
# Poissons Ratio (y) = 0.03471 0.16675
# Poissons Ratio (z) = 0.65698 0.41013
#
# Static dielectric constant tensor:
#      x y z
#    x 2.083060 0.000000 0.000000 
#    y 0.000000 1.940470 0.000000 
#    z 0.000000 0.000000 2.032140 
# 
# From -- ./inp_files/4543.got.cif
#   From: 2010.05.17/outbox.cif.g08.bks.cpg/sg19_3_cif.got.tgz:4543.got - 2010.06.03 22:46:19.
