data_PCOD9315581
_publ_section_title
;
Structure prediction by ZEFSAII (Michael W. Deem and Ramdas Pophale) SiO2 
 PCOD9315581
Probable space group: P 21 21 21
;
_chemical_formula_sum "Si O2"
_cell_formula_units_Z 24
_cell_length_a 13.467659
_cell_length_b 9.075818
_cell_length_c 8.593861
_cell_angle_alpha 90.000000
_cell_angle_beta 90.000000
_cell_angle_gamma 90.000000
_cell_volume 1050.427819
_symmetry_space_group_name_H-M "P 21 21 21"
_symmetry_group_IT_number 19
_symmetry_cell_setting 'orthorhombic'
loop_
_space_group_symop_operation_xyz
x,y,z
1/2-x,-y,1/2+z
1/2+x,1/2-y,-z
-x,1/2+y,1/2-z
loop_
_atom_site_type_symbol
_atom_site_label
_atom_site_fract_x
_atom_site_fract_y
_atom_site_fract_z
Si Si1 0.451961 0.186872 0.269948
Si Si2 0.855281 0.555163 0.509609
Si Si3 0.888227 0.013767 0.635985
Si Si4 0.768139 0.978361 0.911037
Si Si5 0.928247 0.179188 0.054389
Si Si6 0.283821 0.175045 0.727212
O O1 0.457118 0.342918 0.357981
O O2 0.391630 0.075761 0.375888
O O3 0.555821 0.112285 0.228784
O O4 0.410641 0.218270 0.097437
O O5 0.799802 0.475004 0.367466
O O6 0.785163 0.652840 0.620692
O O7 0.956434 0.633847 0.451590
O O8 0.839465 0.973567 0.474238
O O9 0.793565 0.049391 0.744441
O O10 0.758760 0.803048 0.884639
O O11 0.856903 0.039115 0.019633
O O12 0.888006 0.262076 0.205572
#
# Coordination Sequence:
#
# PCOD9315581 Si02
#       6
#     4   4   4   4   4   4
#     4  11  22  43  71 102 141 196 241 298 370 431
#     4  12  26  49  73 107 150 193 245 304 363 443
#     4  11  23  42  70 101 144 191 243 300 369 438
#     4  11  22  41  73 101 139 188 241 303 362 432
#     4  11  26  45  71 111 141 194 248 298 371 434
#     4  12  27  50  70 110 147 194 246 301 371 434
#
# _framework density 22.847833000000001
#
# number of rings (size 3 to 8) (size 9 to 14) (size 15 to 20)
#    0.000    0.667    6.667    2.000    0.000    1.333 
#    3.000    0.000    0.000    0.000    0.000    0.000 
#    0.000    0.000    0.000    0.000    0.000    0.000 
#
# Total GULP energy -134024.651342 kJ/mol
# GULP energy per Si atom -5584.360473 kJ/mol
# Density = 2.279583 g / cm^3
# Si number density = 22.847833 Si / 1000 Ang^3
#
#
#
# Elastic Constant Matrix: (Units=GPa)
#
#
# Indices 1 2 3 4 5 6 
#
# 1 104.8399 48.5557 33.6346 0.0000 0.0000 0.0000
# 2 48.5557 74.9278 20.8250 0.0000 0.0000 0.0000
# 3 33.6346 20.8250 56.0874 0.0000 0.0000 0.0000
# 4 0.0000 0.0000 0.0000 42.0372 0.0000 0.0000
# 5 0.0000 0.0000 0.0000 0.0000 38.9662 0.0000
# 6 0.0000 0.0000 0.0000 0.0000 0.0000 29.9365
#
#
#
# Elastic Compliance Matrix: (Units=1/GPa)
#
#
# Indices 1 2 3 4 5 6 
#
# 1 0.015311 -0.008218 -0.006131 0.000000 0.000000 0.000000
# 2 -0.008218 0.019293 -0.002235 0.000000 0.000000 0.000000
# 3 -0.006131 -0.002235 0.022336 0.000000 0.000000 0.000000
# 4 0.000000 0.000000 0.000000 0.023788 0.000000 0.000000
# 5 0.000000 0.000000 0.000000 0.000000 0.025663 0.000000
# 6 0.000000 0.000000 0.000000 0.000000 0.000000 0.033404
#
#
# Mechanical properties :
#
#
# Convention : Reuss Voigt Hill
#
# Bulk Modulus (GPa) = 42.06598 49.09843 45.58221
# Shear Modulus (GPa) = 27.64141 31.04395 29.34268
#
# Velocity S-wave (km/s) = 3.48200 3.69009 3.58755
# Velocity P-wave (km/s) = 5.88363 6.30013 6.09544
#
# Compressibility (1/GPa) = 0.02377218
#
# Stress axis : x y z
#
# Youngs Moduli (GPa) = 65.31062 51.83172 44.77173
#
# Poissons Ratio (x) = 0.42598 0.27447
# Poissons Ratio (y) = 0.53675 0.10007
# Poissons Ratio (z) = 0.40039 0.11584
#
# Static dielectric constant tensor:
#      x y z
#    x 1.914370 0.000000 0.000000 
#    y 0.000000 1.895820 0.000000 
#    z 0.000000 0.000000 1.861660 
# 
# From -- ./inp_files/3835.got.cif
#   From: 2010.05.17/outbox.cif.g08.bks.cpg/sg19_2_cif.got.tgz:3835.got - 2010.06.03 22:46:19.
