data_PCOD9315246
_publ_section_title
;
Structure prediction by ZEFSAII (Michael W. Deem and Ramdas Pophale) SiO2 
 PCOD9315246
Probable space group: P 21 21 21
;
_chemical_formula_sum "Si O2"
_cell_formula_units_Z 32
_cell_length_a 14.656523
_cell_length_b 8.092652
_cell_length_c 9.835894
_cell_angle_alpha 90.000000
_cell_angle_beta 90.000000
_cell_angle_gamma 90.000000
_cell_volume 1166.636766
_symmetry_space_group_name_H-M "P 21 21 21"
_symmetry_group_IT_number 19
_symmetry_cell_setting 'orthorhombic'
loop_
_space_group_symop_operation_xyz
x,y,z
1/2-x,-y,1/2+z
1/2+x,1/2-y,-z
-x,1/2+y,1/2-z
loop_
_atom_site_type_symbol
_atom_site_label
_atom_site_fract_x
_atom_site_fract_y
_atom_site_fract_z
Si Si1 0.049044 0.046346 0.361362
Si Si2 0.672845 0.248056 0.431704
Si Si3 0.996280 0.426073 0.647104
Si Si4 0.239741 0.452934 0.326016
Si Si5 0.706009 0.671461 0.643152
Si Si6 0.082404 0.289982 0.152965
Si Si7 0.888179 0.241293 0.853300
Si Si8 0.666226 0.525525 0.978434
O O1 0.119419 0.919352 0.289235
O O2 0.972310 0.930933 0.425025
O O3 0.111048 0.146752 0.463493
O O4 0.017762 0.173553 0.246106
O O5 0.590240 0.176315 0.342923
O O6 0.722895 0.101553 0.517609
O O7 0.756836 0.370093 0.398177
O O8 0.031386 0.609844 0.618830
O O9 0.936885 0.395097 0.780699
O O10 0.926666 0.382258 0.523627
O O11 0.243989 0.650576 0.310908
O O12 0.149210 0.391784 0.249973
O O13 0.321260 0.351036 0.254937
O O14 0.663361 0.713793 0.491460
O O15 0.781225 0.530219 0.617383
O O16 0.140645 0.155740 0.074899
#
# Coordination Sequence:
#
# PCOD9315246 Si02
#       8
#     4   4   4   4   4   4   4   4
#     4  10  24  40  69 100 140 181 233 303 357 438
#     4  10  24  49  70  99 147 185 238 313 363 428
#     4  12  28  46  74 107 147 190 251 301 371 450
#     4  11  23  47  68 102 142 189 243 303 361 444
#     4  11  24  46  69 101 146 188 241 311 361 434
#     4  11  23  42  71 104 138 186 245 291 375 437
#     4  12  27  46  71 104 145 196 245 296 375 444
#     4  11  25  46  74 101 145 191 240 308 371 435
#
# _framework density 27.429276000000002
#
# number of rings (size 3 to 8) (size 9 to 14) (size 15 to 20)
#    0.000    1.000    3.750    1.500    8.750    2.000 
#    2.250    0.000    0.000    0.000    0.000    0.000 
#    0.000    0.000    0.000    0.000    0.000    0.000 
#
# Total GULP energy -179134.596964 kJ/mol
# GULP energy per Si atom -5597.956155 kJ/mol
# Density = 2.736685 g / cm^3
# Si number density = 27.429276 Si / 1000 Ang^3
#
#
#
# Elastic Constant Matrix: (Units=GPa)
#
#
# Indices 1 2 3 4 5 6 
#
# 1 121.4485 48.7617 18.0247 0.0000 0.0000 0.0000
# 2 48.7617 113.6337 -0.4103 0.0000 0.0000 0.0000
# 3 18.0247 -0.4103 23.8075 0.0000 0.0000 0.0000
# 4 0.0000 0.0000 0.0000 46.0089 0.0000 0.0000
# 5 0.0000 0.0000 0.0000 0.0000 44.5916 0.0000
# 6 0.0000 0.0000 0.0000 0.0000 0.0000 66.3684
#
#
#
# Elastic Compliance Matrix: (Units=1/GPa)
#
#
# Indices 1 2 3 4 5 6 
#
# 1 0.011546 -0.004986 -0.008828 0.000000 0.000000 0.000000
# 2 -0.004986 0.010954 0.003964 0.000000 0.000000 0.000000
# 3 -0.008828 0.003964 0.048755 0.000000 0.000000 0.000000
# 4 0.000000 0.000000 0.000000 0.021735 0.000000 0.000000
# 5 0.000000 0.000000 0.000000 0.000000 0.022426 0.000000
# 6 0.000000 0.000000 0.000000 0.000000 0.000000 0.015067
#
#
# Mechanical properties :
#
#
# Convention : Reuss Voigt Hill
#
# Bulk Modulus (GPa) = 19.39649 43.51576 31.45613
# Shear Modulus (GPa) = 29.87414 44.22802 37.05108
#
# Velocity S-wave (km/s) = 3.30378 4.01987 3.67929
# Velocity P-wave (km/s) = 4.65189 6.11923 5.43531
#
# Compressibility (1/GPa) = 0.05155571
#
# Stress axis : x y z
#
# Youngs Moduli (GPa) = 86.60901 91.28856 20.51064
#
# Poissons Ratio (x) = 0.45521 0.18106
# Poissons Ratio (y) = 0.43187 -0.08131
# Poissons Ratio (z) = 0.76454 -0.36187
#
# Static dielectric constant tensor:
#      x y z
#    x 2.088400 0.000000 0.000000 
#    y 0.000000 2.063300 0.000000 
#    z 0.000000 0.000000 2.354400 
# 
# From -- ./inp_files/5283.got.cif
#   From: 2010.05.17/outbox.cif.g08.bks.cpg/sg19_3_cif.got.tgz:5283.got - 2010.06.03 22:46:19.
