data_PCOD9315177
_publ_section_title
;
Structure prediction by ZEFSAII (Michael W. Deem and Ramdas Pophale) SiO2 
 PCOD9315177
Probable space group: P 21 21 21
;
_chemical_formula_sum "Si O2"
_cell_formula_units_Z 32
_cell_length_a 20.551172
_cell_length_b 11.403330
_cell_length_c 5.017248
_cell_angle_alpha 90.000000
_cell_angle_beta 90.000000
_cell_angle_gamma 90.000000
_cell_volume 1175.801081
_symmetry_space_group_name_H-M "P 21 21 21"
_symmetry_group_IT_number 19
_symmetry_cell_setting 'orthorhombic'
loop_
_space_group_symop_operation_xyz
x,y,z
1/2-x,-y,1/2+z
1/2+x,1/2-y,-z
-x,1/2+y,1/2-z
loop_
_atom_site_type_symbol
_atom_site_label
_atom_site_fract_x
_atom_site_fract_y
_atom_site_fract_z
Si Si1 0.786192 0.039539 0.223743
Si Si2 0.062949 0.991814 0.902273
Si Si3 0.889941 0.896389 0.466014
Si Si4 0.143190 0.187069 0.743289
Si Si5 0.060729 0.614139 0.736866
Si Si6 0.635105 0.661199 0.469474
Si Si7 0.717793 0.697229 0.957911
Si Si8 0.984200 0.767817 0.106343
O O1 0.789707 0.166345 0.365348
O O2 0.738942 0.966832 0.423356
O O3 0.854490 0.971091 0.239870
O O4 0.122857 0.081056 0.938268
O O5 0.003173 0.080631 0.923992
O O6 0.084599 0.940264 0.612229
O O7 0.031865 0.876486 0.029862
O O8 0.840960 0.800661 0.581007
O O9 0.906557 0.992503 0.685842
O O10 0.951518 0.820420 0.372027
O O11 0.207957 0.159700 0.580507
O O12 0.081513 0.230434 0.562082
O O13 0.100044 0.713503 0.580771
O O14 0.033250 0.664680 0.018450
O O15 0.667355 0.638764 0.751520
O O16 0.691958 0.668371 0.249243
#
# Coordination Sequence:
#
# PCOD9315177 Si02
#       8
#     4   4   4   4   4   4   4   4
#     4  12  25  42  69 103 144 185 228 296 354 419
#     4  10  24  48  72 100 144 185 246 300 354 436
#     4  12  24  38  70  99 134 183 233 294 361 418
#     4  11  25  45  70 104 137 188 238 298 365 426
#     4  10  23  45  68 104 137 186 235 298 357 426
#     4  11  27  49  73 108 142 197 236 296 368 423
#     4  12  26  46  73 106 150 189 243 293 360 443
#     4  10  24  43  67 100 136 179 243 291 363 419
#
# _framework density 27.215491
#
# number of rings (size 3 to 8) (size 9 to 14) (size 15 to 20)
#    0.000    1.000    3.750    1.500    5.250    3.000 
#    2.250    0.000    0.000    0.000    0.000    0.000 
#    0.000    0.000    0.000    0.000    0.000    0.000 
#
# Total GULP energy -179023.843000 kJ/mol
# GULP energy per Si atom -5594.495094 kJ/mol
# Density = 2.715355 g / cm^3
# Si number density = 27.215491 Si / 1000 Ang^3
#
#
#
# Elastic Constant Matrix: (Units=GPa)
#
#
# Indices 1 2 3 4 5 6 
#
# 1 114.1821 17.2149 17.2035 0.0000 0.0000 0.0000
# 2 17.2149 110.9094 -2.5923 0.0000 0.0000 0.0000
# 3 17.2035 -2.5923 40.6817 0.0000 0.0000 0.0000
# 4 0.0000 0.0000 0.0000 22.8406 0.0000 0.0000
# 5 0.0000 0.0000 0.0000 0.0000 45.3089 0.0000
# 6 0.0000 0.0000 0.0000 0.0000 0.0000 28.3587
#
#
#
# Elastic Compliance Matrix: (Units=1/GPa)
#
#
# Indices 1 2 3 4 5 6 
#
# 1 0.009627 -0.001592 -0.004172 0.000000 0.000000 0.000000
# 2 -0.001592 0.009293 0.001265 0.000000 0.000000 0.000000
# 3 -0.004172 0.001265 0.026426 0.000000 0.000000 0.000000
# 4 0.000000 0.000000 0.000000 0.043782 0.000000 0.000000
# 5 0.000000 0.000000 0.000000 0.000000 0.022071 0.000000
# 6 0.000000 0.000000 0.000000 0.000000 0.000000 0.035263
#
#
# Mechanical properties :
#
#
# Convention : Reuss Voigt Hill
#
# Bulk Modulus (GPa) = 27.51174 36.60283 32.05729
# Shear Modulus (GPa) = 29.83752 34.89810 32.36781
#
# Velocity S-wave (km/s) = 3.31470 3.58479 3.45239
# Velocity P-wave (km/s) = 4.97800 5.53288 5.26276
#
# Compressibility (1/GPa) = 0.03634812
#
# Stress axis : x y z
#
# Youngs Moduli (GPa) = 103.87936 107.60784 37.84140
#
# Poissons Ratio (x) = 0.17128 0.15789
# Poissons Ratio (y) = 0.16535 -0.04788
# Poissons Ratio (z) = 0.43342 -0.13615
#
# Static dielectric constant tensor:
#      x y z
#    x 2.161330 0.000000 0.000000 
#    y 0.000000 2.093080 0.000000 
#    z 0.000000 0.000000 2.169500 
# 
# From -- ./inp_files/2007.got.cif
#   From: 2010.05.17/outbox.cif.g08.bks.cpg/sg19_2_cif.got.tgz:2007.got - 2010.06.03 22:46:19.
