data_PCOD9315264
_publ_section_title
;
Structure prediction by ZEFSAII (Michael W. Deem and Ramdas Pophale) SiO2 
 PCOD9315264
Probable space group: P 21 21 21
;
_chemical_formula_sum "Si O2"
_cell_formula_units_Z 32
_cell_length_a 13.042295
_cell_length_b 19.695037
_cell_length_c 5.558247
_cell_angle_alpha 90.000000
_cell_angle_beta 90.000000
_cell_angle_gamma 90.000000
_cell_volume 1427.738473
_symmetry_space_group_name_H-M "P 21 21 21"
_symmetry_group_IT_number 19
_symmetry_cell_setting 'orthorhombic'
loop_
_space_group_symop_operation_xyz
x,y,z
1/2-x,-y,1/2+z
1/2+x,1/2-y,-z
-x,1/2+y,1/2-z
loop_
_atom_site_type_symbol
_atom_site_label
_atom_site_fract_x
_atom_site_fract_y
_atom_site_fract_z
Si Si1 0.704414 0.295542 0.793281
Si Si2 0.526446 0.781567 0.861169
Si Si3 0.989272 0.471283 0.731331
Si Si4 0.613583 0.515256 0.642132
Si Si5 0.365118 0.324723 0.136600
Si Si6 0.385161 0.140190 0.495503
Si Si7 0.172430 0.074001 0.986768
Si Si8 0.697753 0.979429 0.430678
O O1 0.595819 0.281463 0.671111
O O2 0.771660 0.229544 0.856270
O O3 0.777974 0.337103 0.612840
O O4 0.687518 0.345726 0.023768
O O5 0.572546 0.812464 0.612818
O O6 0.564395 0.703643 0.876915
O O7 0.568654 0.813656 0.114880
O O8 0.952675 0.393203 0.715262
O O9 0.905622 0.532141 0.680770
O O10 0.086949 0.484819 0.576209
O O11 0.995696 0.480376 0.015589
O O12 0.619022 0.573281 0.843300
O O13 0.624412 0.441475 0.752821
O O14 0.718163 0.536000 0.505357
O O15 0.321416 0.400310 0.123984
O O16 0.745675 0.990654 0.693718
#
# Coordination Sequence:
#
# PCOD9315264 Si02
#       8
#     4   4   4   4   4   4   4   4
#     4  11  24  44  72 101 148 187 238 300 361 448
#     4  11  26  45  74 102 148 194 234 307 370 427
#     4  11  25  41  72 100 145 184 236 309 352 439
#     4  11  20  36  66 101 146 174 231 286 366 438
#     4  11  27  52  70 111 145 191 252 296 363 448
#     4  10  24  42  66 106 140 188 246 287 364 434
#     4  11  20  36  62 107 135 180 220 290 372 420
#     4  12  30  52  78 104 141 198 255 305 356 430
#
# _framework density 22.413069
#
# number of rings (size 3 to 8) (size 9 to 14) (size 15 to 20)
#    0.000    1.000    2.500    3.000    8.750    3.000 
#    0.000    0.000    0.000    0.000    0.000    0.000 
#    0.000    0.000    0.000    0.000    0.000    0.000 
#
# Total GULP energy -178456.561428 kJ/mol
# GULP energy per Si atom -5576.767545 kJ/mol
# Density = 2.236206 g / cm^3
# Si number density = 22.413069 Si / 1000 Ang^3
#
#
#
# Elastic Constant Matrix: (Units=GPa)
#
#
# Indices 1 2 3 4 5 6 
#
# 1 93.5153 46.6842 28.8331 0.0000 0.0000 0.0000
# 2 46.6842 86.5533 20.3460 0.0000 0.0000 0.0000
# 3 28.8331 20.3460 92.7314 0.0000 0.0000 0.0000
# 4 0.0000 0.0000 0.0000 25.3132 0.0000 0.0000
# 5 0.0000 0.0000 0.0000 0.0000 29.0552 0.0000
# 6 0.0000 0.0000 0.0000 0.0000 0.0000 7.2962
#
#
#
# Elastic Compliance Matrix: (Units=1/GPa)
#
#
# Indices 1 2 3 4 5 6 
#
# 1 0.015454 -0.007598 -0.003138 0.000000 0.000000 0.000000
# 2 -0.007598 0.015917 -0.001130 0.000000 0.000000 0.000000
# 3 -0.003138 -0.001130 0.012008 0.000000 0.000000 0.000000
# 4 0.000000 0.000000 0.000000 0.039505 0.000000 0.000000
# 5 0.000000 0.000000 0.000000 0.000000 0.034417 0.000000
# 6 0.000000 0.000000 0.000000 0.000000 0.000000 0.137057
#
#
# Mechanical properties :
#
#
# Convention : Reuss Voigt Hill
#
# Bulk Modulus (GPa) = 50.89841 51.61407 51.25624
# Shear Modulus (GPa) = 17.56615 24.12870 20.84743
#
# Velocity S-wave (km/s) = 2.80258 3.28464 3.05314
# Velocity P-wave (km/s) = 5.76465 6.12076 5.94537
#
# Compressibility (1/GPa) = 0.01964698
#
# Stress axis : x y z
#
# Youngs Moduli (GPa) = 64.70881 62.82536 83.28124
#
# Poissons Ratio (x) = 0.47733 0.26135
# Poissons Ratio (y) = 0.49164 0.09411
# Poissons Ratio (z) = 0.20306 0.07099
#
# Static dielectric constant tensor:
#      x y z
#    x 2.673160 0.000000 0.000000 
#    y 0.000000 1.789760 0.000000 
#    z 0.000000 0.000000 2.138480 
# 
# From -- ./inp_files/1169.got.cif
#   From: 2010.05.17/outbox.cif.g08.bks.cpg/sg19_1_cif.got.tgz:1169.got - 2010.06.03 22:46:19.
