data_PCOD9315248
_publ_section_title
;
Structure prediction by ZEFSAII (Michael W. Deem and Ramdas Pophale) SiO2 
 PCOD9315248
Probable space group: P 21 21 21
;
_chemical_formula_sum "Si O2"
_cell_formula_units_Z 20
_cell_length_a 17.960730
_cell_length_b 5.129994
_cell_length_c 8.814916
_cell_angle_alpha 90.000000
_cell_angle_beta 90.000000
_cell_angle_gamma 90.000000
_cell_volume 812.192584
_symmetry_space_group_name_H-M "P 21 21 21"
_symmetry_group_IT_number 19
_symmetry_cell_setting 'orthorhombic'
loop_
_space_group_symop_operation_xyz
x,y,z
1/2-x,-y,1/2+z
1/2+x,1/2-y,-z
-x,1/2+y,1/2-z
loop_
_atom_site_type_symbol
_atom_site_label
_atom_site_fract_x
_atom_site_fract_y
_atom_site_fract_z
Si Si1 0.735679 0.274590 0.110014
Si Si2 0.688083 0.371155 0.800449
Si Si3 0.821311 0.050449 0.861842
Si Si4 0.015772 0.763145 0.652280
Si Si5 0.036653 0.406454 0.180731
O O1 0.810378 0.400114 0.180086
O O2 0.683757 0.189859 0.248260
O O3 0.692456 0.435135 0.979737
O O4 0.769812 0.032952 0.010889
O O5 0.771361 0.263462 0.775015
O O6 0.621228 0.171929 0.780609
O O7 0.902809 0.152694 0.889900
O O8 0.979668 0.517189 0.740037
O O9 0.975892 0.852305 0.497544
O O10 0.013723 0.697620 0.226663
#
# Coordination Sequence:
#
# PCOD9315248 Si02
#       5
#     4   4   4   4   4
#     4  10  24  40  72  96 134 172 238 284 342 396
#     4  10  26  42  72  98 139 178 238 281 345 410
#     4  10  26  42  72  98 139 178 238 281 345 410
#     4  12  28  47  72 104 147 188 232 291 358 418
#     4  12  28  47  72 104 147 188 232 291 358 418
#
# _framework density 24.624701999999999
#
# number of rings (size 3 to 8) (size 9 to 14) (size 15 to 20)
#    1.200    0.000    0.000    3.600   14.000    0.000 
#    0.000    0.000    0.000    0.000    0.000    0.000 
#    0.000    0.000    0.000    0.000    0.000    0.000 
#
# Total GULP energy -111620.813983 kJ/mol
# GULP energy per Si atom -5581.040699 kJ/mol
# Density = 2.456865 g / cm^3
# Si number density = 24.624702 Si / 1000 Ang^3
#
#
#
# Elastic Constant Matrix: (Units=GPa)
#
#
# Indices 1 2 3 4 5 6 
#
# 1 64.8872 -15.4106 -26.8211 0.0000 0.0000 0.0000
# 2 -15.4106 49.0311 -0.7527 0.0000 0.0000 0.0000
# 3 -26.8211 -0.7527 65.6411 0.0000 0.0000 0.0000
# 4 0.0000 0.0000 0.0000 33.3960 0.0000 0.0000
# 5 0.0000 0.0000 0.0000 0.0000 30.7916 0.0000
# 6 0.0000 0.0000 0.0000 0.0000 0.0000 32.5304
#
#
#
# Elastic Compliance Matrix: (Units=1/GPa)
#
#
# Indices 1 2 3 4 5 6 
#
# 1 0.020455 0.006558 0.008433 0.000000 0.000000 0.000000
# 2 0.006558 0.022502 0.002938 0.000000 0.000000 0.000000
# 3 0.008433 0.002938 0.018714 0.000000 0.000000 0.000000
# 4 0.000000 0.000000 0.000000 0.029944 0.000000 0.000000
# 5 0.000000 0.000000 0.000000 0.000000 0.032476 0.000000
# 6 0.000000 0.000000 0.000000 0.000000 0.000000 0.030741
#
#
# Mechanical properties :
#
#
# Convention : Reuss Voigt Hill
#
# Bulk Modulus (GPa) = 10.25337 10.39896 10.32616
# Shear Modulus (GPa) = 33.00727 34.17985 33.59356
#
# Velocity S-wave (km/s) = 3.66514 3.72967 3.69754
# Velocity P-wave (km/s) = 4.69935 4.77278 4.73620
#
# Compressibility (1/GPa) = 0.09752893
#
# Stress axis : x y z
#
# Youngs Moduli (GPa) = 48.88833 44.44114 53.43649
#
# Poissons Ratio (x) = -0.29146 -0.45063
# Poissons Ratio (y) = -0.32063 -0.15699
# Poissons Ratio (z) = -0.41228 -0.13056
#
# Static dielectric constant tensor:
#      x y z
#    x 1.931950 0.000000 0.000000 
#    y 0.000000 2.165480 0.000000 
#    z 0.000000 0.000000 1.992620 
# 
# From -- ./inp_files/4083.got.cif
#   From: 2010.05.17/outbox.cif.g08.bks.cpg/sg19_3_cif.got.tgz:4083.got - 2010.06.03 22:46:19.
