data_PCOD9315450
_publ_section_title
;
Structure prediction by ZEFSAII (Michael W. Deem and Ramdas Pophale) SiO2 
 PCOD9315450
Probable space group: P 21 21 21
;
_chemical_formula_sum "Si O2"
_cell_formula_units_Z 28
_cell_length_a 5.948855
_cell_length_b 16.914614
_cell_length_c 11.038427
_cell_angle_alpha 90.000000
_cell_angle_beta 90.000000
_cell_angle_gamma 90.000000
_cell_volume 1110.715071
_symmetry_space_group_name_H-M "P 21 21 21"
_symmetry_group_IT_number 19
_symmetry_cell_setting 'orthorhombic'
loop_
_space_group_symop_operation_xyz
x,y,z
1/2-x,-y,1/2+z
1/2+x,1/2-y,-z
-x,1/2+y,1/2-z
loop_
_atom_site_type_symbol
_atom_site_label
_atom_site_fract_x
_atom_site_fract_y
_atom_site_fract_z
Si Si1 0.930551 0.610043 0.304625
Si Si2 0.182875 0.513319 0.114379
Si Si3 0.085933 0.624405 0.707580
Si Si4 0.169674 0.027452 0.602194
Si Si5 0.755330 0.759968 0.685302
Si Si6 0.040273 0.853953 0.861985
Si Si7 0.022389 0.329762 0.386776
O O1 0.766207 0.560755 0.390173
O O2 0.794299 0.638678 0.183994
O O3 0.084167 0.541723 0.243647
O O4 0.063937 0.681646 0.368718
O O5 0.245475 0.421062 0.118278
O O6 0.404098 0.566911 0.104033
O O7 0.009772 0.530808 0.006231
O O8 0.240300 0.659001 0.817687
O O9 0.946980 0.554509 0.772821
O O10 0.917371 0.687418 0.646488
O O11 0.369943 0.091283 0.595779
O O12 0.620432 0.722297 0.796275
O O13 0.927508 0.821674 0.741039
O O14 0.982140 0.798020 0.976019
#
# Coordination Sequence:
#
# PCOD9315450 Si02
#       7
#     4   4   4   4   4   4   4
#     4  11  22  41  61 100 147 182 230 291 356 429
#     4  11  22  38  66 104 136 183 233 289 354 421
#     4  11  22  41  61 100 147 182 230 291 356 429
#     4  11  22  38  66 104 136 183 233 289 354 421
#     4  10  26  36  62  96 144 190 220 278 364 430
#     4  11  22  37  62  98 140 169 227 286 355 419
#     4  11  22  37  62  98 140 169 227 286 355 419
#
# _framework density 25.208983
#
# number of rings (size 3 to 8) (size 9 to 14) (size 15 to 20)
#    0.000    1.143    5.714    0.857    4.000    0.000 
#    0.000    0.000    0.000    0.000    7.429    0.000 
#    0.000    0.000    0.000    0.000    0.000    0.000 
#
# Total GULP energy -156231.426766 kJ/mol
# GULP energy per Si atom -5579.693813 kJ/mol
# Density = 2.515161 g / cm^3
# Si number density = 25.208983 Si / 1000 Ang^3
#
#
#
# Elastic Constant Matrix: (Units=GPa)
#
#
# Indices 1 2 3 4 5 6 
#
# 1 103.7730 57.7270 24.2909 0.0000 0.0000 0.0000
# 2 57.7270 109.2947 24.9136 0.0000 0.0000 0.0000
# 3 24.2909 24.9136 51.9403 0.0000 0.0000 0.0000
# 4 0.0000 0.0000 0.0000 14.6213 0.0000 0.0000
# 5 0.0000 0.0000 0.0000 0.0000 23.9874 0.0000
# 6 0.0000 0.0000 0.0000 0.0000 0.0000 68.3054
#
#
#
# Elastic Compliance Matrix: (Units=1/GPa)
#
#
# Indices 1 2 3 4 5 6 
#
# 1 0.014163 -0.006704 -0.003408 0.000000 0.000000 0.000000
# 2 -0.006704 0.013446 -0.003314 0.000000 0.000000 0.000000
# 3 -0.003408 -0.003314 0.022436 0.000000 0.000000 0.000000
# 4 0.000000 0.000000 0.000000 0.068394 0.000000 0.000000
# 5 0.000000 0.000000 0.000000 0.000000 0.041689 0.000000
# 6 0.000000 0.000000 0.000000 0.000000 0.000000 0.014640
#
#
# Mechanical properties :
#
#
# Convention : Reuss Voigt Hill
#
# Bulk Modulus (GPa) = 43.11621 53.20789 48.16205
# Shear Modulus (GPa) = 23.88323 31.92126 27.90225
#
# Velocity S-wave (km/s) = 3.08134 3.56232 3.33053
# Velocity P-wave (km/s) = 5.45896 6.17031 5.82550
#
# Compressibility (1/GPa) = 0.02319313
#
# Stress axis : x y z
#
# Youngs Moduli (GPa) = 70.60416 74.37205 44.57025
#
# Poissons Ratio (x) = 0.49859 0.15191
# Poissons Ratio (y) = 0.47333 0.14772
# Poissons Ratio (z) = 0.24063 0.24649
#
# Static dielectric constant tensor:
#      x y z
#    x 2.121350 0.000000 0.000000 
#    y 0.000000 2.050000 0.000000 
#    z 0.000000 0.000000 2.049410 
# 
# From -- ./inp_files/4492.got.cif
#   From: 2010.05.17/outbox.cif.g08.bks.cpg/sg19_3_cif.got.tgz:4492.got - 2010.06.03 22:46:19.
