data_PCOD9315354
_publ_section_title
;
Structure prediction by ZEFSAII (Michael W. Deem and Ramdas Pophale) SiO2 
 PCOD9315354
Probable space group: P 21 21 21
;
_chemical_formula_sum "Si O2"
_cell_formula_units_Z 28
_cell_length_a 9.846392
_cell_length_b 5.520863
_cell_length_c 22.900742
_cell_angle_alpha 90.000000
_cell_angle_beta 90.000000
_cell_angle_gamma 90.000000
_cell_volume 1244.897647
_symmetry_space_group_name_H-M "P 21 21 21"
_symmetry_group_IT_number 19
_symmetry_cell_setting 'orthorhombic'
loop_
_space_group_symop_operation_xyz
x,y,z
1/2-x,-y,1/2+z
1/2+x,1/2-y,-z
-x,1/2+y,1/2-z
loop_
_atom_site_type_symbol
_atom_site_label
_atom_site_fract_x
_atom_site_fract_y
_atom_site_fract_z
Si Si1 0.781574 0.706784 0.517431
Si Si2 0.171636 0.780777 0.723832
Si Si3 0.952636 0.625109 0.064229
Si Si4 0.775757 0.871292 0.395983
Si Si5 0.273308 0.431492 0.396497
Si Si6 0.492573 0.622407 0.061771
Si Si7 0.152850 0.279688 0.790669
O O1 0.655388 0.581232 0.547870
O O2 0.773560 0.677890 0.448681
O O3 0.922872 0.613420 0.542592
O O4 0.772323 0.984842 0.535899
O O5 0.258191 0.763470 0.664938
O O6 0.194933 0.524586 0.756277
O O7 0.011255 0.781316 0.707654
O O8 0.196188 0.024829 0.761671
O O9 0.086778 0.520129 0.093665
O O10 0.868999 0.796287 0.108613
O O11 0.978049 0.743493 0.000481
O O12 0.646148 0.045935 0.407305
O O13 0.407899 0.265981 0.393629
O O14 0.289964 0.660105 0.354600
#
# Coordination Sequence:
#
# PCOD9315354 Si02
#       7
#     4   4   4   4   4   4   4
#     4  11  23  41  65 102 142 188 234 284 371 446
#     4  10  25  43  72 108 135 184 251 319 353 410
#     4  11  24  41  62 107 151 185 231 289 372 461
#     4  12  23  41  70 108 146 185 240 307 363 439
#     4  11  24  42  71  98 143 195 225 293 368 446
#     4  11  23  40  66 107 144 188 234 289 371 446
#     4  10  24  46  70 104 139 183 255 305 360 422
#
# _framework density 22.491807000000001
#
# number of rings (size 3 to 8) (size 9 to 14) (size 15 to 20)
#    0.000    1.143    2.857    2.571   12.000    1.143 
#    0.000    0.000    3.143    0.000    0.000    0.000 
#    0.000    0.000    0.000    0.000    0.000    0.000 
#
# Total GULP energy -156491.895967 kJ/mol
# GULP energy per Si atom -5588.996285 kJ/mol
# Density = 2.244061 g / cm^3
# Si number density = 22.491807 Si / 1000 Ang^3
#
#
#
# Elastic Constant Matrix: (Units=GPa)
#
#
# Indices 1 2 3 4 5 6 
#
# 1 114.3662 46.3638 37.4316 0.0000 0.0000 0.0000
# 2 46.3638 98.6652 48.4535 0.0000 0.0000 0.0000
# 3 37.4316 48.4535 112.4768 0.0000 0.0000 0.0000
# 4 0.0000 0.0000 0.0000 46.6322 0.0000 0.0000
# 5 0.0000 0.0000 0.0000 0.0000 24.8208 0.0000
# 6 0.0000 0.0000 0.0000 0.0000 0.0000 8.0935
#
#
#
# Elastic Compliance Matrix: (Units=1/GPa)
#
#
# Indices 1 2 3 4 5 6 
#
# 1 0.011092 -0.004312 -0.001834 0.000000 0.000000 0.000000
# 2 -0.004312 0.014531 -0.004825 0.000000 0.000000 0.000000
# 3 -0.001834 -0.004825 0.011580 0.000000 0.000000 0.000000
# 4 0.000000 0.000000 0.000000 0.021444 0.000000 0.000000
# 5 0.000000 0.000000 0.000000 0.000000 0.040289 0.000000
# 6 0.000000 0.000000 0.000000 0.000000 0.000000 0.123556
#
#
# Mechanical properties :
#
#
# Convention : Reuss Voigt Hill
#
# Bulk Modulus (GPa) = 65.52410 65.55622 65.54016
# Shear Modulus (GPa) = 20.03849 28.79325 24.41587
#
# Velocity S-wave (km/s) = 2.98807 3.58182 3.29834
# Velocity P-wave (km/s) = 6.41096 6.80558 6.61122
#
# Compressibility (1/GPa) = 0.01526156
#
# Stress axis : x y z
#
# Youngs Moduli (GPa) = 90.15504 68.81952 86.35947
#
# Poissons Ratio (x) = 0.29672 0.15838
# Poissons Ratio (y) = 0.38871 0.41667
# Poissons Ratio (z) = 0.16534 0.33204
#
# Static dielectric constant tensor:
#      x y z
#    x 1.828810 0.000000 0.000000 
#    y 0.000000 1.948470 0.000000 
#    z 0.000000 0.000000 1.890870 
# 
# From -- ./inp_files/7333.got.cif
#   From: 2010.05.17/outbox.cif.g08.bks.cpg/sg19_4_cif.got.tgz:7333.got - 2010.06.03 22:46:19.
