data_PCOD9315361
_publ_section_title
;
Structure prediction by ZEFSAII (Michael W. Deem and Ramdas Pophale) SiO2 
 PCOD9315361
Probable space group: P 21 21 21
;
_chemical_formula_sum "Si O2"
_cell_formula_units_Z 20
_cell_length_a 14.516403
_cell_length_b 7.425209
_cell_length_c 7.505712
_cell_angle_alpha 90.000000
_cell_angle_beta 90.000000
_cell_angle_gamma 90.000000
_cell_volume 809.020628
_symmetry_space_group_name_H-M "P 21 21 21"
_symmetry_group_IT_number 19
_symmetry_cell_setting 'orthorhombic'
loop_
_space_group_symop_operation_xyz
x,y,z
1/2-x,-y,1/2+z
1/2+x,1/2-y,-z
-x,1/2+y,1/2-z
loop_
_atom_site_type_symbol
_atom_site_label
_atom_site_fract_x
_atom_site_fract_y
_atom_site_fract_z
Si Si1 0.520195 0.527400 0.048214
Si Si2 0.890234 0.701565 0.808634
Si Si3 0.370195 0.355407 0.852888
Si Si4 0.810031 0.872066 0.445309
Si Si5 0.804368 0.471293 0.336684
O O1 0.535680 0.443625 0.240721
O O2 0.445632 0.683116 0.049981
O O3 0.473757 0.381092 0.918904
O O4 0.622513 0.576895 0.990216
O O5 0.861147 0.818113 0.631102
O O6 0.796403 0.608325 0.868277
O O7 0.353019 0.470652 0.673650
O O8 0.345127 0.146356 0.824245
O O9 0.294046 0.421723 0.995954
O O10 0.804420 0.686538 0.331813
#
# Coordination Sequence:
#
# PCOD9315361 Si02
#       5
#     4   4   4   4   4
#     4  11  26  45  74 108 141 199 244 300 367 439
#     4  10  25  48  70 106 144 193 245 306 366 430
#     4  11  24  44  75 107 144 194 247 296 364 435
#     4  10  24  46  73 105 149 190 243 303 363 428
#     4  10  25  47  70 108 146 190 237 303 362 426
#
# _framework density 24.721249
#
# number of rings (size 3 to 8) (size 9 to 14) (size 15 to 20)
#    0.000    1.600    0.000    2.400   11.200    9.600 
#    0.000    0.000    0.000    0.000    0.000    0.000 
#    0.000    0.000    0.000    0.000    0.000    0.000 
#
# Total GULP energy -111858.109713 kJ/mol
# GULP energy per Si atom -5592.905486 kJ/mol
# Density = 2.466498 g / cm^3
# Si number density = 24.721249 Si / 1000 Ang^3
#
#
#
# Elastic Constant Matrix: (Units=GPa)
#
#
# Indices 1 2 3 4 5 6 
#
# 1 70.8381 37.3680 23.8746 0.0000 0.0000 0.0000
# 2 37.3680 94.8801 32.2385 0.0000 0.0000 0.0000
# 3 23.8746 32.2385 54.3621 0.0000 0.0000 0.0000
# 4 0.0000 0.0000 0.0000 47.1491 0.0000 0.0000
# 5 0.0000 0.0000 0.0000 0.0000 72.4623 0.0000
# 6 0.0000 0.0000 0.0000 0.0000 0.0000 24.3670
#
#
#
# Elastic Compliance Matrix: (Units=1/GPa)
#
#
# Indices 1 2 3 4 5 6 
#
# 1 0.018782 -0.005754 -0.004836 0.000000 0.000000 0.000000
# 2 -0.005754 0.014962 -0.006346 0.000000 0.000000 0.000000
# 3 -0.004836 -0.006346 0.024283 0.000000 0.000000 0.000000
# 4 0.000000 0.000000 0.000000 0.021209 0.000000 0.000000
# 5 0.000000 0.000000 0.000000 0.000000 0.013800 0.000000
# 6 0.000000 0.000000 0.000000 0.000000 0.000000 0.041039
#
#
# Mechanical properties :
#
#
# Convention : Reuss Voigt Hill
#
# Bulk Modulus (GPa) = 41.40088 45.22693 43.31391
# Shear Modulus (GPa) = 28.40924 37.23561 32.82242
#
# Velocity S-wave (km/s) = 3.39364 3.88521 3.64772
# Velocity P-wave (km/s) = 5.66914 6.20169 5.94139
#
# Compressibility (1/GPa) = 0.02415407
#
# Stress axis : x y z
#
# Youngs Moduli (GPa) = 53.24271 66.83596 41.18179
#
# Poissons Ratio (x) = 0.38456 0.19917
# Poissons Ratio (y) = 0.30635 0.26134
# Poissons Ratio (z) = 0.25750 0.42414
#
# Static dielectric constant tensor:
#      x y z
#    x 1.923540 0.000000 0.000000 
#    y 0.000000 1.944140 0.000000 
#    z 0.000000 0.000000 2.043040 
# 
# From -- ./inp_files/3288.got.cif
#   From: 2010.05.17/outbox.cif.g08.bks.cpg/sg19_2_cif.got.tgz:3288.got - 2010.06.03 22:46:19.
