data_PCOD9315990
_publ_section_title
;
Structure prediction by ZEFSAII (Michael W. Deem and Ramdas Pophale) SiO2 
 PCOD9315990
Probable space group: P 21 21 21
;
_chemical_formula_sum "Si O2"
_cell_formula_units_Z 20
_cell_length_a 8.130528
_cell_length_b 9.706577
_cell_length_c 10.428690
_cell_angle_alpha 90.000000
_cell_angle_beta 90.000000
_cell_angle_gamma 90.000000
_cell_volume 823.028002
_symmetry_space_group_name_H-M "P 21 21 21"
_symmetry_group_IT_number 19
_symmetry_cell_setting 'orthorhombic'
loop_
_space_group_symop_operation_xyz
x,y,z
1/2-x,-y,1/2+z
1/2+x,1/2-y,-z
-x,1/2+y,1/2-z
loop_
_atom_site_type_symbol
_atom_site_label
_atom_site_fract_x
_atom_site_fract_y
_atom_site_fract_z
Si Si1 0.900068 0.614438 0.618974
Si Si2 0.715411 0.991078 0.299746
Si Si3 0.814756 0.288183 0.347826
Si Si4 0.311142 0.720478 0.877994
Si Si5 0.217332 0.789523 0.619247
O O1 0.033500 0.493816 0.640523
O O2 0.024802 0.748683 0.612860
O O3 0.787253 0.631137 0.742446
O O4 0.792004 0.617832 0.490985
O O5 0.702834 0.913404 0.162626
O O6 0.793465 0.867750 0.385610
O O7 0.813032 0.129902 0.298035
O O8 0.727572 0.280836 0.485059
O O9 0.002361 0.328899 0.365312
O O10 0.269520 0.826688 0.763461
#
# Coordination Sequence:
#
# PCOD9315990 Si02
#       5
#     4   4   4   4   4
#     4   9  19  35  62  82 111 155 192 238 276 342
#     4   8  23  36  60  83 113 153 193 219 308 322
#     4  12  20  41  62  78 130 146 185 251 279 343
#     4   9  22  35  59  88 110 155 191 230 296 332
#     4   8  18  37  55  85 110 143 201 222 283 337
#
# _framework density 24.300511
#
# number of rings (size 3 to 8) (size 9 to 14) (size 15 to 20)
#    2.400    0.000    0.000    3.600    2.800    0.000 
#    0.000    8.000    0.000    0.000    0.000    0.000 
#    0.000    0.000    0.000    0.000    0.000    0.000 
#
# Total GULP energy -111508.335053 kJ/mol
# GULP energy per Si atom -5575.416753 kJ/mol
# Density = 2.424520 g / cm^3
# Si number density = 24.300511 Si / 1000 Ang^3
#
#
#
# Elastic Constant Matrix: (Units=GPa)
#
#
# Indices 1 2 3 4 5 6 
#
# 1 84.7254 -5.9898 18.8839 0.0000 0.0000 0.0000
# 2 -5.9898 73.3186 1.8834 0.0000 0.0000 0.0000
# 3 18.8839 1.8834 140.7286 0.0000 0.0000 0.0000
# 4 0.0000 0.0000 0.0000 -5.0145 0.0000 0.0000
# 5 0.0000 0.0000 0.0000 0.0000 39.5246 0.0000
# 6 0.0000 0.0000 0.0000 0.0000 0.0000 15.9263
#
#
#
# Elastic Compliance Matrix: (Units=1/GPa)
#
#
# Indices 1 2 3 4 5 6 
#
# 1 0.012246 0.001043 -0.001657 0.000000 0.000000 0.000000
# 2 0.001043 0.013733 -0.000324 0.000000 0.000000 0.000000
# 3 -0.001657 -0.000324 0.007333 0.000000 0.000000 0.000000
# 4 0.000000 0.000000 0.000000 -0.199421 0.000000 0.000000
# 5 0.000000 0.000000 0.000000 0.000000 0.025301 0.000000
# 6 0.000000 0.000000 0.000000 0.000000 0.000000 0.062789
#
#
# Mechanical properties :
#
#
# Convention : Reuss Voigt Hill
#
# Bulk Modulus (GPa) = 31.81141 36.48086 34.14613
# Shear Modulus (GPa) = -76.14317 29.02028 -23.56145
#
# Velocity S-wave (km/s) = -5.60375 3.45951 -3.11720
# Velocity P-wave (km/s) = 5.36191 5.56799 1.06124
#
# Compressibility (1/GPa) = 0.03143526
#
# Stress axis : x y z
#
# Youngs Moduli (GPa) = 81.65972 72.81928 136.37761
#
# Poissons Ratio (x) = -0.07595 0.22601
# Poissons Ratio (y) = -0.08517 0.04415
# Poissons Ratio (z) = 0.13533 0.02357
#
# Static dielectric constant tensor:
#      x y z
#    x 1.927870 0.000000 0.000000 
#    y 0.000000 1.991650 0.000000 
#    z 0.000000 0.000000 1.966410 
# 
# From -- ./inp_files/2605.got.cif
#   From: 2010.05.17/outbox.cif.g08.bks.cpg/sg19_2_cif.got.tgz:2605.got - 2010.06.03 22:46:19.
