data_PCOD9315028
_publ_section_title
;
Structure prediction by ZEFSAII (Michael W. Deem and Ramdas Pophale) SiO2 
 PCOD9315028
Probable space group: P 21 21 21
;
_chemical_formula_sum "Si O2"
_cell_formula_units_Z 32
_cell_length_a 4.822093
_cell_length_b 13.510164
_cell_length_c 17.807652
_cell_angle_alpha 90.000000
_cell_angle_beta 90.000000
_cell_angle_gamma 90.000000
_cell_volume 1160.119864
_symmetry_space_group_name_H-M "P 21 21 21"
_symmetry_group_IT_number 19
_symmetry_cell_setting 'orthorhombic'
loop_
_space_group_symop_operation_xyz
x,y,z
1/2-x,-y,1/2+z
1/2+x,1/2-y,-z
-x,1/2+y,1/2-z
loop_
_atom_site_type_symbol
_atom_site_label
_atom_site_fract_x
_atom_site_fract_y
_atom_site_fract_z
Si Si1 0.850746 0.545555 0.179395
Si Si2 0.495250 0.599323 0.308462
Si Si3 0.072260 0.075137 0.928453
Si Si4 0.106038 0.416218 0.291719
Si Si5 0.512096 0.294463 0.457912
Si Si6 0.613251 0.192005 0.965728
Si Si7 0.681521 0.781444 0.813394
Si Si8 0.763787 0.502084 0.431131
O O1 0.756352 0.602453 0.253984
O O2 0.596287 0.512592 0.129943
O O3 0.979402 0.446039 0.211810
O O4 0.057267 0.622935 0.144362
O O5 0.373898 0.487108 0.296848
O O6 0.303369 0.680289 0.267157
O O7 0.593685 0.596163 0.395018
O O8 0.393214 0.102708 0.949777
O O9 0.855063 0.159579 0.905486
O O10 0.999510 0.030656 0.009328
O O11 0.054320 0.300579 0.299819
O O12 0.927944 0.459617 0.360220
O O13 0.205871 0.265091 0.483216
O O14 0.596207 0.262162 0.372884
O O15 0.580144 0.411200 0.460760
O O16 0.358423 0.272620 0.973971
#
# Coordination Sequence:
#
# PCOD9315028 Si02
#       8
#     4   4   4   4   4   4   4   4
#     4  10  23  41  66 107 133 186 244 298 358 433
#     4  10  23  44  67  96 145 191 248 290 359 446
#     4  11  23  40  74 101 140 184 233 308 361 422
#     4   9  22  45  64  96 142 187 239 299 359 433
#     4  11  26  42  71 112 149 188 236 304 378 441
#     4   9  22  46  64  94 136 179 229 288 350 418
#     4  10  23  43  71  99 148 188 245 295 363 450
#     4  10  24  41  67 101 143 189 236 300 366 437
#
# _framework density 27.583358
#
# number of rings (size 3 to 8) (size 9 to 14) (size 15 to 20)
#    0.000    2.000    0.000    0.750   12.250    2.000 
#    6.750    2.500    0.000    0.000    0.000    0.000 
#    0.000    0.000    0.000    0.000    0.000    0.000 
#
# Total GULP energy -178271.398779 kJ/mol
# GULP energy per Si atom -5570.981212 kJ/mol
# Density = 2.752058 g / cm^3
# Si number density = 27.583358 Si / 1000 Ang^3
#
#
#
# Elastic Constant Matrix: (Units=GPa)
#
#
# Indices 1 2 3 4 5 6 
#
# 1 127.2596 20.2958 20.6639 0.0000 0.0000 0.0000
# 2 20.2958 107.2774 23.2912 0.0000 0.0000 0.0000
# 3 20.6639 23.2912 82.2122 0.0000 0.0000 0.0000
# 4 0.0000 0.0000 0.0000 22.5101 0.0000 0.0000
# 5 0.0000 0.0000 0.0000 0.0000 33.0473 0.0000
# 6 0.0000 0.0000 0.0000 0.0000 0.0000 35.9018
#
#
#
# Elastic Compliance Matrix: (Units=1/GPa)
#
#
# Indices 1 2 3 4 5 6 
#
# 1 0.008334 -0.001195 -0.001756 0.000000 0.000000 0.000000
# 2 -0.001195 0.010104 -0.002562 0.000000 0.000000 0.000000
# 3 -0.001756 -0.002562 0.013331 0.000000 0.000000 0.000000
# 4 0.000000 0.000000 0.000000 0.044425 0.000000 0.000000
# 5 0.000000 0.000000 0.000000 0.000000 0.030260 0.000000
# 6 0.000000 0.000000 0.000000 0.000000 0.000000 0.027854
#
#
# Mechanical properties :
#
#
# Convention : Reuss Voigt Hill
#
# Bulk Modulus (GPa) = 48.21212 49.47234 48.84223
# Shear Modulus (GPa) = 32.84127 35.12506 33.98316
#
# Velocity S-wave (km/s) = 3.45428 3.57237 3.51382
# Velocity P-wave (km/s) = 5.78152 5.91525 5.84877
#
# Compressibility (1/GPa) = 0.02074167
#
# Stress axis : x y z
#
# Youngs Moduli (GPa) = 119.99421 98.97030 75.01385
#
# Poissons Ratio (x) = 0.11831 0.13172
# Poissons Ratio (y) = 0.14344 0.19219
# Poissons Ratio (z) = 0.21071 0.25357
#
# Static dielectric constant tensor:
#      x y z
#    x 2.246800 0.000000 0.000000 
#    y 0.000000 2.427480 0.000000 
#    z 0.000000 0.000000 2.309200 
# 
# From -- ./inp_files/6495.got.cif
#   From: 2010.05.17/outbox.cif.g08.bks.cpg/sg19_4_cif.got.tgz:6495.got - 2010.06.03 22:46:19.
