data_PCOD9315544
_publ_section_title
;
Structure prediction by ZEFSAII (Michael W. Deem and Ramdas Pophale) SiO2 
 PCOD9315544
Probable space group: P 21 21 21
;
_chemical_formula_sum "Si O2"
_cell_formula_units_Z 24
_cell_length_a 5.778432
_cell_length_b 17.873169
_cell_length_c 9.617643
_cell_angle_alpha 90.000000
_cell_angle_beta 90.000000
_cell_angle_gamma 90.000000
_cell_volume 993.299510
_symmetry_space_group_name_H-M "P 21 21 21"
_symmetry_group_IT_number 19
_symmetry_cell_setting 'orthorhombic'
loop_
_space_group_symop_operation_xyz
x,y,z
1/2-x,-y,1/2+z
1/2+x,1/2-y,-z
-x,1/2+y,1/2-z
loop_
_atom_site_type_symbol
_atom_site_label
_atom_site_fract_x
_atom_site_fract_y
_atom_site_fract_z
Si Si1 0.857054 0.669366 0.183824
Si Si2 0.560314 0.093616 0.857573
Si Si3 0.308417 0.269988 0.071179
Si Si4 0.362310 0.051287 0.118393
Si Si5 0.252577 0.571283 0.170974
Si Si6 0.124754 0.895957 0.062966
O O1 0.740815 0.730972 0.280001
O O2 0.788729 0.593007 0.266838
O O3 0.128780 0.652443 0.176355
O O4 0.757932 0.665397 0.028503
O O5 0.779906 0.141198 0.906816
O O6 0.474549 0.126131 0.711655
O O7 0.615078 0.005993 0.848686
O O8 0.363064 0.096736 0.975249
O O9 0.565581 0.250679 0.012974
O O10 0.615025 0.058065 0.184826
O O11 0.289078 0.966679 0.094040
O O12 0.423806 0.575849 0.039657
#
# Coordination Sequence:
#
# PCOD9315544 Si02
#       6
#     4   4   4   4   4   4
#     4  11  24  45  68  97 144 183 230 300 353 424
#     4  12  23  43  70 107 133 187 239 290 351 439
#     4  12  29  50  74 104 143 195 245 292 359 439
#     4  11  21  42  69 101 137 177 237 290 351 418
#     4  11  23  41  71 100 139 181 237 299 354 415
#     4  11  24  41  66 109 138 177 232 301 366 411
#
# _framework density 24.161895999999999
#
# number of rings (size 3 to 8) (size 9 to 14) (size 15 to 20)
#    0.000    0.667    5.000    3.000    4.667    1.333 
#    3.000    0.000    0.000    0.000    0.000    0.000 
#    0.000    0.000    0.000    0.000    0.000    0.000 
#
# Total GULP energy -134040.846813 kJ/mol
# GULP energy per Si atom -5585.035284 kJ/mol
# Density = 2.410690 g / cm^3
# Si number density = 24.161896 Si / 1000 Ang^3
#
#
#
# Elastic Constant Matrix: (Units=GPa)
#
#
# Indices 1 2 3 4 5 6 
#
# 1 68.4117 0.5727 31.2240 0.0000 0.0000 0.0000
# 2 0.5727 32.3865 -12.7015 0.0000 0.0000 0.0000
# 3 31.2240 -12.7015 128.1801 0.0000 0.0000 0.0000
# 4 0.0000 0.0000 0.0000 29.4979 0.0000 0.0000
# 5 0.0000 0.0000 0.0000 0.0000 21.2121 0.0000
# 6 0.0000 0.0000 0.0000 0.0000 0.0000 20.9584
#
#
#
# Elastic Compliance Matrix: (Units=1/GPa)
#
#
# Indices 1 2 3 4 5 6 
#
# 1 0.016563 -0.001951 -0.004228 0.000000 0.000000 0.000000
# 2 -0.001951 0.032355 0.003681 0.000000 0.000000 0.000000
# 3 -0.004228 0.003681 0.009196 0.000000 0.000000 0.000000
# 4 0.000000 0.000000 0.000000 0.033901 0.000000 0.000000
# 5 0.000000 0.000000 0.000000 0.000000 0.047143 0.000000
# 6 0.000000 0.000000 0.000000 0.000000 0.000000 0.047713
#
#
# Mechanical properties :
#
#
# Convention : Reuss Voigt Hill
#
# Bulk Modulus (GPa) = 18.82547 29.68541 24.25544
# Shear Modulus (GPa) = 23.85789 28.32590 26.09189
#
# Velocity S-wave (km/s) = 3.14573 3.42766 3.28971
# Velocity P-wave (km/s) = 4.58284 5.28941 4.94875
#
# Compressibility (1/GPa) = 0.05311952
#
# Stress axis : x y z
#
# Youngs Moduli (GPa) = 60.37379 30.90678 108.73984
#
# Poissons Ratio (x) = 0.06030 0.45976
# Poissons Ratio (y) = 0.11779 -0.40031
# Poissons Ratio (z) = 0.25527 -0.11378
#
# Static dielectric constant tensor:
#      x y z
#    x 2.100430 0.000000 0.000000 
#    y 0.000000 1.942710 0.000000 
#    z 0.000000 0.000000 1.941690 
# 
# From -- ./inp_files/412.got.cif
#   From: 2010.05.17/outbox.cif.g08.bks.cpg/sg19_1_cif.got.tgz:412.got - 2010.06.03 22:46:19.
