data_PCOD9315989
_publ_section_title
;
Structure prediction by ZEFSAII (Michael W. Deem and Ramdas Pophale) SiO2 
 PCOD9315989
Probable space group: P 21 21 21
;
_chemical_formula_sum "Si O2"
_cell_formula_units_Z 28
_cell_length_a 17.057660
_cell_length_b 6.990700
_cell_length_c 10.976622
_cell_angle_alpha 90.000000
_cell_angle_beta 90.000000
_cell_angle_gamma 90.000000
_cell_volume 1308.907112
_symmetry_space_group_name_H-M "P 21 21 21"
_symmetry_group_IT_number 19
_symmetry_cell_setting 'orthorhombic'
loop_
_space_group_symop_operation_xyz
x,y,z
1/2-x,-y,1/2+z
1/2+x,1/2-y,-z
-x,1/2+y,1/2-z
loop_
_atom_site_type_symbol
_atom_site_label
_atom_site_fract_x
_atom_site_fract_y
_atom_site_fract_z
Si Si1 0.927289 0.381141 0.868828
Si Si2 0.249881 0.694048 0.000225
Si Si3 0.275927 0.363068 0.145369
Si Si4 0.224068 0.362973 0.855138
Si Si5 0.427327 0.881019 0.369299
Si Si6 0.154798 0.981555 0.385952
Si Si7 0.845313 0.518649 0.385352
O O1 0.851077 0.262739 0.824693
O O2 0.950900 0.499865 0.749696
O O3 0.999993 0.250244 0.902919
O O4 0.899271 0.483881 0.993846
O O5 0.307579 0.533146 0.055137
O O6 0.212512 0.838012 0.096753
O O7 0.192259 0.532999 0.945292
O O8 0.287220 0.838077 0.903705
O O9 0.243606 0.500015 0.250274
O O10 0.207805 0.211826 0.109769
O O11 0.148980 0.236981 0.825110
O O12 0.292214 0.211829 0.890785
O O13 0.399463 0.983366 0.494528
O O14 0.119354 0.000159 0.250339
#
# Coordination Sequence:
#
# PCOD9315989 Si02
#       7
#     4   4   4   4   4   4   4
#     4  12  26  48  67 100 147 193 238 284 354 437
#     4  12  20  38  70 104 140 172 224 300 356 414
#     4  12  22  40  71 104 136 180 235 292 361 411
#     4  12  22  40  71 104 136 180 235 292 361 411
#     4  12  26  48  67 100 147 193 238 284 354 437
#     4  12  24  43  71 109 139 177 239 303 349 415
#     4  12  24  43  71 109 139 177 239 303 349 415
#
# _framework density 21.391891999999999
#
# number of rings (size 3 to 8) (size 9 to 14) (size 15 to 20)
#    0.000    0.000    8.571    3.429    0.000    0.000 
#    0.000    5.714    0.000    0.000    0.000    0.000 
#    0.000    0.000    0.000    0.000    0.000    0.000 
#
# Total GULP energy -155884.306253 kJ/mol
# GULP energy per Si atom -5567.296652 kJ/mol
# Density = 2.134320 g / cm^3
# Si number density = 21.391892 Si / 1000 Ang^3
#
#
#
# Elastic Constant Matrix: (Units=GPa)
#
#
# Indices 1 2 3 4 5 6 
#
# 1 37.8199 -1.9734 7.7777 0.0000 0.0000 0.0000
# 2 -1.9734 116.2107 31.6186 0.0000 0.0000 0.0000
# 3 7.7777 31.6186 128.8351 0.0000 0.0000 0.0000
# 4 0.0000 0.0000 0.0000 46.4205 0.0000 0.0000
# 5 0.0000 0.0000 0.0000 0.0000 14.8911 0.0000
# 6 0.0000 0.0000 0.0000 0.0000 0.0000 10.6558
#
#
#
# Elastic Compliance Matrix: (Units=1/GPa)
#
#
# Indices 1 2 3 4 5 6 
#
# 1 0.026874 0.000962 -0.001858 0.000000 0.000000 0.000000
# 2 0.000962 0.009255 -0.002329 0.000000 0.000000 0.000000
# 3 -0.001858 -0.002329 0.008446 0.000000 0.000000 0.000000
# 4 0.000000 0.000000 0.000000 0.021542 0.000000 0.000000
# 5 0.000000 0.000000 0.000000 0.000000 0.067154 0.000000
# 6 0.000000 0.000000 0.000000 0.000000 0.000000 0.093846
#
#
# Mechanical properties :
#
#
# Convention : Reuss Voigt Hill
#
# Bulk Modulus (GPa) = 26.23114 39.74572 32.98843
# Shear Modulus (GPa) = 20.30239 30.75631 25.52935
#
# Velocity S-wave (km/s) = 3.08404 3.79589 3.45833
# Velocity P-wave (km/s) = 4.99705 6.15076 5.60368
#
# Compressibility (1/GPa) = 0.03812263
#
# Stress axis : x y z
#
# Youngs Moduli (GPa) = 37.21137 108.04737 118.40275
#
# Poissons Ratio (x) = -0.10394 0.22004
# Poissons Ratio (y) = -0.03580 0.27582
# Poissons Ratio (z) = 0.06915 0.25169
#
# Static dielectric constant tensor:
#      x y z
#    x 1.716860 0.000000 0.000000 
#    y 0.000000 1.748700 0.000000 
#    z 0.000000 0.000000 2.173150 
# 
# From -- ./inp_files/5346.got.cif
#   From: 2010.05.17/outbox.cif.g08.bks.cpg/sg19_3_cif.got.tgz:5346.got - 2010.06.03 22:46:19.
