data_PCOD9315514
_publ_section_title
;
Structure prediction by ZEFSAII (Michael W. Deem and Ramdas Pophale) SiO2 
 PCOD9315514
Probable space group: P 21 21 21
;
_chemical_formula_sum "Si O2"
_cell_formula_units_Z 24
_cell_length_a 11.386727
_cell_length_b 15.658961
_cell_length_c 6.438317
_cell_angle_alpha 90.000000
_cell_angle_beta 90.000000
_cell_angle_gamma 90.000000
_cell_volume 1147.979696
_symmetry_space_group_name_H-M "P 21 21 21"
_symmetry_group_IT_number 19
_symmetry_cell_setting 'orthorhombic'
loop_
_space_group_symop_operation_xyz
x,y,z
1/2-x,-y,1/2+z
1/2+x,1/2-y,-z
-x,1/2+y,1/2-z
loop_
_atom_site_type_symbol
_atom_site_label
_atom_site_fract_x
_atom_site_fract_y
_atom_site_fract_z
Si Si1 0.358007 0.085852 0.079794
Si Si2 0.191713 0.098806 0.734058
Si Si3 0.085394 0.494615 0.047858
Si Si4 0.804979 0.707251 0.156083
Si Si5 0.003946 0.116963 0.092464
Si Si6 0.299760 0.383539 0.213401
O O1 0.299040 0.146668 0.250442
O O2 0.305713 0.990655 0.113718
O O3 0.310815 0.116364 0.857566
O O4 0.496435 0.070933 0.064439
O O5 0.168563 0.174522 0.574295
O O6 0.091867 0.089136 0.908822
O O7 0.199695 0.446357 0.128884
O O8 0.021928 0.542340 0.240717
O O9 0.123954 0.565963 0.883029
O O10 0.922436 0.689599 0.289178
O O11 0.760915 0.802633 0.181124
O O12 0.883960 0.142730 0.978173
#
# Coordination Sequence:
#
# PCOD9315514 Si02
#       6
#     4   4   4   4   4   4
#     4  11  21  39  72 104 134 181 229 283 348 408
#     4  11  20  42  70 101 135 179 226 288 350 408
#     4  12  25  47  71  96 141 193 237 284 356 421
#     4  11  26  43  72 108 141 180 238 294 343 419
#     4  11  23  46  70 100 141 182 231 290 344 416
#     4  12  27  47  69 103 140 191 235 289 351 416
#
# _framework density 20.906293000000002
#
# number of rings (size 3 to 8) (size 9 to 14) (size 15 to 20)
#    0.000    0.667    6.667    1.000    2.333    2.667 
#    3.000    0.000    0.000    0.000    0.000    0.000 
#    0.000    0.000    0.000    0.000    0.000    0.000 
#
# Total GULP energy -134173.971496 kJ/mol
# GULP energy per Si atom -5590.582146 kJ/mol
# Density = 2.085871 g / cm^3
# Si number density = 20.906293 Si / 1000 Ang^3
#
#
#
# Elastic Constant Matrix: (Units=GPa)
#
#
# Indices 1 2 3 4 5 6 
#
# 1 109.9243 34.0468 54.2432 0.0000 0.0000 0.0000
# 2 34.0468 44.5148 17.0014 0.0000 0.0000 0.0000
# 3 54.2432 17.0014 89.9275 0.0000 0.0000 0.0000
# 4 0.0000 0.0000 0.0000 17.3573 0.0000 0.0000
# 5 0.0000 0.0000 0.0000 0.0000 27.3450 0.0000
# 6 0.0000 0.0000 0.0000 0.0000 0.0000 19.5553
#
#
#
# Elastic Compliance Matrix: (Units=1/GPa)
#
#
# Indices 1 2 3 4 5 6 
#
# 1 0.015748 -0.009072 -0.007784 0.000000 0.000000 0.000000
# 2 -0.009072 0.029439 -0.000094 0.000000 0.000000 0.000000
# 3 -0.007784 -0.000094 0.015833 0.000000 0.000000 0.000000
# 4 0.000000 0.000000 0.000000 0.057613 0.000000 0.000000
# 5 0.000000 0.000000 0.000000 0.000000 0.036570 0.000000
# 6 0.000000 0.000000 0.000000 0.000000 0.000000 0.051137
#
#
# Mechanical properties :
#
#
# Convention : Reuss Voigt Hill
#
# Bulk Modulus (GPa) = 36.87181 50.54994 43.71087
# Shear Modulus (GPa) = 20.05789 22.12318 21.09054
#
# Velocity S-wave (km/s) = 3.10081 3.25654 3.17963
# Velocity P-wave (km/s) = 5.52223 6.19450 5.86800
#
# Compressibility (1/GPa) = 0.02712099
#
# Stress axis : x y z
#
# Youngs Moduli (GPa) = 63.49987 33.96885 63.15942
#
# Poissons Ratio (x) = 0.30816 0.49163
# Poissons Ratio (y) = 0.57606 0.00591
# Poissons Ratio (z) = 0.49428 0.00318
#
# Static dielectric constant tensor:
#      x y z
#    x 1.768520 0.000000 0.000000 
#    y 0.000000 1.701650 0.000000 
#    z 0.000000 0.000000 1.755550 
# 
# From -- ./inp_files/899.got.cif
#   From: 2010.05.17/outbox.cif.g08.bks.cpg/sg19_1_cif.got.tgz:899.got - 2010.06.03 22:46:19.
