data_PCOD9315378
_publ_section_title
;
Structure prediction by ZEFSAII (Michael W. Deem and Ramdas Pophale) SiO2 
 PCOD9315378
Probable space group: P 21 21 21
;
_chemical_formula_sum "Si O2"
_cell_formula_units_Z 28
_cell_length_a 23.218517
_cell_length_b 7.698064
_cell_length_c 5.841034
_cell_angle_alpha 90.000000
_cell_angle_beta 90.000000
_cell_angle_gamma 90.000000
_cell_volume 1044.012573
_symmetry_space_group_name_H-M "P 21 21 21"
_symmetry_group_IT_number 19
_symmetry_cell_setting 'orthorhombic'
loop_
_space_group_symop_operation_xyz
x,y,z
1/2-x,-y,1/2+z
1/2+x,1/2-y,-z
-x,1/2+y,1/2-z
loop_
_atom_site_type_symbol
_atom_site_label
_atom_site_fract_x
_atom_site_fract_y
_atom_site_fract_z
Si Si1 0.516122 0.721712 0.400600
Si Si2 0.686655 0.476569 0.351676
Si Si3 0.892859 0.344004 0.524304
Si Si4 0.909801 0.753127 0.904691
Si Si5 0.491803 0.531145 0.786466
Si Si6 0.336632 0.519272 0.459287
Si Si7 0.761620 0.779953 0.206247
O O1 0.573057 0.707160 0.256262
O O2 0.462519 0.792141 0.260525
O O3 0.493315 0.546126 0.516298
O O4 0.524373 0.847391 0.612639
O O5 0.657186 0.519844 0.101247
O O6 0.627926 0.412646 0.475618
O O7 0.724939 0.650227 0.372553
O O8 0.726007 0.326903 0.470317
O O9 0.866784 0.158194 0.448498
O O10 0.944012 0.426356 0.377599
O O11 0.870817 0.880310 0.743513
O O12 0.942137 0.846019 0.111685
O O13 0.317610 0.649190 0.661608
O O14 0.278106 0.443732 0.349639
#
# Coordination Sequence:
#
# PCOD9315378 Si02
#       7
#     4   4   4   4   4   4   4
#     4  11  25  42  68 108 143 188 235 293 353 460
#     4  11  24  47  71 104 140 196 237 314 365 435
#     4  10  24  48  70 100 152 184 238 296 370 426
#     4  11  24  43  70 102 150 181 240 297 370 426
#     4  11  25  42  68 108 143 188 235 293 353 460
#     4  11  24  47  71 104 140 196 237 314 365 435
#     4  11  26  47  76 104 146 189 260 307 370 434
#
# _framework density 26.819600999999999
#
# number of rings (size 3 to 8) (size 9 to 14) (size 15 to 20)
#    0.000    1.143    2.857    1.714    6.000    0.000 
#   10.286    0.000    0.000    0.000    0.000    0.000 
#    0.000    0.000    0.000    0.000    0.000    0.000 
#
# Total GULP energy -156443.803411 kJ/mol
# GULP energy per Si atom -5587.278693 kJ/mol
# Density = 2.675856 g / cm^3
# Si number density = 26.819601 Si / 1000 Ang^3
#
#
#
# Elastic Constant Matrix: (Units=GPa)
#
#
# Indices 1 2 3 4 5 6 
#
# 1 141.3879 43.4139 50.8089 0.0000 0.0000 0.0000
# 2 43.4139 113.0375 54.3029 0.0000 0.0000 0.0000
# 3 50.8089 54.3029 67.2343 0.0000 0.0000 0.0000
# 4 0.0000 0.0000 0.0000 51.9540 0.0000 0.0000
# 5 0.0000 0.0000 0.0000 0.0000 50.8963 0.0000
# 6 0.0000 0.0000 0.0000 0.0000 0.0000 57.4020
#
#
#
# Elastic Compliance Matrix: (Units=1/GPa)
#
#
# Indices 1 2 3 4 5 6 
#
# 1 0.009717 -0.000334 -0.007074 0.000000 0.000000 0.000000
# 2 -0.000334 0.014467 -0.011432 0.000000 0.000000 0.000000
# 3 -0.007074 -0.011432 0.029452 0.000000 0.000000 0.000000
# 4 0.000000 0.000000 0.000000 0.019248 0.000000 0.000000
# 5 0.000000 0.000000 0.000000 0.000000 0.019648 0.000000
# 6 0.000000 0.000000 0.000000 0.000000 0.000000 0.017421
#
#
# Mechanical properties :
#
#
# Convention : Reuss Voigt Hill
#
# Bulk Modulus (GPa) = 62.66809 68.74569 65.70689
# Shear Modulus (GPa) = 32.69028 43.59273 38.14151
#
# Velocity S-wave (km/s) = 3.49506 4.03601 3.77523
# Velocity P-wave (km/s) = 6.30115 6.88530 6.59969
#
# Compressibility (1/GPa) = 0.01595709
#
# Stress axis : x y z
#
# Youngs Moduli (GPa) = 102.91007 69.12394 33.95346
#
# Poissons Ratio (x) = 0.02308 0.24017
# Poissons Ratio (y) = 0.03436 0.38816
# Poissons Ratio (z) = 0.72794 0.79022
#
# Static dielectric constant tensor:
#      x y z
#    x 2.100470 0.000000 0.000000 
#    y 0.000000 2.284610 0.000000 
#    z 0.000000 0.000000 2.113570 
# 
# From -- ./inp_files/2124.got.cif
#   From: 2010.05.17/outbox.cif.g08.bks.cpg/sg19_2_cif.got.tgz:2124.got - 2010.06.03 22:46:19.
