data_PCOD9315996
_publ_section_title
;
Structure prediction by ZEFSAII (Michael W. Deem and Ramdas Pophale) SiO2 
 PCOD9315996
Probable space group: P 21 21 21
;
_chemical_formula_sum "Si O2"
_cell_formula_units_Z 24
_cell_length_a 13.680071
_cell_length_b 6.881009
_cell_length_c 12.523086
_cell_angle_alpha 90.000000
_cell_angle_beta 90.000000
_cell_angle_gamma 90.000000
_cell_volume 1178.831793
_symmetry_space_group_name_H-M "P 21 21 21"
_symmetry_group_IT_number 19
_symmetry_cell_setting 'orthorhombic'
loop_
_space_group_symop_operation_xyz
x,y,z
1/2-x,-y,1/2+z
1/2+x,1/2-y,-z
-x,1/2+y,1/2-z
loop_
_atom_site_type_symbol
_atom_site_label
_atom_site_fract_x
_atom_site_fract_y
_atom_site_fract_z
Si Si1 0.909387 0.877799 0.658652
Si Si2 0.714436 0.733163 0.379251
Si Si3 0.214436 0.733162 0.879251
Si Si4 0.400903 0.930099 0.511612
Si Si5 0.599097 0.069901 0.511612
Si Si6 0.409386 0.877798 0.158652
O O1 0.944131 0.719770 0.574872
O O2 0.858121 0.750000 0.750000
O O3 0.842368 0.032231 0.600571
O O4 0.000000 0.000000 0.705163
O O5 0.708379 0.750000 0.250000
O O6 0.824400 0.689070 0.416673
O O7 0.657633 0.532230 0.399429
O O8 0.661434 0.905774 0.445673
O O9 0.324400 0.689069 0.916673
O O10 0.161435 0.905774 0.945673
O O11 0.500000 0.000000 0.569510
O O12 0.555869 0.219770 0.425128
#
# Coordination Sequence:
#
# PCOD9315996 Si02
#       6
#     4   4   4   4   4   4
#     4  12  22  38  68 102 134 166 228 290 336 392
#     4  12  25  43  67 100 137 177 224 279 338 401
#     4  12  25  43  67 100 137 177 224 279 338 401
#     4  12  25  43  67 100 137 177 224 279 338 401
#     4  12  25  43  67 100 137 177 224 279 338 401
#     4  12  22  38  68 102 134 166 228 290 336 392
#
# _framework density 20.359141000000001
#
# number of rings (size 3 to 8) (size 9 to 14) (size 15 to 20)
#    0.000    0.000   10.000    2.000    0.000    0.000 
#    0.000    6.667    0.000    0.000    0.000    0.000 
#    0.000    0.000    0.000    0.000    0.000    0.000 
#
# Total GULP energy -133777.269794 kJ/mol
# GULP energy per Si atom -5574.052908 kJ/mol
# Density = 2.031280 g / cm^3
# Si number density = 20.359141 Si / 1000 Ang^3
#
#
#
# Elastic Constant Matrix: (Units=GPa)
#
#
# Indices 1 2 3 4 5 6 
#
# 1 127.4250 33.0849 24.0557 0.0000 0.0000 0.0000
# 2 33.0849 97.8312 14.3007 0.0000 0.0000 0.0000
# 3 24.0557 14.3007 33.5464 0.0000 0.0000 0.0000
# 4 0.0000 0.0000 0.0000 25.8466 0.0000 0.0000
# 5 0.0000 0.0000 0.0000 0.0000 25.8887 0.0000
# 6 0.0000 0.0000 0.0000 0.0000 0.0000 29.7641
#
#
#
# Elastic Compliance Matrix: (Units=1/GPa)
#
#
# Indices 1 2 3 4 5 6 
#
# 1 0.009570 -0.002382 -0.005847 0.000000 0.000000 0.000000
# 2 -0.002382 0.011494 -0.003192 0.000000 0.000000 0.000000
# 3 -0.005847 -0.003192 0.035363 0.000000 0.000000 0.000000
# 4 0.000000 0.000000 0.000000 0.038690 0.000000 0.000000
# 5 0.000000 0.000000 0.000000 0.000000 0.038627 0.000000
# 6 0.000000 0.000000 0.000000 0.000000 0.000000 0.033597
#
#
# Mechanical properties :
#
#
# Convention : Reuss Voigt Hill
#
# Bulk Modulus (GPa) = 29.77496 44.63169 37.20333
# Shear Modulus (GPa) = 24.82900 28.79065 26.80983
#
# Velocity S-wave (km/s) = 3.49599 3.76458 3.63277
# Velocity P-wave (km/s) = 5.56350 6.39264 5.99243
#
# Compressibility (1/GPa) = 0.03358526
#
# Stress axis : x y z
#
# Youngs Moduli (GPa) = 104.49332 87.00415 28.27811
#
# Poissons Ratio (x) = 0.20722 0.16535
# Poissons Ratio (y) = 0.24887 0.09026
# Poissons Ratio (z) = 0.61099 0.27770
#
# Static dielectric constant tensor:
#      x y z
#    x 1.777630 0.000000 0.000000 
#    y 0.000000 1.741320 0.000000 
#    z 0.000000 0.000000 1.714070 
# 
# From -- ./inp_files/944.got.cif
#   From: 2010.05.17/outbox.cif.g08.bks.cpg/sg19_1_cif.got.tgz:944.got - 2010.06.03 22:46:19.
