data_PCOD9315673
_publ_section_title
;
Structure prediction by ZEFSAII (Michael W. Deem and Ramdas Pophale) SiO2 
 PCOD9315673
Probable space group: P 21 21 21
;
_chemical_formula_sum "Si O2"
_cell_formula_units_Z 24
_cell_length_a 4.867632
_cell_length_b 11.969318
_cell_length_c 16.480159
_cell_angle_alpha 90.000000
_cell_angle_beta 90.000000
_cell_angle_gamma 90.000000
_cell_volume 960.170902
_symmetry_space_group_name_H-M "P 21 21 21"
_symmetry_group_IT_number 19
_symmetry_cell_setting 'orthorhombic'
loop_
_space_group_symop_operation_xyz
x,y,z
1/2-x,-y,1/2+z
1/2+x,1/2-y,-z
-x,1/2+y,1/2-z
loop_
_atom_site_type_symbol
_atom_site_label
_atom_site_fract_x
_atom_site_fract_y
_atom_site_fract_z
Si Si1 0.607486 0.322848 0.008319
Si Si2 0.653542 0.377001 0.525676
Si Si3 0.461030 0.438475 0.845046
Si Si4 0.307000 0.324525 0.370825
Si Si5 0.342860 0.507676 0.097569
Si Si6 0.014488 0.858933 0.748294
O O1 0.469005 0.385902 0.084043
O O2 0.916464 0.282274 0.013634
O O3 0.575243 0.406674 0.932895
O O4 0.542523 0.359354 0.435451
O O5 0.620298 0.265415 0.580236
O O6 0.463541 0.472206 0.566373
O O7 0.966020 0.411377 0.541942
O O8 0.354527 0.565164 0.844806
O O9 0.700769 0.410276 0.782240
O O10 0.202075 0.358706 0.824616
O O11 0.430687 0.256705 0.294811
O O12 0.382260 0.555862 0.186742
#
# Coordination Sequence:
#
# PCOD9315673 Si02
#       6
#     4   4   4   4   4   4
#     4  12  27  48  74 100 143 197 247 287 352 438
#     4  11  23  42  78 108 128 174 249 312 345 402
#     4  12  28  47  70 106 149 192 232 294 365 426
#     4  11  25  45  76 104 143 181 244 300 356 419
#     4  11  24  47  72 107 138 182 248 297 353 416
#     4  11  27  45  70 107 147 186 232 296 369 419
#
# _framework density 24.995550000000001
#
# number of rings (size 3 to 8) (size 9 to 14) (size 15 to 20)
#    0.000    0.667    1.667    6.000    2.333    9.333 
#    0.000    0.000    0.000    0.000    0.000    0.000 
#    0.000    0.000    0.000    0.000    0.000    0.000 
#
# Total GULP energy -134590.462663 kJ/mol
# GULP energy per Si atom -5607.935944 kJ/mol
# Density = 2.493866 g / cm^3
# Si number density = 24.995550 Si / 1000 Ang^3
#
#
#
# Elastic Constant Matrix: (Units=GPa)
#
#
# Indices 1 2 3 4 5 6 
#
# 1 78.1295 -5.7653 -1.8859 0.0000 0.0000 0.0000
# 2 -5.7653 86.4320 12.7367 0.0000 0.0000 0.0000
# 3 -1.8859 12.7367 62.5853 0.0000 0.0000 0.0000
# 4 0.0000 0.0000 0.0000 41.0233 0.0000 0.0000
# 5 0.0000 0.0000 0.0000 0.0000 43.6343 0.0000
# 6 0.0000 0.0000 0.0000 0.0000 0.0000 38.1631
#
#
#
# Elastic Compliance Matrix: (Units=1/GPa)
#
#
# Indices 1 2 3 4 5 6 
#
# 1 0.012865 0.000826 0.000220 0.000000 0.000000 0.000000
# 2 0.000826 0.011980 -0.002413 0.000000 0.000000 0.000000
# 3 0.000220 -0.002413 0.016476 0.000000 0.000000 0.000000
# 4 0.000000 0.000000 0.000000 0.024376 0.000000 0.000000
# 5 0.000000 0.000000 0.000000 0.000000 0.022918 0.000000
# 6 0.000000 0.000000 0.000000 0.000000 0.000000 0.026203
#
#
# Mechanical properties :
#
#
# Convention : Reuss Voigt Hill
#
# Bulk Modulus (GPa) = 25.91594 26.36863 26.14229
# Shear Modulus (GPa) = 38.33852 39.36823 38.85338
#
# Velocity S-wave (km/s) = 3.92064 3.97294 3.94688
# Velocity P-wave (km/s) = 5.55752 5.62298 5.59035
#
# Compressibility (1/GPa) = 0.03858629
#
# Stress axis : x y z
#
# Youngs Moduli (GPa) = 77.72728 83.46898 60.69457
#
# Poissons Ratio (x) = -0.06893 -0.01333
# Poissons Ratio (y) = -0.06419 0.14647
# Poissons Ratio (z) = -0.01707 0.20143
#
# Static dielectric constant tensor:
#      x y z
#    x 1.916700 0.000000 0.000000 
#    y 0.000000 2.009080 0.000000 
#    z 0.000000 0.000000 1.973580 
# 
# From -- ./inp_files/6405.got.cif
#   From: 2010.05.17/outbox.cif.g08.bks.cpg/sg19_4_cif.got.tgz:6405.got - 2010.06.03 22:46:19.
