data_PCOD9315787
_publ_section_title
;
Structure prediction by ZEFSAII (Michael W. Deem and Ramdas Pophale) SiO2 
 PCOD9315787
Probable space group: P 21 21 21
;
_chemical_formula_sum "Si O2"
_cell_formula_units_Z 32
_cell_length_a 5.251510
_cell_length_b 17.035468
_cell_length_c 15.717930
_cell_angle_alpha 90.000000
_cell_angle_beta 90.000000
_cell_angle_gamma 90.000000
_cell_volume 1406.156362
_symmetry_space_group_name_H-M "P 21 21 21"
_symmetry_group_IT_number 19
_symmetry_cell_setting 'orthorhombic'
loop_
_space_group_symop_operation_xyz
x,y,z
1/2-x,-y,1/2+z
1/2+x,1/2-y,-z
-x,1/2+y,1/2-z
loop_
_atom_site_type_symbol
_atom_site_label
_atom_site_fract_x
_atom_site_fract_y
_atom_site_fract_z
Si Si1 0.963297 0.186599 0.427916
Si Si2 0.808267 0.623490 0.376877
Si Si3 0.681796 0.087013 0.019991
Si Si4 0.910942 0.935794 0.952611
Si Si5 0.297930 0.307937 0.143549
Si Si6 0.285789 0.146425 0.587746
Si Si7 0.220316 0.053165 0.310121
Si Si8 0.314900 0.122186 0.778972
O O1 0.070243 0.176007 0.522899
O O2 0.095689 0.124044 0.364707
O O3 0.681109 0.151788 0.432197
O O4 0.963998 0.276458 0.401208
O O5 0.598177 0.592804 0.442386
O O6 0.737657 0.715264 0.368455
O O7 0.763890 0.583624 0.285515
O O8 0.093263 0.606379 0.411762
O O9 0.725567 0.148189 0.943828
O O10 0.711003 0.999454 0.983255
O O11 0.025603 0.963805 0.863996
O O12 0.089576 0.923643 0.034125
O O13 0.582080 0.336620 0.169770
O O14 0.078146 0.331182 0.210560
O O15 0.218257 0.119617 0.681695
O O16 0.108186 0.965796 0.307186
#
# Coordination Sequence:
#
# PCOD9315787 Si02
#       8
#     4   4   4   4   4   4   4   4
#     4  11  24  44  71 102 152 185 243 297 371 427
#     4  12  28  46  77 106 141 186 248 297 354 439
#     4  12  26  48  73 103 145 189 244 296 367 427
#     4  11  25  44  71  99 150 187 236 295 367 424
#     4  12  26  49  74 106 144 191 236 306 366 420
#     4  11  25  43  72 109 139 198 241 297 360 446
#     4  11  27  45  68 109 142 195 236 307 363 431
#     4  12  27  45  76 104 149 187 248 293 366 438
#
# _framework density 22.757072999999998
#
# number of rings (size 3 to 8) (size 9 to 14) (size 15 to 20)
#    0.000    0.500    2.500    4.500   10.500    0.000 
#    0.000    0.000    0.000    0.000    0.000    0.000 
#    0.000    0.000    0.000    0.000    0.000    0.000 
#
# Total GULP energy -178833.053108 kJ/mol
# GULP energy per Si atom -5588.532910 kJ/mol
# Density = 2.270528 g / cm^3
# Si number density = 22.757073 Si / 1000 Ang^3
#
#
#
# Elastic Constant Matrix: (Units=GPa)
#
#
# Indices 1 2 3 4 5 6 
#
# 1 44.0448 3.4791 -3.1677 0.0000 0.0000 0.0000
# 2 3.4791 107.3814 1.9354 0.0000 0.0000 0.0000
# 3 -3.1677 1.9354 86.0620 0.0000 0.0000 0.0000
# 4 0.0000 0.0000 0.0000 12.5662 0.0000 0.0000
# 5 0.0000 0.0000 0.0000 0.0000 -0.2009 0.0000
# 6 0.0000 0.0000 0.0000 0.0000 0.0000 36.8102
#
#
#
# Elastic Compliance Matrix: (Units=1/GPa)
#
#
# Indices 1 2 3 4 5 6 
#
# 1 0.022825 -0.000755 0.000857 0.000000 0.000000 0.000000
# 2 -0.000755 0.009341 -0.000238 0.000000 0.000000 0.000000
# 3 0.000857 -0.000238 0.011656 0.000000 0.000000 0.000000
# 4 0.000000 0.000000 0.000000 0.079578 0.000000 0.000000
# 5 0.000000 0.000000 0.000000 0.000000 -4.976713 0.000000
# 6 0.000000 0.000000 0.000000 0.000000 0.000000 0.027166
#
#
# Mechanical properties :
#
#
# Convention : Reuss Voigt Hill
#
# Bulk Modulus (GPa) = 22.96119 26.88687 24.92403
# Shear Modulus (GPa) = -1.03921 25.51787 12.23933
#
# Velocity S-wave (km/s) = -0.67649 3.35224 2.32162
# Velocity P-wave (km/s) = 3.08244 5.17916 4.26176
#
# Compressibility (1/GPa) = 0.04355175
#
# Stress axis : x y z
#
# Youngs Moduli (GPa) = 43.81075 107.05092 85.78962
#
# Poissons Ratio (x) = 0.08082 -0.07353
# Poissons Ratio (y) = 0.03308 0.02041
# Poissons Ratio (z) = -0.03755 0.02546
#
# Static dielectric constant tensor:
#      x y z
#    x 1.914340 0.000000 0.000000 
#    y 0.000000 1.841130 0.000000 
#    z 0.000000 0.000000 1.822550 
# 
# From -- ./inp_files/5759.got.cif
#   From: 2010.05.17/outbox.cif.g08.bks.cpg/sg19_3_cif.got.tgz:5759.got - 2010.06.03 22:46:19.
