data_PCOD9315245
_publ_section_title
;
Structure prediction by ZEFSAII (Michael W. Deem and Ramdas Pophale) SiO2 
 PCOD9315245
Probable space group: P 21 21 21
;
_chemical_formula_sum "Si O2"
_cell_formula_units_Z 32
_cell_length_a 11.444954
_cell_length_b 14.906466
_cell_length_c 8.806897
_cell_angle_alpha 90.000000
_cell_angle_beta 90.000000
_cell_angle_gamma 90.000000
_cell_volume 1502.490250
_symmetry_space_group_name_H-M "P 21 21 21"
_symmetry_group_IT_number 19
_symmetry_cell_setting 'orthorhombic'
loop_
_space_group_symop_operation_xyz
x,y,z
1/2-x,-y,1/2+z
1/2+x,1/2-y,-z
-x,1/2+y,1/2-z
loop_
_atom_site_type_symbol
_atom_site_label
_atom_site_fract_x
_atom_site_fract_y
_atom_site_fract_z
Si Si1 0.770221 0.381576 0.265600
Si Si2 0.298050 0.577999 0.853885
Si Si3 0.757457 0.184806 0.154494
Si Si4 0.850623 0.071456 0.917999
Si Si5 0.582732 0.875506 0.933050
Si Si6 0.526165 0.072233 0.236986
Si Si7 0.992318 0.319804 0.458039
Si Si8 0.371328 0.996069 0.990784
O O1 0.725298 0.287914 0.191771
O O2 0.893313 0.356034 0.344732
O O3 0.694203 0.424788 0.400775
O O4 0.791700 0.454340 0.132821
O O5 0.266223 0.558266 0.681953
O O6 0.383587 0.660614 0.879870
O O7 0.355958 0.495115 0.939674
O O8 0.178836 0.595910 0.944294
O O9 0.845540 0.152704 0.285221
O O10 0.643968 0.119762 0.171609
O O11 0.827877 0.167550 0.996452
O O12 0.947818 0.028384 0.805934
O O13 0.523339 0.784260 0.988808
O O14 0.481411 0.947725 0.910790
O O15 0.488183 0.129116 0.382297
O O16 0.430482 0.066201 0.106974
#
# Coordination Sequence:
#
# PCOD9315245 Si02
#       8
#     4   4   4   4   4   4   4   4
#     4  11  28  48  68  96 145 185 231 281 347 424
#     4  11  21  38  67 102 129 176 223 282 340 397
#     4  11  23  44  67 107 138 170 231 295 337 407
#     4  11  20  36  66 102 130 164 219 284 335 390
#     4  11  22  42  69  97 135 178 225 284 342 408
#     4  11  22  40  71  97 137 175 226 284 340 409
#     4  10  24  40  68  96 136 178 223 283 340 403
#     4  12  26  48  68  99 134 194 224 281 353 422
#
# _framework density 21.297974
#
# number of rings (size 3 to 8) (size 9 to 14) (size 15 to 20)
#    0.000    1.000    5.000    1.500    8.750    1.000 
#    4.500    0.000    0.000    0.000    0.000    0.000 
#    0.000    0.000    0.000    0.000    0.000    0.000 
#
# Total GULP energy -178594.967563 kJ/mol
# GULP energy per Si atom -5581.092736 kJ/mol
# Density = 2.124950 g / cm^3
# Si number density = 21.297974 Si / 1000 Ang^3
#
#
#
# Elastic Constant Matrix: (Units=GPa)
#
#
# Indices 1 2 3 4 5 6 
#
# 1 32.4432 20.6214 21.3784 0.0000 0.0000 0.0000
# 2 20.6214 72.7355 -0.7539 0.0000 0.0000 0.0000
# 3 21.3784 -0.7539 43.0661 0.0000 0.0000 0.0000
# 4 0.0000 0.0000 0.0000 11.0084 0.0000 0.0000
# 5 0.0000 0.0000 0.0000 0.0000 27.4898 0.0000
# 6 0.0000 0.0000 0.0000 0.0000 0.0000 32.2712
#
#
#
# Elastic Compliance Matrix: (Units=1/GPa)
#
#
# Indices 1 2 3 4 5 6 
#
# 1 0.063415 -0.018308 -0.031800 0.000000 0.000000 0.000000
# 2 -0.018308 0.019037 0.009422 0.000000 0.000000 0.000000
# 3 -0.031800 0.009422 0.039171 0.000000 0.000000 0.000000
# 4 0.000000 0.000000 0.000000 0.090840 0.000000 0.000000
# 5 0.000000 0.000000 0.000000 0.000000 0.036377 0.000000
# 6 0.000000 0.000000 0.000000 0.000000 0.000000 0.030987
#
#
# Mechanical properties :
#
#
# Convention : Reuss Voigt Hill
#
# Bulk Modulus (GPa) = 24.84550 25.63739 25.24145
# Shear Modulus (GPa) = 13.34698 21.28716 17.31707
#
# Velocity S-wave (km/s) = 2.50607 3.16490 2.85456
# Velocity P-wave (km/s) = 4.47938 5.04174 4.76885
#
# Compressibility (1/GPa) = 0.04024873
#
# Stress axis : x y z
#
# Youngs Moduli (GPa) = 15.76920 52.53000 25.52914
#
# Poissons Ratio (x) = 0.96174 0.81183
# Poissons Ratio (y) = 0.28871 -0.24053
# Poissons Ratio (z) = 0.50146 -0.49492
#
# Static dielectric constant tensor:
#      x y z
#    x 1.772450 0.000000 0.000000 
#    y 0.000000 1.825130 0.000000 
#    z 0.000000 0.000000 1.775090 
# 
# From -- ./inp_files/3612.got.cif
#   From: 2010.05.17/outbox.cif.g08.bks.cpg/sg19_2_cif.got.tgz:3612.got - 2010.06.03 22:46:19.
