data_PCOD9315115
_publ_section_title
;
Structure prediction by ZEFSAII (Michael W. Deem and Ramdas Pophale) SiO2 
 PCOD9315115
Probable space group: P 21 21 21
;
_chemical_formula_sum "Si O2"
_cell_formula_units_Z 32
_cell_length_a 14.712347
_cell_length_b 5.205277
_cell_length_c 17.386292
_cell_angle_alpha 90.000000
_cell_angle_beta 90.000000
_cell_angle_gamma 90.000000
_cell_volume 1331.474257
_symmetry_space_group_name_H-M "P 21 21 21"
_symmetry_group_IT_number 19
_symmetry_cell_setting 'orthorhombic'
loop_
_space_group_symop_operation_xyz
x,y,z
1/2-x,-y,1/2+z
1/2+x,1/2-y,-z
-x,1/2+y,1/2-z
loop_
_atom_site_type_symbol
_atom_site_label
_atom_site_fract_x
_atom_site_fract_y
_atom_site_fract_z
Si Si1 0.435474 0.249859 0.832074
Si Si2 0.420515 0.932014 0.974593
Si Si3 0.777841 0.571016 0.469733
Si Si4 0.864895 0.537235 0.305817
Si Si5 0.219376 0.883579 0.812237
Si Si6 0.978428 0.560479 0.537253
Si Si7 0.738209 0.911236 0.595303
Si Si8 0.964551 0.576607 0.719375
O O1 0.539538 0.335299 0.828654
O O2 0.367306 0.432263 0.880241
O O3 0.397007 0.207550 0.745873
O O4 0.429527 0.989726 0.883396
O O5 0.315037 0.934868 0.001790
O O6 0.475396 0.174524 0.010168
O O7 0.466736 0.678879 0.005009
O O8 0.801437 0.517558 0.380953
O O9 0.755707 0.856365 0.505414
O O10 0.875709 0.524251 0.508133
O O11 0.802142 0.682289 0.244034
O O12 0.207800 0.648664 0.870452
O O13 0.131691 0.945313 0.761972
O O14 0.235835 0.148873 0.858858
O O15 0.977823 0.561517 0.628699
O O16 0.966388 0.872657 0.743563
#
# Coordination Sequence:
#
# PCOD9315115 Si02
#       8
#     4   4   4   4   4   4   4   4
#     4  10  23  43  72 105 151 196 240 310 380 456
#     4  11  28  50  76 113 152 198 262 313 377 464
#     4  11  26  48  77 112 150 201 257 318 380 462
#     4  11  24  43  72 113 149 193 251 308 386 449
#     4  11  24  45  70 102 141 189 238 299 366 442
#     4  12  27  51  77 108 152 200 252 312 383 454
#     4  10  23  46  72  98 139 192 245 292 368 446
#     4  12  27  46  74 103 146 193 243 306 372 439
#
# _framework density 24.033508999999999
#
# number of rings (size 3 to 8) (size 9 to 14) (size 15 to 20)
#    0.000    1.000    2.500    2.250    7.000    7.000 
#    0.000    0.000    0.000    0.000    0.000    0.000 
#    0.000    0.000    0.000    0.000    0.000    0.000 
#
# Total GULP energy -178873.789545 kJ/mol
# GULP energy per Si atom -5589.805923 kJ/mol
# Density = 2.397881 g / cm^3
# Si number density = 24.033509 Si / 1000 Ang^3
#
#
#
# Elastic Constant Matrix: (Units=GPa)
#
#
# Indices 1 2 3 4 5 6 
#
# 1 155.1726 35.9875 45.8190 0.0000 0.0000 0.0000
# 2 35.9875 114.2567 24.6924 0.0000 0.0000 0.0000
# 3 45.8190 24.6924 129.8580 0.0000 0.0000 0.0000
# 4 0.0000 0.0000 0.0000 37.5530 0.0000 0.0000
# 5 0.0000 0.0000 0.0000 0.0000 49.8831 0.0000
# 6 0.0000 0.0000 0.0000 0.0000 0.0000 28.7673
#
#
#
# Elastic Compliance Matrix: (Units=1/GPa)
#
#
# Indices 1 2 3 4 5 6 
#
# 1 0.007563 -0.001883 -0.002311 0.000000 0.000000 0.000000
# 2 -0.001883 0.009596 -0.001160 0.000000 0.000000 0.000000
# 3 -0.002311 -0.001160 0.008737 0.000000 0.000000 0.000000
# 4 0.000000 0.000000 0.000000 0.026629 0.000000 0.000000
# 5 0.000000 0.000000 0.000000 0.000000 0.020047 0.000000
# 6 0.000000 0.000000 0.000000 0.000000 0.000000 0.034762
#
#
# Mechanical properties :
#
#
# Convention : Reuss Voigt Hill
#
# Bulk Modulus (GPa) = 65.83982 68.03169 66.93576
# Shear Modulus (GPa) = 40.61603 42.75991 41.68797
#
# Velocity S-wave (km/s) = 4.11539 4.22261 4.16934
# Velocity P-wave (km/s) = 7.07364 7.22097 7.14768
#
# Compressibility (1/GPa) = 0.01518838
#
# Stress axis : x y z
#
# Youngs Moduli (GPa) = 132.21585 104.20968 114.46050
#
# Poissons Ratio (x) = 0.19622 0.26448
# Poissons Ratio (y) = 0.24895 0.13281
# Poissons Ratio (z) = 0.30550 0.12092
#
# Static dielectric constant tensor:
#      x y z
#    x 2.001800 0.000000 0.000000 
#    y 0.000000 1.944960 0.000000 
#    z 0.000000 0.000000 1.946760 
# 
# From -- ./inp_files/6807.got.cif
#   From: 2010.05.17/outbox.cif.g08.bks.cpg/sg19_4_cif.got.tgz:6807.got - 2010.06.03 22:46:19.
