data_PCOD9315934
_publ_section_title
;
Structure prediction by ZEFSAII (Michael W. Deem and Ramdas Pophale) SiO2 
 PCOD9315934
Probable space group: P 21 21 21
;
_chemical_formula_sum "Si O2"
_cell_formula_units_Z 20
_cell_length_a 7.585907
_cell_length_b 4.910306
_cell_length_c 20.289381
_cell_angle_alpha 90.000000
_cell_angle_beta 90.000000
_cell_angle_gamma 90.000000
_cell_volume 755.761682
_symmetry_space_group_name_H-M "P 21 21 21"
_symmetry_group_IT_number 19
_symmetry_cell_setting 'orthorhombic'
loop_
_space_group_symop_operation_xyz
x,y,z
1/2-x,-y,1/2+z
1/2+x,1/2-y,-z
-x,1/2+y,1/2-z
loop_
_atom_site_type_symbol
_atom_site_label
_atom_site_fract_x
_atom_site_fract_y
_atom_site_fract_z
Si Si1 0.583532 0.669518 0.721990
Si Si2 0.159708 0.748701 0.422713
Si Si3 0.092288 0.568806 0.769294
Si Si4 0.969507 0.121490 0.590951
Si Si5 0.320253 0.072085 0.535257
O O1 0.430349 0.888181 0.739049
O O2 0.743809 0.869311 0.742609
O O3 0.594297 0.604662 0.643848
O O4 0.361429 0.662905 0.407610
O O5 0.999952 0.534868 0.432945
O O6 0.187090 0.870837 0.495453
O O7 0.096832 0.728280 0.838966
O O8 0.947426 0.324356 0.777563
O O9 0.883053 0.242320 0.524904
O O10 0.177992 0.178024 0.587328
#
# Coordination Sequence:
#
# PCOD9315934 Si02
#       5
#     4   4   4   4   4
#     4  11  27  48  73 105 144 189 243 296 355 425
#     4  11  26  44  72 103 143 183 241 294 357 429
#     4  11  27  48  73 105 144 189 243 296 355 425
#     4  11  26  44  72 103 143 183 241 294 357 429
#     4  12  24  46  70 102 142 188 232 300 362 420
#
# _framework density 26.463367999999999
#
# number of rings (size 3 to 8) (size 9 to 14) (size 15 to 20)
#    0.000    0.800    4.000    1.200   16.800    0.000 
#    0.000    0.000    0.000    0.000    0.000    0.000 
#    0.000    0.000    0.000    0.000    0.000    0.000 
#
# Total GULP energy -111406.736257 kJ/mol
# GULP energy per Si atom -5570.336813 kJ/mol
# Density = 2.640314 g / cm^3
# Si number density = 26.463368 Si / 1000 Ang^3
#
#
#
# Elastic Constant Matrix: (Units=GPa)
#
#
# Indices 1 2 3 4 5 6 
#
# 1 136.4724 22.0633 -8.2843 0.0000 0.0000 0.0000
# 2 22.0633 76.4607 -0.3560 0.0000 0.0000 0.0000
# 3 -8.2843 -0.3560 74.8019 0.0000 0.0000 0.0000
# 4 0.0000 0.0000 0.0000 7.3264 0.0000 0.0000
# 5 0.0000 0.0000 0.0000 0.0000 1.2740 0.0000
# 6 0.0000 0.0000 0.0000 0.0000 0.0000 43.0002
#
#
#
# Elastic Compliance Matrix: (Units=1/GPa)
#
#
# Indices 1 2 3 4 5 6 
#
# 1 0.007739 -0.002229 0.000847 0.000000 0.000000 0.000000
# 2 -0.002229 0.013721 -0.000182 0.000000 0.000000 0.000000
# 3 0.000847 -0.000182 0.013462 0.000000 0.000000 0.000000
# 4 0.000000 0.000000 0.000000 0.136493 0.000000 0.000000
# 5 0.000000 0.000000 0.000000 0.000000 0.784954 0.000000
# 6 0.000000 0.000000 0.000000 0.000000 0.000000 0.023256
#
#
# Mechanical properties :
#
#
# Convention : Reuss Voigt Hill
#
# Bulk Modulus (GPa) = 31.45332 34.95343 33.20337
# Shear Modulus (GPa) = 5.03347 28.60759 16.82053
#
# Velocity S-wave (km/s) = 1.38064 3.29146 2.52388
# Velocity P-wave (km/s) = 3.80171 5.26136 4.58993
#
# Compressibility (1/GPa) = 0.03179314
#
# Stress axis : x y z
#
# Youngs Moduli (GPa) = 129.21096 72.88071 74.28579
#
# Poissons Ratio (x) = 0.16247 -0.06288
# Poissons Ratio (y) = 0.28805 0.01349
# Poissons Ratio (z) = -0.10938 0.01323
#
# Static dielectric constant tensor:
#      x y z
#    x 2.358730 0.000000 0.000000 
#    y 0.000000 2.376460 0.000000 
#    z 0.000000 0.000000 2.125880 
# 
# From -- ./inp_files/454.got.cif
#   From: 2010.05.17/outbox.cif.g08.bks.cpg/sg19_1_cif.got.tgz:454.got - 2010.06.03 22:46:19.
