data_PCOD9315486
_publ_section_title
;
Structure prediction by ZEFSAII (Michael W. Deem and Ramdas Pophale) SiO2 
 PCOD9315486
Probable space group: P 21 21 21
;
_chemical_formula_sum "Si O2"
_cell_formula_units_Z 28
_cell_length_a 8.379092
_cell_length_b 17.390328
_cell_length_c 9.520885
_cell_angle_alpha 90.000000
_cell_angle_beta 90.000000
_cell_angle_gamma 90.000000
_cell_volume 1387.337264
_symmetry_space_group_name_H-M "P 21 21 21"
_symmetry_group_IT_number 19
_symmetry_cell_setting 'orthorhombic'
loop_
_space_group_symop_operation_xyz
x,y,z
1/2-x,-y,1/2+z
1/2+x,1/2-y,-z
-x,1/2+y,1/2-z
loop_
_atom_site_type_symbol
_atom_site_label
_atom_site_fract_x
_atom_site_fract_y
_atom_site_fract_z
Si Si1 0.613518 0.674781 0.440167
Si Si2 0.432305 0.761949 0.648615
Si Si3 0.025042 0.619216 0.148551
Si Si4 0.566983 0.901524 0.459096
Si Si5 0.834448 0.907405 0.665476
Si Si6 0.678144 0.472737 0.869049
Si Si7 0.022876 0.066701 0.662051
O O1 0.539530 0.692349 0.593151
O O2 0.744417 0.736683 0.387575
O O3 0.459185 0.662748 0.341687
O O4 0.704383 0.593458 0.430408
O O5 0.467096 0.795992 0.801953
O O6 0.500037 0.830134 0.548361
O O7 0.902201 0.560132 0.226518
O O8 0.197452 0.604079 0.218935
O O9 0.023240 0.604867 0.984424
O O10 0.745437 0.912245 0.514166
O O11 0.464281 0.974707 0.517142
O O12 0.528669 0.887037 0.298832
O O13 0.927364 0.986703 0.683693
O O14 0.789304 0.545462 0.842698
#
# Coordination Sequence:
#
# PCOD9315486 Si02
#       7
#     4   4   4   4   4   4   4
#     4   9  16  30  54  68  82 115 157 194 213 255
#     4   9  17  31  49  70  87 112 153 188 223 264
#     4   9  18  29  44  69  95 120 149 184 223 266
#     4   9  18  29  44  69  95 120 149 184 223 266
#     4   9  18  30  45  67  91 121 156 184 217 260
#     4   8  18  31  47  69  89 119 154 184 221 262
#     4  11  17  28  47  68  97 121 146 184 228 267
#
# _framework density 20.182547
#
# number of rings (size 3 to 8) (size 9 to 14) (size 15 to 20)
#    0.000    3.429    0.000    3.429    0.000    0.000 
#    0.000    0.000    0.000   15.429    0.000    0.000 
#    0.000    0.000    0.000    0.000    0.000    0.000 
#
# Total GULP energy -155889.804514 kJ/mol
# GULP energy per Si atom -5567.493018 kJ/mol
# Density = 2.013661 g / cm^3
# Si number density = 20.182547 Si / 1000 Ang^3
#
#
#
# Elastic Constant Matrix: (Units=GPa)
#
#
# Indices 1 2 3 4 5 6 
#
# 1 85.8784 3.2040 -3.8860 0.0000 0.0000 0.0000
# 2 3.2040 14.0117 -2.2251 0.0000 0.0000 0.0000
# 3 -3.8860 -2.2251 95.7984 0.0000 0.0000 0.0000
# 4 0.0000 0.0000 0.0000 3.6580 0.0000 0.0000
# 5 0.0000 0.0000 0.0000 0.0000 10.0712 0.0000
# 6 0.0000 0.0000 0.0000 0.0000 0.0000 23.8503
#
#
#
# Elastic Compliance Matrix: (Units=1/GPa)
#
#
# Indices 1 2 3 4 5 6 
#
# 1 0.011761 -0.002623 0.000416 0.000000 0.000000 0.000000
# 2 -0.002623 0.072218 0.001571 0.000000 0.000000 0.000000
# 3 0.000416 0.001571 0.010492 0.000000 0.000000 0.000000
# 4 0.000000 0.000000 0.000000 0.273375 0.000000 0.000000
# 5 0.000000 0.000000 0.000000 0.000000 0.099293 0.000000
# 6 0.000000 0.000000 0.000000 0.000000 0.000000 0.041928
#
#
# Mechanical properties :
#
#
# Convention : Reuss Voigt Hill
#
# Bulk Modulus (GPa) = 10.72975 21.09716 15.91345
# Shear Modulus (GPa) = 9.23521 20.75561 14.99541
#
# Velocity S-wave (km/s) = 2.14144 3.21034 2.72874
# Velocity P-wave (km/s) = 3.38264 4.92113 4.22255
#
# Compressibility (1/GPa) = 0.09319886
#
# Stress axis : x y z
#
# Youngs Moduli (GPa) = 85.02627 13.84692 95.31110
#
# Poissons Ratio (x) = 0.03632 -0.03966
# Poissons Ratio (y) = 0.22305 -0.14973
# Poissons Ratio (z) = -0.03538 -0.02175
#
# Static dielectric constant tensor:
#      x y z
#    x 1.786930 0.000000 0.000000 
#    y 0.000000 1.806050 0.000000 
#    z 0.000000 0.000000 1.745930 
# 
# From -- ./inp_files/3209.got.cif
#   From: 2010.05.17/outbox.cif.g08.bks.cpg/sg19_2_cif.got.tgz:3209.got - 2010.06.03 22:46:19.
