data_PCOD9315563
_publ_section_title
;
Structure prediction by ZEFSAII (Michael W. Deem and Ramdas Pophale) SiO2 
 PCOD9315563
Probable space group: P 21 21 21
;
_chemical_formula_sum "Si O2"
_cell_formula_units_Z 32
_cell_length_a 5.347817
_cell_length_b 15.864836
_cell_length_c 14.074953
_cell_angle_alpha 90.000000
_cell_angle_beta 90.000000
_cell_angle_gamma 90.000000
_cell_volume 1194.150536
_symmetry_space_group_name_H-M "P 21 21 21"
_symmetry_group_IT_number 19
_symmetry_cell_setting 'orthorhombic'
loop_
_space_group_symop_operation_xyz
x,y,z
1/2-x,-y,1/2+z
1/2+x,1/2-y,-z
-x,1/2+y,1/2-z
loop_
_atom_site_type_symbol
_atom_site_label
_atom_site_fract_x
_atom_site_fract_y
_atom_site_fract_z
Si Si1 0.575211 0.123945 0.835097
Si Si2 0.905269 0.041498 0.697717
Si Si3 0.237401 0.205042 0.689245
Si Si4 0.411819 0.294884 0.028689
Si Si5 0.550503 0.124687 0.241724
Si Si6 0.432536 0.914383 0.630337
Si Si7 0.924228 0.027623 0.479598
Si Si8 0.914257 0.404843 0.468925
O O1 0.380453 0.188883 0.789684
O O2 0.816307 0.175499 0.869900
O O3 0.649701 0.065724 0.748035
O O4 0.524656 0.056795 0.919167
O O5 0.021381 0.972536 0.769091
O O6 0.895757 0.005362 0.591405
O O7 0.039691 0.129737 0.685007
O O8 0.098730 0.294527 0.693345
O O9 0.409503 0.178973 0.597646
O O10 0.004975 0.125220 0.029001
O O11 0.653280 0.235732 0.020922
O O12 0.311947 0.135024 0.171173
O O13 0.830647 0.107567 0.198124
O O14 0.386322 0.011814 0.600183
O O15 0.662597 0.077886 0.469081
O O16 0.161526 0.089093 0.469306
#
# Coordination Sequence:
#
# PCOD9315563 Si02
#       8
#     4   4   4   4   4   4   4   4
#     4  12  26  43  73 110 148 198 254 297 375 463
#     4  11  25  48  69 105 148 198 252 298 378 443
#     4  11  26  42  72 107 144 195 257 305 370 454
#     4  12  28  39  58 100 154 183 231 296 361 452
#     4  12  25  43  71  99 144 192 243 312 362 437
#     4  12  22  43  63  93 140 194 220 282 377 431
#     4  11  23  42  72  96 144 192 236 302 361 433
#     4  11  21  46  66  92 140 194 237 288 368 429
#
# _framework density 26.797291000000001
#
# number of rings (size 3 to 8) (size 9 to 14) (size 15 to 20)
#    0.000    0.500    6.250    1.500   10.500    0.000 
#    0.000    0.000    0.000    3.000    0.000    0.000 
#    0.000    0.000    0.000    0.000    0.000    0.000 
#
# Total GULP energy -178575.703122 kJ/mol
# GULP energy per Si atom -5580.490723 kJ/mol
# Density = 2.673630 g / cm^3
# Si number density = 26.797291 Si / 1000 Ang^3
#
#
#
# Elastic Constant Matrix: (Units=GPa)
#
#
# Indices 1 2 3 4 5 6 
#
# 1 147.6924 7.6653 14.0827 0.0000 0.0000 0.0000
# 2 7.6653 112.6270 1.2697 0.0000 0.0000 0.0000
# 3 14.0827 1.2697 47.7955 0.0000 0.0000 0.0000
# 4 0.0000 0.0000 0.0000 46.7956 0.0000 0.0000
# 5 0.0000 0.0000 0.0000 0.0000 27.6687 0.0000
# 6 0.0000 0.0000 0.0000 0.0000 0.0000 37.6941
#
#
#
# Elastic Compliance Matrix: (Units=1/GPa)
#
#
# Indices 1 2 3 4 5 6 
#
# 1 0.006990 -0.000453 -0.002047 0.000000 0.000000 0.000000
# 2 -0.000453 0.008911 -0.000103 0.000000 0.000000 0.000000
# 3 -0.002047 -0.000103 0.021528 0.000000 0.000000 0.000000
# 4 0.000000 0.000000 0.000000 0.021370 0.000000 0.000000
# 5 0.000000 0.000000 0.000000 0.000000 0.036142 0.000000
# 6 0.000000 0.000000 0.000000 0.000000 0.000000 0.026529
#
#
# Mechanical properties :
#
#
# Convention : Reuss Voigt Hill
#
# Bulk Modulus (GPa) = 31.03459 39.35002 35.19231
# Shear Modulus (GPa) = 36.38555 41.43815 38.91185
#
# Velocity S-wave (km/s) = 3.68884 3.93664 3.81475
# Velocity P-wave (km/s) = 5.45434 5.94803 5.70652
#
# Compressibility (1/GPa) = 0.03222211
#
# Stress axis : x y z
#
# Youngs Moduli (GPa) = 143.07086 112.22291 46.45007
#
# Poissons Ratio (x) = 0.05079 0.09510
# Poissons Ratio (y) = 0.06476 0.00480
# Poissons Ratio (z) = 0.29292 0.01160
#
# Static dielectric constant tensor:
#      x y z
#    x 2.384000 0.000000 0.000000 
#    y 0.000000 2.222750 0.000000 
#    z 0.000000 0.000000 2.215520 
# 
# From -- ./inp_files/6465.got.cif
#   From: 2010.05.17/outbox.cif.g08.bks.cpg/sg19_4_cif.got.tgz:6465.got - 2010.06.03 22:46:19.
