data_PCOD9315533
_publ_section_title
;
Structure prediction by ZEFSAII (Michael W. Deem and Ramdas Pophale) SiO2 
 PCOD9315533
Probable space group: P 21 21 21
;
_chemical_formula_sum "Si O2"
_cell_formula_units_Z 32
_cell_length_a 9.927864
_cell_length_b 9.723011
_cell_length_c 14.218891
_cell_angle_alpha 90.000000
_cell_angle_beta 90.000000
_cell_angle_gamma 90.000000
_cell_volume 1372.531503
_symmetry_space_group_name_H-M "P 21 21 21"
_symmetry_group_IT_number 19
_symmetry_cell_setting 'orthorhombic'
loop_
_space_group_symop_operation_xyz
x,y,z
1/2-x,-y,1/2+z
1/2+x,1/2-y,-z
-x,1/2+y,1/2-z
loop_
_atom_site_type_symbol
_atom_site_label
_atom_site_fract_x
_atom_site_fract_y
_atom_site_fract_z
Si Si1 0.921592 0.633634 0.974891
Si Si2 0.679754 0.765875 0.205693
Si Si3 0.180076 0.005202 0.261398
Si Si4 0.410972 0.809202 0.247033
Si Si5 0.461801 0.891550 0.596109
Si Si6 0.281717 0.447304 0.774333
Si Si7 0.897452 0.380141 0.523587
Si Si8 0.060046 0.424696 0.105350
O O1 0.764119 0.628409 0.003844
O O2 0.008521 0.505344 0.013520
O O3 0.920008 0.642280 0.862192
O O4 0.001465 0.764566 0.019969
O O5 0.805563 0.669715 0.228563
O O6 0.563625 0.792413 0.282651
O O7 0.728419 0.914911 0.175357
O O8 0.603330 0.672854 0.130116
O O9 0.315434 0.927035 0.286996
O O10 0.067079 0.938766 0.324834
O O11 0.135024 0.001549 0.153252
O O12 0.329601 0.668663 0.260767
O O13 0.412102 0.735329 0.585503
O O14 0.595939 0.892713 0.660580
O O15 0.462873 0.972455 0.497914
O O16 0.328697 0.498584 0.669986
#
# Coordination Sequence:
#
# PCOD9315533 Si02
#       8
#     4   4   4   4   4   4   4   4
#     4  11  23  42  67 100 142 185 227 291 371 430
#     4  11  23  41  66  98 138 183 224 295 359 425
#     4  11  21  40  66  94 131 175 236 288 352 411
#     4  11  23  41  66  98 138 183 224 295 359 425
#     4  11  23  40  68 100 131 182 239 301 339 429
#     4  11  23  42  70 104 135 183 250 290 348 437
#     4  11  23  42  67 100 142 185 227 291 371 430
#     4  11  23  40  68 100 131 182 239 301 339 429
#
# _framework density 23.314584
#
# number of rings (size 3 to 8) (size 9 to 14) (size 15 to 20)
#    0.000    1.000    5.000    2.250    0.000    0.000 
#    0.000   12.500    0.000    0.000    0.000    0.000 
#    0.000    0.000    0.000    0.000    0.000    0.000 
#
# Total GULP energy -178357.020776 kJ/mol
# GULP energy per Si atom -5573.656899 kJ/mol
# Density = 2.326152 g / cm^3
# Si number density = 23.314584 Si / 1000 Ang^3
#
#
#
# Elastic Constant Matrix: (Units=GPa)
#
#
# Indices 1 2 3 4 5 6 
#
# 1 70.1461 18.4405 -8.5190 0.0000 0.0000 0.0000
# 2 18.4405 143.1851 11.6312 0.0000 0.0000 0.0000
# 3 -8.5190 11.6312 29.6367 0.0000 0.0000 0.0000
# 4 0.0000 0.0000 0.0000 19.7432 0.0000 0.0000
# 5 0.0000 0.0000 0.0000 0.0000 15.1755 0.0000
# 6 0.0000 0.0000 0.0000 0.0000 0.0000 658.8265
#
#
#
# Elastic Compliance Matrix: (Units=1/GPa)
#
#
# Indices 1 2 3 4 5 6 
#
# 1 0.015558 -0.002445 0.005432 0.000000 0.000000 0.000000
# 2 -0.002445 0.007598 -0.003685 0.000000 0.000000 0.000000
# 3 0.005432 -0.003685 0.036749 0.000000 0.000000 0.000000
# 4 0.000000 0.000000 0.000000 0.050650 0.000000 0.000000
# 5 0.000000 0.000000 0.000000 0.000000 0.065896 0.000000
# 6 0.000000 0.000000 0.000000 0.000000 0.000000 0.001518
#
#
# Mechanical properties :
#
#
# Convention : Reuss Voigt Hill
#
# Bulk Modulus (GPa) = 17.09109 31.78591 24.43850
# Shear Modulus (GPa) = 25.14216 153.51006 89.32611
#
# Velocity S-wave (km/s) = 3.28744 8.12317 6.19650
# Velocity P-wave (km/s) = 4.66436 10.08188 7.85495
#
# Compressibility (1/GPa) = 0.05851003
#
# Stress axis : x y z
#
# Youngs Moduli (GPa) = 64.27406 131.61065 27.21133
#
# Poissons Ratio (x) = 0.32178 -0.14781
# Poissons Ratio (y) = 0.15715 0.10027
# Poissons Ratio (z) = -0.34912 0.48496
#
# Static dielectric constant tensor:
#      x y z
#    x 2.036760 0.000000 0.000000 
#    y 0.000000 1.914240 0.000000 
#    z 0.000000 0.000000 1.016920 
# 
# From -- ./inp_files/6173.got.cif
#   From: 2010.05.17/outbox.cif.g08.bks.cpg/sg19_4_cif.got.tgz:6173.got - 2010.06.03 22:46:19.
