data_PCOD9315110
_publ_section_title
;
Structure prediction by ZEFSAII (Michael W. Deem and Ramdas Pophale) SiO2 
 PCOD9315110
Probable space group: P 21 21 21
;
_chemical_formula_sum "Si O2"
_cell_formula_units_Z 24
_cell_length_a 8.413906
_cell_length_b 20.267933
_cell_length_c 5.298968
_cell_angle_alpha 90.000000
_cell_angle_beta 90.000000
_cell_angle_gamma 90.000000
_cell_volume 903.646171
_symmetry_space_group_name_H-M "P 21 21 21"
_symmetry_group_IT_number 19
_symmetry_cell_setting 'orthorhombic'
loop_
_space_group_symop_operation_xyz
x,y,z
1/2-x,-y,1/2+z
1/2+x,1/2-y,-z
-x,1/2+y,1/2-z
loop_
_atom_site_type_symbol
_atom_site_label
_atom_site_fract_x
_atom_site_fract_y
_atom_site_fract_z
Si Si1 0.348866 0.598661 0.910046
Si Si2 0.320234 0.447727 0.007071
Si Si3 0.852776 0.590632 0.702082
Si Si4 0.663446 0.817147 0.779907
Si Si5 0.349957 0.776361 0.570059
Si Si6 0.173296 0.890049 0.790992
O O1 0.286749 0.524160 0.966655
O O2 0.245149 0.664630 0.956561
O O3 0.502959 0.605474 0.079134
O O4 0.340992 0.586620 0.611848
O O5 0.482996 0.447328 0.170203
O O6 0.372470 0.393203 0.800414
O O7 0.890214 0.667537 0.642013
O O8 0.727384 0.575257 0.472852
O O9 0.785274 0.585286 0.981099
O O10 0.505794 0.773636 0.745766
O O11 0.787447 0.783779 0.590671
O O12 0.213594 0.813480 0.730369
#
# Coordination Sequence:
#
# PCOD9315110 Si02
#       6
#     4   4   4   4   4   4
#     4  12  25  40  70  99 142 188 237 287 355 426
#     4  11  25  42  67  99 143 187 235 290 353 425
#     4   9  23  45  67 103 140 181 231 293 353 419
#     4  11  22  45  66 105 136 185 232 296 349 428
#     4   9  22  41  73  98 142 176 238 292 360 413
#     4  10  23  43  71 104 139 181 237 288 358 415
#
# _framework density 26.559066000000001
#
# number of rings (size 3 to 8) (size 9 to 14) (size 15 to 20)
#    1.000    0.667    1.667    2.000    2.333    2.667 
#    0.000    0.000    0.000    0.000    0.000    0.000 
#    0.000    0.000    0.000    0.000    0.000    0.000 
#
# Total GULP energy -133774.035732 kJ/mol
# GULP energy per Si atom -5573.918156 kJ/mol
# Density = 2.649862 g / cm^3
# Si number density = 26.559066 Si / 1000 Ang^3
#
#
#
# Elastic Constant Matrix: (Units=GPa)
#
#
# Indices 1 2 3 4 5 6 
#
# 1 94.2535 17.2654 15.2577 0.0000 0.0000 0.0000
# 2 17.2654 92.6326 -12.5804 0.0000 0.0000 0.0000
# 3 15.2577 -12.5804 52.0394 0.0000 0.0000 0.0000
# 4 0.0000 0.0000 0.0000 33.0045 0.0000 0.0000
# 5 0.0000 0.0000 0.0000 0.0000 40.3960 0.0000
# 6 0.0000 0.0000 0.0000 0.0000 0.0000 34.7969
#
#
#
# Elastic Compliance Matrix: (Units=1/GPa)
#
#
# Indices 1 2 3 4 5 6 
#
# 1 0.011781 -0.002755 -0.004120 0.000000 0.000000 0.000000
# 2 -0.002755 0.011806 0.003662 0.000000 0.000000 0.000000
# 3 -0.004120 0.003662 0.021310 0.000000 0.000000 0.000000
# 4 0.000000 0.000000 0.000000 0.030299 0.000000 0.000000
# 5 0.000000 0.000000 0.000000 0.000000 0.024755 0.000000
# 6 0.000000 0.000000 0.000000 0.000000 0.000000 0.028738
#
#
# Mechanical properties :
#
#
# Convention : Reuss Voigt Hill
#
# Bulk Modulus (GPa) = 25.99457 30.97899 28.48678
# Shear Modulus (GPa) = 33.79745 36.23833 35.01789
#
# Velocity S-wave (km/s) = 3.57114 3.69784 3.63504
# Velocity P-wave (km/s) = 5.17810 5.47006 5.32608
#
# Compressibility (1/GPa) = 0.03846958
#
# Stress axis : x y z
#
# Youngs Moduli (GPa) = 84.87926 84.70091 46.92725
#
# Poissons Ratio (x) = 0.23339 0.19336
# Poissons Ratio (y) = 0.23388 -0.17185
# Poissons Ratio (z) = 0.34974 -0.31018
#
# Static dielectric constant tensor:
#      x y z
#    x 2.208200 0.000000 0.000000 
#    y 0.000000 2.081160 0.000000 
#    z 0.000000 0.000000 2.537850 
# 
# From -- ./inp_files/490.got.cif
#   From: 2010.05.17/outbox.cif.g08.bks.cpg/sg19_1_cif.got.tgz:490.got - 2010.06.03 22:46:19.
