data_PCOD9315707
_publ_section_title
;
Structure prediction by ZEFSAII (Michael W. Deem and Ramdas Pophale) SiO2 
 PCOD9315707
Probable space group: P 21 21 21
;
_chemical_formula_sum "Si O2"
_cell_formula_units_Z 28
_cell_length_a 9.362147
_cell_length_b 18.058517
_cell_length_c 7.702541
_cell_angle_alpha 90.000000
_cell_angle_beta 90.000000
_cell_angle_gamma 90.000000
_cell_volume 1302.241577
_symmetry_space_group_name_H-M "P 21 21 21"
_symmetry_group_IT_number 19
_symmetry_cell_setting 'orthorhombic'
loop_
_space_group_symop_operation_xyz
x,y,z
1/2-x,-y,1/2+z
1/2+x,1/2-y,-z
-x,1/2+y,1/2-z
loop_
_atom_site_type_symbol
_atom_site_label
_atom_site_fract_x
_atom_site_fract_y
_atom_site_fract_z
Si Si1 0.222516 0.789354 0.652842
Si Si2 0.988823 0.910198 0.548554
Si Si3 0.936080 0.483525 0.288413
Si Si4 0.103763 0.021754 0.822105
Si Si5 0.989832 0.677972 0.793348
Si Si6 0.217907 0.292010 0.819206
Si Si7 0.996539 0.647397 0.184130
O O1 0.305949 0.754841 0.492721
O O2 0.338160 0.821786 0.782933
O O3 0.119876 0.854032 0.583336
O O4 0.123346 0.723994 0.723317
O O5 0.854155 0.870388 0.637620
O O6 0.981043 0.928130 0.342910
O O7 0.026241 0.982463 0.660618
O O8 0.772920 0.480946 0.217904
O O9 0.929073 0.478013 0.498077
O O10 0.999197 0.564666 0.256098
O O11 0.056577 0.107897 0.824118
O O12 0.866160 0.740439 0.815998
O O13 0.025921 0.646550 0.981016
O O14 0.382310 0.302944 0.773912
#
# Coordination Sequence:
#
# PCOD9315707 Si02
#       7
#     4   4   4   4   4   4   4
#     4  11  23  45  70  97 133 182 229 276 343 410
#     4  11  24  46  67 102 135 179 233 282 340 413
#     4  12  22  41  71  99 135 184 231 280 342 410
#     4  12  22  42  72 103 136 180 236 286 341 412
#     4  11  24  43  70 101 136 176 234 289 335 413
#     4  11  25  45  67  99 141 176 227 288 347 402
#     4  12  22  44  69  99 134 185 226 281 348 408
#
# _framework density 21.501387999999999
#
# number of rings (size 3 to 8) (size 9 to 14) (size 15 to 20)
#    0.000    0.571    4.286    5.143    0.000    0.000 
#   18.000    0.000    0.000    0.000    0.000    0.000 
#    0.000    0.000    0.000    0.000    0.000    0.000 
#
# Total GULP energy -156487.930971 kJ/mol
# GULP energy per Si atom -5588.854678 kJ/mol
# Density = 2.145245 g / cm^3
# Si number density = 21.501388 Si / 1000 Ang^3
#
#
#
# Elastic Constant Matrix: (Units=GPa)
#
#
# Indices 1 2 3 4 5 6 
#
# 1 48.6711 13.2002 -6.3795 0.0000 0.0000 0.0000
# 2 13.2002 77.0290 6.1366 0.0000 0.0000 0.0000
# 3 -6.3795 6.1366 86.3756 0.0000 0.0000 0.0000
# 4 0.0000 0.0000 0.0000 33.5034 0.0000 0.0000
# 5 0.0000 0.0000 0.0000 0.0000 8.5079 0.0000
# 6 0.0000 0.0000 0.0000 0.0000 0.0000 24.3458
#
#
#
# Elastic Compliance Matrix: (Units=1/GPa)
#
#
# Indices 1 2 3 4 5 6 
#
# 1 0.021850 -0.003895 0.001891 0.000000 0.000000 0.000000
# 2 -0.003895 0.013750 -0.001265 0.000000 0.000000 0.000000
# 3 0.001891 -0.001265 0.011807 0.000000 0.000000 0.000000
# 4 0.000000 0.000000 0.000000 0.029848 0.000000 0.000000
# 5 0.000000 0.000000 0.000000 0.000000 0.117537 0.000000
# 6 0.000000 0.000000 0.000000 0.000000 0.000000 0.041075
#
#
# Mechanical properties :
#
#
# Convention : Reuss Voigt Hill
#
# Bulk Modulus (GPa) = 24.46825 26.44335 25.45580
# Shear Modulus (GPa) = 19.52906 26.54597 23.03752
#
# Velocity S-wave (km/s) = 3.01702 3.51752 3.27684
# Velocity P-wave (km/s) = 4.85192 5.36865 5.11681
#
# Compressibility (1/GPa) = 0.04086930
#
# Stress axis : x y z
#
# Youngs Moduli (GPa) = 45.76612 72.72546 84.69682
#
# Poissons Ratio (x) = 0.28327 -0.16012
# Poissons Ratio (y) = 0.17826 0.10711
# Poissons Ratio (z) = -0.08652 0.09197
#
# Static dielectric constant tensor:
#      x y z
#    x 1.756930 0.000000 0.000000 
#    y 0.000000 1.820250 0.000000 
#    z 0.000000 0.000000 1.774970 
# 
# From -- ./inp_files/2954.got.cif
#   From: 2010.05.17/outbox.cif.g08.bks.cpg/sg19_2_cif.got.tgz:2954.got - 2010.06.03 22:46:19.
