data_PCOD9315970
_publ_section_title
;
Structure prediction by ZEFSAII (Michael W. Deem and Ramdas Pophale) SiO2 
 PCOD9315970
Probable space group: P 21 21 21
;
_chemical_formula_sum "Si O2"
_cell_formula_units_Z 24
_cell_length_a 5.012954
_cell_length_b 9.538827
_cell_length_c 18.817960
_cell_angle_alpha 90.000000
_cell_angle_beta 90.000000
_cell_angle_gamma 90.000000
_cell_volume 899.831584
_symmetry_space_group_name_H-M "P 21 21 21"
_symmetry_group_IT_number 19
_symmetry_cell_setting 'orthorhombic'
loop_
_space_group_symop_operation_xyz
x,y,z
1/2-x,-y,1/2+z
1/2+x,1/2-y,-z
-x,1/2+y,1/2-z
loop_
_atom_site_type_symbol
_atom_site_label
_atom_site_fract_x
_atom_site_fract_y
_atom_site_fract_z
Si Si1 0.175394 0.924292 0.760265
Si Si2 0.693347 0.020949 0.135923
Si Si3 0.034225 0.657853 0.998796
Si Si4 0.773470 0.728484 0.545706
Si Si5 0.470876 0.659074 0.743025
Si Si6 0.647970 0.995425 0.380431
O O1 0.427205 0.821770 0.757351
O O2 0.242114 0.089575 0.766212
O O3 0.024436 0.909449 0.686895
O O4 0.997814 0.893284 0.828794
O O5 0.863371 0.921416 0.187029
O O6 0.834239 0.154221 0.100158
O O7 0.571591 0.927865 0.073522
O O8 0.154388 0.571783 0.065207
O O9 0.230965 0.792580 0.992923
O O10 0.518852 0.699260 0.496972
O O11 0.922226 0.595032 0.579047
O O12 0.312137 0.604741 0.673566
#
# Coordination Sequence:
#
# PCOD9315970 Si02
#       6
#     4   4   4   4   4   4
#     4  11  27  47  79 112 156 202 264 319 390 456
#     4  11  27  49  73 113 151 201 257 320 384 461
#     4  12  30  50  79 113 157 202 256 319 394 465
#     4  12  28  48  81 114 154 201 258 319 388 461
#     4  11  27  47  78 111 154 206 259 324 383 463
#     4  11  27  49  76 111 152 202 260 321 389 462
#
# _framework density 26.671661
#
# number of rings (size 3 to 8) (size 9 to 14) (size 15 to 20)
#    0.000    0.667    3.333    1.000   16.333    1.333 
#    0.000    0.000    0.000    0.000    0.000    0.000 
#    0.000    0.000    0.000    0.000    0.000    0.000 
#
# Total GULP energy -134674.659889 kJ/mol
# GULP energy per Si atom -5611.444162 kJ/mol
# Density = 2.661095 g / cm^3
# Si number density = 26.671661 Si / 1000 Ang^3
#
#
#
# Elastic Constant Matrix: (Units=GPa)
#
#
# Indices 1 2 3 4 5 6 
#
# 1 59.6994 -9.1300 20.5571 0.0000 0.0000 0.0000
# 2 -9.1300 90.6252 36.0130 0.0000 0.0000 0.0000
# 3 20.5571 36.0130 141.1179 0.0000 0.0000 0.0000
# 4 0.0000 0.0000 0.0000 22.3419 0.0000 0.0000
# 5 0.0000 0.0000 0.0000 0.0000 30.1462 0.0000
# 6 0.0000 0.0000 0.0000 0.0000 0.0000 49.5655
#
#
#
# Elastic Compliance Matrix: (Units=1/GPa)
#
#
# Indices 1 2 3 4 5 6 
#
# 1 0.018461 0.003259 -0.003521 0.000000 0.000000 0.000000
# 2 0.003259 0.012855 -0.003755 0.000000 0.000000 0.000000
# 3 -0.003521 -0.003755 0.008558 0.000000 0.000000 0.000000
# 4 0.000000 0.000000 0.000000 0.044759 0.000000 0.000000
# 5 0.000000 0.000000 0.000000 0.000000 0.033172 0.000000
# 6 0.000000 0.000000 0.000000 0.000000 0.000000 0.020175
#
#
# Mechanical properties :
#
#
# Convention : Reuss Voigt Hill
#
# Bulk Modulus (GPa) = 31.40753 42.92476 37.16614
# Shear Modulus (GPa) = 31.92279 36.67755 34.30017
#
# Velocity S-wave (km/s) = 3.46335 3.71233 3.59000
# Velocity P-wave (km/s) = 5.27202 5.87400 5.58113
#
# Compressibility (1/GPa) = 0.03183950
#
# Stress axis : x y z
#
# Youngs Moduli (GPa) = 54.16691 77.78999 116.85574
#
# Poissons Ratio (x) = -0.25353 0.41146
# Poissons Ratio (y) = -0.17654 0.43884
# Poissons Ratio (z) = 0.19073 0.29213
#
# Static dielectric constant tensor:
#      x y z
#    x 2.054180 0.000000 0.000000 
#    y 0.000000 2.068170 0.000000 
#    z 0.000000 0.000000 2.073580 
# 
# From -- ./inp_files/2390.got.cif
#   From: 2010.05.17/outbox.cif.g08.bks.cpg/sg19_2_cif.got.tgz:2390.got - 2010.06.03 22:46:19.
