data_PCOD9315641
_publ_section_title
;
Structure prediction by ZEFSAII (Michael W. Deem and Ramdas Pophale) SiO2 
 PCOD9315641
Probable space group: P 21 21 21
;
_chemical_formula_sum "Si O2"
_cell_formula_units_Z 28
_cell_length_a 7.749689
_cell_length_b 8.247825
_cell_length_c 15.880004
_cell_angle_alpha 90.000000
_cell_angle_beta 90.000000
_cell_angle_gamma 90.000000
_cell_volume 1015.019345
_symmetry_space_group_name_H-M "P 21 21 21"
_symmetry_group_IT_number 19
_symmetry_cell_setting 'orthorhombic'
loop_
_space_group_symop_operation_xyz
x,y,z
1/2-x,-y,1/2+z
1/2+x,1/2-y,-z
-x,1/2+y,1/2-z
loop_
_atom_site_type_symbol
_atom_site_label
_atom_site_fract_x
_atom_site_fract_y
_atom_site_fract_z
Si Si1 0.302849 0.316767 0.702312
Si Si2 0.728617 0.757891 0.422733
Si Si3 0.804444 0.655938 0.237518
Si Si4 0.031026 0.985346 0.879306
Si Si5 0.725433 0.997398 0.145078
Si Si6 0.530084 0.653579 0.943806
Si Si7 0.478534 0.013141 0.997373
O O1 0.498179 0.386460 0.714747
O O2 0.145226 0.403107 0.655317
O O3 0.240802 0.341608 0.798826
O O4 0.344764 0.170271 0.637212
O O5 0.787376 0.675764 0.336652
O O6 0.873724 0.885810 0.449336
O O7 0.687356 0.626722 0.494223
O O8 0.544443 0.842120 0.405290
O O9 0.673697 0.532303 0.192990
O O10 0.751360 0.835617 0.202177
O O11 0.088135 0.888973 0.962498
O O12 0.881913 0.974253 0.079414
O O13 0.551865 0.987405 0.091850
O O14 0.460279 0.837088 0.956674
#
# Coordination Sequence:
#
# PCOD9315641 Si02
#       7
#     4   4   4   4   4   4   4
#     4  11  25  47  75 112 160 194 263 328 391 473
#     4  12  28  50  73 117 164 201 265 334 405 480
#     4  11  26  47  76 115 150 207 264 323 408 466
#     4  12  24  51  79 115 155 214 269 332 395 483
#     4  11  22  48  76 109 155 199 261 326 386 480
#     4  11  23  47  82 108 153 209 266 322 390 480
#     4  12  26  50  77 112 159 208 262 329 405 484
#
# _framework density 27.58568
#
# number of rings (size 3 to 8) (size 9 to 14) (size 15 to 20)
#    0.000    0.571    5.714    0.857    4.000    2.286 
#   18.000    0.000    0.000    0.000    0.000    0.000 
#    0.000    0.000    0.000    0.000    0.000    0.000 
#
# Total GULP energy -156854.239779 kJ/mol
# GULP energy per Si atom -5601.937135 kJ/mol
# Density = 2.752289 g / cm^3
# Si number density = 27.585680 Si / 1000 Ang^3
#
#
#
# Elastic Constant Matrix: (Units=GPa)
#
#
# Indices 1 2 3 4 5 6 
#
# 1 131.8973 49.9666 44.7208 0.0000 0.0000 0.0000
# 2 49.9666 121.8537 50.6582 0.0000 0.0000 0.0000
# 3 44.7208 50.6582 141.5743 0.0000 0.0000 0.0000
# 4 0.0000 0.0000 0.0000 37.7743 0.0000 0.0000
# 5 0.0000 0.0000 0.0000 0.0000 42.2056 0.0000
# 6 0.0000 0.0000 0.0000 0.0000 0.0000 28.5503
#
#
#
# Elastic Compliance Matrix: (Units=1/GPa)
#
#
# Indices 1 2 3 4 5 6 
#
# 1 0.009377 -0.003070 -0.001863 0.000000 0.000000 0.000000
# 2 -0.003070 0.010646 -0.002840 0.000000 0.000000 0.000000
# 3 -0.001863 -0.002840 0.008668 0.000000 0.000000 0.000000
# 4 0.000000 0.000000 0.000000 0.026473 0.000000 0.000000
# 5 0.000000 0.000000 0.000000 0.000000 0.023694 0.000000
# 6 0.000000 0.000000 0.000000 0.000000 0.000000 0.035026
#
#
# Mechanical properties :
#
#
# Convention : Reuss Voigt Hill
#
# Bulk Modulus (GPa) = 76.07768 76.22407 76.15087
# Shear Modulus (GPa) = 37.36623 38.37135 37.86879
#
# Velocity S-wave (km/s) = 3.68442 3.73364 3.70911
# Velocity P-wave (km/s) = 6.76302 6.80283 6.78296
#
# Compressibility (1/GPa) = 0.01314446
#
# Stress axis : x y z
#
# Youngs Moduli (GPa) = 106.64940 93.93185 115.36624
#
# Poissons Ratio (x) = 0.28840 0.21496
# Poissons Ratio (y) = 0.32744 0.32759
# Poissons Ratio (z) = 0.19872 0.26672
#
# Static dielectric constant tensor:
#      x y z
#    x 2.122160 0.000000 0.000000 
#    y 0.000000 2.185010 0.000000 
#    z 0.000000 0.000000 2.131560 
# 
# From -- ./inp_files/6617.got.cif
#   From: 2010.05.17/outbox.cif.g08.bks.cpg/sg19_4_cif.got.tgz:6617.got - 2010.06.03 22:46:19.
