data_PCOD9315022
_publ_section_title
;
Structure prediction by ZEFSAII (Michael W. Deem and Ramdas Pophale) SiO2 
 PCOD9315022
Probable space group: P 21 21 21
;
_chemical_formula_sum "Si O2"
_cell_formula_units_Z 16
_cell_length_a 7.063075
_cell_length_b 9.492979
_cell_length_c 9.440631
_cell_angle_alpha 90.000000
_cell_angle_beta 90.000000
_cell_angle_gamma 90.000000
_cell_volume 632.990746
_symmetry_space_group_name_H-M "P 21 21 21"
_symmetry_group_IT_number 19
_symmetry_cell_setting 'orthorhombic'
loop_
_space_group_symop_operation_xyz
x,y,z
1/2-x,-y,1/2+z
1/2+x,1/2-y,-z
-x,1/2+y,1/2-z
loop_
_atom_site_type_symbol
_atom_site_label
_atom_site_fract_x
_atom_site_fract_y
_atom_site_fract_z
Si Si1 0.683783 0.079625 0.623214
Si Si2 0.435752 0.691639 0.366696
Si Si3 0.664565 0.734237 0.869865
Si Si4 0.151564 0.201299 0.164430
O O1 0.455450 0.091709 0.602371
O O2 0.710884 0.140342 0.781146
O O3 0.769082 0.191034 0.511312
O O4 0.796481 0.938222 0.606285
O O5 0.436874 0.782452 0.509947
O O6 0.643926 0.631349 0.336051
O O7 0.340679 0.775518 0.236581
O O8 0.505677 0.828327 0.784816
#
# Coordination Sequence:
#
# PCOD9315022 Si02
#       4
#     4   4   4   4
#     4  10  23  43  64  92 130 169 203 270 317 374
#     4  12  21  46  64  93 132 165 217 263 324 370
#     4  10  23  44  60  97 128 163 219 262 312 388
#     4  10  23  41  64  94 126 169 213 269 303 392
#
# _framework density 25.27683
#
# number of rings (size 3 to 8) (size 9 to 14) (size 15 to 20)
#    1.500    0.000    2.500    3.000    0.000    0.000 
#   13.500    0.000    0.000    0.000    0.000    0.000 
#    0.000    0.000    0.000    0.000    0.000    0.000 
#
# Total GULP energy -89356.790180 kJ/mol
# GULP energy per Si atom -5584.799386 kJ/mol
# Density = 2.521930 g / cm^3
# Si number density = 25.276830 Si / 1000 Ang^3
#
#
#
# Elastic Constant Matrix: (Units=GPa)
#
#
# Indices 1 2 3 4 5 6 
#
# 1 180.6094 3.7945 41.4354 0.0000 0.0000 0.0000
# 2 3.7945 32.0465 12.0699 0.0000 0.0000 0.0000
# 3 41.4354 12.0699 111.0090 0.0000 0.0000 0.0000
# 4 0.0000 0.0000 0.0000 17.9031 0.0000 0.0000
# 5 0.0000 0.0000 0.0000 0.0000 48.3172 0.0000
# 6 0.0000 0.0000 0.0000 0.0000 0.0000 44.1577
#
#
#
# Elastic Compliance Matrix: (Units=1/GPa)
#
#
# Indices 1 2 3 4 5 6 
#
# 1 0.006056 0.000140 -0.002276 0.000000 0.000000 0.000000
# 2 0.000140 0.032540 -0.003590 0.000000 0.000000 0.000000
# 3 -0.002276 -0.003590 0.010248 0.000000 0.000000 0.000000
# 4 0.000000 0.000000 0.000000 0.055856 0.000000 0.000000
# 5 0.000000 0.000000 0.000000 0.000000 0.020697 0.000000
# 6 0.000000 0.000000 0.000000 0.000000 0.000000 0.022646
#
#
# Mechanical properties :
#
#
# Convention : Reuss Voigt Hill
#
# Bulk Modulus (GPa) = 26.74343 48.69606 37.71974
# Shear Modulus (GPa) = 29.07661 39.83326 34.45494
#
# Velocity S-wave (km/s) = 3.39533 3.97404 3.69603
# Velocity P-wave (km/s) = 5.09649 6.35329 5.75927
#
# Compressibility (1/GPa) = 0.03739237
#
# Stress axis : x y z
#
# Youngs Moduli (GPa) = 165.12676 30.73110 97.57921
#
# Poissons Ratio (x) = -0.00430 0.22206
# Poissons Ratio (y) = -0.02313 0.35034
# Poissons Ratio (z) = 0.37578 0.11034
#
# Static dielectric constant tensor:
#      x y z
#    x 2.029110 0.000000 0.000000 
#    y 0.000000 2.153530 0.000000 
#    z 0.000000 0.000000 1.909770 
# 
# From -- ./inp_files/293.got.cif
#   From: 2010.05.17/outbox.cif.g08.bks.cpg/sg19_1_cif.got.tgz:293.got - 2010.06.03 22:46:19.
