data_PCOD9315579
_publ_section_title
;
Structure prediction by ZEFSAII (Michael W. Deem and Ramdas Pophale) SiO2 
 PCOD9315579
Probable space group: P 21 21 21
;
_chemical_formula_sum "Si O2"
_cell_formula_units_Z 32
_cell_length_a 9.345469
_cell_length_b 17.439180
_cell_length_c 8.729780
_cell_angle_alpha 90.000000
_cell_angle_beta 90.000000
_cell_angle_gamma 90.000000
_cell_volume 1422.756114
_symmetry_space_group_name_H-M "P 21 21 21"
_symmetry_group_IT_number 19
_symmetry_cell_setting 'orthorhombic'
loop_
_space_group_symop_operation_xyz
x,y,z
1/2-x,-y,1/2+z
1/2+x,1/2-y,-z
-x,1/2+y,1/2-z
loop_
_atom_site_type_symbol
_atom_site_label
_atom_site_fract_x
_atom_site_fract_y
_atom_site_fract_z
Si Si1 0.939135 0.604919 0.535915
Si Si2 0.134581 0.495770 0.973806
Si Si3 0.828864 0.376632 0.243453
Si Si4 0.866781 0.236288 0.841243
Si Si5 0.923701 0.823717 0.442940
Si Si6 0.921232 0.953320 0.878877
Si Si7 0.659956 0.660757 0.077212
Si Si8 0.096401 0.054467 0.292177
O O1 0.785823 0.626683 0.606500
O O2 0.963761 0.602629 0.352879
O O3 0.054487 0.656904 0.622420
O O4 0.963615 0.517318 0.578528
O O5 0.132102 0.410133 0.042828
O O6 0.282943 0.536046 0.015103
O O7 0.008449 0.542273 0.061805
O O8 0.118072 0.476816 0.794758
O O9 0.781903 0.342441 0.405019
O O10 0.866745 0.467136 0.259085
O O11 0.967625 0.327782 0.197914
O O12 0.711043 0.230801 0.918967
O O13 0.841246 0.259082 0.665972
O O14 0.975439 0.297916 0.916622
O O15 0.999965 0.873582 0.909783
O O16 0.762355 0.601726 0.166972
#
# Coordination Sequence:
#
# PCOD9315579 Si02
#       8
#     4   4   4   4   4   4   4   4
#     4  12  24  43  72 102 141 182 230 288 352 416
#     4  11  25  41  70 103 137 171 231 294 349 401
#     4  11  23  41  68 100 132 175 231 292 333 405
#     4  12  26  45  66  98 138 189 227 281 354 428
#     4  11  24  44  67  94 136 179 228 278 342 419
#     4  12  23  43  67 102 134 178 228 293 343 409
#     4  12  25  42  70  98 136 183 231 279 350 416
#     4  11  22  41  68 103 130 177 230 285 339 416
#
# _framework density 22.491555999999999
#
# number of rings (size 3 to 8) (size 9 to 14) (size 15 to 20)
#    0.000    0.500    5.000    3.750    3.500    1.000 
#    0.000    1.250    0.000    0.000    0.000    0.000 
#    0.000    0.000    0.000    0.000    0.000    0.000 
#
# Total GULP energy -178781.156767 kJ/mol
# GULP energy per Si atom -5586.911149 kJ/mol
# Density = 2.244036 g / cm^3
# Si number density = 22.491556 Si / 1000 Ang^3
#
#
#
# Elastic Constant Matrix: (Units=GPa)
#
#
# Indices 1 2 3 4 5 6 
#
# 1 87.9059 4.8368 -15.5834 0.0000 0.0000 0.0000
# 2 4.8368 30.4028 -5.1786 0.0000 0.0000 0.0000
# 3 -15.5834 -5.1786 36.5222 0.0000 0.0000 0.0000
# 4 0.0000 0.0000 0.0000 28.7624 0.0000 0.0000
# 5 0.0000 0.0000 0.0000 0.0000 28.7392 0.0000
# 6 0.0000 0.0000 0.0000 0.0000 0.0000 24.0853
#
#
#
# Elastic Compliance Matrix: (Units=1/GPa)
#
#
# Indices 1 2 3 4 5 6 
#
# 1 0.012342 -0.001093 0.005111 0.000000 0.000000 0.000000
# 2 -0.001093 0.033803 0.004327 0.000000 0.000000 0.000000
# 3 0.005111 0.004327 0.030175 0.000000 0.000000 0.000000
# 4 0.000000 0.000000 0.000000 0.034768 0.000000 0.000000
# 5 0.000000 0.000000 0.000000 0.000000 0.034796 0.000000
# 6 0.000000 0.000000 0.000000 0.000000 0.000000 0.041519
#
#
# Mechanical properties :
#
#
# Convention : Reuss Voigt Hill
#
# Bulk Modulus (GPa) = 10.75162 13.66450 12.20806
# Shear Modulus (GPa) = 24.78742 27.70111 26.24427
#
# Velocity S-wave (km/s) = 3.32336 3.51326 3.41962
# Velocity P-wave (km/s) = 4.41780 4.74825 4.58600
#
# Compressibility (1/GPa) = 0.09300926
#
# Stress axis : x y z
#
# Youngs Moduli (GPa) = 81.02411 29.58357 33.14013
#
# Poissons Ratio (x) = 0.03233 -0.16938
# Poissons Ratio (y) = 0.08855 -0.14339
# Poissons Ratio (z) = -0.41413 -0.12800
#
# Static dielectric constant tensor:
#      x y z
#    x 1.822250 0.000000 0.000000 
#    y 0.000000 1.826630 0.000000 
#    z 0.000000 0.000000 1.867300 
# 
# From -- ./inp_files/3184.got.cif
#   From: 2010.05.17/outbox.cif.g08.bks.cpg/sg19_2_cif.got.tgz:3184.got - 2010.06.03 22:46:19.
