data_PCOD9315790
_publ_section_title
;
Structure prediction by ZEFSAII (Michael W. Deem and Ramdas Pophale) SiO2 
 PCOD9315790
Probable space group: P 21 21 21
;
_chemical_formula_sum "Si O2"
_cell_formula_units_Z 24
_cell_length_a 8.141730
_cell_length_b 17.318690
_cell_length_c 7.358745
_cell_angle_alpha 90.000000
_cell_angle_beta 90.000000
_cell_angle_gamma 90.000000
_cell_volume 1037.613201
_symmetry_space_group_name_H-M "P 21 21 21"
_symmetry_group_IT_number 19
_symmetry_cell_setting 'orthorhombic'
loop_
_space_group_symop_operation_xyz
x,y,z
1/2-x,-y,1/2+z
1/2+x,1/2-y,-z
-x,1/2+y,1/2-z
loop_
_atom_site_type_symbol
_atom_site_label
_atom_site_fract_x
_atom_site_fract_y
_atom_site_fract_z
Si Si1 0.450651 0.282043 0.243084
Si Si2 0.091406 0.062547 0.906662
Si Si3 0.436874 0.527567 0.377645
Si Si4 0.408521 0.437593 0.731285
Si Si5 0.320490 0.264775 0.637945
Si Si6 0.418111 0.161537 0.932072
O O1 0.472615 0.370106 0.175844
O O2 0.341826 0.269368 0.421887
O O3 0.634922 0.255041 0.301568
O O4 0.386552 0.229748 0.076953
O O5 0.267850 0.101923 0.915508
O O6 0.071375 0.988578 0.777334
O O7 0.033038 0.044046 0.108411
O O8 0.464694 0.466228 0.535890
O O9 0.261933 0.520724 0.280975
O O10 0.441147 0.609859 0.478619
O O11 0.375093 0.346954 0.716275
O O12 0.435034 0.200657 0.735965
#
# Coordination Sequence:
#
# PCOD9315790 Si02
#       6
#     4   4   4   4   4   4
#     4  11  24  44  71  99 135 177 233 279 346 404
#     4  11  26  44  67 102 138 181 228 284 342 412
#     4  12  26  45  68 104 136 184 227 283 350 407
#     4  12  24  44  71  98 140 179 228 287 339 412
#     4  11  25  43  70 103 133 182 232 284 339 409
#     4  11  27  44  69 100 142 181 230 285 342 408
#
# _framework density 23.130005000000001
#
# number of rings (size 3 to 8) (size 9 to 14) (size 15 to 20)
#    0.000    0.667    6.667    0.000    4.667    4.000 
#    0.000    0.000    0.000    0.000    0.000    0.000 
#    0.000    0.000    0.000    0.000    0.000    0.000 
#
# Total GULP energy -134318.578758 kJ/mol
# GULP energy per Si atom -5596.607448 kJ/mol
# Density = 2.307736 g / cm^3
# Si number density = 23.130005 Si / 1000 Ang^3
#
#
#
# Elastic Constant Matrix: (Units=GPa)
#
#
# Indices 1 2 3 4 5 6 
#
# 1 32.9686 -3.8683 5.8539 0.0000 0.0000 0.0000
# 2 -3.8683 39.1974 -24.7473 0.0000 0.0000 0.0000
# 3 5.8539 -24.7473 67.3268 0.0000 0.0000 0.0000
# 4 0.0000 0.0000 0.0000 40.1005 0.0000 0.0000
# 5 0.0000 0.0000 0.0000 0.0000 27.4439 0.0000
# 6 0.0000 0.0000 0.0000 0.0000 0.0000 25.7056
#
#
#
# Elastic Compliance Matrix: (Units=1/GPa)
#
#
# Indices 1 2 3 4 5 6 
#
# 1 0.030901 0.001762 -0.002039 0.000000 0.000000 0.000000
# 2 0.001762 0.033322 0.012095 0.000000 0.000000 0.000000
# 3 -0.002039 0.012095 0.019476 0.000000 0.000000 0.000000
# 4 0.000000 0.000000 0.000000 0.024937 0.000000 0.000000
# 5 0.000000 0.000000 0.000000 0.000000 0.036438 0.000000
# 6 0.000000 0.000000 0.000000 0.000000 0.000000 0.038902
#
#
# Mechanical properties :
#
#
# Convention : Reuss Voigt Hill
#
# Bulk Modulus (GPa) = 9.31662 10.44102 9.87882
# Shear Modulus (GPa) = 25.49487 29.46697 27.48092
#
# Velocity S-wave (km/s) = 3.32361 3.57315 3.45063
# Velocity P-wave (km/s) = 4.33188 4.64188 4.48955
#
# Compressibility (1/GPa) = 0.10733506
#
# Stress axis : x y z
#
# Youngs Moduli (GPa) = 32.36178 30.01020 51.34535
#
# Poissons Ratio (x) = -0.05288 0.10469
# Poissons Ratio (y) = -0.05703 -0.62102
# Poissons Ratio (z) = 0.06598 -0.36297
#
# Static dielectric constant tensor:
#      x y z
#    x 1.886340 0.000000 0.000000 
#    y 0.000000 1.887800 0.000000 
#    z 0.000000 0.000000 1.815160 
# 
# From -- ./inp_files/408.got.cif
#   From: 2010.05.17/outbox.cif.g08.bks.cpg/sg19_1_cif.got.tgz:408.got - 2010.06.03 22:46:19.
