data_PCOD9315439
_publ_section_title
;
Structure prediction by ZEFSAII (Michael W. Deem and Ramdas Pophale) SiO2 
 PCOD9315439
Probable space group: P 21 21 21
;
_chemical_formula_sum "Si O2"
_cell_formula_units_Z 28
_cell_length_a 9.303042
_cell_length_b 8.424380
_cell_length_c 13.207516
_cell_angle_alpha 90.000000
_cell_angle_beta 90.000000
_cell_angle_gamma 90.000000
_cell_volume 1035.104211
_symmetry_space_group_name_H-M "P 21 21 21"
_symmetry_group_IT_number 19
_symmetry_cell_setting 'orthorhombic'
loop_
_space_group_symop_operation_xyz
x,y,z
1/2-x,-y,1/2+z
1/2+x,1/2-y,-z
-x,1/2+y,1/2-z
loop_
_atom_site_type_symbol
_atom_site_label
_atom_site_fract_x
_atom_site_fract_y
_atom_site_fract_z
Si Si1 0.115772 0.697517 0.198890
Si Si2 0.473403 0.502787 0.888583
Si Si3 0.839167 0.537217 0.108898
Si Si4 0.439628 0.501698 0.364069
Si Si5 0.184286 0.763188 0.721294
Si Si6 0.849553 0.756153 0.952716
Si Si7 0.926453 0.804773 0.447234
O O1 0.104640 0.609863 0.305705
O O2 0.994553 0.616040 0.131520
O O3 0.867867 0.904830 0.541723
O O4 0.069487 0.882089 0.184506
O O5 0.550072 0.381056 0.964733
O O6 0.384448 0.614832 0.962884
O O7 0.747754 0.601082 0.203204
O O8 0.909877 0.371147 0.075491
O O9 0.761370 0.623215 0.015001
O O10 0.358212 0.399969 0.278425
O O11 0.549845 0.639735 0.325793
O O12 0.521545 0.351858 0.413939
O O13 0.311332 0.707220 0.644708
O O14 0.766378 0.818597 0.856260
#
# Coordination Sequence:
#
# PCOD9315439 Si02
#       7
#     4   4   4   4   4   4   4
#     4  11  23  47  81 121 163 226 282 354 434 510
#     4  11  24  46  83 126 161 224 289 352 434 517
#     4  10  25  47  80 122 162 222 285 352 432 500
#     4  11  30  58  84 131 173 235 282 360 451 499
#     4  12  28  59  86 128 182 219 299 357 426 538
#     4  10  26  49  80 120 174 218 287 363 423 530
#     4  11  26  54  86 130 167 228 292 352 444 506
#
# _framework density 27.050415999999998
#
# number of rings (size 3 to 8) (size 9 to 14) (size 15 to 20)
#    0.000    1.143    1.429    1.714   10.000    3.429 
#   12.857    0.000    0.000    0.000    0.000    0.000 
#    0.000    0.000    0.000    0.000    0.000    0.000 
#
# Total GULP energy -156350.704639 kJ/mol
# GULP energy per Si atom -5583.953737 kJ/mol
# Density = 2.698885 g / cm^3
# Si number density = 27.050416 Si / 1000 Ang^3
#
#
#
# Elastic Constant Matrix: (Units=GPa)
#
#
# Indices 1 2 3 4 5 6 
#
# 1 52.4521 58.1162 58.4825 0.0000 0.0000 0.0000
# 2 58.1162 199.9196 86.8735 0.0000 0.0000 0.0000
# 3 58.4825 86.8735 117.7485 0.0000 0.0000 0.0000
# 4 0.0000 0.0000 0.0000 62.9843 0.0000 0.0000
# 5 0.0000 0.0000 0.0000 0.0000 28.4721 0.0000
# 6 0.0000 0.0000 0.0000 0.0000 0.0000 57.5670
#
#
#
# Elastic Compliance Matrix: (Units=1/GPa)
#
#
# Indices 1 2 3 4 5 6 
#
# 1 0.045965 -0.005066 -0.019092 0.000000 0.000000 0.000000
# 2 -0.005066 0.007921 -0.003328 0.000000 0.000000 0.000000
# 3 -0.019092 -0.003328 0.020430 0.000000 0.000000 0.000000
# 4 0.000000 0.000000 0.000000 0.015877 0.000000 0.000000
# 5 0.000000 0.000000 0.000000 0.000000 0.035122 0.000000
# 6 0.000000 0.000000 0.000000 0.000000 0.000000 0.017371
#
#
# Mechanical properties :
#
#
# Convention : Reuss Voigt Hill
#
# Bulk Modulus (GPa) = 51.69349 86.34051 69.01700
# Shear Modulus (GPa) = 24.49717 40.91456 32.70586
#
# Velocity S-wave (km/s) = 3.01260 3.89334 3.48094
# Velocity P-wave (km/s) = 5.59040 7.22485 6.45953
#
# Compressibility (1/GPa) = 0.01934480
#
# Stress axis : x y z
#
# Youngs Moduli (GPa) = 21.75583 126.25250 48.94647
#
# Poissons Ratio (x) = 0.63953 0.93449
# Poissons Ratio (y) = 0.11020 0.16289
# Poissons Ratio (z) = 0.41537 0.42015
#
# Static dielectric constant tensor:
#      x y z
#    x 2.230170 0.000000 0.000000 
#    y 0.000000 2.207240 0.000000 
#    z 0.000000 0.000000 2.168820 
# 
# From -- ./inp_files/6069.got.cif
#   From: 2010.05.17/outbox.cif.g08.bks.cpg/sg19_4_cif.got.tgz:6069.got - 2010.06.03 22:46:19.
