data_PCOD9315699
_publ_section_title
;
Structure prediction by ZEFSAII (Michael W. Deem and Ramdas Pophale) SiO2 
 PCOD9315699
Probable space group: P 21 21 21
;
_chemical_formula_sum "Si O2"
_cell_formula_units_Z 32
_cell_length_a 8.537679
_cell_length_b 14.370863
_cell_length_c 11.193882
_cell_angle_alpha 90.000000
_cell_angle_beta 90.000000
_cell_angle_gamma 90.000000
_cell_volume 1373.420090
_symmetry_space_group_name_H-M "P 21 21 21"
_symmetry_group_IT_number 19
_symmetry_cell_setting 'orthorhombic'
loop_
_space_group_symop_operation_xyz
x,y,z
1/2-x,-y,1/2+z
1/2+x,1/2-y,-z
-x,1/2+y,1/2-z
loop_
_atom_site_type_symbol
_atom_site_label
_atom_site_fract_x
_atom_site_fract_y
_atom_site_fract_z
Si Si1 0.779409 0.704848 0.199255
Si Si2 0.558400 0.135622 0.311934
Si Si3 0.990770 0.199929 0.096842
Si Si4 0.439328 0.633079 0.915420
Si Si5 0.440480 0.947822 0.956322
Si Si6 0.254128 0.131302 0.927918
Si Si7 0.167115 0.535170 0.252750
Si Si8 0.706755 0.334965 0.338173
O O1 0.605031 0.676553 0.232205
O O2 0.878603 0.739384 0.311927
O O3 0.813928 0.783480 0.100173
O O4 0.848495 0.610740 0.144335
O O5 0.548639 0.101510 0.448289
O O6 0.647518 0.054741 0.242418
O O7 0.664456 0.228160 0.314716
O O8 0.868892 0.279552 0.062512
O O9 0.905622 0.119839 0.171698
O O10 0.091393 0.154465 0.991771
O O11 0.388668 0.555906 0.820913
O O12 0.616731 0.664426 0.888450
O O13 0.603915 0.964319 0.885243
O O14 0.347699 0.043196 0.979059
O O15 0.418505 0.884134 0.073913
O O16 0.218387 0.114034 0.788761
#
# Coordination Sequence:
#
# PCOD9315699 Si02
#       8
#     4   4   4   4   4   4   4   4
#     4  11  24  44  72 107 142 184 245 307 367 437
#     4  12  25  44  74 112 144 198 249 304 374 443
#     4  11  26  48  70 101 152 195 240 307 377 444
#     4  12  22  49  74 106 152 191 241 313 369 445
#     4  11  23  44  76 105 138 192 243 311 372 433
#     4  12  26  48  73 103 150 200 242 309 383 448
#     4  11  25  49  70 108 155 188 245 316 370 441
#     4  12  23  46  75 106 143 192 257 305 370 441
#
# _framework density 23.299499000000001
#
# number of rings (size 3 to 8) (size 9 to 14) (size 15 to 20)
#    0.000    0.500    6.250    1.500    5.250    0.000 
#    9.000    0.000    0.000    0.000    0.000    0.000 
#    0.000    0.000    0.000    0.000    0.000    0.000 
#
# Total GULP energy -179010.345724 kJ/mol
# GULP energy per Si atom -5594.073304 kJ/mol
# Density = 2.324647 g / cm^3
# Si number density = 23.299499 Si / 1000 Ang^3
#
#
#
# Elastic Constant Matrix: (Units=GPa)
#
#
# Indices 1 2 3 4 5 6 
#
# 1 83.5239 0.2997 17.6401 0.0000 0.0000 0.0000
# 2 0.2997 71.5407 -9.2929 0.0000 0.0000 0.0000
# 3 17.6401 -9.2929 45.5717 0.0000 0.0000 0.0000
# 4 0.0000 0.0000 0.0000 32.9273 0.0000 0.0000
# 5 0.0000 0.0000 0.0000 0.0000 35.2736 0.0000
# 6 0.0000 0.0000 0.0000 0.0000 0.0000 9.4377
#
#
#
# Elastic Compliance Matrix: (Units=1/GPa)
#
#
# Indices 1 2 3 4 5 6 
#
# 1 0.013076 -0.000732 -0.005211 0.000000 0.000000 0.000000
# 2 -0.000732 0.014399 0.003219 0.000000 0.000000 0.000000
# 3 -0.005211 0.003219 0.024617 0.000000 0.000000 0.000000
# 4 0.000000 0.000000 0.000000 0.030370 0.000000 0.000000
# 5 0.000000 0.000000 0.000000 0.000000 0.028350 0.000000
# 6 0.000000 0.000000 0.000000 0.000000 0.000000 0.105958
#
#
# Mechanical properties :
#
#
# Convention : Reuss Voigt Hill
#
# Bulk Modulus (GPa) = 21.43784 24.21445 22.82615
# Shear Modulus (GPa) = 21.02926 28.32702 24.67814
#
# Velocity S-wave (km/s) = 3.00753 3.49058 3.25802
# Velocity P-wave (km/s) = 4.61316 5.16341 4.89602
#
# Compressibility (1/GPa) = 0.04664649
#
# Stress axis : x y z
#
# Youngs Moduli (GPa) = 76.47771 69.44773 40.62251
#
# Poissons Ratio (x) = 0.05081 0.21167
# Poissons Ratio (y) = 0.05595 -0.13078
# Poissons Ratio (z) = 0.39849 -0.22359
#
# Static dielectric constant tensor:
#      x y z
#    x 1.908640 0.000000 0.000000 
#    y 0.000000 1.859940 0.000000 
#    z 0.000000 0.000000 1.922100 
# 
# From -- ./inp_files/4716.got.cif
#   From: 2010.05.17/outbox.cif.g08.bks.cpg/sg19_3_cif.got.tgz:4716.got - 2010.06.03 22:46:19.
