data_PCOD9315777
_publ_section_title
;
Structure prediction by ZEFSAII (Michael W. Deem and Ramdas Pophale) SiO2 
 PCOD9315777
Probable space group: P 21 21 21
;
_chemical_formula_sum "Si O2"
_cell_formula_units_Z 32
_cell_length_a 5.067000
_cell_length_b 10.131804
_cell_length_c 22.780222
_cell_angle_alpha 90.000000
_cell_angle_beta 90.000000
_cell_angle_gamma 90.000000
_cell_volume 1169.487640
_symmetry_space_group_name_H-M "P 21 21 21"
_symmetry_group_IT_number 19
_symmetry_cell_setting 'orthorhombic'
loop_
_space_group_symop_operation_xyz
x,y,z
1/2-x,-y,1/2+z
1/2+x,1/2-y,-z
-x,1/2+y,1/2-z
loop_
_atom_site_type_symbol
_atom_site_label
_atom_site_fract_x
_atom_site_fract_y
_atom_site_fract_z
Si Si1 0.367149 0.257297 0.598415
Si Si2 0.740350 0.111103 0.521755
Si Si3 0.359703 0.339403 0.013862
Si Si4 0.878521 0.801198 0.368360
Si Si5 0.224706 0.377710 0.819627
Si Si6 0.644075 0.517786 0.408208
Si Si7 0.073992 0.389943 0.259639
Si Si8 0.937532 0.767974 0.790100
O O1 0.655954 0.221383 0.569796
O O2 0.231870 0.317480 0.540606
O O3 0.223059 0.327313 0.654194
O O4 0.295582 0.107434 0.615424
O O5 0.021122 0.038841 0.531591
O O6 0.564084 0.975821 0.518975
O O7 0.224539 0.381446 0.075709
O O8 0.625206 0.249487 0.015829
O O9 0.764163 0.658485 0.390200
O O10 0.814109 0.870505 0.306733
O O11 0.176247 0.752693 0.353699
O O12 0.122569 0.470742 0.870152
O O13 0.437371 0.460960 0.782697
O O14 0.017219 0.359643 0.767007
O O15 0.281395 0.302821 0.298315
O O16 0.785092 0.328863 0.263198
#
# Coordination Sequence:
#
# PCOD9315777 Si02
#       8
#     4   4   4   4   4   4   4   4
#     4  12  26  45  71 110 149 205 261 322 388 465
#     4  12  27  45  73 108 150 211 262 320 391 466
#     4  12  27  49  76 111 153 204 264 323 391 463
#     4  11  25  44  74 108 145 199 253 319 390 467
#     4  11  24  43  74 105 143 199 242 313 393 460
#     4  12  20  44  73  95 147 191 251 309 375 465
#     4  11  24  44  70 109 143 188 251 304 387 461
#     4  11  25  44  71 106 144 187 248 312 377 457
#
# _framework density 27.362410000000001
#
# number of rings (size 3 to 8) (size 9 to 14) (size 15 to 20)
#    0.000    0.500    5.000    3.750    1.750    0.000 
#    0.000    0.000    2.750    0.000    0.000    0.000 
#    0.000    0.000    0.000    0.000    0.000    0.000 
#
# Total GULP energy -178181.853848 kJ/mol
# GULP energy per Si atom -5568.182933 kJ/mol
# Density = 2.730013 g / cm^3
# Si number density = 27.362410 Si / 1000 Ang^3
#
#
#
# Elastic Constant Matrix: (Units=GPa)
#
#
# Indices 1 2 3 4 5 6 
#
# 1 104.2036 10.9990 -13.3309 0.0000 0.0000 0.0000
# 2 10.9990 72.7382 12.1267 0.0000 0.0000 0.0000
# 3 -13.3309 12.1267 143.9165 0.0000 0.0000 0.0000
# 4 0.0000 0.0000 0.0000 41.4113 0.0000 0.0000
# 5 0.0000 0.0000 0.0000 0.0000 25.1204 0.0000
# 6 0.0000 0.0000 0.0000 0.0000 0.0000 35.5158
#
#
#
# Elastic Compliance Matrix: (Units=1/GPa)
#
#
# Indices 1 2 3 4 5 6 
#
# 1 0.009909 -0.001675 0.001059 0.000000 0.000000 0.000000
# 2 -0.001675 0.014227 -0.001354 0.000000 0.000000 0.000000
# 3 0.001059 -0.001354 0.007161 0.000000 0.000000 0.000000
# 4 0.000000 0.000000 0.000000 0.024148 0.000000 0.000000
# 5 0.000000 0.000000 0.000000 0.000000 0.039808 0.000000
# 6 0.000000 0.000000 0.000000 0.000000 0.000000 0.028156
#
#
# Mechanical properties :
#
#
# Convention : Reuss Voigt Hill
#
# Bulk Modulus (GPa) = 36.55408 37.82755 37.19081
# Shear Modulus (GPa) = 36.63866 41.14706 38.89286
#
# Velocity S-wave (km/s) = 3.66322 3.88207 3.77423
# Velocity P-wave (km/s) = 5.59290 5.82654 5.71092
#
# Compressibility (1/GPa) = 0.02735673
#
# Stress axis : x y z
#
# Youngs Moduli (GPa) = 100.91969 70.28927 139.65210
#
# Poissons Ratio (x) = 0.11773 -0.14789
# Poissons Ratio (y) = 0.16903 0.18908
# Poissons Ratio (z) = -0.10687 0.09517
#
# Static dielectric constant tensor:
#      x y z
#    x 2.344880 0.000000 0.000000 
#    y 0.000000 2.294190 0.000000 
#    z 0.000000 0.000000 2.322570 
# 
# From -- ./inp_files/6930.got.cif
#   From: 2010.05.17/outbox.cif.g08.bks.cpg/sg19_4_cif.got.tgz:6930.got - 2010.06.03 22:46:19.
