data_PCOD9315866
_publ_section_title
;
Structure prediction by ZEFSAII (Michael W. Deem and Ramdas Pophale) SiO2 
 PCOD9315866
Probable space group: P 21 21 21
;
_chemical_formula_sum "Si O2"
_cell_formula_units_Z 20
_cell_length_a 9.206775
_cell_length_b 5.216869
_cell_length_c 17.568533
_cell_angle_alpha 90.000000
_cell_angle_beta 90.000000
_cell_angle_gamma 90.000000
_cell_volume 843.826111
_symmetry_space_group_name_H-M "P 21 21 21"
_symmetry_group_IT_number 19
_symmetry_cell_setting 'orthorhombic'
loop_
_space_group_symop_operation_xyz
x,y,z
1/2-x,-y,1/2+z
1/2+x,1/2-y,-z
-x,1/2+y,1/2-z
loop_
_atom_site_type_symbol
_atom_site_label
_atom_site_fract_x
_atom_site_fract_y
_atom_site_fract_z
Si Si1 0.090037 0.780029 0.085424
Si Si2 0.212526 0.067156 0.384104
Si Si3 0.448196 0.465364 0.350190
Si Si4 0.649664 0.212411 0.008288
Si Si5 0.736109 0.298522 0.264652
O O1 0.151089 0.737810 0.169851
O O2 0.918034 0.738378 0.087334
O O3 0.163742 0.553528 0.036005
O O4 0.119938 0.058385 0.050298
O O5 0.367867 0.211981 0.381934
O O6 0.220085 0.822945 0.439830
O O7 0.190456 0.979776 0.297748
O O8 0.464516 0.650669 0.423126
O O9 0.599205 0.421727 0.308685
O O10 0.337143 0.578099 0.287214
#
# Coordination Sequence:
#
# PCOD9315866 Si02
#       5
#     4   4   4   4   4
#     4  12  30  46  82 112 153 199 253 317 378 441
#     4  11  27  50  75 114 156 197 254 315 370 457
#     4  11  24  49  76 110 154 201 253 307 376 457
#     4  11  28  49  74 113 153 196 249 311 381 443
#     4  11  27  46  79 109 152 203 255 306 379 450
#
# _framework density 23.701564999999999
#
# number of rings (size 3 to 8) (size 9 to 14) (size 15 to 20)
#    0.000    0.800    4.000    0.000   14.000    1.600 
#    0.000    0.000    0.000    0.000    0.000    0.000 
#    0.000    0.000    0.000    0.000    0.000    0.000 
#
# Total GULP energy -111856.970976 kJ/mol
# GULP energy per Si atom -5592.848549 kJ/mol
# Density = 2.364762 g / cm^3
# Si number density = 23.701565 Si / 1000 Ang^3
#
#
#
# Elastic Constant Matrix: (Units=GPa)
#
#
# Indices 1 2 3 4 5 6 
#
# 1 43.9861 8.8943 26.8333 0.0000 0.0000 0.0000
# 2 8.8943 100.6302 29.3002 0.0000 0.0000 0.0000
# 3 26.8333 29.3002 94.8102 0.0000 0.0000 0.0000
# 4 0.0000 0.0000 0.0000 48.2317 0.0000 0.0000
# 5 0.0000 0.0000 0.0000 0.0000 31.1614 0.0000
# 6 0.0000 0.0000 0.0000 0.0000 0.0000 18.8300
#
#
#
# Elastic Compliance Matrix: (Units=1/GPa)
#
#
# Indices 1 2 3 4 5 6 
#
# 1 0.027482 -0.000181 -0.007722 0.000000 0.000000 0.000000
# 2 -0.000181 0.010921 -0.003324 0.000000 0.000000 0.000000
# 3 -0.007722 -0.003324 0.013760 0.000000 0.000000 0.000000
# 4 0.000000 0.000000 0.000000 0.020733 0.000000 0.000000
# 5 0.000000 0.000000 0.000000 0.000000 0.032091 0.000000
# 6 0.000000 0.000000 0.000000 0.000000 0.000000 0.053107
#
#
# Mechanical properties :
#
#
# Convention : Reuss Voigt Hill
#
# Bulk Modulus (GPa) = 33.65896 41.05356 37.35626
# Shear Modulus (GPa) = 26.25351 31.27118 28.76235
#
# Velocity S-wave (km/s) = 3.33178 3.63626 3.48734
# Velocity P-wave (km/s) = 5.38823 5.91510 5.65780
#
# Compressibility (1/GPa) = 0.02970977
#
# Stress axis : x y z
#
# Youngs Moduli (GPa) = 36.38770 91.56522 72.67352
#
# Poissons Ratio (x) = 0.01653 0.56119
# Poissons Ratio (y) = 0.00657 0.24157
# Poissons Ratio (z) = 0.28099 0.30436
#
# Static dielectric constant tensor:
#      x y z
#    x 1.892250 0.000000 0.000000 
#    y 0.000000 1.963350 0.000000 
#    z 0.000000 0.000000 1.896080 
# 
# From -- ./inp_files/1683.got.cif
#   From: 2010.05.17/outbox.cif.g08.bks.cpg/sg19_1_cif.got.tgz:1683.got - 2010.06.03 22:46:19.
