data_PCOD9315643
_publ_section_title
;
Structure prediction by ZEFSAII (Michael W. Deem and Ramdas Pophale) SiO2 
 PCOD9315643
Probable space group: P 21 21 21
;
_chemical_formula_sum "Si O2"
_cell_formula_units_Z 28
_cell_length_a 6.838683
_cell_length_b 13.968428
_cell_length_c 13.535157
_cell_angle_alpha 90.000000
_cell_angle_beta 90.000000
_cell_angle_gamma 90.000000
_cell_volume 1292.954685
_symmetry_space_group_name_H-M "P 21 21 21"
_symmetry_group_IT_number 19
_symmetry_cell_setting 'orthorhombic'
loop_
_space_group_symop_operation_xyz
x,y,z
1/2-x,-y,1/2+z
1/2+x,1/2-y,-z
-x,1/2+y,1/2-z
loop_
_atom_site_type_symbol
_atom_site_label
_atom_site_fract_x
_atom_site_fract_y
_atom_site_fract_z
Si Si1 0.505784 0.558498 0.760138
Si Si2 0.899028 0.293378 0.589072
Si Si3 0.303789 0.606146 0.959868
Si Si4 0.402560 0.839165 0.742989
Si Si5 0.402716 0.237760 0.082453
Si Si6 0.142590 0.407310 0.039018
Si Si7 0.704046 0.282932 0.250367
O O1 0.365895 0.599381 0.845498
O O2 0.537379 0.447209 0.777368
O O3 0.409614 0.576468 0.653563
O O4 0.715995 0.610269 0.763685
O O5 0.824114 0.202202 0.527143
O O6 0.722527 0.332529 0.656091
O O7 0.000237 0.374289 0.522938
O O8 0.061152 0.252112 0.663859
O O9 0.195542 0.509464 0.991991
O O10 0.267809 0.797628 0.655854
O O11 0.599112 0.778717 0.751093
O O12 0.323432 0.333163 0.030148
O O13 0.586587 0.267153 0.149640
O O14 0.466908 0.150639 0.012784
#
# Coordination Sequence:
#
# PCOD9315643 Si02
#       7
#     4   4   4   4   4   4   4
#     4  12  25  44  73 103 143 185 245 293 368 428
#     4  11  26  47  72 105 149 189 238 303 367 430
#     4  12  27  46  74 109 144 190 249 298 363 443
#     4  11  25  47  73 103 141 195 231 301 371 428
#     4  11  26  47  72 105 149 189 238 303 367 430
#     4  12  27  46  74 109 144 190 249 298 363 443
#     4  11  22  49  72 104 148 184 238 296 359 446
#
# _framework density 21.655825
#
# number of rings (size 3 to 8) (size 9 to 14) (size 15 to 20)
#    0.000    0.571    2.857    4.286    8.000    2.286 
#    0.000    0.000    0.000    0.000    0.000    0.000 
#    0.000    0.000    0.000    0.000    0.000    0.000 
#
# Total GULP energy -156840.524260 kJ/mol
# GULP energy per Si atom -5601.447295 kJ/mol
# Density = 2.160653 g / cm^3
# Si number density = 21.655825 Si / 1000 Ang^3
#
#
#
# Elastic Constant Matrix: (Units=GPa)
#
#
# Indices 1 2 3 4 5 6 
#
# 1 82.9459 -11.6896 -2.5095 0.0000 0.0000 0.0000
# 2 -11.6896 58.1827 -30.5785 0.0000 0.0000 0.0000
# 3 -2.5095 -30.5785 45.0977 0.0000 0.0000 0.0000
# 4 0.0000 0.0000 0.0000 31.9287 0.0000 0.0000
# 5 0.0000 0.0000 0.0000 0.0000 27.1369 0.0000
# 6 0.0000 0.0000 0.0000 0.0000 0.0000 43.5169
#
#
#
# Elastic Compliance Matrix: (Units=1/GPa)
#
#
# Indices 1 2 3 4 5 6 
#
# 1 0.012818 0.004583 0.003821 0.000000 0.000000 0.000000
# 2 0.004583 0.028342 0.019472 0.000000 0.000000 0.000000
# 3 0.003821 0.019472 0.035590 0.000000 0.000000 0.000000
# 4 0.000000 0.000000 0.000000 0.031320 0.000000 0.000000
# 5 0.000000 0.000000 0.000000 0.000000 0.036850 0.000000
# 6 0.000000 0.000000 0.000000 0.000000 0.000000 0.022980
#
#
# Mechanical properties :
#
#
# Convention : Reuss Voigt Hill
#
# Bulk Modulus (GPa) = 7.54702 10.74125 9.14414
# Shear Modulus (GPa) = 31.98706 35.91676 33.95191
#
# Velocity S-wave (km/s) = 3.84743 4.07692 3.96384
# Velocity P-wave (km/s) = 4.81970 5.20888 5.01806
#
# Compressibility (1/GPa) = 0.13250258
#
# Stress axis : x y z
#
# Youngs Moduli (GPa) = 78.01784 35.28341 28.09790
#
# Poissons Ratio (x) = -0.16172 -0.10736
# Poissons Ratio (y) = -0.35758 -0.54713
# Poissons Ratio (z) = -0.29810 -0.68705
#
# Static dielectric constant tensor:
#      x y z
#    x 1.774500 0.000000 0.000000 
#    y 0.000000 1.765490 0.000000 
#    z 0.000000 0.000000 1.801060 
# 
# From -- ./inp_files/5701.got.cif
#   From: 2010.05.17/outbox.cif.g08.bks.cpg/sg19_3_cif.got.tgz:5701.got - 2010.06.03 22:46:19.
