data_PCOD9315473
_publ_section_title
;
Structure prediction by ZEFSAII (Michael W. Deem and Ramdas Pophale) SiO2 
 PCOD9315473
Probable space group: P 21 21 21
;
_chemical_formula_sum "Si O2"
_cell_formula_units_Z 32
_cell_length_a 21.900088
_cell_length_b 11.249309
_cell_length_c 5.556111
_cell_angle_alpha 90.000000
_cell_angle_beta 90.000000
_cell_angle_gamma 90.000000
_cell_volume 1368.808268
_symmetry_space_group_name_H-M "P 21 21 21"
_symmetry_group_IT_number 19
_symmetry_cell_setting 'orthorhombic'
loop_
_space_group_symop_operation_xyz
x,y,z
1/2-x,-y,1/2+z
1/2+x,1/2-y,-z
-x,1/2+y,1/2-z
loop_
_atom_site_type_symbol
_atom_site_label
_atom_site_fract_x
_atom_site_fract_y
_atom_site_fract_z
Si Si1 0.931946 0.088909 0.111367
Si Si2 0.553153 0.320543 0.638706
Si Si3 0.385755 0.007150 0.208081
Si Si4 0.764157 0.933342 0.520540
Si Si5 0.487968 0.596636 0.181604
Si Si6 0.674285 0.728967 0.550735
Si Si7 0.603804 0.132739 0.929386
Si Si8 0.239393 0.063268 0.705458
O O1 0.885514 0.196437 0.111446
O O2 0.995889 0.130376 0.216956
O O3 0.902836 0.980692 0.258230
O O4 0.948678 0.023645 0.862526
O O5 0.579428 0.430569 0.491865
O O6 0.528923 0.209185 0.481710
O O7 0.606041 0.258073 0.793341
O O8 0.441995 0.059873 0.359475
O O9 0.331134 0.919547 0.286995
O O10 0.349297 0.122536 0.116266
O O11 0.722110 0.822153 0.443125
O O12 0.833663 0.891287 0.569211
O O13 0.760287 0.015797 0.278417
O O14 0.461823 0.637419 0.437191
O O15 0.712551 0.669793 0.767086
O O16 0.239439 0.024698 0.424889
#
# Coordination Sequence:
#
# PCOD9315473 Si02
#       8
#     4   4   4   4   4   4   4   4
#     4  11  24  47  72 111 143 193 256 308 383 464
#     4  11  27  43  72 110 145 194 247 313 394 448
#     4  11  26  46  75 111 145 197 254 319 382 473
#     4  12  28  48  76 111 150 205 259 316 379 460
#     4  11  26  45  74 109 150 198 248 319 390 451
#     4  11  26  47  76 108 154 199 257 318 388 458
#     4  11  25  47  73 101 153 191 248 318 376 460
#     4  10  26  49  72 109 150 201 253 309 386 462
#
# _framework density 23.378
#
# number of rings (size 3 to 8) (size 9 to 14) (size 15 to 20)
#    0.000    1.000    2.500    1.500   10.500    8.000 
#    2.250    0.000    0.000    0.000    0.000    0.000 
#    0.000    0.000    0.000    0.000    0.000    0.000 
#
# Total GULP energy -178495.836584 kJ/mol
# GULP energy per Si atom -5577.994893 kJ/mol
# Density = 2.332479 g / cm^3
# Si number density = 23.378000 Si / 1000 Ang^3
#
#
#
# Elastic Constant Matrix: (Units=GPa)
#
#
# Indices 1 2 3 4 5 6 
#
# 1 111.2132 17.4444 -7.7345 0.0000 0.0000 0.0000
# 2 17.4444 96.0816 9.9619 0.0000 0.0000 0.0000
# 3 -7.7345 9.9619 27.4626 0.0000 0.0000 0.0000
# 4 0.0000 0.0000 0.0000 26.4663 0.0000 0.0000
# 5 0.0000 0.0000 0.0000 0.0000 26.4256 0.0000
# 6 0.0000 0.0000 0.0000 0.0000 0.0000 44.9763
#
#
#
# Elastic Compliance Matrix: (Units=1/GPa)
#
#
# Indices 1 2 3 4 5 6 
#
# 1 0.009560 -0.002094 0.003452 0.000000 0.000000 0.000000
# 2 -0.002094 0.011273 -0.004679 0.000000 0.000000 0.000000
# 3 0.003452 -0.004679 0.039083 0.000000 0.000000 0.000000
# 4 0.000000 0.000000 0.000000 0.037784 0.000000 0.000000
# 5 0.000000 0.000000 0.000000 0.000000 0.037842 0.000000
# 6 0.000000 0.000000 0.000000 0.000000 0.000000 0.022234
#
#
# Mechanical properties :
#
#
# Convention : Reuss Voigt Hill
#
# Bulk Modulus (GPa) = 18.77060 30.45566 24.61313
# Shear Modulus (GPa) = 27.44613 33.91270 30.67941
#
# Velocity S-wave (km/s) = 3.43011 3.81284 3.62653
# Velocity P-wave (km/s) = 4.87177 5.69556 5.29970
#
# Compressibility (1/GPa) = 0.05327480
#
# Stress axis : x y z
#
# Youngs Moduli (GPa) = 104.60023 88.70714 25.58683
#
# Poissons Ratio (x) = 0.18572 -0.08833
# Poissons Ratio (y) = 0.21900 0.11972
# Poissons Ratio (z) = -0.36108 0.41505
#
# Static dielectric constant tensor:
#      x y z
#    x 1.919580 0.000000 0.000000 
#    y 0.000000 1.916230 0.000000 
#    z 0.000000 0.000000 1.986090 
# 
# From -- ./inp_files/2028.got.cif
#   From: 2010.05.17/outbox.cif.g08.bks.cpg/sg19_2_cif.got.tgz:2028.got - 2010.06.03 22:46:19.
