data_PCOD9315357
_publ_section_title
;
Structure prediction by ZEFSAII (Michael W. Deem and Ramdas Pophale) SiO2 
 PCOD9315357
Probable space group: P 21 21 21
;
_chemical_formula_sum "Si O2"
_cell_formula_units_Z 16
_cell_length_a 5.759546
_cell_length_b 4.982952
_cell_length_c 19.871879
_cell_angle_alpha 90.000000
_cell_angle_beta 90.000000
_cell_angle_gamma 90.000000
_cell_volume 570.313811
_symmetry_space_group_name_H-M "P 21 21 21"
_symmetry_group_IT_number 19
_symmetry_cell_setting 'orthorhombic'
loop_
_space_group_symop_operation_xyz
x,y,z
1/2-x,-y,1/2+z
1/2+x,1/2-y,-z
-x,1/2+y,1/2-z
loop_
_atom_site_type_symbol
_atom_site_label
_atom_site_fract_x
_atom_site_fract_y
_atom_site_fract_z
Si Si1 0.367184 0.617288 0.519030
Si Si2 0.364701 0.281323 0.396328
Si Si3 0.873155 0.213462 0.853716
Si Si4 0.878338 0.944055 0.228657
O O1 0.622454 0.735731 0.502237
O O2 0.346483 0.345847 0.475018
O O3 0.337785 0.610835 0.599277
O O4 0.569536 0.479372 0.369732
O O5 0.157758 0.384075 0.349336
O O6 0.420391 0.977226 0.379326
O O7 0.828603 0.160982 0.775944
O O8 0.083071 0.753667 0.255594
#
# Coordination Sequence:
#
# PCOD9315357 Si02
#       4
#     4   4   4   4
#     4  10  24  46  72 104 142 184 232 286 346 412
#     4  11  24  43  67  96 136 182 231 285 346 413
#     4  11  24  43  67  96 136 182 231 285 346 413
#     4  12  24  40  66  98 136 180 232 288 348 414
#
# _framework density 28.054732000000001
#
# number of rings (size 3 to 8) (size 9 to 14) (size 15 to 20)
#    0.000    1.000    0.000    6.000    0.000   14.000 
#    0.000    0.000    0.000    0.000    0.000    0.000 
#    0.000    0.000    0.000    0.000    0.000    0.000 
#
# Total GULP energy -89616.424452 kJ/mol
# GULP energy per Si atom -5601.026528 kJ/mol
# Density = 2.799088 g / cm^3
# Si number density = 28.054732 Si / 1000 Ang^3
#
#
#
# Elastic Constant Matrix: (Units=GPa)
#
#
# Indices 1 2 3 4 5 6 
#
# 1 120.6100 48.6561 34.7403 0.0000 0.0000 0.0000
# 2 48.6561 87.0118 38.2544 0.0000 0.0000 0.0000
# 3 34.7403 38.2544 71.9737 0.0000 0.0000 0.0000
# 4 0.0000 0.0000 0.0000 42.4425 0.0000 0.0000
# 5 0.0000 0.0000 0.0000 0.0000 68.2787 0.0000
# 6 0.0000 0.0000 0.0000 0.0000 0.0000 53.2383
#
#
#
# Elastic Compliance Matrix: (Units=1/GPa)
#
#
# Indices 1 2 3 4 5 6 
#
# 1 0.011090 -0.005021 -0.002684 0.000000 0.000000 0.000000
# 2 -0.005021 0.017271 -0.006756 0.000000 0.000000 0.000000
# 3 -0.002684 -0.006756 0.018780 0.000000 0.000000 0.000000
# 4 0.000000 0.000000 0.000000 0.023561 0.000000 0.000000
# 5 0.000000 0.000000 0.000000 0.000000 0.014646 0.000000
# 6 0.000000 0.000000 0.000000 0.000000 0.000000 0.018783
#
#
# Mechanical properties :
#
#
# Convention : Reuss Voigt Hill
#
# Bulk Modulus (GPa) = 54.88901 58.09970 56.49436
# Shear Modulus (GPa) = 35.93842 43.32153 39.62997
#
# Velocity S-wave (km/s) = 3.58300 3.93387 3.76253
# Velocity P-wave (km/s) = 6.06009 6.43336 6.24951
#
# Compressibility (1/GPa) = 0.01821858
#
# Stress axis : x y z
#
# Youngs Moduli (GPa) = 90.17132 57.90132 53.24753
#
# Poissons Ratio (x) = 0.29075 0.14292
# Poissons Ratio (y) = 0.45279 0.35973
# Poissons Ratio (z) = 0.24202 0.39117
#
# Static dielectric constant tensor:
#      x y z
#    x 2.254850 0.000000 0.000000 
#    y 0.000000 2.069900 0.000000 
#    z 0.000000 0.000000 2.171770 
# 
# From -- ./inp_files/102.got.cif
#   From: 2010.05.17/outbox.cif.g08.bks.cpg/sg19_1_cif.got.tgz:102.got - 2010.06.03 22:46:19.
