data_PCOD9315489
_publ_section_title
;
Structure prediction by ZEFSAII (Michael W. Deem and Ramdas Pophale) SiO2 
 PCOD9315489
Probable space group: P 21 21 21
;
_chemical_formula_sum "Si O2"
_cell_formula_units_Z 16
_cell_length_a 9.964841
_cell_length_b 6.734439
_cell_length_c 9.286852
_cell_angle_alpha 90.000000
_cell_angle_beta 90.000000
_cell_angle_gamma 90.000000
_cell_volume 623.218478
_symmetry_space_group_name_H-M "P 21 21 21"
_symmetry_group_IT_number 19
_symmetry_cell_setting 'orthorhombic'
loop_
_space_group_symop_operation_xyz
x,y,z
1/2-x,-y,1/2+z
1/2+x,1/2-y,-z
-x,1/2+y,1/2-z
loop_
_atom_site_type_symbol
_atom_site_label
_atom_site_fract_x
_atom_site_fract_y
_atom_site_fract_z
Si Si1 0.812837 0.110632 0.826521
Si Si2 0.737269 0.694691 0.902000
Si Si3 0.510096 0.529487 0.407982
Si Si4 0.356345 0.929051 0.820732
O O1 0.923281 0.252221 0.902810
O O2 0.686598 0.246576 0.780502
O O3 0.767594 0.924695 0.919929
O O4 0.880500 0.012159 0.685475
O O5 0.981118 0.561180 0.069148
O O6 0.633660 0.617228 0.784264
O O7 0.736545 0.584319 0.056738
O O8 0.625744 0.396169 0.333344
#
# Coordination Sequence:
#
# PCOD9315489 Si02
#       4
#     4   4   4   4
#     4  11  18  35  62  81 110 152 190 227 272 328
#     4   9  20  35  57  82 111 145 180 233 269 334
#     4   9  19  34  54  86 106 143 197 223 262 338
#     4   9  21  34  57  85 115 140 191 229 281 326
#
# _framework density 25.673179000000001
#
# number of rings (size 3 to 8) (size 9 to 14) (size 15 to 20)
#    1.500    1.000    2.500    0.000    3.500    0.000 
#    0.000    0.000   11.000    0.000    0.000    0.000 
#    0.000    0.000    0.000    0.000    0.000    0.000 
#
# Total GULP energy -89084.713618 kJ/mol
# GULP energy per Si atom -5567.794601 kJ/mol
# Density = 2.561475 g / cm^3
# Si number density = 25.673179 Si / 1000 Ang^3
#
#
#
# Elastic Constant Matrix: (Units=GPa)
#
#
# Indices 1 2 3 4 5 6 
#
# 1 53.2833 20.3207 11.3070 0.0000 0.0000 0.0000
# 2 20.3207 166.8816 59.1433 0.0000 0.0000 0.0000
# 3 11.3070 59.1433 103.9702 0.0000 0.0000 0.0000
# 4 0.0000 0.0000 0.0000 24.8799 0.0000 0.0000
# 5 0.0000 0.0000 0.0000 0.0000 38.8379 0.0000
# 6 0.0000 0.0000 0.0000 0.0000 0.0000 10.7692
#
#
#
# Elastic Compliance Matrix: (Units=1/GPa)
#
#
# Indices 1 2 3 4 5 6 
#
# 1 0.019761 -0.002060 -0.000977 0.000000 0.000000 0.000000
# 2 -0.002060 0.007720 -0.004168 0.000000 0.000000 0.000000
# 3 -0.000977 -0.004168 0.012095 0.000000 0.000000 0.000000
# 4 0.000000 0.000000 0.000000 0.040193 0.000000 0.000000
# 5 0.000000 0.000000 0.000000 0.000000 0.025748 0.000000
# 6 0.000000 0.000000 0.000000 0.000000 0.000000 0.092857
#
#
# Mechanical properties :
#
#
# Convention : Reuss Voigt Hill
#
# Bulk Modulus (GPa) = 39.73541 56.18632 47.96087
# Shear Modulus (GPa) = 22.60683 30.45503 26.53093
#
# Velocity S-wave (km/s) = 2.97065 3.44795 3.21816
# Velocity P-wave (km/s) = 5.22277 6.14686 5.70356
#
# Compressibility (1/GPa) = 0.02516647
#
# Stress axis : x y z
#
# Youngs Moduli (GPa) = 50.60584 129.53231 82.67803
#
# Poissons Ratio (x) = 0.26682 0.08080
# Poissons Ratio (y) = 0.10424 0.34456
# Poissons Ratio (z) = 0.04946 0.53983
#
# Static dielectric constant tensor:
#      x y z
#    x 2.154070 0.000000 0.000000 
#    y 0.000000 2.047630 0.000000 
#    z 0.000000 0.000000 1.992830 
# 
# From -- ./inp_files/296.got.cif
#   From: 2010.05.17/outbox.cif.g08.bks.cpg/sg19_1_cif.got.tgz:296.got - 2010.06.03 22:46:19.
