data_PCOD9315097
_publ_section_title
;
Structure prediction by ZEFSAII (Michael W. Deem and Ramdas Pophale) SiO2 
 PCOD9315097
Probable space group: P 21 21 21
;
_chemical_formula_sum "Si O2"
_cell_formula_units_Z 28
_cell_length_a 5.237212
_cell_length_b 10.245121
_cell_length_c 20.992297
_cell_angle_alpha 90.000000
_cell_angle_beta 90.000000
_cell_angle_gamma 90.000000
_cell_volume 1126.359972
_symmetry_space_group_name_H-M "P 21 21 21"
_symmetry_group_IT_number 19
_symmetry_cell_setting 'orthorhombic'
loop_
_space_group_symop_operation_xyz
x,y,z
1/2-x,-y,1/2+z
1/2+x,1/2-y,-z
-x,1/2+y,1/2-z
loop_
_atom_site_type_symbol
_atom_site_label
_atom_site_fract_x
_atom_site_fract_y
_atom_site_fract_z
Si Si1 0.452769 0.444074 0.719726
Si Si2 0.071910 0.934740 0.531998
Si Si3 0.953114 0.286050 0.677642
Si Si4 0.626534 0.834007 0.301862
Si Si5 0.203816 0.186490 0.915181
Si Si6 0.098309 0.106877 0.142583
Si Si7 0.164542 0.697652 0.965526
O O1 0.704878 0.371502 0.696508
O O2 0.392342 0.589522 0.696568
O O3 0.454285 0.451738 0.796919
O O4 0.211457 0.364488 0.692266
O O5 0.197225 0.922278 0.463214
O O6 0.271487 0.976360 0.587153
O O7 0.985474 0.786540 0.547846
O O8 0.848286 0.040017 0.531858
O O9 0.968173 0.168079 0.729610
O O10 0.909497 0.240755 0.605893
O O11 0.438125 0.880957 0.356324
O O12 0.671617 0.685640 0.323533
O O13 0.421327 0.285519 0.891127
O O14 0.936042 0.748605 0.011234
#
# Coordination Sequence:
#
# PCOD9315097 Si02
#       7
#     4   4   4   4   4   4   4
#     4  11  25  44  75 105 150 195 246 315 371 450
#     4  11  26  44  77 104 154 196 251 318 366 456
#     4  11  26  48  69 110 149 196 250 305 381 448
#     4  10  25  42  75 106 145 193 248 314 378 445
#     4  11  22  45  71 112 143 193 252 311 385 431
#     4  10  23  43  67 111 143 192 251 303 383 439
#     4  12  31  52  76 110 154 211 258 302 380 465
#
# _framework density 24.858837999999999
#
# number of rings (size 3 to 8) (size 9 to 14) (size 15 to 20)
#    0.000    1.143    2.857    0.857    8.000    3.429 
#    0.000    0.000    0.000    0.000    0.000    0.000 
#    0.000    0.000    0.000    0.000    0.000    0.000 
#
# Total GULP energy -156727.075387 kJ/mol
# GULP energy per Si atom -5597.395550 kJ/mol
# Density = 2.480226 g / cm^3
# Si number density = 24.858838 Si / 1000 Ang^3
#
#
#
# Elastic Constant Matrix: (Units=GPa)
#
#
# Indices 1 2 3 4 5 6 
#
# 1 86.4878 7.1586 20.1351 0.0000 0.0000 0.0000
# 2 7.1586 54.9153 16.2574 0.0000 0.0000 0.0000
# 3 20.1351 16.2574 125.3994 0.0000 0.0000 0.0000
# 4 0.0000 0.0000 0.0000 -6.7020 0.0000 0.0000
# 5 0.0000 0.0000 0.0000 0.0000 38.2100 0.0000
# 6 0.0000 0.0000 0.0000 0.0000 0.0000 40.9488
#
#
#
# Elastic Compliance Matrix: (Units=1/GPa)
#
#
# Indices 1 2 3 4 5 6 
#
# 1 0.012068 -0.001039 -0.001803 0.000000 0.000000 0.000000
# 2 -0.001039 0.019026 -0.002300 0.000000 0.000000 0.000000
# 3 -0.001803 -0.002300 0.008562 0.000000 0.000000 0.000000
# 4 0.000000 0.000000 0.000000 -0.149209 0.000000 0.000000
# 5 0.000000 0.000000 0.000000 0.000000 0.026171 0.000000
# 6 0.000000 0.000000 0.000000 0.000000 0.000000 0.024421
#
#
# Mechanical properties :
#
#
# Convention : Reuss Voigt Hill
#
# Bulk Modulus (GPa) = 34.04581 39.32274 36.68427
# Shear Modulus (GPa) = -128.58141 29.37480 -49.60331
#
# Velocity S-wave (km/s) = -7.19979 3.44126 -4.47184
# Velocity P-wave (km/s) = 7.44248 5.62516 3.44587
#
# Compressibility (1/GPa) = 0.02937219
#
# Stress axis : x y z
#
# Youngs Moduli (GPa) = 82.86304 52.55911 116.79280
#
# Poissons Ratio (x) = 0.05463 0.21058
# Poissons Ratio (y) = 0.08613 0.26859
# Poissons Ratio (z) = 0.14940 0.12087
#
# Static dielectric constant tensor:
#      x y z
#    x 1.975830 0.000000 0.000000 
#    y 0.000000 1.979060 0.000000 
#    z 0.000000 0.000000 1.999730 
# 
# From -- ./inp_files/6894.got.cif
#   From: 2010.05.17/outbox.cif.g08.bks.cpg/sg19_4_cif.got.tgz:6894.got - 2010.06.03 22:46:19.
