data_PCOD9315534
_publ_section_title
;
Structure prediction by ZEFSAII (Michael W. Deem and Ramdas Pophale) SiO2 
 PCOD9315534
Probable space group: P 21 21 21
;
_chemical_formula_sum "Si O2"
_cell_formula_units_Z 32
_cell_length_a 5.785381
_cell_length_b 13.559639
_cell_length_c 19.668315
_cell_angle_alpha 90.000000
_cell_angle_beta 90.000000
_cell_angle_gamma 90.000000
_cell_volume 1542.933639
_symmetry_space_group_name_H-M "P 21 21 21"
_symmetry_group_IT_number 19
_symmetry_cell_setting 'orthorhombic'
loop_
_space_group_symop_operation_xyz
x,y,z
1/2-x,-y,1/2+z
1/2+x,1/2-y,-z
-x,1/2+y,1/2-z
loop_
_atom_site_type_symbol
_atom_site_label
_atom_site_fract_x
_atom_site_fract_y
_atom_site_fract_z
Si Si1 0.933031 0.594121 0.773828
Si Si2 0.073770 0.324385 0.702064
Si Si3 0.957103 0.356012 0.171981
Si Si4 0.323843 0.709191 0.426522
Si Si5 0.661504 0.988141 0.362337
Si Si6 0.415783 0.836876 0.729450
Si Si7 0.036346 0.101401 0.996235
Si Si8 0.812118 0.438831 0.881874
O O1 0.958420 0.706731 0.799487
O O2 0.691194 0.596707 0.732191
O O3 0.933541 0.524692 0.839812
O O4 0.095115 0.550423 0.713765
O O5 0.125802 0.394825 0.637924
O O6 0.323006 0.340131 0.740965
O O7 0.820617 0.361646 0.729157
O O8 0.811048 0.282229 0.124100
O O9 0.084751 0.440879 0.130051
O O10 0.123563 0.275850 0.206456
O O11 0.392835 0.784035 0.486465
O O12 0.195589 0.616568 0.460366
O O13 0.533322 0.659814 0.386115
O O14 0.510307 0.942318 0.422453
O O15 0.405285 0.907864 0.664647
O O16 0.220610 0.044191 0.042176
#
# Coordination Sequence:
#
# PCOD9315534 Si02
#       8
#     4   4   4   4   4   4   4   4
#     4  11  24  42  67  99 136 179 242 289 357 422
#     4  11  25  43  67 100 138 184 228 298 346 421
#     4  11  22  39  66 101 137 174 229 295 354 427
#     4  12  23  41  65  98 142 177 227 289 362 423
#     4  12  24  39  68  97 141 179 236 289 365 417
#     4  11  21  40  67 100 136 170 228 286 356 409
#     4  12  25  38  63  99 136 181 227 285 356 435
#     4  12  24  40  67 100 138 184 227 293 360 432
#
# _framework density 20.739712999999998
#
# number of rings (size 3 to 8) (size 9 to 14) (size 15 to 20)
#    0.000    0.500    6.250    3.750    0.000    1.000 
#    0.000    0.000    2.750    0.000    0.000    0.000 
#    0.000    0.000    0.000    0.000    0.000    0.000 
#
# Total GULP energy -178284.869181 kJ/mol
# GULP energy per Si atom -5571.402162 kJ/mol
# Density = 2.069251 g / cm^3
# Si number density = 20.739713 Si / 1000 Ang^3
#
#
#
# Elastic Constant Matrix: (Units=GPa)
#
#
# Indices 1 2 3 4 5 6 
#
# 1 57.1813 21.6887 19.1989 0.0000 0.0000 0.0000
# 2 21.6887 84.7831 46.3304 0.0000 0.0000 0.0000
# 3 19.1989 46.3304 76.6803 0.0000 0.0000 0.0000
# 4 0.0000 0.0000 0.0000 38.3988 0.0000 0.0000
# 5 0.0000 0.0000 0.0000 0.0000 15.8098 0.0000
# 6 0.0000 0.0000 0.0000 0.0000 0.0000 24.1744
#
#
#
# Elastic Compliance Matrix: (Units=1/GPa)
#
#
# Indices 1 2 3 4 5 6 
#
# 1 0.019770 -0.003512 -0.002828 0.000000 0.000000 0.000000
# 2 -0.003512 0.018233 -0.010137 0.000000 0.000000 0.000000
# 3 -0.002828 -0.010137 0.019874 0.000000 0.000000 0.000000
# 4 0.000000 0.000000 0.000000 0.026042 0.000000 0.000000
# 5 0.000000 0.000000 0.000000 0.000000 0.063252 0.000000
# 6 0.000000 0.000000 0.000000 0.000000 0.000000 0.041366
#
#
# Mechanical properties :
#
#
# Convention : Reuss Voigt Hill
#
# Bulk Modulus (GPa) = 40.12402 43.67562 41.89982
# Shear Modulus (GPa) = 21.75827 24.43840 23.09833
#
# Velocity S-wave (km/s) = 3.24251 3.43642 3.34087
# Velocity P-wave (km/s) = 5.77988 6.07041 5.92693
#
# Compressibility (1/GPa) = 0.02492273
#
# Stress axis : x y z
#
# Youngs Moduli (GPa) = 50.58219 54.84685 50.31730
#
# Poissons Ratio (x) = 0.19263 0.14229
# Poissons Ratio (y) = 0.17765 0.51006
# Poissons Ratio (z) = 0.14304 0.55597
#
# Static dielectric constant tensor:
#      x y z
#    x 1.880110 0.000000 0.000000 
#    y 0.000000 1.758430 0.000000 
#    z 0.000000 0.000000 1.790600 
# 
# From -- ./inp_files/6459.got.cif
#   From: 2010.05.17/outbox.cif.g08.bks.cpg/sg19_4_cif.got.tgz:6459.got - 2010.06.03 22:46:19.
