data_PCOD9315266
_publ_section_title
;
Structure prediction by ZEFSAII (Michael W. Deem and Ramdas Pophale) SiO2 
 PCOD9315266
Probable space group: P 21 21 21
;
_chemical_formula_sum "Si O2"
_cell_formula_units_Z 28
_cell_length_a 9.409303
_cell_length_b 7.482337
_cell_length_c 16.292047
_cell_angle_alpha 90.000000
_cell_angle_beta 90.000000
_cell_angle_gamma 90.000000
_cell_volume 1147.018369
_symmetry_space_group_name_H-M "P 21 21 21"
_symmetry_group_IT_number 19
_symmetry_cell_setting 'orthorhombic'
loop_
_space_group_symop_operation_xyz
x,y,z
1/2-x,-y,1/2+z
1/2+x,1/2-y,-z
-x,1/2+y,1/2-z
loop_
_atom_site_type_symbol
_atom_site_label
_atom_site_fract_x
_atom_site_fract_y
_atom_site_fract_z
Si Si1 0.202013 0.333312 0.676788
Si Si2 0.138583 0.603389 0.005966
Si Si3 0.674755 0.322725 0.729469
Si Si4 0.412429 0.418724 0.811935
Si Si5 0.704283 0.258267 0.069645
Si Si6 0.940110 0.552695 0.726639
Si Si7 0.666950 0.389995 0.555654
O O1 0.268819 0.369986 0.588628
O O2 0.334265 0.311624 0.738411
O O3 0.100935 0.162574 0.691735
O O4 0.099603 0.491481 0.709218
O O5 0.977899 0.669041 0.014516
O O6 0.129373 0.395931 0.981921
O O7 0.219977 0.730801 0.942706
O O8 0.579435 0.385344 0.805445
O O9 0.631401 0.121452 0.707762
O O10 0.838381 0.378646 0.735255
O O11 0.625164 0.435733 0.649357
O O12 0.341281 0.345411 0.893868
O O13 0.611599 0.331615 0.146983
O O14 0.757026 0.433422 0.021621
#
# Coordination Sequence:
#
# PCOD9315266 Si02
#       7
#     4   4   4   4   4   4   4
#     4  11  24  43  65 103 132 181 231 279 344 420
#     4  12  27  44  70 102 144 181 234 288 353 419
#     4  11  21  42  68  98 129 174 225 285 330 408
#     4  11  21  42  72  95 132 172 233 278 332 404
#     4  10  25  46  70  98 137 183 229 286 350 404
#     4  10  24  42  68  95 140 179 226 281 354 403
#     4  11  26  45  67 101 136 186 228 281 353 410
#
# _framework density 24.411116
#
# number of rings (size 3 to 8) (size 9 to 14) (size 15 to 20)
#    0.000    1.143    2.857    3.429    6.000    2.286 
#    2.571    0.000    0.000    0.000    0.000    0.000 
#    0.000    0.000    0.000    0.000    0.000    0.000 
#
# Total GULP energy -156541.544008 kJ/mol
# GULP energy per Si atom -5590.769429 kJ/mol
# Density = 2.435556 g / cm^3
# Si number density = 24.411116 Si / 1000 Ang^3
#
#
#
# Elastic Constant Matrix: (Units=GPa)
#
#
# Indices 1 2 3 4 5 6 
#
# 1 110.4333 13.6365 3.0334 0.0000 0.0000 0.0000
# 2 13.6365 116.9932 -11.4726 0.0000 0.0000 0.0000
# 3 3.0334 -11.4726 30.9569 0.0000 0.0000 0.0000
# 4 0.0000 0.0000 0.0000 25.1625 0.0000 0.0000
# 5 0.0000 0.0000 0.0000 0.0000 19.3447 0.0000
# 6 0.0000 0.0000 0.0000 0.0000 0.0000 34.3228
#
#
#
# Elastic Compliance Matrix: (Units=1/GPa)
#
#
# Indices 1 2 3 4 5 6 
#
# 1 0.009242 -0.001210 -0.001354 0.000000 0.000000 0.000000
# 2 -0.001210 0.009028 0.003464 0.000000 0.000000 0.000000
# 3 -0.001354 0.003464 0.033720 0.000000 0.000000 0.000000
# 4 0.000000 0.000000 0.000000 0.039742 0.000000 0.000000
# 5 0.000000 0.000000 0.000000 0.000000 0.051694 0.000000
# 6 0.000000 0.000000 0.000000 0.000000 0.000000 0.029135
#
#
# Mechanical properties :
#
#
# Convention : Reuss Voigt Hill
#
# Bulk Modulus (GPa) = 18.59064 29.86423 24.22743
# Shear Modulus (GPa) = 26.49855 32.64507 29.57181
#
# Velocity S-wave (km/s) = 3.29828 3.66088 3.48430
# Velocity P-wave (km/s) = 4.70501 5.48907 5.11209
#
# Compressibility (1/GPa) = 0.05379052
#
# Stress axis : x y z
#
# Youngs Moduli (GPa) = 108.20351 110.76322 29.65640
#
# Poissons Ratio (x) = 0.13402 0.04015
# Poissons Ratio (y) = 0.13093 -0.10274
# Poissons Ratio (z) = 0.14651 -0.38373
#
# Static dielectric constant tensor:
#      x y z
#    x 1.921770 0.000000 0.000000 
#    y 0.000000 1.992740 0.000000 
#    z 0.000000 0.000000 1.944540 
# 
# From -- ./inp_files/6585.got.cif
#   From: 2010.05.17/outbox.cif.g08.bks.cpg/sg19_4_cif.got.tgz:6585.got - 2010.06.03 22:46:19.
