data_PCOD9315925
_publ_section_title
;
Structure prediction by ZEFSAII (Michael W. Deem and Ramdas Pophale) SiO2 
 PCOD9315925
Probable space group: P 21 21 21
;
_chemical_formula_sum "Si O2"
_cell_formula_units_Z 20
_cell_length_a 11.192308
_cell_length_b 9.359751
_cell_length_c 7.049397
_cell_angle_alpha 90.000000
_cell_angle_beta 90.000000
_cell_angle_gamma 90.000000
_cell_volume 738.475204
_symmetry_space_group_name_H-M "P 21 21 21"
_symmetry_group_IT_number 19
_symmetry_cell_setting 'orthorhombic'
loop_
_space_group_symop_operation_xyz
x,y,z
1/2-x,-y,1/2+z
1/2+x,1/2-y,-z
-x,1/2+y,1/2-z
loop_
_atom_site_type_symbol
_atom_site_label
_atom_site_fract_x
_atom_site_fract_y
_atom_site_fract_z
Si Si1 0.884163 0.323001 0.346169
Si Si2 0.738073 0.201828 0.774774
Si Si3 0.572746 0.418760 0.615073
Si Si4 0.296373 0.610354 0.159245
Si Si5 0.426331 0.087813 0.245397
O O1 0.952980 0.426835 0.204875
O O2 0.775748 0.239727 0.241405
O O3 0.870600 0.412764 0.541993
O O4 0.964230 0.188701 0.407347
O O5 0.653903 0.341425 0.777040
O O6 0.709058 0.167666 0.554073
O O7 0.869293 0.262461 0.822744
O O8 0.732848 0.043601 0.857417
O O9 0.610934 0.463820 0.401189
O O10 0.430356 0.591540 0.234826
#
# Coordination Sequence:
#
# PCOD9315925 Si02
#       5
#     4   4   4   4   4
#     4  11  27  49  79 115 156 203 261 325 378 478
#     4  11  27  47  78 113 151 205 259 318 387 468
#     4  12  27  51  77 119 154 205 263 320 398 458
#     4  11  25  50  73 113 156 202 260 316 393 457
#     4  11  26  49  77 108 157 203 253 317 392 461
#
# _framework density 27.082830999999999
#
# number of rings (size 3 to 8) (size 9 to 14) (size 15 to 20)
#    0.000    0.800    2.000    3.600    8.400    1.600 
#    3.600    0.000    0.000    0.000    0.000    0.000 
#    0.000    0.000    0.000    0.000    0.000    0.000 
#
# Total GULP energy -111634.516879 kJ/mol
# GULP energy per Si atom -5581.725844 kJ/mol
# Density = 2.702119 g / cm^3
# Si number density = 27.082831 Si / 1000 Ang^3
#
#
#
# Elastic Constant Matrix: (Units=GPa)
#
#
# Indices 1 2 3 4 5 6 
#
# 1 125.3894 69.6279 17.7608 0.0000 0.0000 0.0000
# 2 69.6279 194.9282 61.0253 0.0000 0.0000 0.0000
# 3 17.7608 61.0253 61.4835 0.0000 0.0000 0.0000
# 4 0.0000 0.0000 0.0000 64.0735 0.0000 0.0000
# 5 0.0000 0.0000 0.0000 0.0000 22.7568 0.0000
# 6 0.0000 0.0000 0.0000 0.0000 0.0000 56.9622
#
#
#
# Elastic Compliance Matrix: (Units=1/GPa)
#
#
# Indices 1 2 3 4 5 6 
#
# 1 0.009987 -0.003865 0.000951 0.000000 0.000000 0.000000
# 2 -0.003865 0.008939 -0.007756 0.000000 0.000000 0.000000
# 3 0.000951 -0.007756 0.023687 0.000000 0.000000 0.000000
# 4 0.000000 0.000000 0.000000 0.015607 0.000000 0.000000
# 5 0.000000 0.000000 0.000000 0.000000 0.043943 0.000000
# 6 0.000000 0.000000 0.000000 0.000000 0.000000 0.017556
#
#
# Mechanical properties :
#
#
# Convention : Reuss Voigt Hill
#
# Bulk Modulus (GPa) = 47.00504 75.40324 61.20414
# Shear Modulus (GPa) = 33.75001 44.31763 39.03382
#
# Velocity S-wave (km/s) = 3.53395 4.04960 3.80053
# Velocity P-wave (km/s) = 5.83485 7.05463 6.47353
#
# Compressibility (1/GPa) = 0.02127432
#
# Stress axis : x y z
#
# Youngs Moduli (GPa) = 100.13383 111.87345 42.21650
#
# Poissons Ratio (x) = 0.43240 -0.04016
# Poissons Ratio (y) = 0.38702 0.32741
# Poissons Ratio (z) = -0.09527 0.86764
#
# Static dielectric constant tensor:
#      x y z
#    x 2.275410 0.000000 0.000000 
#    y 0.000000 2.207980 0.000000 
#    z 0.000000 0.000000 2.181390 
# 
# From -- ./inp_files/4879.got.cif
#   From: 2010.05.17/outbox.cif.g08.bks.cpg/sg19_3_cif.got.tgz:4879.got - 2010.06.03 22:46:19.
