data_PCOD9315386
_publ_section_title
;
Structure prediction by ZEFSAII (Michael W. Deem and Ramdas Pophale) SiO2 
 PCOD9315386
Probable space group: P 21 21 21
;
_chemical_formula_sum "Si O2"
_cell_formula_units_Z 32
_cell_length_a 27.338336
_cell_length_b 8.138181
_cell_length_c 5.917468
_cell_angle_alpha 90.000000
_cell_angle_beta 90.000000
_cell_angle_gamma 90.000000
_cell_volume 1316.543883
_symmetry_space_group_name_H-M "P 21 21 21"
_symmetry_group_IT_number 19
_symmetry_cell_setting 'orthorhombic'
loop_
_space_group_symop_operation_xyz
x,y,z
1/2-x,-y,1/2+z
1/2+x,1/2-y,-z
-x,1/2+y,1/2-z
loop_
_atom_site_type_symbol
_atom_site_label
_atom_site_fract_x
_atom_site_fract_y
_atom_site_fract_z
Si Si1 0.851804 0.036000 0.379486
Si Si2 0.684123 0.283908 0.160463
Si Si3 0.378525 0.898329 0.954530
Si Si4 0.967982 0.621902 0.761826
Si Si5 0.856620 0.391959 0.422732
Si Si6 0.473068 0.152317 0.565830
Si Si7 0.439985 0.656132 0.622081
Si Si8 0.233849 0.572074 0.404891
O O1 0.838539 0.211516 0.488960
O O2 0.823356 0.049310 0.142817
O O3 0.836124 0.876189 0.524341
O O4 0.909453 0.009816 0.350905
O O5 0.660704 0.291289 0.408449
O O6 0.741767 0.251252 0.131700
O O7 0.666319 0.457462 0.060047
O O8 0.408566 0.784507 0.776455
O O9 0.350410 0.046111 0.834307
O O10 0.422566 0.962440 0.111370
O O11 0.991212 0.504086 0.578634
O O12 0.942470 0.772205 0.628559
O O13 0.008107 0.690940 0.929176
O O14 0.915576 0.375334 0.428792
O O15 0.504566 0.149042 0.792532
O O16 0.246002 0.514020 0.663742
#
# Coordination Sequence:
#
# PCOD9315386 Si02
#       8
#     4   4   4   4   4   4   4   4
#     4  11  24  47  71 110 139 187 253 297 366 453
#     4  11  23  49  74  97 151 188 230 306 379 446
#     4  11  20  43  68  90 136 189 223 297 373 424
#     4  11  24  41  61  94 132 185 235 289 365 431
#     4  12  26  44  69 107 143 188 244 303 370 444
#     4  11  26  38  64  94 134 188 237 294 357 433
#     4  11  23  40  67  88 136 188 235 294 355 424
#     4  10  24  48  82 112 147 197 247 306 383 455
#
# _framework density 24.306062000000001
#
# number of rings (size 3 to 8) (size 9 to 14) (size 15 to 20)
#    0.000    1.000    5.000    0.750    7.000    0.000 
#    9.000    0.000    0.000    0.000    0.000    0.000 
#    0.000    0.000    0.000    0.000    0.000    0.000 
#
# Total GULP energy -178564.443883 kJ/mol
# GULP energy per Si atom -5580.138871 kJ/mol
# Density = 2.425074 g / cm^3
# Si number density = 24.306062 Si / 1000 Ang^3
#
#
#
# Elastic Constant Matrix: (Units=GPa)
#
#
# Indices 1 2 3 4 5 6 
#
# 1 52.1612 4.7967 14.0714 0.0000 0.0000 0.0000
# 2 4.7967 124.2341 17.6631 0.0000 0.0000 0.0000
# 3 14.0714 17.6631 62.1639 0.0000 0.0000 0.0000
# 4 0.0000 0.0000 0.0000 27.0633 0.0000 0.0000
# 5 0.0000 0.0000 0.0000 0.0000 32.4299 0.0000
# 6 0.0000 0.0000 0.0000 0.0000 0.0000 28.6026
#
#
#
# Elastic Compliance Matrix: (Units=1/GPa)
#
#
# Indices 1 2 3 4 5 6 
#
# 1 0.020420 -0.000137 -0.004583 0.000000 0.000000 0.000000
# 2 -0.000137 0.008389 -0.002353 0.000000 0.000000 0.000000
# 3 -0.004583 -0.002353 0.017793 0.000000 0.000000 0.000000
# 4 0.000000 0.000000 0.000000 0.036950 0.000000 0.000000
# 5 0.000000 0.000000 0.000000 0.000000 0.030836 0.000000
# 6 0.000000 0.000000 0.000000 0.000000 0.000000 0.034962
#
#
# Mechanical properties :
#
#
# Convention : Reuss Voigt Hill
#
# Bulk Modulus (GPa) = 30.81087 34.62463 32.71775
# Shear Modulus (GPa) = 28.68376 31.08768 29.88572
#
# Velocity S-wave (km/s) = 3.43900 3.58020 3.51031
# Velocity P-wave (km/s) = 5.33598 5.60060 5.46989
#
# Compressibility (1/GPa) = 0.03245608
#
# Stress axis : x y z
#
# Youngs Moduli (GPa) = 48.97066 119.20227 56.20344
#
# Poissons Ratio (x) = 0.01630 0.25761
# Poissons Ratio (y) = 0.00670 0.13223
# Poissons Ratio (z) = 0.22446 0.28045
#
# Static dielectric constant tensor:
#      x y z
#    x 2.025530 0.000000 0.000000 
#    y 0.000000 2.004340 0.000000 
#    z 0.000000 0.000000 1.985020 
# 
# From -- ./inp_files/2322.got.cif
#   From: 2010.05.17/outbox.cif.g08.bks.cpg/sg19_2_cif.got.tgz:2322.got - 2010.06.03 22:46:19.
