data_PCOD9315593
_publ_section_title
;
Structure prediction by ZEFSAII (Michael W. Deem and Ramdas Pophale) SiO2 
 PCOD9315593
Probable space group: P 21 21 21
;
_chemical_formula_sum "Si O2"
_cell_formula_units_Z 32
_cell_length_a 7.673209
_cell_length_b 14.355428
_cell_length_c 13.116373
_cell_angle_alpha 90.000000
_cell_angle_beta 90.000000
_cell_angle_gamma 90.000000
_cell_volume 1444.797333
_symmetry_space_group_name_H-M "P 21 21 21"
_symmetry_group_IT_number 19
_symmetry_cell_setting 'orthorhombic'
loop_
_space_group_symop_operation_xyz
x,y,z
1/2-x,-y,1/2+z
1/2+x,1/2-y,-z
-x,1/2+y,1/2-z
loop_
_atom_site_type_symbol
_atom_site_label
_atom_site_fract_x
_atom_site_fract_y
_atom_site_fract_z
Si Si1 0.093179 0.823310 0.240538
Si Si2 0.997060 0.014181 0.176503
Si Si3 0.333783 0.375117 0.651123
Si Si4 0.015122 0.934993 0.734011
Si Si5 0.218241 0.354546 0.099102
Si Si6 0.874320 0.589738 0.630902
Si Si7 0.743741 0.350811 0.923300
Si Si8 0.155852 0.519598 0.951508
O O1 0.104855 0.919107 0.176363
O O2 0.098401 0.727095 0.179807
O O3 0.265523 0.831492 0.309973
O O4 0.913561 0.835474 0.306183
O O5 0.080671 0.109785 0.138932
O O6 0.935116 0.042346 0.289261
O O7 0.843083 0.991576 0.099552
O O8 0.141923 0.391133 0.700936
O O9 0.347209 0.395944 0.531000
O O10 0.962664 0.013318 0.649040
O O11 0.104532 0.860786 0.659799
O O12 0.135747 0.990107 0.813054
O O13 0.417315 0.387717 0.123552
O O14 0.232095 0.255226 0.044025
O O15 0.135007 0.428301 0.021971
O O16 0.774682 0.585895 0.523182
#
# Coordination Sequence:
#
# PCOD9315593 Si02
#       8
#     4   4   4   4   4   4   4   4
#     4  12  25  44  72 101 138 188 234 288 354 428
#     4  11  22  43  66  99 140 178 231 287 348 415
#     4  11  23  45  70  99 139 186 236 293 352 416
#     4  11  24  45  70 101 142 189 233 293 362 421
#     4  12  24  42  69 109 135 178 240 296 357 409
#     4  12  26  45  70 104 144 178 233 303 348 423
#     4  12  25  39  69 103 137 178 231 292 353 416
#     4  11  23  43  72  94 141 191 226 290 356 418
#
# _framework density 22.148436
#
# number of rings (size 3 to 8) (size 9 to 14) (size 15 to 20)
#    0.000    0.500    6.250    2.250    7.000    0.000 
#    2.250    0.000    0.000    0.000    0.000    0.000 
#    0.000    0.000    0.000    0.000    0.000    0.000 
#
# Total GULP energy -178509.118678 kJ/mol
# GULP energy per Si atom -5578.409959 kJ/mol
# Density = 2.209802 g / cm^3
# Si number density = 22.148436 Si / 1000 Ang^3
#
#
#
# Elastic Constant Matrix: (Units=GPa)
#
#
# Indices 1 2 3 4 5 6 
#
# 1 62.8824 0.7891 -2.6767 0.0000 0.0000 0.0000
# 2 0.7891 76.6514 -10.5651 0.0000 0.0000 0.0000
# 3 -2.6767 -10.5651 39.1349 0.0000 0.0000 0.0000
# 4 0.0000 0.0000 0.0000 21.9735 0.0000 0.0000
# 5 0.0000 0.0000 0.0000 0.0000 21.5339 0.0000
# 6 0.0000 0.0000 0.0000 0.0000 0.0000 24.6535
#
#
#
# Elastic Compliance Matrix: (Units=1/GPa)
#
#
# Indices 1 2 3 4 5 6 
#
# 1 0.015949 -0.000014 0.001087 0.000000 0.000000 0.000000
# 2 -0.000014 0.013550 0.003657 0.000000 0.000000 0.000000
# 3 0.001087 0.003657 0.026614 0.000000 0.000000 0.000000
# 4 0.000000 0.000000 0.000000 0.045509 0.000000 0.000000
# 5 0.000000 0.000000 0.000000 0.000000 0.046438 0.000000
# 6 0.000000 0.000000 0.000000 0.000000 0.000000 0.040562
#
#
# Mechanical properties :
#
#
# Convention : Reuss Voigt Hill
#
# Bulk Modulus (GPa) = 15.25012 17.08481 16.16747
# Shear Modulus (GPa) = 24.87292 26.37362 25.62327
#
# Velocity S-wave (km/s) = 3.35477 3.45449 3.40500
# Velocity P-wave (km/s) = 4.68042 4.86229 4.77222
#
# Compressibility (1/GPa) = 0.06557326
#
# Stress axis : x y z
#
# Youngs Moduli (GPa) = 62.69929 73.79915 37.57381
#
# Poissons Ratio (x) = 0.00106 -0.04084
# Poissons Ratio (y) = 0.00090 -0.13741
# Poissons Ratio (z) = -0.06815 -0.26989
#
# Static dielectric constant tensor:
#      x y z
#    x 1.980830 0.000000 0.000000 
#    y 0.000000 1.788710 0.000000 
#    z 0.000000 0.000000 1.855240 
# 
# From -- ./inp_files/4702.got.cif
#   From: 2010.05.17/outbox.cif.g08.bks.cpg/sg19_3_cif.got.tgz:4702.got - 2010.06.03 22:46:19.
