data_PCOD9315319
_publ_section_title
;
Structure prediction by ZEFSAII (Michael W. Deem and Ramdas Pophale) SiO2 
 PCOD9315319
Probable space group: P 21 21 21
;
_chemical_formula_sum "Si O2"
_cell_formula_units_Z 28
_cell_length_a 11.453511
_cell_length_b 19.222123
_cell_length_c 6.452382
_cell_angle_alpha 90.000000
_cell_angle_beta 90.000000
_cell_angle_gamma 90.000000
_cell_volume 1420.561565
_symmetry_space_group_name_H-M "P 21 21 21"
_symmetry_group_IT_number 19
_symmetry_cell_setting 'orthorhombic'
loop_
_space_group_symop_operation_xyz
x,y,z
1/2-x,-y,1/2+z
1/2+x,1/2-y,-z
-x,1/2+y,1/2-z
loop_
_atom_site_type_symbol
_atom_site_label
_atom_site_fract_x
_atom_site_fract_y
_atom_site_fract_z
Si Si1 0.636505 0.581599 0.006201
Si Si2 0.637203 0.080594 0.515886
Si Si3 0.699826 0.324088 0.788955
Si Si4 0.199873 0.676189 0.701871
Si Si5 0.825229 0.574304 0.671126
Si Si6 0.826114 0.075438 0.180974
Si Si7 0.500367 0.359411 0.494760
O O1 0.702426 0.635383 0.155797
O O2 0.657626 0.504034 0.094367
O O3 0.499527 0.595192 0.994649
O O4 0.700615 0.583408 0.783875
O O5 0.703915 0.133191 0.668223
O O6 0.701422 0.083717 0.293886
O O7 0.656901 0.002341 0.599248
O O8 0.748787 0.250316 0.860033
O O9 0.589036 0.315903 0.636460
O O10 0.665280 0.373025 0.980079
O O11 0.164414 0.629611 0.506255
O O12 0.088840 0.684006 0.854001
O O13 0.921829 0.593429 0.842566
O O14 0.922803 0.093099 0.353546
#
# Coordination Sequence:
#
# PCOD9315319 Si02
#       7
#     4   4   4   4   4   4   4
#     4  11  24  41  70 100 132 169 225 270 321 395
#     4  11  24  41  70 100 132 169 225 270 321 395
#     4  11  25  44  67  99 135 173 216 272 333 387
#     4  11  25  44  67  99 135 173 216 272 333 387
#     4  11  23  44  69 100 131 174 218 272 330 386
#     4  11  23  44  69 100 131 174 218 272 330 386
#     4  10  24  44  72  92 136 174 220 266 334 392
#
# _framework density 19.710514
#
# number of rings (size 3 to 8) (size 9 to 14) (size 15 to 20)
#    0.000    1.143    2.857    2.571    6.000    5.714 
#    5.143    0.000    0.000    0.000    0.000    0.000 
#    0.000    0.000    0.000    0.000    0.000    0.000 
#
# Total GULP energy -156618.715755 kJ/mol
# GULP energy per Si atom -5593.525563 kJ/mol
# Density = 1.966565 g / cm^3
# Si number density = 19.710514 Si / 1000 Ang^3
#
#
#
# Elastic Constant Matrix: (Units=GPa)
#
#
# Indices 1 2 3 4 5 6 
#
# 1 152.4159 23.2852 51.1493 0.0000 0.0000 0.0000
# 2 23.2852 91.0756 11.8027 0.0000 0.0000 0.0000
# 3 51.1493 11.8027 89.7216 0.0000 0.0000 0.0000
# 4 0.0000 0.0000 0.0000 7.1625 0.0000 0.0000
# 5 0.0000 0.0000 0.0000 0.0000 25.3258 0.0000
# 6 0.0000 0.0000 0.0000 0.0000 0.0000 7.3291
#
#
#
# Elastic Compliance Matrix: (Units=1/GPa)
#
#
# Indices 1 2 3 4 5 6 
#
# 1 0.008320 -0.001539 -0.004541 0.000000 0.000000 0.000000
# 2 -0.001539 0.011455 -0.000630 0.000000 0.000000 0.000000
# 3 -0.004541 -0.000630 0.013817 0.000000 0.000000 0.000000
# 4 0.000000 0.000000 0.000000 0.139616 0.000000 0.000000
# 5 0.000000 0.000000 0.000000 0.000000 0.039485 0.000000
# 6 0.000000 0.000000 0.000000 0.000000 0.000000 0.136442
#
#
# Mechanical properties :
#
#
# Convention : Reuss Voigt Hill
#
# Bulk Modulus (GPa) = 49.56946 56.18749 52.87847
# Shear Modulus (GPa) = 13.53997 24.42856 18.98427
#
# Velocity S-wave (km/s) = 2.62380 3.52428 3.10684
# Velocity P-wave (km/s) = 5.86365 6.71781 6.30521
#
# Compressibility (1/GPa) = 0.02017371
#
# Stress axis : x y z
#
# Youngs Moduli (GPa) = 120.19423 87.29897 72.37462
#
# Poissons Ratio (x) = 0.13433 0.32863
# Poissons Ratio (y) = 0.18494 0.04557
# Poissons Ratio (z) = 0.54576 0.05497
#
# Static dielectric constant tensor:
#      x y z
#    x 1.694770 0.000000 0.000000 
#    y 0.000000 1.637160 0.000000 
#    z 0.000000 0.000000 1.678130 
# 
# From -- ./inp_files/1020.got.cif
#   From: 2010.05.17/outbox.cif.g08.bks.cpg/sg19_1_cif.got.tgz:1020.got - 2010.06.03 22:46:19.
