data_PCOD9315057
_publ_section_title
;
Structure prediction by ZEFSAII (Michael W. Deem and Ramdas Pophale) SiO2 
 PCOD9315057
Probable space group: P 21 21 21
;
_chemical_formula_sum "Si O2"
_cell_formula_units_Z 32
_cell_length_a 9.023945
_cell_length_b 17.105542
_cell_length_c 7.925898
_cell_angle_alpha 90.000000
_cell_angle_beta 90.000000
_cell_angle_gamma 90.000000
_cell_volume 1223.437416
_symmetry_space_group_name_H-M "P 21 21 21"
_symmetry_group_IT_number 19
_symmetry_cell_setting 'orthorhombic'
loop_
_space_group_symop_operation_xyz
x,y,z
1/2-x,-y,1/2+z
1/2+x,1/2-y,-z
-x,1/2+y,1/2-z
loop_
_atom_site_type_symbol
_atom_site_label
_atom_site_fract_x
_atom_site_fract_y
_atom_site_fract_z
Si Si1 0.074630 0.429926 0.514990
Si Si2 0.880861 0.225838 0.980293
Si Si3 0.020275 0.994537 0.515555
Si Si4 0.318786 0.004954 0.666777
Si Si5 0.503353 0.324385 0.498019
Si Si6 0.343211 0.827849 0.649537
Si Si7 0.217190 0.277049 0.662672
Si Si8 0.254538 0.572188 0.655299
O O1 0.117737 0.350881 0.609165
O O2 0.159839 0.433425 0.333090
O O3 0.901912 0.437494 0.462618
O O4 0.139272 0.501907 0.624072
O O5 0.051314 0.222826 0.029389
O O6 0.108798 0.203063 0.652037
O O7 0.823196 0.304804 0.895339
O O8 0.799309 0.214466 0.160244
O O9 0.964238 0.084097 0.501553
O O10 0.142451 0.998042 0.660705
O O11 0.123982 0.976862 0.352966
O O12 0.880235 0.939059 0.489956
O O13 0.377390 0.918436 0.622011
O O14 0.353883 0.276632 0.529707
O O15 0.327949 0.345999 0.134869
O O16 0.607168 0.310304 0.661364
#
# Coordination Sequence:
#
# PCOD9315057 Si02
#       8
#     4   4   4   4   4   4   4   4
#     4  11  22  41  66  92 122 160 205 255 306 364
#     4  11  24  42  64  91 124 164 207 253 310 369
#     4  10  23  42  63  90 125 160 202 255 308 362
#     4  10  23  42  63  90 125 160 202 255 308 362
#     4  10  23  44  62  88 127 162 203 255 304 363
#     4  10  23  44  62  88 127 162 203 255 304 363
#     4  11  24  42  64  91 124 164 207 253 310 369
#     4  11  22  41  66  92 122 160 205 255 306 364
#
# _framework density 26.155812000000001
#
# number of rings (size 3 to 8) (size 9 to 14) (size 15 to 20)
#    0.000    1.500    2.500    1.500    3.500    5.000 
#    0.000    0.000    0.000    0.000    0.000    0.000 
#    0.000    0.000    0.000    0.000    0.000    0.000 
#
# Total GULP energy -179374.623138 kJ/mol
# GULP energy per Si atom -5605.456973 kJ/mol
# Density = 2.609628 g / cm^3
# Si number density = 26.155812 Si / 1000 Ang^3
#
#
#
# Elastic Constant Matrix: (Units=GPa)
#
#
# Indices 1 2 3 4 5 6 
#
# 1 110.9946 -0.3782 14.9938 0.0000 0.0000 0.0000
# 2 -0.3782 18.0961 1.2219 0.0000 0.0000 0.0000
# 3 14.9938 1.2219 80.1416 0.0000 0.0000 0.0000
# 4 0.0000 0.0000 0.0000 27.3041 0.0000 0.0000
# 5 0.0000 0.0000 0.0000 0.0000 45.0193 0.0000
# 6 0.0000 0.0000 0.0000 0.0000 0.0000 38.7492
#
#
#
# Elastic Compliance Matrix: (Units=1/GPa)
#
#
# Indices 1 2 3 4 5 6 
#
# 1 0.009245 0.000310 -0.001734 0.000000 0.000000 0.000000
# 2 0.000310 0.055328 -0.000902 0.000000 0.000000 0.000000
# 3 -0.001734 -0.000902 0.012816 0.000000 0.000000 0.000000
# 4 0.000000 0.000000 0.000000 0.036625 0.000000 0.000000
# 5 0.000000 0.000000 0.000000 0.000000 0.022213 0.000000
# 6 0.000000 0.000000 0.000000 0.000000 0.000000 0.025807
#
#
# Mechanical properties :
#
#
# Convention : Reuss Voigt Hill
#
# Bulk Modulus (GPa) = 13.74807 26.76748 20.25777
# Shear Modulus (GPa) = 26.18761 35.10753 30.64757
#
# Velocity S-wave (km/s) = 3.16763 3.66764 3.42677
# Velocity P-wave (km/s) = 4.31812 5.30957 4.83930
#
# Compressibility (1/GPa) = 0.07273747
#
# Stress axis : x y z
#
# Youngs Moduli (GPa) = 108.16903 18.07409 78.02663
#
# Poissons Ratio (x) = -0.00561 0.13533
# Poissons Ratio (y) = -0.03357 0.07035
# Poissons Ratio (z) = 0.18760 0.01630
#
# Static dielectric constant tensor:
#      x y z
#    x 2.027120 0.000000 0.000000 
#    y 0.000000 1.988010 0.000000 
#    z 0.000000 0.000000 2.094820 
# 
# From -- ./inp_files/3262.got.cif
#   From: 2010.05.17/outbox.cif.g08.bks.cpg/sg19_2_cif.got.tgz:3262.got - 2010.06.03 22:46:19.
