data_PCOD9315915
_publ_section_title
;
Structure prediction by ZEFSAII (Michael W. Deem and Ramdas Pophale) SiO2 
 PCOD9315915
Probable space group: P 21 21 21
;
_chemical_formula_sum "Si O2"
_cell_formula_units_Z 16
_cell_length_a 5.128472
_cell_length_b 12.163322
_cell_length_c 9.451873
_cell_angle_alpha 90.000000
_cell_angle_beta 90.000000
_cell_angle_gamma 90.000000
_cell_volume 589.600808
_symmetry_space_group_name_H-M "P 21 21 21"
_symmetry_group_IT_number 19
_symmetry_cell_setting 'orthorhombic'
loop_
_space_group_symop_operation_xyz
x,y,z
1/2-x,-y,1/2+z
1/2+x,1/2-y,-z
-x,1/2+y,1/2-z
loop_
_atom_site_type_symbol
_atom_site_label
_atom_site_fract_x
_atom_site_fract_y
_atom_site_fract_z
Si Si1 0.421898 0.802691 0.335416
Si Si2 0.594643 0.131712 0.666935
Si Si3 0.338060 0.034241 0.417852
Si Si4 0.058910 0.440438 0.879366
O O1 0.653451 0.803215 0.220341
O O2 0.463576 0.911252 0.430352
O O3 0.411037 0.687126 0.414511
O O4 0.148463 0.826807 0.257851
O O5 0.495186 0.125575 0.505799
O O6 0.695088 0.005503 0.684006
O O7 0.062674 0.014084 0.495341
O O8 0.356085 0.056974 0.252316
#
# Coordination Sequence:
#
# PCOD9315915 Si02
#       4
#     4   4   4   4
#     4  11  28  46  80 115 151 210 258 309 400 463
#     4  11  25  48  71 117 155 197 252 325 378 461
#     4  11  25  50  76 113 156 197 258 325 385 455
#     4  11  28  48  85 111 162 202 264 325 393 467
#
# _framework density 27.137007000000001
#
# number of rings (size 3 to 8) (size 9 to 14) (size 15 to 20)
#    0.000    1.000    5.000    0.000   14.000    2.000 
#    0.000    0.000    0.000    0.000    0.000    0.000 
#    0.000    0.000    0.000    0.000    0.000    0.000 
#
# Total GULP energy -89526.519113 kJ/mol
# GULP energy per Si atom -5595.407445 kJ/mol
# Density = 2.707524 g / cm^3
# Si number density = 27.137007 Si / 1000 Ang^3
#
#
#
# Elastic Constant Matrix: (Units=GPa)
#
#
# Indices 1 2 3 4 5 6 
#
# 1 173.8956 17.4046 45.0615 0.0000 0.0000 0.0000
# 2 17.4046 85.0848 -11.8438 0.0000 0.0000 0.0000
# 3 45.0615 -11.8438 109.2859 0.0000 0.0000 0.0000
# 4 0.0000 0.0000 0.0000 39.4524 0.0000 0.0000
# 5 0.0000 0.0000 0.0000 0.0000 30.9353 0.0000
# 6 0.0000 0.0000 0.0000 0.0000 0.0000 25.5634
#
#
#
# Elastic Compliance Matrix: (Units=1/GPa)
#
#
# Indices 1 2 3 4 5 6 
#
# 1 0.006694 -0.001780 -0.002953 0.000000 0.000000 0.000000
# 2 -0.001780 0.012407 0.002079 0.000000 0.000000 0.000000
# 3 -0.002953 0.002079 0.010593 0.000000 0.000000 0.000000
# 4 0.000000 0.000000 0.000000 0.025347 0.000000 0.000000
# 5 0.000000 0.000000 0.000000 0.000000 0.032326 0.000000
# 6 0.000000 0.000000 0.000000 0.000000 0.000000 0.039118
#
#
# Mechanical properties :
#
#
# Convention : Reuss Voigt Hill
#
# Bulk Modulus (GPa) = 41.01025 52.16787 46.58906
# Shear Modulus (GPa) = 35.73415 40.36650 38.05032
#
# Velocity S-wave (km/s) = 3.63272 3.86101 3.74860
# Velocity P-wave (km/s) = 5.72194 6.25637 5.99511
#
# Compressibility (1/GPa) = 0.02438415
#
# Stress axis : x y z
#
# Youngs Moduli (GPa) = 149.38772 80.60282 94.40013
#
# Poissons Ratio (x) = 0.14350 0.27877
# Poissons Ratio (y) = 0.26596 -0.19622
# Poissons Ratio (z) = 0.44115 -0.16754
#
# Static dielectric constant tensor:
#      x y z
#    x 2.179920 0.000000 0.000000 
#    y 0.000000 2.115200 0.000000 
#    z 0.000000 0.000000 2.129150 
# 
# From -- ./inp_files/2357.got.cif
#   From: 2010.05.17/outbox.cif.g08.bks.cpg/sg19_2_cif.got.tgz:2357.got - 2010.06.03 22:46:19.
