data_PCOD9315683
_publ_section_title
;
Structure prediction by ZEFSAII (Michael W. Deem and Ramdas Pophale) SiO2 
 PCOD9315683
Probable space group: P 21 21 21
;
_chemical_formula_sum "Si O2"
_cell_formula_units_Z 20
_cell_length_a 27.441788
_cell_length_b 5.280022
_cell_length_c 4.938384
_cell_angle_alpha 90.000000
_cell_angle_beta 90.000000
_cell_angle_gamma 90.000000
_cell_volume 715.538480
_symmetry_space_group_name_H-M "P 21 21 21"
_symmetry_group_IT_number 19
_symmetry_cell_setting 'orthorhombic'
loop_
_space_group_symop_operation_xyz
x,y,z
1/2-x,-y,1/2+z
1/2+x,1/2-y,-z
-x,1/2+y,1/2-z
loop_
_atom_site_type_symbol
_atom_site_label
_atom_site_fract_x
_atom_site_fract_y
_atom_site_fract_z
Si Si1 0.160842 0.562484 0.196503
Si Si2 0.060035 0.601609 0.923276
Si Si3 0.219913 0.913051 0.896874
Si Si4 0.043652 0.905158 0.422581
Si Si5 0.358228 0.915524 0.033080
O O1 0.165604 0.328195 0.396681
O O2 0.152018 0.822624 0.367840
O O3 0.112816 0.510890 0.015545
O O4 0.206353 0.636233 0.008046
O O5 0.057848 0.665693 0.608676
O O6 0.012557 0.448786 0.012861
O O7 0.051811 0.855274 0.106672
O O8 0.250796 0.937519 0.624993
O O9 0.167658 0.035247 0.818419
O O10 0.083217 0.108550 0.525789
#
# Coordination Sequence:
#
# PCOD9315683 Si02
#       5
#     4   4   4   4   4
#     4  11  26  52  80 116 163 209 270 337 406 487
#     4  11  23  43  71 114 158 210 265 323 400 485
#     4  12  26  56  80 124 158 218 278 346 412 486
#     4  11  23  43  71 114 158 210 265 323 400 485
#     4  11  26  52  80 116 163 209 270 337 406 487
#
# _framework density 27.950977000000002
#
# number of rings (size 3 to 8) (size 9 to 14) (size 15 to 20)
#    0.000    0.800    4.000    2.400    0.000    4.800 
#    7.200    0.000    0.000    0.000    0.000    0.000 
#    0.000    0.000    0.000    0.000    0.000    0.000 
#
# Total GULP energy -112258.554017 kJ/mol
# GULP energy per Si atom -5612.927701 kJ/mol
# Density = 2.788736 g / cm^3
# Si number density = 27.950977 Si / 1000 Ang^3
#
#
#
# Elastic Constant Matrix: (Units=GPa)
#
#
# Indices 1 2 3 4 5 6 
#
# 1 105.7383 25.2538 30.0634 0.0000 0.0000 0.0000
# 2 25.2538 141.8801 44.1993 0.0000 0.0000 0.0000
# 3 30.0634 44.1993 126.3115 0.0000 0.0000 0.0000
# 4 0.0000 0.0000 0.0000 38.7442 0.0000 0.0000
# 5 0.0000 0.0000 0.0000 0.0000 66.7297 0.0000
# 6 0.0000 0.0000 0.0000 0.0000 0.0000 41.5260
#
#
#
# Elastic Compliance Matrix: (Units=1/GPa)
#
#
# Indices 1 2 3 4 5 6 
#
# 1 0.010324 -0.001203 -0.002036 0.000000 0.000000 0.000000
# 2 -0.001203 0.008051 -0.002531 0.000000 0.000000 0.000000
# 3 -0.002036 -0.002531 0.009287 0.000000 0.000000 0.000000
# 4 0.000000 0.000000 0.000000 0.025810 0.000000 0.000000
# 5 0.000000 0.000000 0.000000 0.000000 0.014986 0.000000
# 6 0.000000 0.000000 0.000000 0.000000 0.000000 0.024081
#
#
# Mechanical properties :
#
#
# Convention : Reuss Voigt Hill
#
# Bulk Modulus (GPa) = 62.02973 63.66253 62.84613
# Shear Modulus (GPa) = 45.68179 47.69422 46.68800
#
# Velocity S-wave (km/s) = 4.04710 4.13528 4.09143
# Velocity P-wave (km/s) = 6.63922 6.75475 6.69723
#
# Compressibility (1/GPa) = 0.01612130
#
# Stress axis : x y z
#
# Youngs Moduli (GPa) = 96.86565 124.21161 107.67606
#
# Poissons Ratio (x) = 0.14946 0.21924
# Poissons Ratio (y) = 0.11655 0.27250
# Poissons Ratio (z) = 0.19723 0.31435
#
# Static dielectric constant tensor:
#      x y z
#    x 2.234100 0.000000 0.000000 
#    y 0.000000 2.202550 0.000000 
#    z 0.000000 0.000000 2.101310 
# 
# From -- ./inp_files/2217.got.cif
#   From: 2010.05.17/outbox.cif.g08.bks.cpg/sg19_2_cif.got.tgz:2217.got - 2010.06.03 22:46:19.
