data_PCOD9315687
_publ_section_title
;
Structure prediction by ZEFSAII (Michael W. Deem and Ramdas Pophale) SiO2 
 PCOD9315687
Probable space group: P 21 21 21
;
_chemical_formula_sum "Si O2"
_cell_formula_units_Z 32
_cell_length_a 19.136984
_cell_length_b 4.864645
_cell_length_c 12.683174
_cell_angle_alpha 90.000000
_cell_angle_beta 90.000000
_cell_angle_gamma 90.000000
_cell_volume 1180.735436
_symmetry_space_group_name_H-M "P 21 21 21"
_symmetry_group_IT_number 19
_symmetry_cell_setting 'orthorhombic'
loop_
_space_group_symop_operation_xyz
x,y,z
1/2-x,-y,1/2+z
1/2+x,1/2-y,-z
-x,1/2+y,1/2-z
loop_
_atom_site_type_symbol
_atom_site_label
_atom_site_fract_x
_atom_site_fract_y
_atom_site_fract_z
Si Si1 0.871475 0.955517 0.537439
Si Si2 0.041391 0.296581 0.712545
Si Si3 0.774831 0.282585 0.855886
Si Si4 0.980551 0.703727 0.403752
Si Si5 0.342916 0.996427 0.347891
Si Si6 0.686755 0.777488 0.834351
Si Si7 0.893999 0.556781 0.999083
Si Si8 0.904022 0.882584 0.188559
O O1 0.933303 0.743687 0.506920
O O2 0.811963 0.739695 0.575195
O O3 0.878119 0.230443 0.605745
O O4 0.859268 0.104638 0.427619
O O5 0.065003 0.227586 0.593412
O O6 0.019822 0.606063 0.737887
O O7 0.105657 0.203357 0.783936
O O8 0.793276 0.377700 0.738249
O O9 0.705033 0.467793 0.863996
O O10 0.836123 0.374790 0.935880
O O11 0.757155 0.961161 0.848987
O O12 0.934807 0.754987 0.297611
O O13 0.022637 0.433673 0.372430
O O14 0.047644 0.885468 0.437551
O O15 0.644360 0.864143 0.729987
O O16 0.860877 0.731690 0.095509
#
# Coordination Sequence:
#
# PCOD9315687 Si02
#       8
#     4   4   4   4   4   4   4   4
#     4  11  25  43  74 100 142 186 240 297 371 433
#     4  11  24  41  65 100 141 182 231 288 353 426
#     4  11  27  48  71 101 148 189 254 298 350 445
#     4  11  24  44  70 108 147 183 239 304 367 441
#     4  11  23  44  66 101 135 189 234 297 356 423
#     4  11  27  49  70 104 142 194 246 305 360 429
#     4  11  26  43  72 104 143 192 238 296 365 432
#     4  11  26  44  74 106 150 189 240 309 374 437
#
# _framework density 27.101752999999999
#
# number of rings (size 3 to 8) (size 9 to 14) (size 15 to 20)
#    0.000    1.000    1.250    3.750    8.750    5.000 
#    0.000    0.000    0.000    0.000    0.000    0.000 
#    0.000    0.000    0.000    0.000    0.000    0.000 
#
# Total GULP energy -178646.627377 kJ/mol
# GULP energy per Si atom -5582.707106 kJ/mol
# Density = 2.704007 g / cm^3
# Si number density = 27.101753 Si / 1000 Ang^3
#
#
#
# Elastic Constant Matrix: (Units=GPa)
#
#
# Indices 1 2 3 4 5 6 
#
# 1 52.8363 31.2129 37.1161 0.0000 0.0000 0.0000
# 2 31.2129 90.6893 36.1660 0.0000 0.0000 0.0000
# 3 37.1161 36.1660 147.5855 0.0000 0.0000 0.0000
# 4 0.0000 0.0000 0.0000 2.5994 0.0000 0.0000
# 5 0.0000 0.0000 0.0000 0.0000 -36.1598 0.0000
# 6 0.0000 0.0000 0.0000 0.0000 0.0000 47.1357
#
#
#
# Elastic Compliance Matrix: (Units=1/GPa)
#
#
# Indices 1 2 3 4 5 6 
#
# 1 0.026650 -0.007203 -0.004937 0.000000 0.000000 0.000000
# 2 -0.007203 0.014168 -0.001660 0.000000 0.000000 0.000000
# 3 -0.004937 -0.001660 0.008424 0.000000 0.000000 0.000000
# 4 0.000000 0.000000 0.000000 0.384702 0.000000 0.000000
# 5 0.000000 0.000000 0.000000 0.000000 -0.027655 0.000000
# 6 0.000000 0.000000 0.000000 0.000000 0.000000 0.021215
#
#
# Mechanical properties :
#
#
# Convention : Reuss Voigt Hill
#
# Bulk Modulus (GPa) = 46.20912 55.56677 50.88794
# Shear Modulus (GPa) = 10.81503 15.15614 12.98559
#
# Velocity S-wave (km/s) = 1.99980 2.36737 2.19131
# Velocity P-wave (km/s) = 4.73492 5.29340 5.02193
#
# Compressibility (1/GPa) = 0.02164075
#
# Stress axis : x y z
#
# Youngs Moduli (GPa) = 37.52369 70.58167 118.70597
#
# Poissons Ratio (x) = 0.50843 0.58604
# Poissons Ratio (y) = 0.27030 0.19709
# Poissons Ratio (z) = 0.18525 0.11719
#
# Static dielectric constant tensor:
#      x y z
#    x 2.213050 0.000000 0.000000 
#    y 0.000000 2.334130 0.000000 
#    z 0.000000 0.000000 2.322760 
# 
# From -- ./inp_files/5520.got.cif
#   From: 2010.05.17/outbox.cif.g08.bks.cpg/sg19_3_cif.got.tgz:5520.got - 2010.06.03 22:46:19.
