data_PCOD9315346
_publ_section_title
;
Structure prediction by ZEFSAII (Michael W. Deem and Ramdas Pophale) SiO2 
 PCOD9315346
Probable space group: P 21 21 21
;
_chemical_formula_sum "Si O2"
_cell_formula_units_Z 28
_cell_length_a 7.543840
_cell_length_b 8.759107
_cell_length_c 18.250183
_cell_angle_alpha 90.000000
_cell_angle_beta 90.000000
_cell_angle_gamma 90.000000
_cell_volume 1205.922849
_symmetry_space_group_name_H-M "P 21 21 21"
_symmetry_group_IT_number 19
_symmetry_cell_setting 'orthorhombic'
loop_
_space_group_symop_operation_xyz
x,y,z
1/2-x,-y,1/2+z
1/2+x,1/2-y,-z
-x,1/2+y,1/2-z
loop_
_atom_site_type_symbol
_atom_site_label
_atom_site_fract_x
_atom_site_fract_y
_atom_site_fract_z
Si Si1 0.025390 0.875142 0.688094
Si Si2 0.550009 0.789555 0.825825
Si Si3 0.938323 0.529789 0.656369
Si Si4 0.412026 0.091824 0.793778
Si Si5 0.249337 0.514382 0.052144
Si Si6 0.637076 0.300381 0.889273
Si Si7 0.690262 0.029244 0.609990
O O1 0.010818 0.693364 0.681151
O O2 0.196337 0.902253 0.635806
O O3 0.848302 0.954217 0.656744
O O4 0.051373 0.922406 0.772382
O O5 0.670787 0.683193 0.774075
O O6 0.395003 0.676277 0.851074
O O7 0.486362 0.927869 0.774166
O O8 0.636826 0.876939 0.893736
O O9 0.730915 0.560240 0.643120
O O10 0.054322 0.479273 0.587859
O O11 0.572479 0.191274 0.823159
O O12 0.189602 0.334400 0.053410
O O13 0.239172 0.572256 0.969989
O O14 0.469084 0.407755 0.905254
#
# Coordination Sequence:
#
# PCOD9315346 Si02
#       7
#     4   4   4   4   4   4   4
#     4  11  25  43  72 110 136 185 246 301 355 436
#     4  11  25  45  69 104 142 189 244 297 368 430
#     4  11  23  42  70 108 137 179 246 299 355 424
#     4  11  22  43  76 103 139 187 235 313 359 417
#     4  10  27  46  69 105 147 189 246 291 372 443
#     4  10  24  45  73 104 136 185 245 297 366 433
#     4  12  26  48  71 100 151 196 232 302 371 437
#
# _framework density 23.218730999999998
#
# number of rings (size 3 to 8) (size 9 to 14) (size 15 to 20)
#    0.000    1.143    1.429    3.429   12.000    1.143 
#    7.714    0.000    0.000    0.000    0.000    0.000 
#    0.000    0.000    0.000    0.000    0.000    0.000 
#
# Total GULP energy -156483.594223 kJ/mol
# GULP energy per Si atom -5588.699794 kJ/mol
# Density = 2.316588 g / cm^3
# Si number density = 23.218731 Si / 1000 Ang^3
#
#
#
# Elastic Constant Matrix: (Units=GPa)
#
#
# Indices 1 2 3 4 5 6 
#
# 1 106.7968 8.0260 -0.8898 0.0000 0.0000 0.0000
# 2 8.0260 83.2968 8.1235 0.0000 0.0000 0.0000
# 3 -0.8898 8.1235 56.2043 0.0000 0.0000 0.0000
# 4 0.0000 0.0000 0.0000 27.3671 0.0000 0.0000
# 5 0.0000 0.0000 0.0000 0.0000 21.6064 0.0000
# 6 0.0000 0.0000 0.0000 0.0000 0.0000 35.8516
#
#
#
# Elastic Compliance Matrix: (Units=1/GPa)
#
#
# Indices 1 2 3 4 5 6 
#
# 1 0.009436 -0.000937 0.000285 0.000000 0.000000 0.000000
# 2 -0.000937 0.012270 -0.001788 0.000000 0.000000 0.000000
# 3 0.000285 -0.001788 0.018055 0.000000 0.000000 0.000000
# 4 0.000000 0.000000 0.000000 0.036540 0.000000 0.000000
# 5 0.000000 0.000000 0.000000 0.000000 0.046283 0.000000
# 6 0.000000 0.000000 0.000000 0.000000 0.000000 0.027893
#
#
# Mechanical properties :
#
#
# Convention : Reuss Voigt Hill
#
# Bulk Modulus (GPa) = 28.66922 30.75747 29.71334
# Shear Modulus (GPa) = 29.94282 32.36757 31.15519
#
# Velocity S-wave (km/s) = 3.59499 3.73772 3.66705
# Velocity P-wave (km/s) = 5.44116 5.64827 5.54568
#
# Compressibility (1/GPa) = 0.03488062
#
# Stress axis : x y z
#
# Youngs Moduli (GPa) = 105.97303 81.49999 55.38568
#
# Poissons Ratio (x) = 0.07637 -0.01577
# Poissons Ratio (y) = 0.09930 0.09904
# Poissons Ratio (z) = -0.03018 0.14574
#
# Static dielectric constant tensor:
#      x y z
#    x 1.966820 0.000000 0.000000 
#    y 0.000000 1.875820 0.000000 
#    z 0.000000 0.000000 1.850080 
# 
# From -- ./inp_files/6568.got.cif
#   From: 2010.05.17/outbox.cif.g08.bks.cpg/sg19_4_cif.got.tgz:6568.got - 2010.06.03 22:46:19.
