data_PCOD9315726
_publ_section_title
;
Structure prediction by ZEFSAII (Michael W. Deem and Ramdas Pophale) SiO2 
 PCOD9315726
Probable space group: P 21 21 21
;
_chemical_formula_sum "Si O2"
_cell_formula_units_Z 24
_cell_length_a 14.416361
_cell_length_b 8.258007
_cell_length_c 9.195309
_cell_angle_alpha 90.000000
_cell_angle_beta 90.000000
_cell_angle_gamma 90.000000
_cell_volume 1094.705307
_symmetry_space_group_name_H-M "P 21 21 21"
_symmetry_group_IT_number 19
_symmetry_cell_setting 'orthorhombic'
loop_
_space_group_symop_operation_xyz
x,y,z
1/2-x,-y,1/2+z
1/2+x,1/2-y,-z
-x,1/2+y,1/2-z
loop_
_atom_site_type_symbol
_atom_site_label
_atom_site_fract_x
_atom_site_fract_y
_atom_site_fract_z
Si Si1 0.151303 0.410273 0.993615
Si Si2 0.957777 0.581816 0.971993
Si Si3 0.826834 0.042298 0.187311
Si Si4 0.487808 0.074766 0.556838
Si Si5 0.632267 0.422712 0.172135
Si Si6 0.164465 0.922983 0.294327
O O1 0.236286 0.494475 0.908423
O O2 0.148191 0.225162 0.939759
O O3 0.053558 0.488176 0.950093
O O4 0.164403 0.437074 0.166136
O O5 0.911292 0.637803 0.822487
O O6 0.885714 0.466866 0.055480
O O7 0.982851 0.738196 0.067997
O O8 0.820639 0.231355 0.228950
O O9 0.919192 0.022416 0.091355
O O10 0.408629 0.028090 0.671775
O O11 0.441017 0.042516 0.401788
O O12 0.733053 0.498568 0.205174
#
# Coordination Sequence:
#
# PCOD9315726 Si02
#       6
#     4   4   4   4   4   4
#     4  11  25  47  67 102 141 186 238 290 352 423
#     4  12  25  45  71 101 145 180 239 293 351 425
#     4  11  26  44  70  99 139 184 234 289 353 416
#     4  12  24  44  71 102 140 185 232 292 360 417
#     4  11  27  43  70 104 142 185 236 292 357 424
#     4  11  23  47  67 100 139 184 237 288 349 425
#
# _framework density 21.923708000000001
#
# number of rings (size 3 to 8) (size 9 to 14) (size 15 to 20)
#    0.000    0.667    3.333    3.000    9.333    1.333 
#    3.000    0.000    0.000    0.000    0.000    0.000 
#    0.000    0.000    0.000    0.000    0.000    0.000 
#
# Total GULP energy -134231.917461 kJ/mol
# GULP energy per Si atom -5592.996561 kJ/mol
# Density = 2.187381 g / cm^3
# Si number density = 21.923708 Si / 1000 Ang^3
#
#
#
# Elastic Constant Matrix: (Units=GPa)
#
#
# Indices 1 2 3 4 5 6 
#
# 1 173.6292 -4.2623 51.9263 0.0000 0.0000 0.0000
# 2 -4.2623 23.1807 3.7094 0.0000 0.0000 0.0000
# 3 51.9263 3.7094 80.5904 0.0000 0.0000 0.0000
# 4 0.0000 0.0000 0.0000 30.3938 0.0000 0.0000
# 5 0.0000 0.0000 0.0000 0.0000 32.6883 0.0000
# 6 0.0000 0.0000 0.0000 0.0000 0.0000 18.2405
#
#
#
# Elastic Compliance Matrix: (Units=1/GPa)
#
#
# Indices 1 2 3 4 5 6 
#
# 1 0.007233 0.002091 -0.004757 0.000000 0.000000 0.000000
# 2 0.002091 0.044064 -0.003376 0.000000 0.000000 0.000000
# 3 -0.004757 -0.003376 0.015629 0.000000 0.000000 0.000000
# 4 0.000000 0.000000 0.000000 0.032901 0.000000 0.000000
# 5 0.000000 0.000000 0.000000 0.000000 0.030592 0.000000
# 6 0.000000 0.000000 0.000000 0.000000 0.000000 0.054823
#
#
# Mechanical properties :
#
#
# Convention : Reuss Voigt Hill
#
# Bulk Modulus (GPa) = 18.23366 42.23855 30.23611
# Shear Modulus (GPa) = 23.19043 31.33298 27.26171
#
# Velocity S-wave (km/s) = 3.25588 3.78455 3.53013
# Velocity P-wave (km/s) = 4.74017 6.19719 5.51699
#
# Compressibility (1/GPa) = 0.05484362
#
# Stress axis : x y z
#
# Youngs Moduli (GPa) = 138.24868 22.69429 63.98468
#
# Poissons Ratio (x) = -0.04746 0.30437
# Poissons Ratio (y) = -0.28910 0.21598
# Poissons Ratio (z) = 0.65763 0.07661
#
# Static dielectric constant tensor:
#      x y z
#    x 1.798930 0.000000 0.000000 
#    y 0.000000 1.811550 0.000000 
#    z 0.000000 0.000000 1.813270 
# 
# From -- ./inp_files/2692.got.cif
#   From: 2010.05.17/outbox.cif.g08.bks.cpg/sg19_2_cif.got.tgz:2692.got - 2010.06.03 22:46:19.
