data_PCOD9315098
_publ_section_title
;
Structure prediction by ZEFSAII (Michael W. Deem and Ramdas Pophale) SiO2 
 PCOD9315098
Probable space group: P 21 21 21
;
_chemical_formula_sum "Si O2"
_cell_formula_units_Z 32
_cell_length_a 17.536162
_cell_length_b 9.417794
_cell_length_c 8.049166
_cell_angle_alpha 90.000000
_cell_angle_beta 90.000000
_cell_angle_gamma 90.000000
_cell_volume 1329.335551
_symmetry_space_group_name_H-M "P 21 21 21"
_symmetry_group_IT_number 19
_symmetry_cell_setting 'orthorhombic'
loop_
_space_group_symop_operation_xyz
x,y,z
1/2-x,-y,1/2+z
1/2+x,1/2-y,-z
-x,1/2+y,1/2-z
loop_
_atom_site_type_symbol
_atom_site_label
_atom_site_fract_x
_atom_site_fract_y
_atom_site_fract_z
Si Si1 0.788187 0.060528 0.342324
Si Si2 0.824910 0.342253 0.504483
Si Si3 0.011640 0.926233 0.050072
Si Si4 0.582173 0.313070 0.461426
Si Si5 0.538910 0.022801 0.903526
Si Si6 0.198376 0.987993 0.354168
Si Si7 0.082010 0.205127 0.924363
Si Si8 0.749061 0.216507 0.003711
O O1 0.790024 0.185364 0.481549
O O2 0.755315 0.135832 0.180363
O O3 0.877983 0.019763 0.333260
O O4 0.743616 0.914667 0.378697
O O5 0.915060 0.349741 0.531203
O O6 0.780196 0.435674 0.637150
O O7 0.814980 0.422729 0.326637
O O8 0.008816 0.914055 0.249416
O O9 0.934049 0.853100 0.989861
O O10 0.026511 0.089614 0.005592
O O11 0.505833 0.391372 0.522115
O O12 0.644424 0.389038 0.575347
O O13 0.595559 0.331655 0.266961
O O14 0.547441 0.139939 0.045894
O O15 0.196146 0.851641 0.477970
O O16 0.164272 0.217747 0.013252
#
# Coordination Sequence:
#
# PCOD9315098 Si02
#       8
#     4   4   4   4   4   4   4   4
#     4  10  23  43  67  96 141 178 232 287 347 418
#     4  11  23  43  67 104 136 184 234 291 351 418
#     4  12  24  44  71  99 139 186 236 291 355 426
#     4  12  24  44  67 104 139 184 232 297 355 420
#     4  11  24  43  70  99 136 185 238 288 352 429
#     4  11  24  41  72 100 142 180 240 285 353 420
#     4  11  25  45  67 102 141 181 239 296 356 424
#     4  10  23  45  67 102 140 186 231 291 347 421
#
# _framework density 24.072175000000001
#
# number of rings (size 3 to 8) (size 9 to 14) (size 15 to 20)
#    0.000    1.000    3.750    3.000    0.000    3.000 
#    0.000    1.250    0.000    0.000    0.000    0.000 
#    0.000    0.000    0.000    0.000    0.000    0.000 
#
# Total GULP energy -178957.761218 kJ/mol
# GULP energy per Si atom -5592.430038 kJ/mol
# Density = 2.401739 g / cm^3
# Si number density = 24.072175 Si / 1000 Ang^3
#
#
#
# Elastic Constant Matrix: (Units=GPa)
#
#
# Indices 1 2 3 4 5 6 
#
# 1 -13.5518 21.9581 -52.3530 0.0000 0.0000 0.0000
# 2 21.9581 112.0005 -1.2064 0.0000 0.0000 0.0000
# 3 -52.3530 -1.2064 23.7986 0.0000 0.0000 0.0000
# 4 0.0000 0.0000 0.0000 41.9324 0.0000 0.0000
# 5 0.0000 0.0000 0.0000 0.0000 18.9207 0.0000
# 6 0.0000 0.0000 0.0000 0.0000 0.0000 41.0631
#
#
#
# Elastic Compliance Matrix: (Units=1/GPa)
#
#
# Indices 1 2 3 4 5 6 
#
# 1 -0.007573 0.001306 -0.016593 0.000000 0.000000 0.000000
# 2 0.001306 0.008708 0.003314 0.000000 0.000000 0.000000
# 3 -0.016593 0.003314 0.005685 0.000000 0.000000 0.000000
# 4 0.000000 0.000000 0.000000 0.023848 0.000000 0.000000
# 5 0.000000 0.000000 0.000000 0.000000 0.052852 0.000000
# 6 0.000000 0.000000 0.000000 0.000000 0.000000 0.024353
#
#
# Mechanical properties :
#
#
# Convention : Reuss Voigt Hill
#
# Bulk Modulus (GPa) = -58.39450 6.56054 -25.91698
# Shear Modulus (GPa) = 39.64776 30.63981 35.14379
#
# Velocity S-wave (km/s) = 4.06277 3.57155 3.82505
# Velocity P-wave (km/s) = 1.51743 4.44288 2.95268
#
# Compressibility (1/GPa) = -0.01712490
#
# Stress axis : x y z
#
# Youngs Moduli (GPa) = -132.04851 114.83446 175.89197
#
# Poissons Ratio (x) = -0.14997 2.91859
# Poissons Ratio (y) = 0.17245 -0.58297
# Poissons Ratio (z) = -2.19109 -0.38060
#
# Static dielectric constant tensor:
#      x y z
#    x 1.962950 0.000000 0.000000 
#    y 0.000000 1.937650 0.000000 
#    z 0.000000 0.000000 1.898560 
# 
# From -- ./inp_files/4324.got.cif
#   From: 2010.05.17/outbox.cif.g08.bks.cpg/sg19_3_cif.got.tgz:4324.got - 2010.06.03 22:46:19.
