data_PCOD9315731
_publ_section_title
;
Structure prediction by ZEFSAII (Michael W. Deem and Ramdas Pophale) SiO2 
 PCOD9315731
Probable space group: P 21 21 21
;
_chemical_formula_sum "Si O2"
_cell_formula_units_Z 28
_cell_length_a 8.755353
_cell_length_b 11.154962
_cell_length_c 10.924635
_cell_angle_alpha 90.000000
_cell_angle_beta 90.000000
_cell_angle_gamma 90.000000
_cell_volume 1066.961360
_symmetry_space_group_name_H-M "P 21 21 21"
_symmetry_group_IT_number 19
_symmetry_cell_setting 'orthorhombic'
loop_
_space_group_symop_operation_xyz
x,y,z
1/2-x,-y,1/2+z
1/2+x,1/2-y,-z
-x,1/2+y,1/2-z
loop_
_atom_site_type_symbol
_atom_site_label
_atom_site_fract_x
_atom_site_fract_y
_atom_site_fract_z
Si Si1 0.418523 0.736715 0.318202
Si Si2 0.823430 0.650866 0.945381
Si Si3 0.423099 0.243178 0.928022
Si Si4 0.383156 0.500386 0.195549
Si Si5 0.740559 0.129261 0.611884
Si Si6 0.541012 0.493383 0.932715
Si Si7 0.581236 0.990717 0.922913
O O1 0.381291 0.802284 0.186517
O O2 0.254245 0.754752 0.389059
O O3 0.542190 0.754227 0.427102
O O4 0.459508 0.602677 0.274578
O O5 0.711729 0.539383 0.924278
O O6 0.743663 0.756599 0.024387
O O7 0.955765 0.603581 0.035006
O O8 0.507512 0.362857 0.877297
O O9 0.503486 0.117090 0.895546
O O10 0.338925 0.377711 0.265725
O O11 0.209724 0.547365 0.173295
O O12 0.486124 0.492461 0.074972
O O13 0.563706 0.097779 0.625926
O O14 0.805107 0.011690 0.540326
#
# Coordination Sequence:
#
# PCOD9315731 Si02
#       7
#     4   4   4   4   4   4   4
#     4  12  26  46  74 102 153 190 245 306 356 447
#     4  12  27  47  76 113 144 184 261 308 354 430
#     4  12  26  48  70 108 148 190 240 300 382 430
#     4  11  24  46  76 102 150 197 230 296 369 445
#     4  11  23  47  74 101 141 197 236 288 369 440
#     4  11  25  47  72 107 145 190 245 297 367 434
#     4  11  25  47  72 107 145 190 245 297 367 434
#
# _framework density 26.242750000000001
#
# number of rings (size 3 to 8) (size 9 to 14) (size 15 to 20)
#    0.000    0.571    5.714    2.571    4.000    0.000 
#    0.000    1.429    0.000    0.000    0.000    0.000 
#    0.000    0.000    0.000    0.000    0.000    0.000 
#
# Total GULP energy -156326.308844 kJ/mol
# GULP energy per Si atom -5583.082459 kJ/mol
# Density = 2.618302 g / cm^3
# Si number density = 26.242750 Si / 1000 Ang^3
#
#
#
# Elastic Constant Matrix: (Units=GPa)
#
#
# Indices 1 2 3 4 5 6 
#
# 1 70.8711 26.4388 24.0584 0.0000 0.0000 0.0000
# 2 26.4388 109.0353 30.5329 0.0000 0.0000 0.0000
# 3 24.0584 30.5329 136.2007 0.0000 0.0000 0.0000
# 4 0.0000 0.0000 0.0000 31.6921 0.0000 0.0000
# 5 0.0000 0.0000 0.0000 0.0000 41.0142 0.0000
# 6 0.0000 0.0000 0.0000 0.0000 0.0000 34.4894
#
#
#
# Elastic Compliance Matrix: (Units=1/GPa)
#
#
# Indices 1 2 3 4 5 6 
#
# 1 0.016055 -0.003306 -0.002095 0.000000 0.000000 0.000000
# 2 -0.003306 0.010467 -0.001762 0.000000 0.000000 0.000000
# 3 -0.002095 -0.001762 0.008107 0.000000 0.000000 0.000000
# 4 0.000000 0.000000 0.000000 0.031554 0.000000 0.000000
# 5 0.000000 0.000000 0.000000 0.000000 0.024382 0.000000
# 6 0.000000 0.000000 0.000000 0.000000 0.000000 0.028994
#
#
# Mechanical properties :
#
#
# Convention : Reuss Voigt Hill
#
# Bulk Modulus (GPa) = 49.25697 53.12969 51.19333
# Shear Modulus (GPa) = 35.54869 37.11093 36.32981
#
# Velocity S-wave (km/s) = 3.68450 3.76459 3.72476
# Velocity P-wave (km/s) = 6.07546 6.25984 6.16834
#
# Compressibility (1/GPa) = 0.02030169
#
# Stress axis : x y z
#
# Youngs Moduli (GPa) = 62.28728 95.54241 123.34746
#
# Poissons Ratio (x) = 0.31590 0.25837
# Poissons Ratio (y) = 0.20594 0.21738
# Poissons Ratio (z) = 0.13047 0.16838
#
# Static dielectric constant tensor:
#      x y z
#    x 2.263440 0.000000 0.000000 
#    y 0.000000 2.187040 0.000000 
#    z 0.000000 0.000000 2.186510 
# 
# From -- ./inp_files/4619.got.cif
#   From: 2010.05.17/outbox.cif.g08.bks.cpg/sg19_3_cif.got.tgz:4619.got - 2010.06.03 22:46:19.
