data_PCOD9315767
_publ_section_title
;
Structure prediction by ZEFSAII (Michael W. Deem and Ramdas Pophale) SiO2 
 PCOD9315767
Probable space group: P 21 21 21
;
_chemical_formula_sum "Si O2"
_cell_formula_units_Z 16
_cell_length_a 19.291236
_cell_length_b 5.462018
_cell_length_c 5.462026
_cell_angle_alpha 90.000000
_cell_angle_beta 90.000000
_cell_angle_gamma 90.000000
_cell_volume 575.528645
_symmetry_space_group_name_H-M "P 21 21 21"
_symmetry_group_IT_number 19
_symmetry_cell_setting 'orthorhombic'
loop_
_space_group_symop_operation_xyz
x,y,z
1/2-x,-y,1/2+z
1/2+x,1/2-y,-z
-x,1/2+y,1/2-z
loop_
_atom_site_type_symbol
_atom_site_label
_atom_site_fract_x
_atom_site_fract_y
_atom_site_fract_z
Si Si1 0.288742 0.278421 0.773276
Si Si2 0.161187 0.217958 0.516251
Si Si3 0.588814 0.733751 0.032039
Si Si4 0.538742 0.976727 0.528419
O O1 0.206226 0.252319 0.761014
O O2 0.308917 0.548340 0.864247
O O3 0.329570 0.235882 0.516897
O O4 0.319057 0.049951 0.924129
O O5 0.079570 0.266892 0.514116
O O6 0.543774 0.488988 0.997683
O O7 0.569058 0.825877 0.299948
O O8 0.558917 0.885752 0.798336
#
# Coordination Sequence:
#
# PCOD9315767 Si02
#       4
#     4   4   4   4
#     4  11  24  43  69 102 141 184 233 287 347 413
#     4  11  24  43  69 102 141 184 233 287 347 413
#     4  11  24  43  69 102 141 184 233 287 347 413
#     4  11  24  43  69 102 141 184 233 287 347 413
#
# _framework density 27.800525
#
# number of rings (size 3 to 8) (size 9 to 14) (size 15 to 20)
#    0.000    1.000    0.000    6.000    0.000   10.000 
#    0.000    0.000    0.000    0.000    0.000    0.000 
#    0.000    0.000    0.000    0.000    0.000    0.000 
#
# Total GULP energy -89524.932363 kJ/mol
# GULP energy per Si atom -5595.308273 kJ/mol
# Density = 2.773725 g / cm^3
# Si number density = 27.800525 Si / 1000 Ang^3
#
#
#
# Elastic Constant Matrix: (Units=GPa)
#
#
# Indices 1 2 3 4 5 6 
#
# 1 90.7717 27.9726 27.9713 0.0000 0.0000 0.0000
# 2 27.9726 118.3307 76.0170 0.0000 0.0000 0.0000
# 3 27.9713 76.0170 118.3392 0.0000 0.0000 0.0000
# 4 0.0000 0.0000 0.0000 68.0955 0.0000 0.0000
# 5 0.0000 0.0000 0.0000 0.0000 46.3610 0.0000
# 6 0.0000 0.0000 0.0000 0.0000 0.0000 46.3611
#
#
#
# Elastic Compliance Matrix: (Units=1/GPa)
#
#
# Indices 1 2 3 4 5 6 
#
# 1 0.012089 -0.001740 -0.001740 0.000000 0.000000 0.000000
# 2 -0.001740 0.014639 -0.008992 0.000000 0.000000 0.000000
# 3 -0.001740 -0.008992 0.014638 0.000000 0.000000 0.000000
# 4 0.000000 0.000000 0.000000 0.014685 0.000000 0.000000
# 5 0.000000 0.000000 0.000000 0.000000 0.021570 0.000000
# 6 0.000000 0.000000 0.000000 0.000000 0.000000 0.021570
#
#
# Mechanical properties :
#
#
# Convention : Reuss Voigt Hill
#
# Bulk Modulus (GPa) = 60.89523 65.70705 63.30114
# Shear Modulus (GPa) = 38.57770 45.19558 41.88664
#
# Velocity S-wave (km/s) = 3.72917 4.03638 3.88582
# Velocity P-wave (km/s) = 6.36351 6.73867 6.55377
#
# Compressibility (1/GPa) = 0.01642165
#
# Stress axis : x y z
#
# Youngs Moduli (GPa) = 82.72006 68.31073 68.31652
#
# Poissons Ratio (x) = 0.11888 0.11884
# Poissons Ratio (y) = 0.14395 0.61432
# Poissons Ratio (z) = 0.14390 0.61427
#
# Static dielectric constant tensor:
#      x y z
#    x 2.210300 0.000000 0.000000 
#    y 0.000000 2.195260 0.000000 
#    z 0.000000 0.000000 2.195260 
# 
# From -- ./inp_files/100.got.cif
#   From: 2010.05.17/outbox.cif.g08.bks.cpg/sg19_1_cif.got.tgz:100.got - 2010.06.03 22:46:19.
