data_PCOD9315635
_publ_section_title
;
Structure prediction by ZEFSAII (Michael W. Deem and Ramdas Pophale) SiO2 
 PCOD9315635
Probable space group: P 21 21 21
;
_chemical_formula_sum "Si O2"
_cell_formula_units_Z 28
_cell_length_a 18.537129
_cell_length_b 11.135100
_cell_length_c 5.910695
_cell_angle_alpha 90.000000
_cell_angle_beta 90.000000
_cell_angle_gamma 90.000000
_cell_volume 1220.043017
_symmetry_space_group_name_H-M "P 21 21 21"
_symmetry_group_IT_number 19
_symmetry_cell_setting 'orthorhombic'
loop_
_space_group_symop_operation_xyz
x,y,z
1/2-x,-y,1/2+z
1/2+x,1/2-y,-z
-x,1/2+y,1/2-z
loop_
_atom_site_type_symbol
_atom_site_label
_atom_site_fract_x
_atom_site_fract_y
_atom_site_fract_z
Si Si1 0.982535 0.131960 0.094307
Si Si2 0.141976 0.472902 0.576532
Si Si3 0.734314 0.837666 0.154688
Si Si4 0.500268 0.142268 0.204073
Si Si5 0.083057 0.982092 0.332495
Si Si6 0.100856 0.757198 0.074249
Si Si7 0.267256 0.936016 0.781298
O O1 0.969601 0.187026 0.340579
O O2 0.035604 0.022047 0.119950
O O3 0.011972 0.235760 0.937520
O O4 0.905093 0.079302 0.033327
O O5 0.203093 0.550165 0.704638
O O6 0.187198 0.379107 0.428266
O O7 0.077519 0.400879 0.702994
O O8 0.738539 0.700378 0.248679
O O9 0.671137 0.820494 0.968737
O O10 0.430602 0.177944 0.354561
O O11 0.469326 0.038812 0.040866
O O12 0.116374 0.853076 0.270567
O O13 0.148562 0.071979 0.346591
O O14 0.261632 0.002326 0.526522
#
# Coordination Sequence:
#
# PCOD9315635 Si02
#       7
#     4   4   4   4   4   4   4
#     4  11  25  42  75 105 144 191 256 318 384 470
#     4  12  27  47  74 115 157 210 252 336 413 489
#     4  12  27  47  75 111 166 205 262 329 420 493
#     4  11  25  46  77 107 148 197 264 322 390 477
#     4  11  25  43  74 106 143 191 264 332 384 464
#     4  11  22  47  69 105 142 198 247 322 385 465
#     4  12  29  50  80 117 158 218 271 333 410 486
#
# _framework density 22.950012000000001
#
# number of rings (size 3 to 8) (size 9 to 14) (size 15 to 20)
#    0.000    0.571    4.286    2.571    4.000    3.429 
#    0.000    0.000    0.000    0.000    0.000    0.000 
#    0.000    0.000    0.000    0.000    0.000    0.000 
#
# Total GULP energy -155927.307940 kJ/mol
# GULP energy per Si atom -5568.832426 kJ/mol
# Density = 2.289778 g / cm^3
# Si number density = 22.950012 Si / 1000 Ang^3
#
#
#
# Elastic Constant Matrix: (Units=GPa)
#
#
# Indices 1 2 3 4 5 6 
#
# 1 106.7598 24.5594 30.3763 0.0000 0.0000 0.0000
# 2 24.5594 74.4711 15.5978 0.0000 0.0000 0.0000
# 3 30.3763 15.5978 50.0601 0.0000 0.0000 0.0000
# 4 0.0000 0.0000 0.0000 11.3137 0.0000 0.0000
# 5 0.0000 0.0000 0.0000 0.0000 19.5872 0.0000
# 6 0.0000 0.0000 0.0000 0.0000 0.0000 51.2078
#
#
#
# Elastic Compliance Matrix: (Units=1/GPa)
#
#
# Indices 1 2 3 4 5 6 
#
# 1 0.011757 -0.002549 -0.006340 0.000000 0.000000 0.000000
# 2 -0.002549 0.014918 -0.003101 0.000000 0.000000 0.000000
# 3 -0.006340 -0.003101 0.024789 0.000000 0.000000 0.000000
# 4 0.000000 0.000000 0.000000 0.088388 0.000000 0.000000
# 5 0.000000 0.000000 0.000000 0.000000 0.051054 0.000000
# 6 0.000000 0.000000 0.000000 0.000000 0.000000 0.019528
#
#
# Mechanical properties :
#
#
# Convention : Reuss Voigt Hill
#
# Bulk Modulus (GPa) = 36.38527 41.37311 38.87919
# Shear Modulus (GPa) = 20.52732 27.13890 23.83311
#
# Velocity S-wave (km/s) = 2.99396 3.44251 3.22604
# Velocity P-wave (km/s) = 5.27639 5.81961 5.55464
#
# Compressibility (1/GPa) = 0.02748365
#
# Stress axis : x y z
#
# Youngs Moduli (GPa) = 85.05442 67.03149 40.33999
#
# Poissons Ratio (x) = 0.17089 0.25575
# Poissons Ratio (y) = 0.21684 0.12511
# Poissons Ratio (z) = 0.53923 0.20788
#
# Static dielectric constant tensor:
#      x y z
#    x 1.854640 0.000000 0.000000 
#    y 0.000000 2.225690 0.000000 
#    z 0.000000 0.000000 2.022040 
# 
# From -- ./inp_files/1744.got.cif
#   From: 2010.05.17/outbox.cif.g08.bks.cpg/sg19_1_cif.got.tgz:1744.got - 2010.06.03 22:46:19.
