data_PCOD9315684
_publ_section_title
;
Structure prediction by ZEFSAII (Michael W. Deem and Ramdas Pophale) SiO2 
 PCOD9315684
Probable space group: P 21 21 21
;
_chemical_formula_sum "Si O2"
_cell_formula_units_Z 20
_cell_length_a 6.328535
_cell_length_b 9.312479
_cell_length_c 14.022608
_cell_angle_alpha 90.000000
_cell_angle_beta 90.000000
_cell_angle_gamma 90.000000
_cell_volume 826.413278
_symmetry_space_group_name_H-M "P 21 21 21"
_symmetry_group_IT_number 19
_symmetry_cell_setting 'orthorhombic'
loop_
_space_group_symop_operation_xyz
x,y,z
1/2-x,-y,1/2+z
1/2+x,1/2-y,-z
-x,1/2+y,1/2-z
loop_
_atom_site_type_symbol
_atom_site_label
_atom_site_fract_x
_atom_site_fract_y
_atom_site_fract_z
Si Si1 0.333950 0.348161 0.851833
Si Si2 0.387158 0.108934 0.729996
Si Si3 0.120828 0.204239 0.414184
Si Si4 0.511455 0.568391 0.210174
Si Si5 0.270077 0.479217 0.532775
O O1 0.435599 0.193860 0.828500
O O2 0.473019 0.474080 0.802789
O O3 0.287221 0.394360 0.959441
O O4 0.117648 0.351493 0.791746
O O5 0.151806 0.050724 0.737391
O O6 0.436875 0.229132 0.651814
O O7 0.319483 0.163796 0.348496
O O8 0.179675 0.331132 0.485553
O O9 0.017582 0.062180 0.459020
O O10 0.351223 0.503242 0.132328
#
# Coordination Sequence:
#
# PCOD9315684 Si02
#       5
#     4   4   4   4   4
#     4  11  27  44  76 101 145 195 236 304 361 432
#     4  11  24  46  68 106 143 185 242 295 359 431
#     4  11  23  43  72 103 139 186 252 289 354 443
#     4  12  24  44  73 102 144 188 242 302 357 425
#     4  11  24  43  71 106 137 192 246 296 359 435
#
# _framework density 24.200966999999999
#
# number of rings (size 3 to 8) (size 9 to 14) (size 15 to 20)
#    0.000    0.800    6.000    0.000    8.400    0.000 
#    7.200    0.000    0.000    0.000    0.000    0.000 
#    0.000    0.000    0.000    0.000    0.000    0.000 
#
# Total GULP energy -111864.035442 kJ/mol
# GULP energy per Si atom -5593.201772 kJ/mol
# Density = 2.414588 g / cm^3
# Si number density = 24.200967 Si / 1000 Ang^3
#
#
#
# Elastic Constant Matrix: (Units=GPa)
#
#
# Indices 1 2 3 4 5 6 
#
# 1 77.1862 1.7356 22.3854 0.0000 0.0000 0.0000
# 2 1.7356 51.5962 -13.9324 0.0000 0.0000 0.0000
# 3 22.3854 -13.9324 71.7624 0.0000 0.0000 0.0000
# 4 0.0000 0.0000 0.0000 35.9298 0.0000 0.0000
# 5 0.0000 0.0000 0.0000 0.0000 42.6600 0.0000
# 6 0.0000 0.0000 0.0000 0.0000 0.0000 39.8425
#
#
#
# Elastic Compliance Matrix: (Units=1/GPa)
#
#
# Indices 1 2 3 4 5 6 
#
# 1 0.014399 -0.001791 -0.004839 0.000000 0.000000 0.000000
# 2 -0.001791 0.020676 0.004573 0.000000 0.000000 0.000000
# 3 -0.004839 0.004573 0.016332 0.000000 0.000000 0.000000
# 4 0.000000 0.000000 0.000000 0.027832 0.000000 0.000000
# 5 0.000000 0.000000 0.000000 0.000000 0.023441 0.000000
# 6 0.000000 0.000000 0.000000 0.000000 0.000000 0.025099
#
#
# Mechanical properties :
#
#
# Convention : Reuss Voigt Hill
#
# Bulk Modulus (GPa) = 21.14490 24.54690 22.84590
# Shear Modulus (GPa) = 33.86161 36.37687 35.11924
#
# Velocity S-wave (km/s) = 3.74462 3.88121 3.81353
# Velocity P-wave (km/s) = 5.23951 5.50000 5.37134
#
# Compressibility (1/GPa) = 0.04729274
#
# Stress axis : x y z
#
# Youngs Moduli (GPa) = 69.44688 48.36447 61.22833
#
# Poissons Ratio (x) = 0.08663 0.29631
# Poissons Ratio (y) = 0.12439 -0.27999
# Poissons Ratio (z) = 0.33609 -0.22117
#
# Static dielectric constant tensor:
#      x y z
#    x 1.952890 0.000000 0.000000 
#    y 0.000000 1.962240 0.000000 
#    z 0.000000 0.000000 1.962900 
# 
# From -- ./inp_files/5638.got.cif
#   From: 2010.05.17/outbox.cif.g08.bks.cpg/sg19_3_cif.got.tgz:5638.got - 2010.06.03 22:46:19.
