data_PCOD9315935
_publ_section_title
;
Structure prediction by ZEFSAII (Michael W. Deem and Ramdas Pophale) SiO2 
 PCOD9315935
Probable space group: P 21 21 21
;
_chemical_formula_sum "Si O2"
_cell_formula_units_Z 28
_cell_length_a 14.209253
_cell_length_b 5.361000
_cell_length_c 14.635509
_cell_angle_alpha 90.000000
_cell_angle_beta 90.000000
_cell_angle_gamma 90.000000
_cell_volume 1114.871685
_symmetry_space_group_name_H-M "P 21 21 21"
_symmetry_group_IT_number 19
_symmetry_cell_setting 'orthorhombic'
loop_
_space_group_symop_operation_xyz
x,y,z
1/2-x,-y,1/2+z
1/2+x,1/2-y,-z
-x,1/2+y,1/2-z
loop_
_atom_site_type_symbol
_atom_site_label
_atom_site_fract_x
_atom_site_fract_y
_atom_site_fract_z
Si Si1 0.235477 0.771695 0.416911
Si Si2 0.049432 0.261768 0.283429
Si Si3 0.210949 0.120426 0.578891
Si Si4 0.117474 0.787468 0.725979
Si Si5 0.432288 0.835562 0.384378
Si Si6 0.931867 0.915019 0.016642
Si Si7 0.224050 0.575198 0.228931
O O1 0.342735 0.675706 0.416915
O O2 0.155049 0.598605 0.459796
O O3 0.208294 0.775914 0.310040
O O4 0.238467 0.015541 0.480273
O O5 0.048379 0.256759 0.393211
O O6 0.150953 0.355399 0.248714
O O7 0.015636 0.999333 0.244070
O O8 0.109916 0.247625 0.563419
O O9 0.282302 0.306849 0.628808
O O10 0.188515 0.911267 0.653039
O O11 0.169081 0.523727 0.739738
O O12 0.016438 0.776894 0.676577
O O13 0.108261 0.943866 0.818986
O O14 0.481034 0.938099 0.475952
#
# Coordination Sequence:
#
# PCOD9315935 Si02
#       7
#     4   4   4   4   4   4   4
#     4  11  26  44  74 109 154 200 262 324 410 473
#     4  11  30  51  81 113 158 219 276 328 407 500
#     4  12  24  49  73 110 156 203 257 336 406 477
#     4  12  25  48  76 111 158 197 267 338 412 479
#     4  12  24  45  76 111 147 201 257 326 408 488
#     4  11  27  47  70 114 155 198 265 336 392 488
#     4  11  26  48  76 110 158 210 264 340 407 481
#
# _framework density 25.114999000000001
#
# number of rings (size 3 to 8) (size 9 to 14) (size 15 to 20)
#    0.000    0.571    4.286    1.714   12.000    1.143 
#    0.000    0.000    0.000    0.000    0.000    0.000 
#    0.000    0.000    0.000    0.000    0.000    0.000 
#
# Total GULP energy -156702.485072 kJ/mol
# GULP energy per Si atom -5596.517324 kJ/mol
# Density = 2.505784 g / cm^3
# Si number density = 25.114999 Si / 1000 Ang^3
#
#
#
# Elastic Constant Matrix: (Units=GPa)
#
#
# Indices 1 2 3 4 5 6 
#
# 1 105.1909 5.1614 13.2428 0.0000 0.0000 0.0000
# 2 5.1614 45.9187 29.1127 0.0000 0.0000 0.0000
# 3 13.2428 29.1127 110.7371 0.0000 0.0000 0.0000
# 4 0.0000 0.0000 0.0000 49.9276 0.0000 0.0000
# 5 0.0000 0.0000 0.0000 0.0000 46.1351 0.0000
# 6 0.0000 0.0000 0.0000 0.0000 0.0000 38.8875
#
#
#
# Elastic Compliance Matrix: (Units=1/GPa)
#
#
# Indices 1 2 3 4 5 6 
#
# 1 0.009659 -0.000424 -0.001044 0.000000 0.000000 0.000000
# 2 -0.000424 0.026152 -0.006825 0.000000 0.000000 0.000000
# 3 -0.001044 -0.006825 0.010949 0.000000 0.000000 0.000000
# 4 0.000000 0.000000 0.000000 0.020029 0.000000 0.000000
# 5 0.000000 0.000000 0.000000 0.000000 0.021675 0.000000
# 6 0.000000 0.000000 0.000000 0.000000 0.000000 0.025715
#
#
# Mechanical properties :
#
#
# Convention : Reuss Voigt Hill
#
# Bulk Modulus (GPa) = 33.13925 39.65338 36.39631
# Shear Modulus (GPa) = 35.50555 41.27870 38.39213
#
# Velocity S-wave (km/s) = 3.76402 4.05852 3.91404
# Velocity P-wave (km/s) = 5.66694 6.14696 5.91182
#
# Compressibility (1/GPa) = 0.03017570
#
# Stress axis : x y z
#
# Youngs Moduli (GPa) = 103.53347 38.23776 91.32921
#
# Poissons Ratio (x) = 0.01621 0.09531
# Poissons Ratio (y) = 0.04390 0.62329
# Poissons Ratio (z) = 0.10805 0.26096
#
# Static dielectric constant tensor:
#      x y z
#    x 2.000210 0.000000 0.000000 
#    y 0.000000 2.058370 0.000000 
#    z 0.000000 0.000000 1.929860 
# 
# From -- ./inp_files/6237.got.cif
#   From: 2010.05.17/outbox.cif.g08.bks.cpg/sg19_4_cif.got.tgz:6237.got - 2010.06.03 22:46:19.
