data_PCOD9315343
_publ_section_title
;
Structure prediction by ZEFSAII (Michael W. Deem and Ramdas Pophale) SiO2 
 PCOD9315343
Probable space group: P 21 21 21
;
_chemical_formula_sum "Si O2"
_cell_formula_units_Z 32
_cell_length_a 9.044070
_cell_length_b 12.423723
_cell_length_c 10.832542
_cell_angle_alpha 90.000000
_cell_angle_beta 90.000000
_cell_angle_gamma 90.000000
_cell_volume 1217.155473
_symmetry_space_group_name_H-M "P 21 21 21"
_symmetry_group_IT_number 19
_symmetry_cell_setting 'orthorhombic'
loop_
_space_group_symop_operation_xyz
x,y,z
1/2-x,-y,1/2+z
1/2+x,1/2-y,-z
-x,1/2+y,1/2-z
loop_
_atom_site_type_symbol
_atom_site_label
_atom_site_fract_x
_atom_site_fract_y
_atom_site_fract_z
Si Si1 0.660292 0.491074 0.123309
Si Si2 0.819293 0.467142 0.879814
Si Si3 0.711678 0.790679 0.856487
Si Si4 0.435228 0.805711 0.716393
Si Si5 0.590470 0.840810 0.478706
Si Si6 0.689338 0.847211 0.214657
Si Si7 0.653774 0.089919 0.146351
Si Si8 0.476612 0.199093 0.454909
O O1 0.680230 0.449626 0.262785
O O2 0.593569 0.610000 0.133712
O O3 0.788271 0.496440 0.022182
O O4 0.533538 0.426868 0.053515
O O5 0.685612 0.391358 0.829785
O O6 0.983709 0.419901 0.885590
O O7 0.561634 0.852918 0.808375
O O8 0.808028 0.807515 0.732457
O O9 0.846748 0.815230 0.952062
O O10 0.622557 0.692877 0.920828
O O11 0.522910 0.771287 0.591190
O O12 0.348594 0.710263 0.784256
O O13 0.628547 0.800393 0.343823
O O14 0.738146 0.895896 0.530826
O O15 0.578337 0.811408 0.105142
O O16 0.694870 0.976729 0.213736
#
# Coordination Sequence:
#
# PCOD9315343 Si02
#       8
#     4   4   4   4   4   4   4   4
#     4  11  24  49  71 110 148 193 248 314 375 456
#     4  11  23  49  76 107 152 196 248 312 378 453
#     4  11  25  47  69 106 148 191 239 316 372 439
#     4  10  24  45  71 103 143 189 249 305 371 450
#     4  10  25  46  69 100 148 192 242 303 378 459
#     4  12  24  43  72 104 139 192 242 311 374 440
#     4  11  25  46  72 104 149 197 245 302 383 450
#     4  12  26  41  74 102 149 184 257 309 373 443
#
# _framework density 26.290806
#
# number of rings (size 3 to 8) (size 9 to 14) (size 15 to 20)
#    0.000    1.000    3.750    0.750    7.000    3.000 
#    4.500    3.750    0.000    0.000    0.000    0.000 
#    0.000    0.000    0.000    0.000    0.000    0.000 
#
# Total GULP energy -178400.024916 kJ/mol
# GULP energy per Si atom -5575.000779 kJ/mol
# Density = 2.623097 g / cm^3
# Si number density = 26.290806 Si / 1000 Ang^3
#
#
#
# Elastic Constant Matrix: (Units=GPa)
#
#
# Indices 1 2 3 4 5 6 
#
# 1 207.5756 30.4473 73.2521 0.0000 0.0000 0.0000
# 2 30.4473 58.3271 21.0680 0.0000 0.0000 0.0000
# 3 73.2521 21.0680 113.9201 0.0000 0.0000 0.0000
# 4 0.0000 0.0000 0.0000 33.2833 0.0000 0.0000
# 5 0.0000 0.0000 0.0000 0.0000 57.4311 0.0000
# 6 0.0000 0.0000 0.0000 0.0000 0.0000 18.4690
#
#
#
# Elastic Compliance Matrix: (Units=1/GPa)
#
#
# Indices 1 2 3 4 5 6 
#
# 1 0.006442 -0.002000 -0.003773 0.000000 0.000000 0.000000
# 2 -0.002000 0.018993 -0.002226 0.000000 0.000000 0.000000
# 3 -0.003773 -0.002226 0.011616 0.000000 0.000000 0.000000
# 4 0.000000 0.000000 0.000000 0.030045 0.000000 0.000000
# 5 0.000000 0.000000 0.000000 0.000000 0.017412 0.000000
# 6 0.000000 0.000000 0.000000 0.000000 0.000000 0.054145
#
#
# Mechanical properties :
#
#
# Convention : Reuss Voigt Hill
#
# Bulk Modulus (GPa) = 47.49997 69.92862 58.71430
# Shear Modulus (GPa) = 30.92746 38.84035 34.88391
#
# Velocity S-wave (km/s) = 3.43353 3.84778 3.64654
# Velocity P-wave (km/s) = 5.81595 6.81149 6.33331
#
# Compressibility (1/GPa) = 0.02105264
#
# Stress axis : x y z
#
# Youngs Moduli (GPa) = 155.22613 52.65096 86.09124
#
# Poissons Ratio (x) = 0.10532 0.32478
# Poissons Ratio (y) = 0.31049 0.19167
# Poissons Ratio (z) = 0.58559 0.11722
#
# Static dielectric constant tensor:
#      x y z
#    x 2.124630 0.000000 0.000000 
#    y 0.000000 2.113170 0.000000 
#    z 0.000000 0.000000 2.179000 
# 
# From -- ./inp_files/4686.got.cif
#   From: 2010.05.17/outbox.cif.g08.bks.cpg/sg19_3_cif.got.tgz:4686.got - 2010.06.03 22:46:19.
