data_PCOD9315076
_publ_section_title
;
Structure prediction by ZEFSAII (Michael W. Deem and Ramdas Pophale) SiO2 
 PCOD9315076
Probable space group: P 21 21 21
;
_chemical_formula_sum "Si O2"
_cell_formula_units_Z 32
_cell_length_a 16.686893
_cell_length_b 13.777304
_cell_length_c 5.348997
_cell_angle_alpha 90.000000
_cell_angle_beta 90.000000
_cell_angle_gamma 90.000000
_cell_volume 1229.736537
_symmetry_space_group_name_H-M "P 21 21 21"
_symmetry_group_IT_number 19
_symmetry_cell_setting 'orthorhombic'
loop_
_space_group_symop_operation_xyz
x,y,z
1/2-x,-y,1/2+z
1/2+x,1/2-y,-z
-x,1/2+y,1/2-z
loop_
_atom_site_type_symbol
_atom_site_label
_atom_site_fract_x
_atom_site_fract_y
_atom_site_fract_z
Si Si1 0.468620 0.515722 0.875871
Si Si2 0.557398 0.806947 0.807414
Si Si3 0.294825 0.224078 0.969233
Si Si4 0.172966 0.399228 0.718923
Si Si5 0.456803 0.673044 0.518408
Si Si6 0.902784 0.404113 0.718690
Si Si7 0.688750 0.882235 0.144820
Si Si8 0.214667 0.044921 0.736712
O O1 0.457003 0.401522 0.863380
O O2 0.459460 0.561322 0.604813
O O3 0.396414 0.563680 0.030060
O O4 0.553642 0.554165 0.974123
O O5 0.627805 0.736991 0.708071
O O6 0.478069 0.743114 0.749491
O O7 0.599545 0.849959 0.056688
O O8 0.325525 0.160695 0.209632
O O9 0.284978 0.329289 0.100106
O O10 0.233983 0.154074 0.821475
O O11 0.246813 0.354998 0.567932
O O12 0.128799 0.320215 0.891877
O O13 0.196579 0.501563 0.843139
O O14 0.528043 0.669446 0.318486
O O15 0.874072 0.507380 0.840801
O O16 0.267760 0.013160 0.498343
#
# Coordination Sequence:
#
# PCOD9315076 Si02
#       8
#     4   4   4   4   4   4   4   4
#     4  11  21  43  66  95 138 182 227 292 355 433
#     4  11  23  42  71  96 136 185 240 289 367 443
#     4  10  23  42  69  99 131 181 242 295 358 446
#     4  11  25  43  67 102 140 181 237 299 372 431
#     4  10  23  44  70 102 142 187 237 300 363 440
#     4   9  22  41  68  99 135 184 229 289 367 437
#     4  12  24  43  71 100 138 186 241 302 369 444
#     4  10  23  42  70 103 142 184 239 300 371 438
#
# _framework density 26.021837000000001
#
# number of rings (size 3 to 8) (size 9 to 14) (size 15 to 20)
#    0.000    1.500    2.500    1.500    8.750    0.000 
#    4.500    0.000    0.000    0.000    0.000    0.000 
#    0.000    0.000    0.000    0.000    0.000    0.000 
#
# Total GULP energy -178397.907167 kJ/mol
# GULP energy per Si atom -5574.934599 kJ/mol
# Density = 2.596261 g / cm^3
# Si number density = 26.021837 Si / 1000 Ang^3
#
#
#
# Elastic Constant Matrix: (Units=GPa)
#
#
# Indices 1 2 3 4 5 6 
#
# 1 58.2815 25.6288 7.0629 0.0000 0.0000 0.0000
# 2 25.6288 136.3540 10.6869 0.0000 0.0000 0.0000
# 3 7.0629 10.6869 48.9710 0.0000 0.0000 0.0000
# 4 0.0000 0.0000 0.0000 47.6365 0.0000 0.0000
# 5 0.0000 0.0000 0.0000 0.0000 36.3699 0.0000
# 6 0.0000 0.0000 0.0000 0.0000 0.0000 47.3618
#
#
#
# Elastic Compliance Matrix: (Units=1/GPa)
#
#
# Indices 1 2 3 4 5 6 
#
# 1 0.018892 -0.003395 -0.001984 0.000000 0.000000 0.000000
# 2 -0.003395 0.008072 -0.001272 0.000000 0.000000 0.000000
# 3 -0.001984 -0.001272 0.020984 0.000000 0.000000 0.000000
# 4 0.000000 0.000000 0.000000 0.020992 0.000000 0.000000
# 5 0.000000 0.000000 0.000000 0.000000 0.027495 0.000000
# 6 0.000000 0.000000 0.000000 0.000000 0.000000 0.021114
#
#
# Mechanical properties :
#
#
# Convention : Reuss Voigt Hill
#
# Bulk Modulus (GPa) = 28.86376 36.70709 32.78543
# Shear Modulus (GPa) = 35.11262 39.62217 37.36740
#
# Velocity S-wave (km/s) = 3.67734 3.90635 3.79357
# Velocity P-wave (km/s) = 5.39876 5.87222 5.64046
#
# Compressibility (1/GPa) = 0.03464552
#
# Stress axis : x y z
#
# Youngs Moduli (GPa) = 52.93367 123.88948 47.65558
#
# Poissons Ratio (x) = 0.42065 0.09453
# Poissons Ratio (y) = 0.17973 0.06061
# Poissons Ratio (z) = 0.10500 0.15756
#
# Static dielectric constant tensor:
#      x y z
#    x 2.259090 0.000000 0.000000 
#    y 0.000000 2.069530 0.000000 
#    z 0.000000 0.000000 2.150560 
# 
# From -- ./inp_files/1835.got.cif
#   From: 2010.05.17/outbox.cif.g08.bks.cpg/sg19_1_cif.got.tgz:1835.got - 2010.06.03 22:46:19.
