data_PCOD9315171
_publ_section_title
;
Structure prediction by ZEFSAII (Michael W. Deem and Ramdas Pophale) SiO2 
 PCOD9315171
Probable space group: P 21 21 21
;
_chemical_formula_sum "Si O2"
_cell_formula_units_Z 28
_cell_length_a 6.895500
_cell_length_b 12.346604
_cell_length_c 16.704756
_cell_angle_alpha 90.000000
_cell_angle_beta 90.000000
_cell_angle_gamma 90.000000
_cell_volume 1422.176238
_symmetry_space_group_name_H-M "P 21 21 21"
_symmetry_group_IT_number 19
_symmetry_cell_setting 'orthorhombic'
loop_
_space_group_symop_operation_xyz
x,y,z
1/2-x,-y,1/2+z
1/2+x,1/2-y,-z
-x,1/2+y,1/2-z
loop_
_atom_site_type_symbol
_atom_site_label
_atom_site_fract_x
_atom_site_fract_y
_atom_site_fract_z
Si Si1 0.659159 0.872886 0.559657
Si Si2 0.566113 0.618615 0.155775
Si Si3 0.478843 0.131509 0.951810
Si Si4 0.590737 0.360188 0.343875
Si Si5 0.618222 0.538397 0.720628
Si Si6 0.831116 0.466660 0.480396
Si Si7 0.214248 0.465106 0.789085
O O1 0.556966 0.759382 0.541980
O O2 0.761652 0.868735 0.646512
O O3 0.814132 0.893517 0.490064
O O4 0.509634 0.972144 0.560815
O O5 0.515096 0.745047 0.158619
O O6 0.758650 0.570609 0.199351
O O7 0.391444 0.564841 0.206222
O O8 0.593105 0.583362 0.063687
O O9 0.449692 0.094606 0.860941
O O10 0.320507 0.062185 0.999821
O O11 0.739392 0.383994 0.271045
O O12 0.718171 0.382410 0.423580
O O13 0.422426 0.449092 0.334020
O O14 0.425215 0.509285 0.768035
#
# Coordination Sequence:
#
# PCOD9315171 Si02
#       7
#     4   4   4   4   4   4   4
#     4  12  22  39  69  94 133 176 215 275 334 384
#     4  10  25  43  66  95 135 176 221 271 328 390
#     4  11  23  40  65  97 129 172 218 269 333 391
#     4  11  23  44  67  96 132 176 220 272 328 388
#     4  10  23  45  65  96 133 167 222 275 325 393
#     4  11  23  44  63  96 137 170 226 274 315 399
#     4  11  23  43  67  98 131 171 224 274 321 401
#
# _framework density 19.688136
#
# number of rings (size 3 to 8) (size 9 to 14) (size 15 to 20)
#    0.000    1.143    4.286    1.714    0.000    3.429 
#    7.714    0.000    0.000    0.000    0.000    0.000 
#    0.000    0.000    0.000    0.000    0.000    0.000 
#
# Total GULP energy -156319.637952 kJ/mol
# GULP energy per Si atom -5582.844213 kJ/mol
# Density = 1.964333 g / cm^3
# Si number density = 19.688136 Si / 1000 Ang^3
#
#
#
# Elastic Constant Matrix: (Units=GPa)
#
#
# Indices 1 2 3 4 5 6 
#
# 1 76.3708 21.7085 36.0295 0.0000 0.0000 0.0000
# 2 21.7085 73.8366 19.6040 0.0000 0.0000 0.0000
# 3 36.0295 19.6040 94.3234 0.0000 0.0000 0.0000
# 4 0.0000 0.0000 0.0000 41.8451 0.0000 0.0000
# 5 0.0000 0.0000 0.0000 0.0000 31.1769 0.0000
# 6 0.0000 0.0000 0.0000 0.0000 0.0000 10.4277
#
#
#
# Elastic Compliance Matrix: (Units=1/GPa)
#
#
# Indices 1 2 3 4 5 6 
#
# 1 0.016748 -0.003414 -0.005688 0.000000 0.000000 0.000000
# 2 -0.003414 0.015030 -0.001820 0.000000 0.000000 0.000000
# 3 -0.005688 -0.001820 0.013153 0.000000 0.000000 0.000000
# 4 0.000000 0.000000 0.000000 0.023898 0.000000 0.000000
# 5 0.000000 0.000000 0.000000 0.000000 0.032075 0.000000
# 6 0.000000 0.000000 0.000000 0.000000 0.000000 0.095899
#
#
# Mechanical properties :
#
#
# Convention : Reuss Voigt Hill
#
# Bulk Modulus (GPa) = 43.31293 44.35721 43.83507
# Shear Modulus (GPa) = 22.09057 27.83586 24.96322
#
# Velocity S-wave (km/s) = 3.35330 3.76418 3.56467
# Velocity P-wave (km/s) = 6.08606 6.43979 6.26542
#
# Compressibility (1/GPa) = 0.02308780
#
# Stress axis : x y z
#
# Youngs Moduli (GPa) = 59.70970 66.53231 76.03031
#
# Poissons Ratio (x) = 0.22713 0.43244
# Poissons Ratio (y) = 0.20384 0.13836
# Poissons Ratio (z) = 0.33961 0.12108
#
# Static dielectric constant tensor:
#      x y z
#    x 1.642860 0.000000 0.000000 
#    y 0.000000 1.662410 0.000000 
#    z 0.000000 0.000000 1.701410 
# 
# From -- ./inp_files/1053.got.cif
#   From: 2010.05.17/outbox.cif.g08.bks.cpg/sg19_1_cif.got.tgz:1053.got - 2010.06.03 22:46:19.
