data_PCOD9315747
_publ_section_title
;
Structure prediction by ZEFSAII (Michael W. Deem and Ramdas Pophale) SiO2 
 PCOD9315747
Probable space group: P 21 21 21
;
_chemical_formula_sum "Si O2"
_cell_formula_units_Z 32
_cell_length_a 12.372737
_cell_length_b 9.190972
_cell_length_c 13.909383
_cell_angle_alpha 90.000000
_cell_angle_beta 90.000000
_cell_angle_gamma 90.000000
_cell_volume 1581.739974
_symmetry_space_group_name_H-M "P 21 21 21"
_symmetry_group_IT_number 19
_symmetry_cell_setting 'orthorhombic'
loop_
_space_group_symop_operation_xyz
x,y,z
1/2-x,-y,1/2+z
1/2+x,1/2-y,-z
-x,1/2+y,1/2-z
loop_
_atom_site_type_symbol
_atom_site_label
_atom_site_fract_x
_atom_site_fract_y
_atom_site_fract_z
Si Si1 0.721393 0.330089 0.348155
Si Si2 0.540840 0.375948 0.503346
Si Si3 0.738400 0.662443 0.310615
Si Si4 0.896264 0.193563 0.667464
Si Si5 0.581116 0.137871 0.224089
Si Si6 0.048557 0.790354 0.544200
Si Si7 0.990280 0.638128 0.355841
Si Si8 0.966388 0.307686 0.328148
O O1 0.642357 0.322323 0.439664
O O2 0.706395 0.491968 0.304215
O O3 0.685304 0.209902 0.271364
O O4 0.846272 0.316003 0.371812
O O5 0.433063 0.333057 0.441841
O O6 0.550503 0.550253 0.505143
O O7 0.534373 0.301741 0.606125
O O8 0.715185 0.743404 0.209691
O O9 0.656675 0.726614 0.391431
O O10 0.861572 0.667971 0.344950
O O11 0.982958 0.308486 0.708926
O O12 0.913455 0.035081 0.715257
O O13 0.550129 0.202132 0.119971
O O14 0.030530 0.672471 0.462562
O O15 0.011374 0.470741 0.329490
O O16 0.043266 0.744779 0.278434
#
# Coordination Sequence:
#
# PCOD9315747 Si02
#       8
#     4   4   4   4   4   4   4   4
#     4   9  20  38  58  81 112 149 186 228 279 331
#     4   9  19  37  58  82 111 143 184 230 274 328
#     4   9  20  38  58  81 112 149 186 228 279 331
#     4   9  17  31  55  85 113 141 179 227 274 323
#     4   9  17  31  55  85 113 141 179 227 274 323
#     4   9  19  37  58  82 111 143 184 230 274 328
#     4  11  24  40  57  80 112 149 187 229 280 334
#     4  11  24  40  57  80 112 149 187 229 280 334
#
# _framework density 20.230882999999999
#
# number of rings (size 3 to 8) (size 9 to 14) (size 15 to 20)
#    0.000    2.500    0.000    3.000    0.000    9.000 
#    0.000    7.500    0.000    0.000    0.000    0.000 
#    0.000    0.000    0.000    0.000    0.000    0.000 
#
# Total GULP energy -178504.515155 kJ/mol
# GULP energy per Si atom -5578.266099 kJ/mol
# Density = 2.018484 g / cm^3
# Si number density = 20.230883 Si / 1000 Ang^3
#
#
#
# Elastic Constant Matrix: (Units=GPa)
#
#
# Indices 1 2 3 4 5 6 
#
# 1 33.0923 0.3141 -10.0583 0.0000 0.0000 0.0000
# 2 0.3141 30.3535 -4.6054 0.0000 0.0000 0.0000
# 3 -10.0583 -4.6054 12.0451 0.0000 0.0000 0.0000
# 4 0.0000 0.0000 0.0000 33.3710 0.0000 0.0000
# 5 0.0000 0.0000 0.0000 0.0000 16.2220 0.0000
# 6 0.0000 0.0000 0.0000 0.0000 0.0000 20.0424
#
#
#
# Elastic Compliance Matrix: (Units=1/GPa)
#
#
# Indices 1 2 3 4 5 6 
#
# 1 0.041225 0.005092 0.036372 0.000000 0.000000 0.000000
# 2 0.005092 0.035603 0.017865 0.000000 0.000000 0.000000
# 3 0.036372 0.017865 0.120225 0.000000 0.000000 0.000000
# 4 0.000000 0.000000 0.000000 0.029966 0.000000 0.000000
# 5 0.000000 0.000000 0.000000 0.000000 0.061645 0.000000
# 6 0.000000 0.000000 0.000000 0.000000 0.000000 0.049894
#
#
# Mechanical properties :
#
#
# Convention : Reuss Voigt Hill
#
# Bulk Modulus (GPa) = 3.16745 5.19910 4.18328
# Shear Modulus (GPa) = 15.37810 19.91644 17.64727
#
# Velocity S-wave (km/s) = 2.76004 3.14101 2.95667
# Velocity P-wave (km/s) = 3.42434 3.96611 3.70514
#
# Compressibility (1/GPa) = 0.31571103
#
# Stress axis : x y z
#
# Youngs Moduli (GPa) = 24.25687 28.08760 8.31774
#
# Poissons Ratio (x) = -0.14302 -0.30254
# Poissons Ratio (y) = -0.12351 -0.14859
# Poissons Ratio (z) = -0.88228 -0.50177
#
# Static dielectric constant tensor:
#      x y z
#    x 1.755370 0.000000 0.000000 
#    y 0.000000 1.695520 0.000000 
#    z 0.000000 0.000000 1.706760 
# 
# From -- ./inp_files/6129.got.cif
#   From: 2010.05.17/outbox.cif.g08.bks.cpg/sg19_4_cif.got.tgz:6129.got - 2010.06.03 22:46:19.
