data_PCOD9315511
_publ_section_title
;
Structure prediction by ZEFSAII (Michael W. Deem and Ramdas Pophale) SiO2 
 PCOD9315511
Probable space group: P 21 21 21
;
_chemical_formula_sum "Si O2"
_cell_formula_units_Z 20
_cell_length_a 9.170002
_cell_length_b 5.067194
_cell_length_c 20.308524
_cell_angle_alpha 90.000000
_cell_angle_beta 90.000000
_cell_angle_gamma 90.000000
_cell_volume 943.659514
_symmetry_space_group_name_H-M "P 21 21 21"
_symmetry_group_IT_number 19
_symmetry_cell_setting 'orthorhombic'
loop_
_space_group_symop_operation_xyz
x,y,z
1/2-x,-y,1/2+z
1/2+x,1/2-y,-z
-x,1/2+y,1/2-z
loop_
_atom_site_type_symbol
_atom_site_label
_atom_site_fract_x
_atom_site_fract_y
_atom_site_fract_z
Si Si1 0.545849 0.609252 0.051661
Si Si2 0.380941 0.846138 0.923062
Si Si3 0.266288 0.760439 0.111576
Si Si4 0.031101 0.834400 0.208933
Si Si5 0.104047 0.268532 0.049372
O O1 0.710281 0.687619 0.067570
O O2 0.437168 0.701496 0.108799
O O3 0.462879 0.728538 0.987303
O O4 0.568974 0.307021 0.026203
O O5 0.434399 0.712627 0.856090
O O6 0.446231 0.145745 0.921089
O O7 0.200580 0.519392 0.068847
O O8 0.193031 0.762099 0.183291
O O9 0.201135 0.027771 0.078644
O O10 0.980589 0.628297 0.264032
#
# Coordination Sequence:
#
# PCOD9315511 Si02
#       5
#     4   4   4   4   4
#     4  12  22  42  66 104 133 165 208 280 337 390
#     4  11  23  40  69  99 132 170 216 267 335 387
#     4  11  24  41  65  95 131 167 218 265 326 386
#     4  11  23  44  64  85 125 176 224 259 311 389
#     4  11  20  41  60  97 131 166 198 263 329 390
#
# _framework density 21.194087
#
# number of rings (size 3 to 8) (size 9 to 14) (size 15 to 20)
#    0.000    0.800    6.000    3.600    0.000    0.000 
#    0.000    2.000    0.000    0.000    0.000    0.000 
#    0.000    0.000    0.000    0.000    0.000    0.000 
#
# Total GULP energy -111458.398981 kJ/mol
# GULP energy per Si atom -5572.919949 kJ/mol
# Density = 2.114585 g / cm^3
# Si number density = 21.194087 Si / 1000 Ang^3
#
#
#
# Elastic Constant Matrix: (Units=GPa)
#
#
# Indices 1 2 3 4 5 6 
#
# 1 185.0610 19.2897 18.3663 0.0000 0.0000 0.0000
# 2 19.2897 107.4799 -3.2892 0.0000 0.0000 0.0000
# 3 18.3663 -3.2892 54.1482 0.0000 0.0000 0.0000
# 4 0.0000 0.0000 0.0000 30.2832 0.0000 0.0000
# 5 0.0000 0.0000 0.0000 0.0000 32.3950 0.0000
# 6 0.0000 0.0000 0.0000 0.0000 0.0000 18.5355
#
#
#
# Elastic Compliance Matrix: (Units=1/GPa)
#
#
# Indices 1 2 3 4 5 6 
#
# 1 0.005716 -0.001087 -0.002005 0.000000 0.000000 0.000000
# 2 -0.001087 0.009528 0.000948 0.000000 0.000000 0.000000
# 3 -0.002005 0.000948 0.019205 0.000000 0.000000 0.000000
# 4 0.000000 0.000000 0.000000 0.033022 0.000000 0.000000
# 5 0.000000 0.000000 0.000000 0.000000 0.030869 0.000000
# 6 0.000000 0.000000 0.000000 0.000000 0.000000 0.053950
#
#
# Mechanical properties :
#
#
# Convention : Reuss Voigt Hill
#
# Bulk Modulus (GPa) = 33.15587 46.15809 39.65698
# Shear Modulus (GPa) = 30.00608 37.06422 33.53515
#
# Velocity S-wave (km/s) = 3.76676 4.18640 3.98211
# Velocity P-wave (km/s) = 5.88183 6.72265 6.31624
#
# Compressibility (1/GPa) = 0.03016057
#
# Stress axis : x y z
#
# Youngs Moduli (GPa) = 174.95010 104.95175 52.06872
#
# Poissons Ratio (x) = 0.11410 0.10439
# Poissons Ratio (y) = 0.19021 -0.04934
# Poissons Ratio (z) = 0.35074 -0.09945
#
# Static dielectric constant tensor:
#      x y z
#    x 1.820950 0.000000 0.000000 
#    y 0.000000 1.917940 0.000000 
#    z 0.000000 0.000000 1.800500 
# 
# From -- ./inp_files/6985.got.cif
#   From: 2010.05.17/outbox.cif.g08.bks.cpg/sg19_4_cif.got.tgz:6985.got - 2010.06.03 22:46:19.
