data_PCOD9315892
_publ_section_title
;
Structure prediction by ZEFSAII (Michael W. Deem and Ramdas Pophale) SiO2 
 PCOD9315892
Probable space group: P 21 21 21
;
_chemical_formula_sum "Si O2"
_cell_formula_units_Z 20
_cell_length_a 14.238342
_cell_length_b 4.932661
_cell_length_c 10.616243
_cell_angle_alpha 90.000000
_cell_angle_beta 90.000000
_cell_angle_gamma 90.000000
_cell_volume 745.609685
_symmetry_space_group_name_H-M "P 21 21 21"
_symmetry_group_IT_number 19
_symmetry_cell_setting 'orthorhombic'
loop_
_space_group_symop_operation_xyz
x,y,z
1/2-x,-y,1/2+z
1/2+x,1/2-y,-z
-x,1/2+y,1/2-z
loop_
_atom_site_type_symbol
_atom_site_label
_atom_site_fract_x
_atom_site_fract_y
_atom_site_fract_z
Si Si1 0.766077 0.009687 0.014166
Si Si2 0.458636 0.725614 0.687149
Si Si3 0.468828 0.476389 0.051528
Si Si4 0.123463 0.736005 0.806700
Si Si5 0.765403 0.483723 0.351367
O O1 0.875136 0.921855 0.018993
O O2 0.724421 0.816149 0.904623
O O3 0.763029 0.319264 0.968575
O O4 0.703185 0.954364 0.134611
O O5 0.470965 0.422958 0.735766
O O6 0.358648 0.874335 0.700724
O O7 0.487290 0.752889 0.540556
O O8 0.432833 0.380791 0.188042
O O9 0.551463 0.681175 0.085135
O O10 0.181267 0.986778 0.747859
#
# Coordination Sequence:
#
# PCOD9315892 Si02
#       5
#     4   4   4   4   4
#     4  11  25  46  71 107 154 190 249 308 383 443
#     4  12  27  48  75 107 154 200 252 309 383 462
#     4  11  26  46  78 117 147 205 254 317 386 458
#     4  11  25  46  78 114 153 197 259 323 373 464
#     4  11  25  46  70 107 150 198 242 313 375 453
#
# _framework density 26.823689000000002
#
# number of rings (size 3 to 8) (size 9 to 14) (size 15 to 20)
#    0.000    0.800    2.000    3.600    2.800   11.200 
#    0.000    0.000    0.000    0.000    0.000    0.000 
#    0.000    0.000    0.000    0.000    0.000    0.000 
#
# Total GULP energy -112203.027084 kJ/mol
# GULP energy per Si atom -5610.151354 kJ/mol
# Density = 2.676264 g / cm^3
# Si number density = 26.823689 Si / 1000 Ang^3
#
#
#
# Elastic Constant Matrix: (Units=GPa)
#
#
# Indices 1 2 3 4 5 6 
#
# 1 139.4764 7.2893 40.9080 0.0000 0.0000 0.0000
# 2 7.2893 105.6464 44.1600 0.0000 0.0000 0.0000
# 3 40.9080 44.1600 128.9246 0.0000 0.0000 0.0000
# 4 0.0000 0.0000 0.0000 41.5125 0.0000 0.0000
# 5 0.0000 0.0000 0.0000 0.0000 56.3392 0.0000
# 6 0.0000 0.0000 0.0000 0.0000 0.0000 26.4219
#
#
#
# Elastic Compliance Matrix: (Units=1/GPa)
#
#
# Indices 1 2 3 4 5 6 
#
# 1 0.007937 0.000589 -0.002720 0.000000 0.000000 0.000000
# 2 0.000589 0.011091 -0.003986 0.000000 0.000000 0.000000
# 3 -0.002720 -0.003986 0.009985 0.000000 0.000000 0.000000
# 4 0.000000 0.000000 0.000000 0.024089 0.000000 0.000000
# 5 0.000000 0.000000 0.000000 0.000000 0.017750 0.000000
# 6 0.000000 0.000000 0.000000 0.000000 0.000000 0.037847
#
#
# Mechanical properties :
#
#
# Convention : Reuss Voigt Hill
#
# Bulk Modulus (GPa) = 59.59805 62.08465 60.84135
# Shear Modulus (GPa) = 39.51778 43.63405 41.57591
#
# Velocity S-wave (km/s) = 3.84245 4.03761 3.94124
# Velocity P-wave (km/s) = 6.47708 6.70314 6.59108
#
# Compressibility (1/GPa) = 0.01677907
#
# Stress axis : x y z
#
# Youngs Moduli (GPa) = 125.99690 90.16314 100.15111
#
# Poissons Ratio (x) = -0.05315 0.27243
# Poissons Ratio (y) = -0.07427 0.39920
# Poissons Ratio (z) = 0.34274 0.35939
#
# Static dielectric constant tensor:
#      x y z
#    x 2.142260 0.000000 0.000000 
#    y 0.000000 2.021320 0.000000 
#    z 0.000000 0.000000 2.085700 
# 
# From -- ./inp_files/853.got.cif
#   From: 2010.05.17/outbox.cif.g08.bks.cpg/sg19_1_cif.got.tgz:853.got - 2010.06.03 22:46:19.
