data_PCOD9315986
_publ_section_title
;
Structure prediction by ZEFSAII (Michael W. Deem and Ramdas Pophale) SiO2 
 PCOD9315986
Probable space group: P 21 21 21
;
_chemical_formula_sum "Si O2"
_cell_formula_units_Z 24
_cell_length_a 11.436313
_cell_length_b 8.876583
_cell_length_c 9.339513
_cell_angle_alpha 90.000000
_cell_angle_beta 90.000000
_cell_angle_gamma 90.000000
_cell_volume 948.104226
_symmetry_space_group_name_H-M "P 21 21 21"
_symmetry_group_IT_number 19
_symmetry_cell_setting 'orthorhombic'
loop_
_space_group_symop_operation_xyz
x,y,z
1/2-x,-y,1/2+z
1/2+x,1/2-y,-z
-x,1/2+y,1/2-z
loop_
_atom_site_type_symbol
_atom_site_label
_atom_site_fract_x
_atom_site_fract_y
_atom_site_fract_z
Si Si1 0.619998 0.631072 0.947857
Si Si2 0.219706 0.162249 0.300430
Si Si3 0.499705 0.949439 0.961226
Si Si4 0.817751 0.795360 0.492592
Si Si5 0.629441 0.050804 0.532203
Si Si6 0.139809 0.189414 0.697037
O O1 0.574404 0.801770 0.922191
O O2 0.734946 0.623585 0.850808
O O3 0.664071 0.620944 0.112484
O O4 0.505739 0.529167 0.925828
O O5 0.116373 0.060191 0.365892
O O6 0.219557 0.182551 0.131782
O O7 0.188585 0.331669 0.357913
O O8 0.576245 0.096512 0.944459
O O9 0.457477 0.916472 0.124120
O O10 0.860032 0.715867 0.636202
O O11 0.706851 0.902980 0.523883
O O12 0.629114 0.149077 0.385314
#
# Coordination Sequence:
#
# PCOD9315986 Si02
#       6
#     4   4   4   4   4   4
#     4   8  16  36  53  79 121 159 185 239 322 326
#     4   9  19  34  57  87 121 157 201 249 292 376
#     4   9  19  36  57  83 127 160 191 260 306 340
#     4  12  19  34  66  94 107 164 216 232 304 369
#     4   9  18  32  60  80 117 157 194 251 288 367
#     4   9  19  34  57  87 121 157 201 249 292 376
#
# _framework density 25.313672
#
# number of rings (size 3 to 8) (size 9 to 14) (size 15 to 20)
#    0.000    3.333    3.333    1.000    0.000    0.000 
#    0.000   11.667    0.000   40.000    0.000    0.000 
#    0.000    0.000    0.000    0.000    0.000    0.000 
#
# Total GULP energy -134487.478579 kJ/mol
# GULP energy per Si atom -5603.644941 kJ/mol
# Density = 2.525606 g / cm^3
# Si number density = 25.313672 Si / 1000 Ang^3
#
#
#
# Elastic Constant Matrix: (Units=GPa)
#
#
# Indices 1 2 3 4 5 6 
#
# 1 94.3032 24.4323 -35.4555 0.0000 0.0000 0.0000
# 2 24.4323 82.6665 5.6039 0.0000 0.0000 0.0000
# 3 -35.4555 5.6039 93.9287 0.0000 0.0000 0.0000
# 4 0.0000 0.0000 0.0000 24.3012 0.0000 0.0000
# 5 0.0000 0.0000 0.0000 0.0000 20.1681 0.0000
# 6 0.0000 0.0000 0.0000 0.0000 0.0000 26.1636
#
#
#
# Elastic Compliance Matrix: (Units=1/GPa)
#
#
# Indices 1 2 3 4 5 6 
#
# 1 0.013820 -0.004456 0.005482 0.000000 0.000000 0.000000
# 2 -0.004456 0.013583 -0.002492 0.000000 0.000000 0.000000
# 3 0.005482 -0.002492 0.012865 0.000000 0.000000 0.000000
# 4 0.000000 0.000000 0.000000 0.041150 0.000000 0.000000
# 5 0.000000 0.000000 0.000000 0.000000 0.049583 0.000000
# 6 0.000000 0.000000 0.000000 0.000000 0.000000 0.038221
#
#
# Mechanical properties :
#
#
# Convention : Reuss Voigt Hill
#
# Bulk Modulus (GPa) = 26.78452 28.89553 27.84003
# Shear Modulus (GPa) = 27.08573 32.54776 29.81675
#
# Velocity S-wave (km/s) = 3.27464 3.58966 3.43577
# Velocity P-wave (km/s) = 4.99016 5.34983 5.17312
#
# Compressibility (1/GPa) = 0.03733500
#
# Stress axis : x y z
#
# Youngs Moduli (GPa) = 72.35957 73.62258 77.73297
#
# Poissons Ratio (x) = 0.32807 -0.42617
# Poissons Ratio (y) = 0.32245 0.19374
# Poissons Ratio (z) = -0.39671 0.18350
#
# Static dielectric constant tensor:
#      x y z
#    x 1.977640 0.000000 0.000000 
#    y 0.000000 2.012890 0.000000 
#    z 0.000000 0.000000 2.033350 
# 
# From -- ./inp_files/3357.got.cif
#   From: 2010.05.17/outbox.cif.g08.bks.cpg/sg19_2_cif.got.tgz:3357.got - 2010.06.03 22:46:19.
