data_PCOD9315463
_publ_section_title
;
Structure prediction by ZEFSAII (Michael W. Deem and Ramdas Pophale) SiO2 
 PCOD9315463
Probable space group: P 21 21 21
;
_chemical_formula_sum "Si O2"
_cell_formula_units_Z 24
_cell_length_a 10.842087
_cell_length_b 9.886240
_cell_length_c 8.949367
_cell_angle_alpha 90.000000
_cell_angle_beta 90.000000
_cell_angle_gamma 90.000000
_cell_volume 959.260044
_symmetry_space_group_name_H-M "P 21 21 21"
_symmetry_group_IT_number 19
_symmetry_cell_setting 'orthorhombic'
loop_
_space_group_symop_operation_xyz
x,y,z
1/2-x,-y,1/2+z
1/2+x,1/2-y,-z
-x,1/2+y,1/2-z
loop_
_atom_site_type_symbol
_atom_site_label
_atom_site_fract_x
_atom_site_fract_y
_atom_site_fract_z
Si Si1 0.136676 0.865004 0.005056
Si Si2 0.817267 0.663279 0.529185
Si Si3 0.212467 0.588061 0.560397
Si Si4 0.498976 0.824683 0.216113
Si Si5 0.394198 0.968746 0.944694
Si Si6 0.372208 0.375686 0.718676
O O1 0.122946 0.776648 0.153407
O O2 0.117701 0.025361 0.023529
O O3 0.277948 0.864400 0.942917
O O4 0.047046 0.799562 0.882946
O O5 0.814840 0.792570 0.425001
O O6 0.676554 0.611050 0.549242
O O7 0.880530 0.705313 0.683300
O O8 0.274543 0.449655 0.609063
O O9 0.104687 0.626152 0.673368
O O10 0.168043 0.596051 0.388431
O O11 0.461905 0.942471 0.101459
O O12 0.495152 0.940100 0.821049
#
# Coordination Sequence:
#
# PCOD9315463 Si02
#       6
#     4   4   4   4   4   4
#     4   9  23  46  75 110 144 207 250 325 395 471
#     4  10  26  45  76 113 147 199 265 311 401 468
#     4  12  28  44  74 113 155 212 262 326 397 468
#     4  11  24  44  77 112 155 198 258 327 387 466
#     4   9  23  48  74 107 149 197 258 320 392 465
#     4  11  24  49  70 109 160 199 265 325 392 472
#
# _framework density 25.019286999999998
#
# number of rings (size 3 to 8) (size 9 to 14) (size 15 to 20)
#    1.000    0.667    0.000    3.000    4.667    8.000 
#    3.000    0.000    0.000    0.000    0.000    0.000 
#    0.000    0.000    0.000    0.000    0.000    0.000 
#
# Total GULP energy -134326.823315 kJ/mol
# GULP energy per Si atom -5596.950971 kJ/mol
# Density = 2.496234 g / cm^3
# Si number density = 25.019287 Si / 1000 Ang^3
#
#
#
# Elastic Constant Matrix: (Units=GPa)
#
#
# Indices 1 2 3 4 5 6 
#
# 1 63.6772 9.5281 61.3829 0.0000 0.0000 0.0000
# 2 9.5281 99.3863 44.1268 0.0000 0.0000 0.0000
# 3 61.3829 44.1268 141.1606 0.0000 0.0000 0.0000
# 4 0.0000 0.0000 0.0000 22.6961 0.0000 0.0000
# 5 0.0000 0.0000 0.0000 0.0000 60.7828 0.0000
# 6 0.0000 0.0000 0.0000 0.0000 0.0000 32.8266
#
#
#
# Elastic Compliance Matrix: (Units=1/GPa)
#
#
# Indices 1 2 3 4 5 6 
#
# 1 0.027859 0.003144 -0.013097 0.000000 0.000000 0.000000
# 2 0.003144 0.012038 -0.005130 0.000000 0.000000 0.000000
# 3 -0.013097 -0.005130 0.014383 0.000000 0.000000 0.000000
# 4 0.000000 0.000000 0.000000 0.044060 0.000000 0.000000
# 5 0.000000 0.000000 0.000000 0.000000 0.016452 0.000000
# 6 0.000000 0.000000 0.000000 0.000000 0.000000 0.030463
#
#
# Mechanical properties :
#
#
# Convention : Reuss Voigt Hill
#
# Bulk Modulus (GPa) = 41.47030 59.36664 50.41847
# Shear Modulus (GPa) = 27.25377 35.87351 31.56364
#
# Velocity S-wave (km/s) = 3.30405 3.79071 3.55572
# Velocity P-wave (km/s) = 5.58274 6.55280 6.08712
#
# Compressibility (1/GPa) = 0.02411364
#
# Stress axis : x y z
#
# Youngs Moduli (GPa) = 35.89487 83.06908 69.52561
#
# Poissons Ratio (x) = -0.26119 0.91060
# Poissons Ratio (y) = -0.11286 0.35669
# Poissons Ratio (z) = 0.47013 0.42618
#
# Static dielectric constant tensor:
#      x y z
#    x 2.012290 0.000000 0.000000 
#    y 0.000000 1.966660 0.000000 
#    z 0.000000 0.000000 1.936340 
# 
# From -- ./inp_files/3396.got.cif
#   From: 2010.05.17/outbox.cif.g08.bks.cpg/sg19_2_cif.got.tgz:3396.got - 2010.06.03 22:46:19.
