data_PCOD9315626
_publ_section_title
;
Structure prediction by ZEFSAII (Michael W. Deem and Ramdas Pophale) SiO2 
 PCOD9315626
Probable space group: P 21 21 21
;
_chemical_formula_sum "Si O2"
_cell_formula_units_Z 24
_cell_length_a 6.818008
_cell_length_b 11.541371
_cell_length_c 14.094659
_cell_angle_alpha 90.000000
_cell_angle_beta 90.000000
_cell_angle_gamma 90.000000
_cell_volume 1109.096875
_symmetry_space_group_name_H-M "P 21 21 21"
_symmetry_group_IT_number 19
_symmetry_cell_setting 'orthorhombic'
loop_
_space_group_symop_operation_xyz
x,y,z
1/2-x,-y,1/2+z
1/2+x,1/2-y,-z
-x,1/2+y,1/2-z
loop_
_atom_site_type_symbol
_atom_site_label
_atom_site_fract_x
_atom_site_fract_y
_atom_site_fract_z
Si Si1 0.620019 0.780617 0.102413
Si Si2 0.508679 0.378010 0.077010
Si Si3 0.485803 0.265794 0.712963
Si Si4 0.670758 0.430251 0.277831
Si Si5 0.732463 0.333955 0.883446
Si Si6 0.272622 0.600205 0.084108
O O1 0.516068 0.869913 0.173435
O O2 0.474027 0.672965 0.090720
O O3 0.823997 0.741266 0.146957
O O4 0.655020 0.843756 0.002884
O O5 0.633796 0.424168 0.165919
O O6 0.411516 0.254360 0.101018
O O7 0.330036 0.468598 0.065724
O O8 0.640081 0.371108 0.983375
O O9 0.355499 0.151460 0.698447
O O10 0.561967 0.275742 0.819863
O O11 0.351634 0.373317 0.678835
O O12 0.699974 0.555975 0.321840
#
# Coordination Sequence:
#
# PCOD9315626 Si02
#       6
#     4   4   4   4   4   4
#     4  11  22  45  73 110 137 191 247 302 363 438
#     4  12  28  48  71 111 151 197 247 313 381 452
#     4  11  24  47  74 105 140 196 249 309 367 440
#     4  11  27  47  74 101 147 193 250 303 368 452
#     4  12  28  48  75 108 157 198 249 313 388 449
#     4  11  25  41  77 107 144 185 250 308 365 437
#
# _framework density 21.639227000000002
#
# number of rings (size 3 to 8) (size 9 to 14) (size 15 to 20)
#    0.000    0.667    3.333    3.000    9.333    2.667 
#    0.000    0.000    0.000    0.000    0.000    0.000 
#    0.000    0.000    0.000    0.000    0.000    0.000 
#
# Total GULP energy -134414.587937 kJ/mol
# GULP energy per Si atom -5600.607831 kJ/mol
# Density = 2.158997 g / cm^3
# Si number density = 21.639227 Si / 1000 Ang^3
#
#
#
# Elastic Constant Matrix: (Units=GPa)
#
#
# Indices 1 2 3 4 5 6 
#
# 1 81.3192 22.1768 37.1812 0.0000 0.0000 0.0000
# 2 22.1768 107.4093 30.4628 0.0000 0.0000 0.0000
# 3 37.1812 30.4628 139.4682 0.0000 0.0000 0.0000
# 4 0.0000 0.0000 0.0000 27.4017 0.0000 0.0000
# 5 0.0000 0.0000 0.0000 0.0000 44.3573 0.0000
# 6 0.0000 0.0000 0.0000 0.0000 0.0000 17.8225
#
#
#
# Elastic Compliance Matrix: (Units=1/GPa)
#
#
# Indices 1 2 3 4 5 6 
#
# 1 0.014400 -0.002009 -0.003400 0.000000 0.000000 0.000000
# 2 -0.002009 0.010205 -0.001694 0.000000 0.000000 0.000000
# 3 -0.003400 -0.001694 0.008446 0.000000 0.000000 0.000000
# 4 0.000000 0.000000 0.000000 0.036494 0.000000 0.000000
# 5 0.000000 0.000000 0.000000 0.000000 0.022544 0.000000
# 6 0.000000 0.000000 0.000000 0.000000 0.000000 0.056109
#
#
# Mechanical properties :
#
#
# Convention : Reuss Voigt Hill
#
# Bulk Modulus (GPa) = 53.06007 56.42647 54.74327
# Shear Modulus (GPa) = 29.64101 33.80805 31.72453
#
# Velocity S-wave (km/s) = 3.70507 3.95695 3.83308
# Velocity P-wave (km/s) = 6.54805 6.85632 6.70396
#
# Compressibility (1/GPa) = 0.01884656
#
# Stress axis : x y z
#
# Youngs Moduli (GPa) = 69.44619 97.98886 118.39329
#
# Poissons Ratio (x) = 0.19684 0.40255
# Poissons Ratio (y) = 0.13950 0.20050
# Poissons Ratio (z) = 0.23612 0.16595
#
# Static dielectric constant tensor:
#      x y z
#    x 1.764720 0.000000 0.000000 
#    y 0.000000 1.787140 0.000000 
#    z 0.000000 0.000000 1.784110 
# 
# From -- ./inp_files/893.got.cif
#   From: 2010.05.17/outbox.cif.g08.bks.cpg/sg19_1_cif.got.tgz:893.got - 2010.06.03 22:46:19.
