data_PCOD9315725
_publ_section_title
;
Structure prediction by ZEFSAII (Michael W. Deem and Ramdas Pophale) SiO2 
 PCOD9315725
Probable space group: P 21 21 21
;
_chemical_formula_sum "Si O2"
_cell_formula_units_Z 20
_cell_length_a 21.751621
_cell_length_b 7.026199
_cell_length_c 5.346397
_cell_angle_alpha 90.000000
_cell_angle_beta 90.000000
_cell_angle_gamma 90.000000
_cell_volume 817.096364
_symmetry_space_group_name_H-M "P 21 21 21"
_symmetry_group_IT_number 19
_symmetry_cell_setting 'orthorhombic'
loop_
_space_group_symop_operation_xyz
x,y,z
1/2-x,-y,1/2+z
1/2+x,1/2-y,-z
-x,1/2+y,1/2-z
loop_
_atom_site_type_symbol
_atom_site_label
_atom_site_fract_x
_atom_site_fract_y
_atom_site_fract_z
Si Si1 0.756804 0.122753 0.305573
Si Si2 0.361415 0.854674 0.166716
Si Si3 0.960640 0.373000 0.078002
Si Si4 0.628392 0.667732 0.956771
Si Si5 0.433121 0.471317 0.246742
O O1 0.705416 0.274635 0.396749
O O2 0.820645 0.238525 0.279813
O O3 0.758868 0.969795 0.534918
O O4 0.404210 0.668955 0.164345
O O5 0.400238 0.006977 0.008136
O O6 0.353664 0.965560 0.429477
O O7 0.963031 0.160862 0.964482
O O8 0.019178 0.477014 0.966211
O O9 0.942268 0.353935 0.365000
O O10 0.621336 0.835084 0.159770
#
# Coordination Sequence:
#
# PCOD9315725 Si02
#       5
#     4   4   4   4   4
#     4  12  28  51  78 107 150 194 246 310 371 442
#     4  11  26  46  72 103 141 189 245 300 368 440
#     4  11  25  43  73 100 146 189 241 307 367 447
#     4  11  28  43  73 105 140 191 248 303 372 437
#     4  11  23  47  66 107 141 187 242 300 374 436
#
# _framework density 24.47692
#
# number of rings (size 3 to 8) (size 9 to 14) (size 15 to 20)
#    0.000    0.800    4.000    1.200   11.200    1.600 
#    0.000    0.000    0.000    0.000    0.000    0.000 
#    0.000    0.000    0.000    0.000    0.000    0.000 
#
# Total GULP energy -111654.184430 kJ/mol
# GULP energy per Si atom -5582.709222 kJ/mol
# Density = 2.442121 g / cm^3
# Si number density = 24.476920 Si / 1000 Ang^3
#
#
#
# Elastic Constant Matrix: (Units=GPa)
#
#
# Indices 1 2 3 4 5 6 
#
# 1 62.8340 35.5271 -14.9406 0.0000 0.0000 0.0000
# 2 35.5271 172.1982 23.2382 0.0000 0.0000 0.0000
# 3 -14.9406 23.2382 26.6820 0.0000 0.0000 0.0000
# 4 0.0000 0.0000 0.0000 33.7101 0.0000 0.0000
# 5 0.0000 0.0000 0.0000 0.0000 30.1052 0.0000
# 6 0.0000 0.0000 0.0000 0.0000 0.0000 60.7066
#
#
#
# Elastic Compliance Matrix: (Units=1/GPa)
#
#
# Indices 1 2 3 4 5 6 
#
# 1 0.025665 -0.008198 0.021511 0.000000 0.000000 0.000000
# 2 -0.008198 0.009199 -0.012603 0.000000 0.000000 0.000000
# 3 0.021511 -0.012603 0.060499 0.000000 0.000000 0.000000
# 4 0.000000 0.000000 0.000000 0.029665 0.000000 0.000000
# 5 0.000000 0.000000 0.000000 0.000000 0.033217 0.000000
# 6 0.000000 0.000000 0.000000 0.000000 0.000000 0.016473
#
#
# Mechanical properties :
#
#
# Convention : Reuss Voigt Hill
#
# Bulk Modulus (GPa) = 10.33217 38.81820 24.57518
# Shear Modulus (GPa) = 24.32394 39.43033 31.87713
#
# Velocity S-wave (km/s) = 3.15580 4.01798 3.61270
# Velocity P-wave (km/s) = 4.18439 6.11711 5.24062
#
# Compressibility (1/GPa) = 0.09678510
#
# Stress axis : x y z
#
# Youngs Moduli (GPa) = 38.96340 108.70321 16.52906
#
# Poissons Ratio (x) = 0.89115 -0.35556
# Poissons Ratio (y) = 0.31942 0.20831
# Poissons Ratio (z) = -0.83815 1.36993
#
# Static dielectric constant tensor:
#      x y z
#    x 1.935750 0.000000 0.000000 
#    y 0.000000 1.861940 0.000000 
#    z 0.000000 0.000000 2.138380 
# 
# From -- ./inp_files/126.got.cif
#   From: 2010.05.17/outbox.cif.g08.bks.cpg/sg19_1_cif.got.tgz:126.got - 2010.06.03 22:46:19.
