data_PCOD9315410
_publ_section_title
;
Structure prediction by ZEFSAII (Michael W. Deem and Ramdas Pophale) SiO2 
 PCOD9315410
Probable space group: P 21 21 21
;
_chemical_formula_sum "Si O2"
_cell_formula_units_Z 32
_cell_length_a 9.229888
_cell_length_b 9.684611
_cell_length_c 14.610080
_cell_angle_alpha 90.000000
_cell_angle_beta 90.000000
_cell_angle_gamma 90.000000
_cell_volume 1305.964003
_symmetry_space_group_name_H-M "P 21 21 21"
_symmetry_group_IT_number 19
_symmetry_cell_setting 'orthorhombic'
loop_
_space_group_symop_operation_xyz
x,y,z
1/2-x,-y,1/2+z
1/2+x,1/2-y,-z
-x,1/2+y,1/2-z
loop_
_atom_site_type_symbol
_atom_site_label
_atom_site_fract_x
_atom_site_fract_y
_atom_site_fract_z
Si Si1 0.243157 0.121566 0.270070
Si Si2 0.909307 0.015151 0.520087
Si Si3 0.908229 0.511471 0.490658
Si Si4 0.646924 0.089189 0.383992
Si Si5 0.327187 0.890554 0.133397
Si Si6 0.853217 0.393517 0.093954
Si Si7 0.947319 0.131534 0.168757
Si Si8 0.283091 0.433528 0.288747
O O1 0.300831 0.270069 0.301500
O O2 0.105620 0.159235 0.207511
O O3 0.337484 0.013794 0.208439
O O4 0.177993 0.036632 0.354384
O O5 0.781758 0.074479 0.455351
O O6 0.049869 0.102249 0.554326
O O7 0.841240 0.988840 0.620372
O O8 0.995669 0.900868 0.461139
O O9 0.824807 0.415542 0.418098
O O10 0.785483 0.614888 0.527835
O O11 0.993317 0.425204 0.565890
O O12 0.032536 0.591204 0.436822
O O13 0.663026 0.234923 0.332966
O O14 0.648158 0.971346 0.307694
O O15 0.859441 0.272622 0.167713
O O16 0.877258 0.999973 0.218396
#
# Coordination Sequence:
#
# PCOD9315410 Si02
#       8
#     4   4   4   4   4   4   4   4
#     4  11  25  47  72 109 149 192 248 306 372 448
#     4  11  26  45  72 109 144 194 248 307 375 444
#     4  10  25  43  72 109 143 188 242 307 366 445
#     4  12  24  47  77 104 150 195 247 307 378 440
#     4  10  25  45  74 108 147 193 248 303 374 454
#     4  11  26  46  75 102 147 194 247 306 370 442
#     4  11  23  47  73 106 144 193 245 301 373 444
#     4  12  28  44  73 111 148 195 251 311 372 449
#
# _framework density 24.502973000000001
#
# number of rings (size 3 to 8) (size 9 to 14) (size 15 to 20)
#    0.000    1.000    1.250    3.750    8.750    6.000 
#    0.000    0.000    0.000    0.000    0.000    0.000 
#    0.000    0.000    0.000    0.000    0.000    0.000 
#
# Total GULP energy -178782.866942 kJ/mol
# GULP energy per Si atom -5586.964592 kJ/mol
# Density = 2.444720 g / cm^3
# Si number density = 24.502973 Si / 1000 Ang^3
#
#
#
# Elastic Constant Matrix: (Units=GPa)
#
#
# Indices 1 2 3 4 5 6 
#
# 1 92.8633 17.8820 10.5217 0.0000 0.0000 0.0000
# 2 17.8820 66.5822 1.0201 0.0000 0.0000 0.0000
# 3 10.5217 1.0201 74.6343 0.0000 0.0000 0.0000
# 4 0.0000 0.0000 0.0000 20.4102 0.0000 0.0000
# 5 0.0000 0.0000 0.0000 0.0000 39.0495 0.0000
# 6 0.0000 0.0000 0.0000 0.0000 0.0000 14.1021
#
#
#
# Elastic Compliance Matrix: (Units=1/GPa)
#
#
# Indices 1 2 3 4 5 6 
#
# 1 0.011540 -0.003075 -0.001585 0.000000 0.000000 0.000000
# 2 -0.003075 0.015842 0.000217 0.000000 0.000000 0.000000
# 3 -0.001585 0.000217 0.013619 0.000000 0.000000 0.000000
# 4 0.000000 0.000000 0.000000 0.048995 0.000000 0.000000
# 5 0.000000 0.000000 0.000000 0.000000 0.025609 0.000000
# 6 0.000000 0.000000 0.000000 0.000000 0.000000 0.070911
#
#
# Mechanical properties :
#
#
# Convention : Reuss Voigt Hill
#
# Bulk Modulus (GPa) = 31.13808 32.54749 31.84278
# Shear Modulus (GPa) = 24.25926 28.35609 26.30768
#
# Velocity S-wave (km/s) = 3.14993 3.40553 3.28022
# Velocity P-wave (km/s) = 5.09557 5.36427 5.23165
#
# Compressibility (1/GPa) = 0.03211502
#
# Stress axis : x y z
#
# Youngs Moduli (GPa) = 86.65334 63.12499 73.42615
#
# Poissons Ratio (x) = 0.19411 0.11637
# Poissons Ratio (y) = 0.26647 -0.01593
# Poissons Ratio (z) = 0.13733 -0.01370
#
# Static dielectric constant tensor:
#      x y z
#    x 2.010010 0.000000 0.000000 
#    y 0.000000 1.952020 0.000000 
#    z 0.000000 0.000000 1.975000 
# 
# From -- ./inp_files/5926.got.cif
#   From: 2010.05.17/outbox.cif.g08.bks.cpg/sg19_3_cif.got.tgz:5926.got - 2010.06.03 22:46:19.
