data_PCOD9315090
_publ_section_title
;
Structure prediction by ZEFSAII (Michael W. Deem and Ramdas Pophale) SiO2 
 PCOD9315090
Probable space group: P 21 21 21
;
_chemical_formula_sum "Si O2"
_cell_formula_units_Z 32
_cell_length_a 22.581566
_cell_length_b 7.915641
_cell_length_c 7.265581
_cell_angle_alpha 90.000000
_cell_angle_beta 90.000000
_cell_angle_gamma 90.000000
_cell_volume 1298.704946
_symmetry_space_group_name_H-M "P 21 21 21"
_symmetry_group_IT_number 19
_symmetry_cell_setting 'orthorhombic'
loop_
_space_group_symop_operation_xyz
x,y,z
1/2-x,-y,1/2+z
1/2+x,1/2-y,-z
-x,1/2+y,1/2-z
loop_
_atom_site_type_symbol
_atom_site_label
_atom_site_fract_x
_atom_site_fract_y
_atom_site_fract_z
Si Si1 0.866974 0.134063 0.521194
Si Si2 0.066910 0.844479 0.253777
Si Si3 0.159519 0.098738 0.242507
Si Si4 0.790879 0.102429 0.168165
Si Si5 0.495899 0.415599 0.997106
Si Si6 0.886771 0.862069 0.993875
Si Si7 0.885537 0.739621 0.619134
Si Si8 0.277141 0.270342 0.213122
O O1 0.921968 0.222789 0.421432
O O2 0.842546 0.234293 0.699356
O O3 0.881511 0.936432 0.553155
O O4 0.815047 0.151487 0.367806
O O5 0.039572 0.743853 0.420367
O O6 0.130239 0.925306 0.303567
O O7 0.025277 0.991823 0.178580
O O8 0.115899 0.238842 0.332797
O O9 0.149779 0.124989 0.025045
O O10 0.227221 0.141648 0.287720
O O11 0.770215 0.227130 0.007921
O O12 0.844873 0.011357 0.061516
O O13 0.743844 0.956002 0.215101
O O14 0.549100 0.344395 0.120273
O O15 0.551669 0.052837 0.432679
O O16 0.861596 0.753400 0.825365
#
# Coordination Sequence:
#
# PCOD9315090 Si02
#       8
#     4   4   4   4   4   4   4   4
#     4  12  22  40  64  95 128 163 215 263 312 377
#     4  11  23  43  66  92 129 173 209 265 318 379
#     4  10  23  43  65  92 130 166 214 262 321 380
#     4  11  20  36  65  94 122 159 217 253 308 382
#     4  11  23  40  66  92 127 173 211 260 326 374
#     4  11  22  40  63  98 123 163 214 265 313 382
#     4  11  22  39  66  95 127 163 215 265 309 381
#     4  11  21  37  67  92 122 172 207 259 317 375
#
# _framework density 24.639932999999999
#
# number of rings (size 3 to 8) (size 9 to 14) (size 15 to 20)
#    0.000    1.000    6.250    2.250    0.000    2.000 
#    2.250    3.750    0.000    0.000    0.000    0.000 
#    0.000    0.000    0.000    0.000    0.000    0.000 
#
# Total GULP energy -178795.582714 kJ/mol
# GULP energy per Si atom -5587.361960 kJ/mol
# Density = 2.458385 g / cm^3
# Si number density = 24.639933 Si / 1000 Ang^3
#
#
#
# Elastic Constant Matrix: (Units=GPa)
#
#
# Indices 1 2 3 4 5 6 
#
# 1 45.9130 5.8339 -2.2841 0.0000 0.0000 0.0000
# 2 5.8339 28.9072 -9.2102 0.0000 0.0000 0.0000
# 3 -2.2841 -9.2102 92.0521 0.0000 0.0000 0.0000
# 4 0.0000 0.0000 0.0000 11.4726 0.0000 0.0000
# 5 0.0000 0.0000 0.0000 0.0000 33.5360 0.0000
# 6 0.0000 0.0000 0.0000 0.0000 0.0000 46.5119
#
#
#
# Elastic Compliance Matrix: (Units=1/GPa)
#
#
# Indices 1 2 3 4 5 6 
#
# 1 0.022355 -0.004477 0.000107 0.000000 0.000000 0.000000
# 2 -0.004477 0.036629 0.003554 0.000000 0.000000 0.000000
# 3 0.000107 0.003554 0.011222 0.000000 0.000000 0.000000
# 4 0.000000 0.000000 0.000000 0.087165 0.000000 0.000000
# 5 0.000000 0.000000 0.000000 0.000000 0.029819 0.000000
# 6 0.000000 0.000000 0.000000 0.000000 0.000000 0.021500
#
#
# Mechanical properties :
#
#
# Convention : Reuss Voigt Hill
#
# Bulk Modulus (GPa) = 14.58331 17.28350 15.93341
# Shear Modulus (GPa) = 21.44269 29.80628 25.62448
#
# Velocity S-wave (km/s) = 2.95319 3.48181 3.22834
# Velocity P-wave (km/s) = 4.19044 4.81598 4.51406
#
# Compressibility (1/GPa) = 0.06857155
#
# Stress axis : x y z
#
# Youngs Moduli (GPa) = 44.73358 27.30054 89.11355
#
# Poissons Ratio (x) = 0.12224 -0.00951
# Poissons Ratio (y) = 0.20029 -0.31669
# Poissons Ratio (z) = -0.00477 -0.09702
#
# Static dielectric constant tensor:
#      x y z
#    x 2.025790 0.000000 0.000000 
#    y 0.000000 2.002770 0.000000 
#    z 0.000000 0.000000 1.948910 
# 
# From -- ./inp_files/4380.got.cif
#   From: 2010.05.17/outbox.cif.g08.bks.cpg/sg19_3_cif.got.tgz:4380.got - 2010.06.03 22:46:19.
