data_PCOD9315960
_publ_section_title
;
Structure prediction by ZEFSAII (Michael W. Deem and Ramdas Pophale) SiO2 
 PCOD9315960
Probable space group: P 21 21 21
;
_chemical_formula_sum "Si O2"
_cell_formula_units_Z 32
_cell_length_a 14.950855
_cell_length_b 15.097344
_cell_length_c 5.217951
_cell_angle_alpha 90.000000
_cell_angle_beta 90.000000
_cell_angle_gamma 90.000000
_cell_volume 1177.786513
_symmetry_space_group_name_H-M "P 21 21 21"
_symmetry_group_IT_number 19
_symmetry_cell_setting 'orthorhombic'
loop_
_space_group_symop_operation_xyz
x,y,z
1/2-x,-y,1/2+z
1/2+x,1/2-y,-z
-x,1/2+y,1/2-z
loop_
_atom_site_type_symbol
_atom_site_label
_atom_site_fract_x
_atom_site_fract_y
_atom_site_fract_z
Si Si1 0.316993 0.620652 0.683895
Si Si2 0.380901 0.188016 0.210083
Si Si3 0.869675 0.051220 0.008358
Si Si4 0.275452 0.880701 0.377535
Si Si5 0.125313 0.015489 0.233822
Si Si6 0.479643 0.547727 0.384574
Si Si7 0.867989 0.706074 0.023097
Si Si8 0.070858 0.711206 0.184189
O O1 0.337421 0.543917 0.892045
O O2 0.217001 0.603137 0.590543
O O3 0.391662 0.601571 0.468548
O O4 0.330471 0.716020 0.803833
O O5 0.368553 0.245973 0.463950
O O6 0.288164 0.147500 0.113707
O O7 0.452118 0.110443 0.271290
O O8 0.420053 0.238311 0.957531
O O9 0.906935 0.111027 0.238955
O O10 0.361686 0.938165 0.460414
O O11 0.204119 0.943304 0.235187
O O12 0.315970 0.794170 0.244952
O O13 0.143398 0.102129 0.407998
O O14 0.036921 0.974466 0.358729
O O15 0.442698 0.467566 0.211369
O O16 0.973898 0.718413 0.054439
#
# Coordination Sequence:
#
# PCOD9315960 Si02
#       8
#     4   4   4   4   4   4   4   4
#     4  12  27  54  87 124 172 231 303 367 447 534
#     4  11  29  55  87 128 178 234 302 364 444 541
#     4  12  29  52  89 127 177 232 298 376 456 529
#     4  11  27  52  86 127 176 234 293 372 451 533
#     4  11  26  50  84 125 174 226 293 364 454 529
#     4  11  26  56  88 124 177 234 293 369 447 545
#     4  12  28  51  84 128 175 232 301 371 445 546
#     4  12  30  54  85 131 175 235 299 367 452 529
#
# _framework density 27.169609000000001
#
# number of rings (size 3 to 8) (size 9 to 14) (size 15 to 20)
#    0.000    0.500    3.750    1.500    8.750    3.000 
#    0.000    1.250    0.000    0.000    0.000    0.000 
#    0.000    0.000    0.000    0.000    0.000    0.000 
#
# Total GULP energy -179499.670147 kJ/mol
# GULP energy per Si atom -5609.364692 kJ/mol
# Density = 2.710777 g / cm^3
# Si number density = 27.169609 Si / 1000 Ang^3
#
#
#
# Elastic Constant Matrix: (Units=GPa)
#
#
# Indices 1 2 3 4 5 6 
#
# 1 185.5510 55.8623 59.9725 0.0000 0.0000 0.0000
# 2 55.8623 130.5040 56.2613 0.0000 0.0000 0.0000
# 3 59.9725 56.2613 136.8273 0.0000 0.0000 0.0000
# 4 0.0000 0.0000 0.0000 72.5453 0.0000 0.0000
# 5 0.0000 0.0000 0.0000 0.0000 39.2141 0.0000
# 6 0.0000 0.0000 0.0000 0.0000 0.0000 47.7816
#
#
#
# Elastic Compliance Matrix: (Units=1/GPa)
#
#
# Indices 1 2 3 4 5 6 
#
# 1 0.006658 -0.001935 -0.002123 0.000000 0.000000 0.000000
# 2 -0.001935 0.009876 -0.003213 0.000000 0.000000 0.000000
# 3 -0.002123 -0.003213 0.009560 0.000000 0.000000 0.000000
# 4 0.000000 0.000000 0.000000 0.013784 0.000000 0.000000
# 5 0.000000 0.000000 0.000000 0.000000 0.025501 0.000000
# 6 0.000000 0.000000 0.000000 0.000000 0.000000 0.020929
#
#
# Mechanical properties :
#
#
# Convention : Reuss Voigt Hill
#
# Bulk Modulus (GPa) = 86.55608 88.56385 87.55996
# Shear Modulus (GPa) = 47.75581 50.62727 49.19154
#
# Velocity S-wave (km/s) = 4.19703 4.32137 4.25965
# Velocity P-wave (km/s) = 7.44403 7.58725 7.51598
#
# Compressibility (1/GPa) = 0.01155320
#
# Stress axis : x y z
#
# Youngs Moduli (GPa) = 150.19694 101.25717 104.60377
#
# Poissons Ratio (x) = 0.19592 0.22204
# Poissons Ratio (y) = 0.29061 0.33606
# Poissons Ratio (z) = 0.31881 0.32531
#
# Static dielectric constant tensor:
#      x y z
#    x 2.069630 0.000000 0.000000 
#    y 0.000000 2.130260 0.000000 
#    z 0.000000 0.000000 2.340500 
# 
# From -- ./inp_files/1780.got.cif
#   From: 2010.05.17/outbox.cif.g08.bks.cpg/sg19_1_cif.got.tgz:1780.got - 2010.06.03 22:46:19.
