data_PCOD9315705
_publ_section_title
;
Structure prediction by ZEFSAII (Michael W. Deem and Ramdas Pophale) SiO2 
 PCOD9315705
Probable space group: P 21 21 21
;
_chemical_formula_sum "Si O2"
_cell_formula_units_Z 28
_cell_length_a 15.181497
_cell_length_b 13.924857
_cell_length_c 5.008969
_cell_angle_alpha 90.000000
_cell_angle_beta 90.000000
_cell_angle_gamma 90.000000
_cell_volume 1058.896922
_symmetry_space_group_name_H-M "P 21 21 21"
_symmetry_group_IT_number 19
_symmetry_cell_setting 'orthorhombic'
loop_
_space_group_symop_operation_xyz
x,y,z
1/2-x,-y,1/2+z
1/2+x,1/2-y,-z
-x,1/2+y,1/2-z
loop_
_atom_site_type_symbol
_atom_site_label
_atom_site_fract_x
_atom_site_fract_y
_atom_site_fract_z
Si Si1 0.336540 0.129383 0.592738
Si Si2 0.216158 0.599982 0.473619
Si Si3 0.391278 0.232209 0.115821
Si Si4 0.391253 0.563122 0.770947
Si Si5 0.691268 0.225572 0.409653
Si Si6 0.074104 0.026693 0.397224
Si Si7 0.932738 0.655640 0.596493
O O1 0.386438 0.141878 0.313381
O O2 0.242292 0.175692 0.518801
O O3 0.344876 0.030290 0.753600
O O4 0.381292 0.199306 0.811390
O O5 0.187294 0.690775 0.651897
O O6 0.308556 0.557985 0.569712
O O7 0.136886 0.524150 0.467854
O O8 0.238546 0.646510 0.188364
O O9 0.477986 0.291038 0.168005
O O10 0.485910 0.538723 0.646721
O O11 0.378663 0.666164 0.913919
O O12 0.641193 0.264577 0.146299
O O13 0.081219 0.068032 0.694668
O O14 0.062148 0.117512 0.201947
#
# Coordination Sequence:
#
# PCOD9315705 Si02
#       7
#     4   4   4   4   4   4   4
#     4  11  25  47  71 102 137 190 232 290 349 415
#     4  11  24  40  73 103 144 174 231 295 359 413
#     4  11  23  45  69 100 144 175 229 290 352 413
#     4  12  24  43  71 107 138 183 231 296 357 414
#     4  11  27  44  72 103 139 190 235 291 352 420
#     4  12  29  45  73 101 145 189 233 289 349 428
#     4  12  28  46  69 104 143 189 233 287 348 427
#
# _framework density 26.442610999999999
#
# number of rings (size 3 to 8) (size 9 to 14) (size 15 to 20)
#    0.000    0.571    4.286    2.571   10.000    1.143 
#    0.000    0.000    0.000    0.000    0.000    0.000 
#    0.000    0.000    0.000    0.000    0.000    0.000 
#
# Total GULP energy -156603.273699 kJ/mol
# GULP energy per Si atom -5592.974061 kJ/mol
# Density = 2.638243 g / cm^3
# Si number density = 26.442611 Si / 1000 Ang^3
#
#
#
# Elastic Constant Matrix: (Units=GPa)
#
#
# Indices 1 2 3 4 5 6 
#
# 1 72.3996 28.6890 -4.3672 0.0000 0.0000 0.0000
# 2 28.6890 102.6168 7.9420 0.0000 0.0000 0.0000
# 3 -4.3672 7.9420 76.7744 0.0000 0.0000 0.0000
# 4 0.0000 0.0000 0.0000 51.2974 0.0000 0.0000
# 5 0.0000 0.0000 0.0000 0.0000 27.1424 0.0000
# 6 0.0000 0.0000 0.0000 0.0000 0.0000 48.0108
#
#
#
# Elastic Compliance Matrix: (Units=1/GPa)
#
#
# Indices 1 2 3 4 5 6 
#
# 1 0.015672 -0.004486 0.001356 0.000000 0.000000 0.000000
# 2 -0.004486 0.011108 -0.001404 0.000000 0.000000 0.000000
# 3 0.001356 -0.001404 0.013248 0.000000 0.000000 0.000000
# 4 0.000000 0.000000 0.000000 0.019494 0.000000 0.000000
# 5 0.000000 0.000000 0.000000 0.000000 0.036843 0.000000
# 6 0.000000 0.000000 0.000000 0.000000 0.000000 0.020829
#
#
# Mechanical properties :
#
#
# Convention : Reuss Voigt Hill
#
# Bulk Modulus (GPa) = 32.30272 35.14650 33.72461
# Shear Modulus (GPa) = 36.60806 39.92525 38.26665
#
# Velocity S-wave (km/s) = 3.72484 3.88994 3.80828
# Velocity P-wave (km/s) = 5.54454 5.78757 5.66736
#
# Compressibility (1/GPa) = 0.03095714
#
# Stress axis : x y z
#
# Youngs Moduli (GPa) = 63.80906 90.02573 75.48570
#
# Poissons Ratio (x) = 0.40389 -0.10232
# Poissons Ratio (y) = 0.28627 0.10600
# Poissons Ratio (z) = -0.08650 0.12642
#
# Static dielectric constant tensor:
#      x y z
#    x 2.057940 0.000000 0.000000 
#    y 0.000000 2.134480 0.000000 
#    z 0.000000 0.000000 2.075700 
# 
# From -- ./inp_files/1495.got.cif
#   From: 2010.05.17/outbox.cif.g08.bks.cpg/sg19_1_cif.got.tgz:1495.got - 2010.06.03 22:46:19.
