data_PCOD9315006
_publ_section_title
;
Structure prediction by ZEFSAII (Michael W. Deem and Ramdas Pophale) SiO2 
 PCOD9315006
Probable space group: P 21 21 21
;
_chemical_formula_sum "Si O2"
_cell_formula_units_Z 32
_cell_length_a 5.603600
_cell_length_b 17.269263
_cell_length_c 14.108739
_cell_angle_alpha 90.000000
_cell_angle_beta 90.000000
_cell_angle_gamma 90.000000
_cell_volume 1365.303268
_symmetry_space_group_name_H-M "P 21 21 21"
_symmetry_group_IT_number 19
_symmetry_cell_setting 'orthorhombic'
loop_
_space_group_symop_operation_xyz
x,y,z
1/2-x,-y,1/2+z
1/2+x,1/2-y,-z
-x,1/2+y,1/2-z
loop_
_atom_site_type_symbol
_atom_site_label
_atom_site_fract_x
_atom_site_fract_y
_atom_site_fract_z
Si Si1 0.316808 0.265954 0.386314
Si Si2 0.892522 0.994717 0.513738
Si Si3 0.246046 0.651784 0.585777
Si Si4 0.215128 0.262619 0.758436
Si Si5 0.475597 0.819806 0.588526
Si Si6 0.537656 0.120941 0.734619
Si Si7 0.534679 0.848013 0.918941
Si Si8 0.620210 0.484129 0.876240
O O1 0.468517 0.257744 0.290572
O O2 0.123049 0.331683 0.358156
O O3 0.237150 0.177556 0.403359
O O4 0.415886 0.299319 0.484352
O O5 0.129788 0.009371 0.576347
O O6 0.914024 0.909163 0.469544
O O7 0.631608 0.995375 0.565152
O O8 0.899936 0.063992 0.437699
O O9 0.333787 0.740117 0.591528
O O10 0.013693 0.656431 0.520394
O O11 0.248585 0.616275 0.690245
O O12 0.271215 0.306471 0.856489
O O13 0.342569 0.180145 0.774334
O O14 0.338966 0.311950 0.673479
O O15 0.358719 0.892486 0.640992
O O16 0.426148 0.038872 0.712502
#
# Coordination Sequence:
#
# PCOD9315006 Si02
#       8
#     4   4   4   4   4   4   4   4
#     4  11  21  38  65  95 137 179 226 284 353 421
#     4  11  25  43  69 100 140 179 232 278 358 403
#     4  10  23  45  69 100 133 187 235 294 348 420
#     4  10  23  40  64  99 131 184 231 284 354 415
#     4  10  23  44  71  96 136 177 242 289 350 415
#     4  10  23  41  65  99 138 177 236 280 355 420
#     4  11  22  36  63  98 136 181 219 289 339 436
#     4  11  24  45  68 101 139 180 221 296 337 416
#
# _framework density 23.438016000000001
#
# number of rings (size 3 to 8) (size 9 to 14) (size 15 to 20)
#    0.000    1.500    2.500    1.500    7.000    0.000 
#    9.000    0.000    0.000    0.000    0.000    0.000 
#    0.000    0.000    0.000    0.000    0.000    0.000 
#
# Total GULP energy -178365.633495 kJ/mol
# GULP energy per Si atom -5573.926047 kJ/mol
# Density = 2.338467 g / cm^3
# Si number density = 23.438016 Si / 1000 Ang^3
#
#
#
# Elastic Constant Matrix: (Units=GPa)
#
#
# Indices 1 2 3 4 5 6 
#
# 1 48.2361 -3.0115 6.4288 0.0000 0.0000 0.0000
# 2 -3.0115 113.3506 -1.2502 0.0000 0.0000 0.0000
# 3 6.4288 -1.2502 57.7003 0.0000 0.0000 0.0000
# 4 0.0000 0.0000 0.0000 31.4872 0.0000 0.0000
# 5 0.0000 0.0000 0.0000 0.0000 23.0858 0.0000
# 6 0.0000 0.0000 0.0000 0.0000 0.0000 20.3321
#
#
#
# Elastic Compliance Matrix: (Units=1/GPa)
#
#
# Indices 1 2 3 4 5 6 
#
# 1 0.021076 0.000534 -0.002337 0.000000 0.000000 0.000000
# 2 0.000534 0.008838 0.000132 0.000000 0.000000 0.000000
# 3 -0.002337 0.000132 0.017594 0.000000 0.000000 0.000000
# 4 0.000000 0.000000 0.000000 0.031759 0.000000 0.000000
# 5 0.000000 0.000000 0.000000 0.000000 0.043317 0.000000
# 6 0.000000 0.000000 0.000000 0.000000 0.000000 0.049183
#
#
# Mechanical properties :
#
#
# Convention : Reuss Voigt Hill
#
# Bulk Modulus (GPa) = 22.64129 24.84679 23.74404
# Shear Modulus (GPa) = 26.33931 29.45569 27.89750
#
# Velocity S-wave (km/s) = 3.35593 3.54891 3.45377
# Velocity P-wave (km/s) = 4.96965 5.23613 5.10463
#
# Compressibility (1/GPa) = 0.04416710
#
# Stress axis : x y z
#
# Youngs Moduli (GPa) = 47.44704 113.14987 56.83715
#
# Poissons Ratio (x) = -0.06044 0.13281
# Poissons Ratio (y) = -0.02535 -0.00750
# Poissons Ratio (z) = 0.11087 -0.01493
#
# Static dielectric constant tensor:
#      x y z
#    x 2.077740 0.000000 0.000000 
#    y 0.000000 1.868360 0.000000 
#    z 0.000000 0.000000 1.924080 
# 
# From -- ./inp_files/1603.got.cif
#   From: 2010.05.17/outbox.cif.g08.bks.cpg/sg19_1_cif.got.tgz:1603.got - 2010.06.03 22:46:19.
