data_PCOD9315538
_publ_section_title
;
Structure prediction by ZEFSAII (Michael W. Deem and Ramdas Pophale) SiO2 
 PCOD9315538
Probable space group: P 21 21 21
;
_chemical_formula_sum "Si O2"
_cell_formula_units_Z 24
_cell_length_a 4.941354
_cell_length_b 17.231675
_cell_length_c 13.849131
_cell_angle_alpha 90.000000
_cell_angle_beta 90.000000
_cell_angle_gamma 90.000000
_cell_volume 1179.223122
_symmetry_space_group_name_H-M "P 21 21 21"
_symmetry_group_IT_number 19
_symmetry_cell_setting 'orthorhombic'
loop_
_space_group_symop_operation_xyz
x,y,z
1/2-x,-y,1/2+z
1/2+x,1/2-y,-z
-x,1/2+y,1/2-z
loop_
_atom_site_type_symbol
_atom_site_label
_atom_site_fract_x
_atom_site_fract_y
_atom_site_fract_z
Si Si1 0.864697 0.287956 0.048939
Si Si2 0.461621 0.796226 0.735070
Si Si3 0.609347 0.539635 0.489553
Si Si4 0.603528 0.045157 0.429416
Si Si5 0.458197 0.596509 0.281674
Si Si6 0.654918 0.783618 0.949874
O O1 0.978235 0.267759 0.154386
O O2 0.102476 0.263251 0.975266
O O3 0.795800 0.377138 0.030267
O O4 0.656975 0.869036 0.709626
O O5 0.543663 0.770136 0.841994
O O6 0.159820 0.830140 0.731980
O O7 0.840164 0.477021 0.510030
O O8 0.542671 0.551056 0.377129
O O9 0.338982 0.514922 0.545268
O O10 0.528450 0.047102 0.316315
O O11 0.721595 0.130080 0.452951
O O12 0.400855 0.772142 0.020416
#
# Coordination Sequence:
#
# PCOD9315538 Si02
#       6
#     4   4   4   4   4   4
#     4  12  22  40  67 100 127 165 219 268 332 381
#     4  11  21  41  68  95 123 169 218 266 316 401
#     4  12  23  42  67  95 134 168 213 280 318 391
#     4  11  25  43  64  95 131 169 219 263 328 395
#     4  11  22  42  69  87 127 180 208 252 340 388
#     4  11  23  44  69  92 126 175 223 265 322 388
#
# _framework density 20.352384000000001
#
# number of rings (size 3 to 8) (size 9 to 14) (size 15 to 20)
#    0.000    0.667    3.333    7.000    0.000    0.000 
#    9.000    0.000    0.000    0.000    0.000    0.000 
#    0.000    0.000    0.000    0.000    0.000    0.000 
#
# Total GULP energy -134281.010351 kJ/mol
# GULP energy per Si atom -5595.042098 kJ/mol
# Density = 2.030606 g / cm^3
# Si number density = 20.352384 Si / 1000 Ang^3
#
#
#
# Elastic Constant Matrix: (Units=GPa)
#
#
# Indices 1 2 3 4 5 6 
#
# 1 75.5566 2.7528 10.6570 0.0000 0.0000 0.0000
# 2 2.7528 48.6161 52.1747 0.0000 0.0000 0.0000
# 3 10.6570 52.1747 122.7686 0.0000 0.0000 0.0000
# 4 0.0000 0.0000 0.0000 37.8633 0.0000 0.0000
# 5 0.0000 0.0000 0.0000 0.0000 24.9233 0.0000
# 6 0.0000 0.0000 0.0000 0.0000 0.0000 24.2485
#
#
#
# Elastic Compliance Matrix: (Units=1/GPa)
#
#
# Indices 1 2 3 4 5 6 
#
# 1 0.013421 0.000902 -0.001548 0.000000 0.000000 0.000000
# 2 0.000902 0.037878 -0.016176 0.000000 0.000000 0.000000
# 3 -0.001548 -0.016176 0.015154 0.000000 0.000000 0.000000
# 4 0.000000 0.000000 0.000000 0.026411 0.000000 0.000000
# 5 0.000000 0.000000 0.000000 0.000000 0.040123 0.000000
# 6 0.000000 0.000000 0.000000 0.000000 0.000000 0.041240
#
#
# Mechanical properties :
#
#
# Convention : Reuss Voigt Hill
#
# Bulk Modulus (GPa) = 30.48022 42.01225 36.24623
# Shear Modulus (GPa) = 22.85109 29.49745 26.17427
#
# Velocity S-wave (km/s) = 3.35441 3.81115 3.59005
# Velocity P-wave (km/s) = 5.47828 6.32880 5.91884
#
# Compressibility (1/GPa) = 0.03280816
#
# Stress axis : x y z
#
# Youngs Moduli (GPa) = 74.51218 26.40037 65.98784
#
# Poissons Ratio (x) = -0.02380 0.10216
# Poissons Ratio (y) = -0.06718 1.06741
# Poissons Ratio (z) = 0.11535 0.42705
#
# Static dielectric constant tensor:
#      x y z
#    x 1.713430 0.000000 0.000000 
#    y 0.000000 1.707790 0.000000 
#    z 0.000000 0.000000 1.723880 
# 
# From -- ./inp_files/5660.got.cif
#   From: 2010.05.17/outbox.cif.g08.bks.cpg/sg19_3_cif.got.tgz:5660.got - 2010.06.03 22:46:19.
