data_PCOD9315525
_publ_section_title
;
Structure prediction by ZEFSAII (Michael W. Deem and Ramdas Pophale) SiO2 
 PCOD9315525
Probable space group: P 21 21 21
;
_chemical_formula_sum "Si O2"
_cell_formula_units_Z 32
_cell_length_a 20.011128
_cell_length_b 8.079979
_cell_length_c 8.950381
_cell_angle_alpha 90.000000
_cell_angle_beta 90.000000
_cell_angle_gamma 90.000000
_cell_volume 1447.182575
_symmetry_space_group_name_H-M "P 21 21 21"
_symmetry_group_IT_number 19
_symmetry_cell_setting 'orthorhombic'
loop_
_space_group_symop_operation_xyz
x,y,z
1/2-x,-y,1/2+z
1/2+x,1/2-y,-z
-x,1/2+y,1/2-z
loop_
_atom_site_type_symbol
_atom_site_label
_atom_site_fract_x
_atom_site_fract_y
_atom_site_fract_z
Si Si1 0.498886 0.182367 0.883896
Si Si2 0.078453 0.162022 0.366128
Si Si3 0.757440 0.335910 0.985342
Si Si4 0.623763 0.113442 0.022204
Si Si5 0.306690 0.621175 0.982517
Si Si6 0.323509 0.060651 0.706293
Si Si7 0.807303 0.100532 0.746454
Si Si8 0.117150 0.613893 0.266755
O O1 0.530330 0.206782 0.715593
O O2 0.443514 0.325176 0.870803
O O3 0.463525 0.002776 0.909701
O O4 0.553795 0.211764 0.013768
O O5 0.130883 0.250741 0.478423
O O6 0.127357 0.091709 0.237263
O O7 0.730348 0.502563 0.909853
O O8 0.806830 0.249492 0.865611
O O9 0.692782 0.217783 0.016248
O O10 0.791435 0.388881 0.136874
O O11 0.631721 0.980308 0.155117
O O12 0.614887 0.018927 0.865062
O O13 0.243546 0.666455 0.880485
O O14 0.332246 0.464125 0.885497
O O15 0.286019 0.554666 0.145171
O O16 0.364549 0.223095 0.671940
#
# Coordination Sequence:
#
# PCOD9315525 Si02
#       8
#     4   4   4   4   4   4   4   4
#     4  11  21  40  67  99 123 176 227 286 330 404
#     4  11  21  39  68  94 132 169 231 283 332 400
#     4  12  24  41  62  98 138 172 220 280 341 413
#     4  12  23  42  67  99 127 182 232 275 337 418
#     4  12  21  42  65  98 126 184 220 281 339 410
#     4  11  24  37  61 100 134 170 218 285 341 394
#     4  12  23  39  67  94 137 175 231 268 350 414
#     4  11  21  38  67  92 131 172 229 276 338 401
#
# _framework density 22.111930000000001
#
# number of rings (size 3 to 8) (size 9 to 14) (size 15 to 20)
#    0.000    0.500    8.750    0.000    1.750    2.000 
#    0.000    1.250    0.000    0.000    0.000    0.000 
#    0.000    0.000    0.000    0.000    0.000    0.000 
#
# Total GULP energy -178315.135151 kJ/mol
# GULP energy per Si atom -5572.347973 kJ/mol
# Density = 2.206160 g / cm^3
# Si number density = 22.111930 Si / 1000 Ang^3
#
#
#
# Elastic Constant Matrix: (Units=GPa)
#
#
# Indices 1 2 3 4 5 6 
#
# 1 59.4802 20.0862 16.4051 0.0000 0.0000 0.0000
# 2 20.0862 86.0265 17.2119 0.0000 0.0000 0.0000
# 3 16.4051 17.2119 43.0539 0.0000 0.0000 0.0000
# 4 0.0000 0.0000 0.0000 34.2625 0.0000 0.0000
# 5 0.0000 0.0000 0.0000 0.0000 26.6026 0.0000
# 6 0.0000 0.0000 0.0000 0.0000 0.0000 42.6601
#
#
#
# Elastic Compliance Matrix: (Units=1/GPa)
#
#
# Indices 1 2 3 4 5 6 
#
# 1 0.019640 -0.003357 -0.006141 0.000000 0.000000 0.000000
# 2 -0.003357 0.013209 -0.004001 0.000000 0.000000 0.000000
# 3 -0.006141 -0.004001 0.027167 0.000000 0.000000 0.000000
# 4 0.000000 0.000000 0.000000 0.029186 0.000000 0.000000
# 5 0.000000 0.000000 0.000000 0.000000 0.037590 0.000000
# 6 0.000000 0.000000 0.000000 0.000000 0.000000 0.023441
#
#
# Mechanical properties :
#
#
# Convention : Reuss Voigt Hill
#
# Bulk Modulus (GPa) = 30.28886 32.88521 31.58704
# Shear Modulus (GPa) = 26.56217 29.69552 28.12885
#
# Velocity S-wave (km/s) = 3.46968 3.66862 3.57054
# Velocity P-wave (km/s) = 5.45704 5.73145 5.59593
#
# Compressibility (1/GPa) = 0.03301544
#
# Stress axis : x y z
#
# Youngs Moduli (GPa) = 50.91705 75.70753 36.81003
#
# Poissons Ratio (x) = 0.25414 0.22607
# Poissons Ratio (y) = 0.17092 0.14729
# Poissons Ratio (z) = 0.31270 0.30294
#
# Static dielectric constant tensor:
#      x y z
#    x 2.015220 0.000000 0.000000 
#    y 0.000000 1.950770 0.000000 
#    z 0.000000 0.000000 1.773170 
# 
# From -- ./inp_files/4313.got.cif
#   From: 2010.05.17/outbox.cif.g08.bks.cpg/sg19_3_cif.got.tgz:4313.got - 2010.06.03 22:46:19.
