data_PCOD9315758
_publ_section_title
;
Structure prediction by ZEFSAII (Michael W. Deem and Ramdas Pophale) SiO2 
 PCOD9315758
Probable space group: P 21 21 21
;
_chemical_formula_sum "Si O2"
_cell_formula_units_Z 32
_cell_length_a 11.914847
_cell_length_b 5.691443
_cell_length_c 18.535877
_cell_angle_alpha 90.000000
_cell_angle_beta 90.000000
_cell_angle_gamma 90.000000
_cell_volume 1256.967358
_symmetry_space_group_name_H-M "P 21 21 21"
_symmetry_group_IT_number 19
_symmetry_cell_setting 'orthorhombic'
loop_
_space_group_symop_operation_xyz
x,y,z
1/2-x,-y,1/2+z
1/2+x,1/2-y,-z
-x,1/2+y,1/2-z
loop_
_atom_site_type_symbol
_atom_site_label
_atom_site_fract_x
_atom_site_fract_y
_atom_site_fract_z
Si Si1 0.957961 0.385466 0.005563
Si Si2 0.902590 0.248480 0.502542
Si Si3 0.692655 0.359268 0.410243
Si Si4 0.207179 0.758265 0.364181
Si Si5 0.136339 0.130673 0.250565
Si Si6 0.979617 0.908914 0.140007
Si Si7 0.323917 0.364064 0.172193
Si Si8 0.548820 0.412682 0.116391
O O1 0.870738 0.363987 0.070176
O O2 0.084744 0.471425 0.019044
O O3 0.921564 0.605341 0.955214
O O4 0.970440 0.172088 0.950644
O O5 0.784924 0.340974 0.471743
O O6 0.904712 0.341939 0.585130
O O7 0.983022 0.354992 0.439668
O O8 0.695669 0.608049 0.367452
O O9 0.700885 0.118609 0.364803
O O10 0.144759 0.512079 0.360750
O O11 0.339918 0.757708 0.376187
O O12 0.189448 0.908059 0.291312
O O13 0.034180 0.197909 0.304282
O O14 0.234488 0.319698 0.235528
O O15 0.071174 0.077265 0.176354
O O16 0.460036 0.389913 0.181675
#
# Coordination Sequence:
#
# PCOD9315758 Si02
#       8
#     4   4   4   4   4   4   4   4
#     4  11  24  41  69 107 147 185 243 305 386 448
#     4  12  23  40  71 108 144 186 239 316 377 448
#     4  11  25  43  73 104 144 189 243 301 376 442
#     4  12  26  46  70 110 146 193 250 310 378 454
#     4  12  27  46  73 103 144 199 255 305 367 450
#     4  12  26  44  73 106 141 193 250 314 371 445
#     4  11  27  49  71 107 145 202 247 303 372 449
#     4  11  26  47  70 107 149 193 243 314 383 458
#
# _framework density 25.458102
#
# number of rings (size 3 to 8) (size 9 to 14) (size 15 to 20)
#    0.000    0.500    7.500    0.000    7.000    2.000 
#    2.250    0.000    0.000    0.000    0.000    0.000 
#    0.000    0.000    0.000    0.000    0.000    0.000 
#
# Total GULP energy -178223.634270 kJ/mol
# GULP energy per Si atom -5569.488571 kJ/mol
# Density = 2.540016 g / cm^3
# Si number density = 25.458102 Si / 1000 Ang^3
#
#
#
# Elastic Constant Matrix: (Units=GPa)
#
#
# Indices 1 2 3 4 5 6 
#
# 1 67.2479 -16.3764 -5.1102 0.0000 0.0000 0.0000
# 2 -16.3764 53.0543 6.3923 0.0000 0.0000 0.0000
# 3 -5.1102 6.3923 34.2827 0.0000 0.0000 0.0000
# 4 0.0000 0.0000 0.0000 46.9928 0.0000 0.0000
# 5 0.0000 0.0000 0.0000 0.0000 4.5559 0.0000
# 6 0.0000 0.0000 0.0000 0.0000 0.0000 31.9145
#
#
#
# Elastic Compliance Matrix: (Units=1/GPa)
#
#
# Indices 1 2 3 4 5 6 
#
# 1 0.016155 0.004804 0.001512 0.000000 0.000000 0.000000
# 2 0.004804 0.020711 -0.003145 0.000000 0.000000 0.000000
# 3 0.001512 -0.003145 0.029981 0.000000 0.000000 0.000000
# 4 0.000000 0.000000 0.000000 0.021280 0.000000 0.000000
# 5 0.000000 0.000000 0.000000 0.000000 0.219495 0.000000
# 6 0.000000 0.000000 0.000000 0.000000 0.000000 0.031334
#
#
# Mechanical properties :
#
#
# Convention : Reuss Voigt Hill
#
# Bulk Modulus (GPa) = 13.66315 13.82181 13.74248
# Shear Modulus (GPa) = 14.00521 28.00457 21.00489
#
# Velocity S-wave (km/s) = 2.34802 3.32026 2.87553
# Velocity P-wave (km/s) = 3.56785 4.48775 4.05397
#
# Compressibility (1/GPa) = 0.07318957
#
# Stress axis : x y z
#
# Youngs Moduli (GPa) = 61.89927 48.28441 33.35427
#
# Poissons Ratio (x) = -0.23198 -0.05044
# Poissons Ratio (y) = -0.29739 0.10492
# Poissons Ratio (z) = -0.09361 0.15188
#
# Static dielectric constant tensor:
#      x y z
#    x 2.196570 0.000000 0.000000 
#    y 0.000000 2.421220 0.000000 
#    z 0.000000 0.000000 2.846200 
# 
# From -- ./inp_files/1191.got.cif
#   From: 2010.05.17/outbox.cif.g08.bks.cpg/sg19_1_cif.got.tgz:1191.got - 2010.06.03 22:46:19.
