data_PCOD9315845
_publ_section_title
;
Structure prediction by ZEFSAII (Michael W. Deem and Ramdas Pophale) SiO2 
 PCOD9315845
Probable space group: P 21 21 21
;
_chemical_formula_sum "Si O2"
_cell_formula_units_Z 28
_cell_length_a 9.437002
_cell_length_b 8.373751
_cell_length_c 13.851205
_cell_angle_alpha 90.000000
_cell_angle_beta 90.000000
_cell_angle_gamma 90.000000
_cell_volume 1094.565226
_symmetry_space_group_name_H-M "P 21 21 21"
_symmetry_group_IT_number 19
_symmetry_cell_setting 'orthorhombic'
loop_
_space_group_symop_operation_xyz
x,y,z
1/2-x,-y,1/2+z
1/2+x,1/2-y,-z
-x,1/2+y,1/2-z
loop_
_atom_site_type_symbol
_atom_site_label
_atom_site_fract_x
_atom_site_fract_y
_atom_site_fract_z
Si Si1 0.983590 0.594099 0.704798
Si Si2 0.339277 0.231662 0.341976
Si Si3 0.979214 0.413604 0.081458
Si Si4 0.378877 0.538521 0.863107
Si Si5 0.295028 0.235905 0.763669
Si Si6 0.381397 0.240785 0.562096
Si Si7 0.291548 0.326868 0.039220
O O1 0.901221 0.427319 0.703709
O O2 0.857984 0.720708 0.687431
O O3 0.054399 0.629924 0.807337
O O4 0.106285 0.612412 0.625476
O O5 0.188543 0.304268 0.315467
O O6 0.329025 0.210083 0.455652
O O7 0.025810 0.596176 0.063207
O O8 0.128345 0.316116 0.072911
O O9 0.897945 0.391576 0.184074
O O10 0.867647 0.330016 0.006745
O O11 0.372383 0.400277 0.786170
O O12 0.524547 0.590735 0.907663
O O13 0.295425 0.461147 0.954455
O O14 0.269845 0.240547 0.649174
#
# Coordination Sequence:
#
# PCOD9315845 Si02
#       7
#     4   4   4   4   4   4   4
#     4  12  28  50  73 116 151 203 255 327 387 467
#     4  12  28  45  78 108 153 200 263 313 392 453
#     4  11  25  47  79 108 153 201 252 323 382 465
#     4  11  24  47  77 110 147 200 256 313 376 468
#     4  11  27  50  77 112 157 195 259 315 392 458
#     4  12  26  47  75 109 149 205 249 316 378 468
#     4  11  24  48  77 109 150 198 256 315 389 453
#
# _framework density 25.580933000000002
#
# number of rings (size 3 to 8) (size 9 to 14) (size 15 to 20)
#    0.000    0.571    2.857    4.286   10.000    0.000 
#    2.571    0.000    0.000    0.000    0.000    0.000 
#    0.000    0.000    0.000    0.000    0.000    0.000 
#
# Total GULP energy -156691.416837 kJ/mol
# GULP energy per Si atom -5596.122030 kJ/mol
# Density = 2.552271 g / cm^3
# Si number density = 25.580933 Si / 1000 Ang^3
#
#
#
# Elastic Constant Matrix: (Units=GPa)
#
#
# Indices 1 2 3 4 5 6 
#
# 1 98.3010 0.5711 15.5824 0.0000 0.0000 0.0000
# 2 0.5711 60.0678 -15.8185 0.0000 0.0000 0.0000
# 3 15.5824 -15.8185 82.6336 0.0000 0.0000 0.0000
# 4 0.0000 0.0000 0.0000 28.1645 0.0000 0.0000
# 5 0.0000 0.0000 0.0000 0.0000 29.8522 0.0000
# 6 0.0000 0.0000 0.0000 0.0000 0.0000 34.4065
#
#
#
# Elastic Compliance Matrix: (Units=1/GPa)
#
#
# Indices 1 2 3 4 5 6 
#
# 1 0.010511 -0.000655 -0.002107 0.000000 0.000000 0.000000
# 2 -0.000655 0.017572 0.003487 0.000000 0.000000 0.000000
# 3 -0.002107 0.003487 0.013167 0.000000 0.000000 0.000000
# 4 0.000000 0.000000 0.000000 0.035506 0.000000 0.000000
# 5 0.000000 0.000000 0.000000 0.000000 0.033498 0.000000
# 6 0.000000 0.000000 0.000000 0.000000 0.000000 0.029064
#
#
# Mechanical properties :
#
#
# Convention : Reuss Voigt Hill
#
# Bulk Modulus (GPa) = 23.41924 26.85249 25.13587
# Shear Modulus (GPa) = 32.87283 34.52912 33.70098
#
# Velocity S-wave (km/s) = 3.58865 3.67795 3.63357
# Velocity P-wave (km/s) = 5.13284 5.34381 5.23939
#
# Compressibility (1/GPa) = 0.04269993
#
# Stress axis : x y z
#
# Youngs Moduli (GPa) = 95.14116 56.90724 75.94976
#
# Poissons Ratio (x) = 0.03727 0.16006
# Poissons Ratio (y) = 0.06231 -0.26487
# Poissons Ratio (z) = 0.20050 -0.19846
#
# Static dielectric constant tensor:
#      x y z
#    x 2.031590 0.000000 0.000000 
#    y 0.000000 2.049310 0.000000 
#    z 0.000000 0.000000 2.151610 
# 
# From -- ./inp_files/5850.got.cif
#   From: 2010.05.17/outbox.cif.g08.bks.cpg/sg19_3_cif.got.tgz:5850.got - 2010.06.03 22:46:19.
