data_PCOD9315007
_publ_section_title
;
Structure prediction by ZEFSAII (Michael W. Deem and Ramdas Pophale) SiO2 
 PCOD9315007
Probable space group: P 21 21 21
;
_chemical_formula_sum "Si O2"
_cell_formula_units_Z 32
_cell_length_a 8.726071
_cell_length_b 8.326212
_cell_length_c 18.725453
_cell_angle_alpha 90.000000
_cell_angle_beta 90.000000
_cell_angle_gamma 90.000000
_cell_volume 1360.499980
_symmetry_space_group_name_H-M "P 21 21 21"
_symmetry_group_IT_number 19
_symmetry_cell_setting 'orthorhombic'
loop_
_space_group_symop_operation_xyz
x,y,z
1/2-x,-y,1/2+z
1/2+x,1/2-y,-z
-x,1/2+y,1/2-z
loop_
_atom_site_type_symbol
_atom_site_label
_atom_site_fract_x
_atom_site_fract_y
_atom_site_fract_z
Si Si1 0.136953 0.617836 0.923705
Si Si2 0.672637 0.438363 0.038339
Si Si3 0.180915 0.914524 0.302762
Si Si4 0.814304 0.899046 0.771443
Si Si5 0.537838 0.199557 0.524478
Si Si6 0.592578 0.962923 0.883105
Si Si7 0.991526 0.356972 0.975907
Si Si8 0.155694 0.771588 0.774764
O O1 0.298022 0.620384 0.965985
O O2 0.161468 0.734052 0.858768
O O3 0.978033 0.665518 0.963616
O O4 0.085965 0.435634 0.909604
O O5 0.733916 0.430249 0.119702
O O6 0.813278 0.379143 0.990166
O O7 0.607675 0.598547 0.002348
O O8 0.525240 0.327916 0.032268
O O9 0.211208 0.739495 0.267881
O O10 0.240212 0.071417 0.258523
O O11 0.003686 0.947570 0.321510
O O12 0.755611 0.908680 0.853377
O O13 0.983675 0.830395 0.760347
O O14 0.811912 0.090387 0.753004
O O15 0.496284 0.299147 0.595409
O O16 0.578738 0.075796 0.952643
#
# Coordination Sequence:
#
# PCOD9315007 Si02
#       8
#     4   4   4   4   4   4   4   4
#     4  11  22  39  67  94 134 170 222 280 351 412
#     4  11  22  42  67 100 142 179 226 292 359 422
#     4  11  24  50  68 102 144 183 240 296 345 423
#     4  12  28  46  74  99 138 196 239 292 354 412
#     4  11  21  39  68 100 131 179 215 287 358 415
#     4  10  25  45  67 101 137 177 241 290 347 434
#     4  10  23  40  65 103 135 179 227 288 358 424
#     4  12  25  47  68 101 139 187 236 293 348 416
#
# _framework density 23.520765999999998
#
# number of rings (size 3 to 8) (size 9 to 14) (size 15 to 20)
#    0.000    1.000    3.750    3.000    7.000    2.000 
#    4.500    0.000    0.000    0.000    0.000    0.000 
#    0.000    0.000    0.000    0.000    0.000    0.000 
#
# Total GULP energy -178233.583837 kJ/mol
# GULP energy per Si atom -5569.799495 kJ/mol
# Density = 2.346723 g / cm^3
# Si number density = 23.520766 Si / 1000 Ang^3
#
#
#
# Elastic Constant Matrix: (Units=GPa)
#
#
# Indices 1 2 3 4 5 6 
#
# 1 63.2866 27.1131 19.5638 0.0000 0.0000 0.0000
# 2 27.1131 102.8802 4.4272 0.0000 0.0000 0.0000
# 3 19.5638 4.4272 29.5887 0.0000 0.0000 0.0000
# 4 0.0000 0.0000 0.0000 15.1395 0.0000 0.0000
# 5 0.0000 0.0000 0.0000 0.0000 31.4369 0.0000
# 6 0.0000 0.0000 0.0000 0.0000 0.0000 39.4847
#
#
#
# Elastic Compliance Matrix: (Units=1/GPa)
#
#
# Indices 1 2 3 4 5 6 
#
# 1 0.022407 -0.005302 -0.014022 0.000000 0.000000 0.000000
# 2 -0.005302 0.011038 0.001854 0.000000 0.000000 0.000000
# 3 -0.014022 0.001854 0.042791 0.000000 0.000000 0.000000
# 4 0.000000 0.000000 0.000000 0.066052 0.000000 0.000000
# 5 0.000000 0.000000 0.000000 0.000000 0.031810 0.000000
# 6 0.000000 0.000000 0.000000 0.000000 0.000000 0.025326
#
#
# Mechanical properties :
#
#
# Convention : Reuss Voigt Hill
#
# Bulk Modulus (GPa) = 24.21578 33.10709 28.66144
# Shear Modulus (GPa) = 20.15083 26.85564 23.50323
#
# Velocity S-wave (km/s) = 2.93016 3.38270 3.16453
# Velocity P-wave (km/s) = 4.66537 5.41877 5.05612
#
# Compressibility (1/GPa) = 0.04129538
#
# Stress axis : x y z
#
# Youngs Moduli (GPa) = 44.62846 90.60015 23.36962
#
# Poissons Ratio (x) = 0.48035 0.32769
# Poissons Ratio (y) = 0.23661 -0.04333
# Poissons Ratio (z) = 0.62579 -0.16798
#
# Static dielectric constant tensor:
#      x y z
#    x 1.853250 0.000000 0.000000 
#    y 0.000000 2.150770 0.000000 
#    z 0.000000 0.000000 1.965190 
# 
# From -- ./inp_files/7036.got.cif
#   From: 2010.05.17/outbox.cif.g08.bks.cpg/sg19_4_cif.got.tgz:7036.got - 2010.06.03 22:46:19.
