data_PCOD9315633
_publ_section_title
;
Structure prediction by ZEFSAII (Michael W. Deem and Ramdas Pophale) SiO2 
 PCOD9315633
Probable space group: P 21 21 21
;
_chemical_formula_sum "Si O2"
_cell_formula_units_Z 32
_cell_length_a 8.106094
_cell_length_b 9.105134
_cell_length_c 17.432820
_cell_angle_alpha 90.000000
_cell_angle_beta 90.000000
_cell_angle_gamma 90.000000
_cell_volume 1286.665402
_symmetry_space_group_name_H-M "P 21 21 21"
_symmetry_group_IT_number 19
_symmetry_cell_setting 'orthorhombic'
loop_
_space_group_symop_operation_xyz
x,y,z
1/2-x,-y,1/2+z
1/2+x,1/2-y,-z
-x,1/2+y,1/2-z
loop_
_atom_site_type_symbol
_atom_site_label
_atom_site_fract_x
_atom_site_fract_y
_atom_site_fract_z
Si Si1 0.738565 0.406591 0.983852
Si Si2 0.065203 0.593303 0.954127
Si Si3 0.408094 0.536995 0.714802
Si Si4 0.273840 0.270167 0.322412
Si Si5 0.716784 0.717551 0.768397
Si Si6 0.441549 0.165186 0.580521
Si Si7 0.744453 0.924499 0.431333
Si Si8 0.099940 0.053448 0.850057
O O1 0.592324 0.497089 0.942040
O O2 0.756597 0.246569 0.949119
O O3 0.701485 0.398546 0.074313
O O4 0.904114 0.498255 0.969347
O O5 0.061215 0.744434 0.001878
O O6 0.221584 0.508377 0.990018
O O7 0.095267 0.628827 0.866065
O O8 0.280788 0.661942 0.742438
O O9 0.583518 0.594451 0.742494
O O10 0.352349 0.380717 0.748959
O O11 0.397042 0.531845 0.623547
O O12 0.106940 0.288546 0.374257
O O13 0.336754 0.105002 0.321983
O O14 0.708028 0.707805 0.860843
O O15 0.873651 0.672963 0.717458
O O16 0.583245 0.965904 0.383417
#
# Coordination Sequence:
#
# PCOD9315633 Si02
#       8
#     4   4   4   4   4   4   4   4
#     4  12  27  44  75 104 143 187 242 303 356 428
#     4  12  23  47  69 104 140 184 243 284 371 423
#     4  11  26  46  72 102 138 186 238 288 365 429
#     4  11  26  43  73 103 135 188 232 295 363 432
#     4  11  25  46  72 101 140 188 235 294 357 438
#     4  11  22  46  73 101 133 185 235 294 356 430
#     4  12  29  45  70 103 147 188 238 305 354 433
#     4  12  26  47  68 104 144 184 239 295 360 429
#
# _framework density 24.87049
#
# number of rings (size 3 to 8) (size 9 to 14) (size 15 to 20)
#    0.000    0.500    3.750    3.750   10.500    2.000 
#    0.000    0.000    0.000    0.000    0.000    0.000 
#    0.000    0.000    0.000    0.000    0.000    0.000 
#
# Total GULP energy -179328.393068 kJ/mol
# GULP energy per Si atom -5604.012283 kJ/mol
# Density = 2.481388 g / cm^3
# Si number density = 24.870490 Si / 1000 Ang^3
#
#
#
# Elastic Constant Matrix: (Units=GPa)
#
#
# Indices 1 2 3 4 5 6 
#
# 1 84.1921 14.1971 2.6132 0.0000 0.0000 0.0000
# 2 14.1971 136.5696 23.9344 0.0000 0.0000 0.0000
# 3 2.6132 23.9344 54.3497 0.0000 0.0000 0.0000
# 4 0.0000 0.0000 0.0000 42.1562 0.0000 0.0000
# 5 0.0000 0.0000 0.0000 0.0000 42.2517 0.0000
# 6 0.0000 0.0000 0.0000 0.0000 0.0000 34.9906
#
#
#
# Elastic Compliance Matrix: (Units=1/GPa)
#
#
# Indices 1 2 3 4 5 6 
#
# 1 0.012090 -0.001251 -0.000030 0.000000 0.000000 0.000000
# 2 -0.001251 0.008064 -0.003491 0.000000 0.000000 0.000000
# 3 -0.000030 -0.003491 0.019938 0.000000 0.000000 0.000000
# 4 0.000000 0.000000 0.000000 0.023721 0.000000 0.000000
# 5 0.000000 0.000000 0.000000 0.000000 0.023668 0.000000
# 6 0.000000 0.000000 0.000000 0.000000 0.000000 0.028579
#
#
# Mechanical properties :
#
#
# Convention : Reuss Voigt Hill
#
# Bulk Modulus (GPa) = 32.73698 39.62229 36.17963
# Shear Modulus (GPa) = 36.82218 39.50416 38.16317
#
# Velocity S-wave (km/s) = 3.85197 3.98979 3.92149
# Velocity P-wave (km/s) = 5.74240 6.09841 5.92308
#
# Compressibility (1/GPa) = 0.03054649
#
# Stress axis : x y z
#
# Youngs Moduli (GPa) = 82.71589 124.00486 50.15496
#
# Poissons Ratio (x) = 0.15519 0.00151
# Poissons Ratio (y) = 0.10352 0.17510
# Poissons Ratio (z) = 0.00249 0.43292
#
# Static dielectric constant tensor:
#      x y z
#    x 2.072460 0.000000 0.000000 
#    y 0.000000 1.915440 0.000000 
#    z 0.000000 0.000000 1.939770 
# 
# From -- ./inp_files/7031.got.cif
#   From: 2010.05.17/outbox.cif.g08.bks.cpg/sg19_4_cif.got.tgz:7031.got - 2010.06.03 22:46:19.
