data_PCOD9315101
_publ_section_title
;
Structure prediction by ZEFSAII (Michael W. Deem and Ramdas Pophale) SiO2 
 PCOD9315101
Probable space group: P 21 21 21
;
_chemical_formula_sum "Si O2"
_cell_formula_units_Z 16
_cell_length_a 21.497342
_cell_length_b 4.767794
_cell_length_c 5.465987
_cell_angle_alpha 90.000000
_cell_angle_beta 90.000000
_cell_angle_gamma 90.000000
_cell_volume 560.235781
_symmetry_space_group_name_H-M "P 21 21 21"
_symmetry_group_IT_number 19
_symmetry_cell_setting 'orthorhombic'
loop_
_space_group_symop_operation_xyz
x,y,z
1/2-x,-y,1/2+z
1/2+x,1/2-y,-z
-x,1/2+y,1/2-z
loop_
_atom_site_type_symbol
_atom_site_label
_atom_site_fract_x
_atom_site_fract_y
_atom_site_fract_z
Si Si1 0.460194 0.145194 0.652737
Si Si2 0.635988 0.039260 0.703643
Si Si3 0.761281 0.327759 0.707183
Si Si4 0.394682 0.471745 0.296606
O O1 0.504787 0.362103 0.796994
O O2 0.449605 0.261312 0.376396
O O3 0.392033 0.223670 0.767716
O O4 0.708943 0.085096 0.691833
O O5 0.615083 0.165315 0.964787
O O6 0.603735 0.138832 0.454548
O O7 0.748065 0.499164 0.956058
O O8 0.830150 0.200982 0.720296
#
# Coordination Sequence:
#
# PCOD9315101 Si02
#       4
#     4   4   4   4
#     4  10  26  46  74 104 146 192 244 292 356 432
#     4  10  23  43  67  98 145 186 237 290 364 417
#     4  12  24  38  70 108 146 184 238 300 366 430
#     4  10  23  43  67  98 145 186 237 290 364 417
#
# _framework density 28.5594
#
# number of rings (size 3 to 8) (size 9 to 14) (size 15 to 20)
#    1.500    0.000    0.000    4.500    3.500    2.000 
#    0.000    0.000    0.000    0.000    0.000    0.000 
#    0.000    0.000    0.000    0.000    0.000    0.000 
#
# Total GULP energy -89521.340674 kJ/mol
# GULP energy per Si atom -5595.083792 kJ/mol
# Density = 2.849440 g / cm^3
# Si number density = 28.559400 Si / 1000 Ang^3
#
#
#
# Elastic Constant Matrix: (Units=GPa)
#
#
# Indices 1 2 3 4 5 6 
#
# 1 139.4444 41.9005 25.3095 0.0000 0.0000 0.0000
# 2 41.9005 80.1611 25.3067 0.0000 0.0000 0.0000
# 3 25.3095 25.3067 240.0347 0.0000 0.0000 0.0000
# 4 0.0000 0.0000 0.0000 42.8934 0.0000 0.0000
# 5 0.0000 0.0000 0.0000 0.0000 51.0606 0.0000
# 6 0.0000 0.0000 0.0000 0.0000 0.0000 52.6092
#
#
#
# Elastic Compliance Matrix: (Units=1/GPa)
#
#
# Indices 1 2 3 4 5 6 
#
# 1 0.008553 -0.004330 -0.000445 0.000000 0.000000 0.000000
# 2 -0.004330 0.015097 -0.001135 0.000000 0.000000 0.000000
# 3 -0.000445 -0.001135 0.004333 0.000000 0.000000 0.000000
# 4 0.000000 0.000000 0.000000 0.023314 0.000000 0.000000
# 5 0.000000 0.000000 0.000000 0.000000 0.019585 0.000000
# 6 0.000000 0.000000 0.000000 0.000000 0.000000 0.019008
#
#
# Mechanical properties :
#
#
# Convention : Reuss Voigt Hill
#
# Bulk Modulus (GPa) = 61.87588 71.63039 66.75313
# Shear Modulus (GPa) = 46.68652 53.78755 50.23703
#
# Velocity S-wave (km/s) = 4.04755 4.34447 4.19864
# Velocity P-wave (km/s) = 6.59972 7.09236 6.85047
#
# Compressibility (1/GPa) = 0.01616139
#
# Stress axis : x y z
#
# Youngs Moduli (GPa) = 116.91383 66.23985 230.80362
#
# Poissons Ratio (x) = 0.28684 0.10278
# Poissons Ratio (y) = 0.50627 0.26197
# Poissons Ratio (z) = 0.05207 0.07519
#
# Static dielectric constant tensor:
#      x y z
#    x 2.206940 0.000000 0.000000 
#    y 0.000000 2.266950 0.000000 
#    z 0.000000 0.000000 2.342420 
# 
# From -- ./inp_files/103.got.cif
#   From: 2010.05.17/outbox.cif.g08.bks.cpg/sg19_1_cif.got.tgz:103.got - 2010.06.03 22:46:19.
