data_PCOD9315467
_publ_section_title
;
Structure prediction by ZEFSAII (Michael W. Deem and Ramdas Pophale) SiO2 
 PCOD9315467
Probable space group: P 21 21 21
;
_chemical_formula_sum "Si O2"
_cell_formula_units_Z 32
_cell_length_a 24.983054
_cell_length_b 9.399301
_cell_length_c 4.820793
_cell_angle_alpha 90.000000
_cell_angle_beta 90.000000
_cell_angle_gamma 90.000000
_cell_volume 1132.034253
_symmetry_space_group_name_H-M "P 21 21 21"
_symmetry_group_IT_number 19
_symmetry_cell_setting 'orthorhombic'
loop_
_space_group_symop_operation_xyz
x,y,z
1/2-x,-y,1/2+z
1/2+x,1/2-y,-z
-x,1/2+y,1/2-z
loop_
_atom_site_type_symbol
_atom_site_label
_atom_site_fract_x
_atom_site_fract_y
_atom_site_fract_z
Si Si1 0.178252 0.893555 0.856119
Si Si2 0.458234 0.928759 0.254327
Si Si3 0.579120 0.606660 0.740526
Si Si4 0.441784 0.418714 0.621170
Si Si5 0.750459 0.943201 0.727191
Si Si6 0.158782 0.589460 0.778690
Si Si7 0.200559 0.174941 0.540428
Si Si8 0.097904 0.335665 0.476244
O O1 0.159442 0.755828 0.686755
O O2 0.178081 0.041665 0.700166
O O3 0.139568 0.901862 0.126187
O O4 0.242504 0.864456 0.902228
O O5 0.432508 0.777496 0.169994
O O6 0.451152 0.986731 0.565031
O O7 0.518335 0.925961 0.139196
O O8 0.427880 0.045454 0.065840
O O9 0.549518 0.760996 0.742427
O O10 0.380714 0.390972 0.546686
O O11 0.438895 0.574971 0.765493
O O12 0.778986 0.792835 0.738841
O O13 0.711065 0.955584 0.459039
O O14 0.788743 0.045429 0.502957
O O15 0.122678 0.462270 0.653729
O O16 0.152092 0.250265 0.369811
#
# Coordination Sequence:
#
# PCOD9315467 Si02
#       8
#     4   4   4   4   4   4   4   4
#     4  11  25  48  74 114 155 213 258 335 402 491
#     4  12  28  52  83 117 162 206 274 338 408 481
#     4  11  29  52  79 118 162 210 262 340 408 485
#     4  11  28  47  84 110 157 213 271 334 413 482
#     4  11  25  46  71 107 148 199 255 319 387 472
#     4  10  26  46  74 106 156 201 264 322 400 477
#     4  11  26  44  78 111 156 209 266 326 404 484
#     4  11  27  49  77 115 154 213 268 336 396 496
#
# _framework density 28.267696000000001
#
# number of rings (size 3 to 8) (size 9 to 14) (size 15 to 20)
#    0.000    1.000    2.500    0.750   15.750    0.000 
#    0.000    0.000    0.000    0.000    0.000    0.000 
#    0.000    0.000    0.000    0.000    0.000    0.000 
#
# Total GULP energy -178957.681576 kJ/mol
# GULP energy per Si atom -5592.427549 kJ/mol
# Density = 2.820336 g / cm^3
# Si number density = 28.267696 Si / 1000 Ang^3
#
#
#
# Elastic Constant Matrix: (Units=GPa)
#
#
# Indices 1 2 3 4 5 6 
#
# 1 173.1029 52.1394 12.4930 0.0000 0.0000 0.0000
# 2 52.1394 204.2410 41.0818 0.0000 0.0000 0.0000
# 3 12.4930 41.0818 110.4686 0.0000 0.0000 0.0000
# 4 0.0000 0.0000 0.0000 46.6192 0.0000 0.0000
# 5 0.0000 0.0000 0.0000 0.0000 39.6824 0.0000
# 6 0.0000 0.0000 0.0000 0.0000 0.0000 60.4507
#
#
#
# Elastic Compliance Matrix: (Units=1/GPa)
#
#
# Indices 1 2 3 4 5 6 
#
# 1 0.006260 -0.001573 -0.000123 0.000000 0.000000 0.000000
# 2 -0.001573 0.005687 -0.001937 0.000000 0.000000 0.000000
# 3 -0.000123 -0.001937 0.009787 0.000000 0.000000 0.000000
# 4 0.000000 0.000000 0.000000 0.021450 0.000000 0.000000
# 5 0.000000 0.000000 0.000000 0.000000 0.025200 0.000000
# 6 0.000000 0.000000 0.000000 0.000000 0.000000 0.016542
#
#
# Mechanical properties :
#
#
# Convention : Reuss Voigt Hill
#
# Bulk Modulus (GPa) = 69.12185 77.69343 73.40764
# Shear Modulus (GPa) = 51.53811 54.82369 53.18090
#
# Velocity S-wave (km/s) = 4.27455 4.40869 4.34214
# Velocity P-wave (km/s) = 6.99056 7.31163 7.15290
#
# Compressibility (1/GPa) = 0.01446721
#
# Stress axis : x y z
#
# Youngs Moduli (GPa) = 159.75319 175.82550 102.18005
#
# Poissons Ratio (x) = 0.27662 0.01255
# Poissons Ratio (y) = 0.25134 0.19794
# Poissons Ratio (z) = 0.01962 0.34060
#
# Static dielectric constant tensor:
#      x y z
#    x 2.260500 0.000000 0.000000 
#    y 0.000000 2.140330 0.000000 
#    z 0.000000 0.000000 2.179570 
# 
# From -- ./inp_files/2316.got.cif
#   From: 2010.05.17/outbox.cif.g08.bks.cpg/sg19_2_cif.got.tgz:2316.got - 2010.06.03 22:46:19.
