data_PCOD9315124
_publ_section_title
;
Structure prediction by ZEFSAII (Michael W. Deem and Ramdas Pophale) SiO2 
 PCOD9315124
Probable space group: P 21 21 21
;
_chemical_formula_sum "Si O2"
_cell_formula_units_Z 24
_cell_length_a 6.757916
_cell_length_b 14.415647
_cell_length_c 10.616847
_cell_angle_alpha 90.000000
_cell_angle_beta 90.000000
_cell_angle_gamma 90.000000
_cell_volume 1034.290384
_symmetry_space_group_name_H-M "P 21 21 21"
_symmetry_group_IT_number 19
_symmetry_cell_setting 'orthorhombic'
loop_
_space_group_symop_operation_xyz
x,y,z
1/2-x,-y,1/2+z
1/2+x,1/2-y,-z
-x,1/2+y,1/2-z
loop_
_atom_site_type_symbol
_atom_site_label
_atom_site_fract_x
_atom_site_fract_y
_atom_site_fract_z
Si Si1 0.868478 0.751431 0.169308
Si Si2 0.982348 0.644441 0.733045
Si Si3 0.705883 0.037064 0.314200
Si Si4 0.891901 0.020679 0.057706
Si Si5 0.727338 0.798274 0.655594
Si Si6 0.809499 0.374744 0.467067
O O1 0.685072 0.806271 0.226929
O O2 0.020290 0.726159 0.279684
O O3 0.999365 0.811852 0.070937
O O4 0.786750 0.662559 0.094460
O O5 0.858547 0.707974 0.635132
O O6 0.844190 0.638530 0.855163
O O7 0.036169 0.540284 0.693858
O O8 0.754399 0.034361 0.461896
O O9 0.860779 0.004995 0.207673
O O10 0.657601 0.138871 0.261667
O O11 0.823369 0.128033 0.046573
O O12 0.106914 0.978943 0.031369
#
# Coordination Sequence:
#
# PCOD9315124 Si02
#       6
#     4   4   4   4   4   4
#     4  11  20  36  62  99 129 167 226 273 328 392
#     4  11  22  40  67  95 130 180 221 269 341 399
#     4  10  23  44  66  95 134 177 223 274 330 406
#     4  10  23  44  60  98 137 168 224 274 334 391
#     4   9  24  41  63  96 136 171 219 278 329 396
#     4  11  22  35  68  97 128 173 223 282 328 390
#
# _framework density 23.204312999999999
#
# number of rings (size 3 to 8) (size 9 to 14) (size 15 to 20)
#    1.000    0.667    3.333    1.000    4.667    2.667 
#    3.000    0.000    0.000    0.000    0.000    0.000 
#    0.000    0.000    0.000    0.000    0.000    0.000 
#
# Total GULP energy -133814.443775 kJ/mol
# GULP energy per Si atom -5575.601824 kJ/mol
# Density = 2.315150 g / cm^3
# Si number density = 23.204313 Si / 1000 Ang^3
#
#
#
# Elastic Constant Matrix: (Units=GPa)
#
#
# Indices 1 2 3 4 5 6 
#
# 1 101.2985 53.0902 18.4993 0.0000 0.0000 0.0000
# 2 53.0902 76.6639 2.1575 0.0000 0.0000 0.0000
# 3 18.4993 2.1575 45.8182 0.0000 0.0000 0.0000
# 4 0.0000 0.0000 0.0000 39.0735 0.0000 0.0000
# 5 0.0000 0.0000 0.0000 0.0000 24.9085 0.0000
# 6 0.0000 0.0000 0.0000 0.0000 0.0000 48.2271
#
#
#
# Elastic Compliance Matrix: (Units=1/GPa)
#
#
# Indices 1 2 3 4 5 6 
#
# 1 0.017178 -0.011716 -0.006384 0.000000 0.000000 0.000000
# 2 -0.011716 0.021052 0.003739 0.000000 0.000000 0.000000
# 3 -0.006384 0.003739 0.024227 0.000000 0.000000 0.000000
# 4 0.000000 0.000000 0.000000 0.025593 0.000000 0.000000
# 5 0.000000 0.000000 0.000000 0.000000 0.040147 0.000000
# 6 0.000000 0.000000 0.000000 0.000000 0.000000 0.020735
#
#
# Mechanical properties :
#
#
# Convention : Reuss Voigt Hill
#
# Bulk Modulus (GPa) = 29.64275 41.25271 35.44773
# Shear Modulus (GPa) = 26.46908 32.44407 29.45658
#
# Velocity S-wave (km/s) = 3.38108 3.74330 3.56679
# Velocity P-wave (km/s) = 5.29573 6.04149 5.68086
#
# Compressibility (1/GPa) = 0.03373507
#
# Stress axis : x y z
#
# Youngs Moduli (GPa) = 58.21351 47.50067 41.27641
#
# Poissons Ratio (x) = 0.55653 0.26351
# Poissons Ratio (y) = 0.68205 -0.15434
# Poissons Ratio (z) = 0.37164 -0.17761
#
# Static dielectric constant tensor:
#      x y z
#    x 1.837480 0.000000 0.000000 
#    y 0.000000 1.953100 0.000000 
#    z 0.000000 0.000000 2.016650 
# 
# From -- ./inp_files/4467.got.cif
#   From: 2010.05.17/outbox.cif.g08.bks.cpg/sg19_3_cif.got.tgz:4467.got - 2010.06.03 22:46:19.
