data_PCOD9315069
_publ_section_title
;
Structure prediction by ZEFSAII (Michael W. Deem and Ramdas Pophale) SiO2 
 PCOD9315069
Probable space group: P 21 21 21
;
_chemical_formula_sum "Si O2"
_cell_formula_units_Z 24
_cell_length_a 18.953323
_cell_length_b 8.240395
_cell_length_c 6.508612
_cell_angle_alpha 90.000000
_cell_angle_beta 90.000000
_cell_angle_gamma 90.000000
_cell_volume 1016.533689
_symmetry_space_group_name_H-M "P 21 21 21"
_symmetry_group_IT_number 19
_symmetry_cell_setting 'orthorhombic'
loop_
_space_group_symop_operation_xyz
x,y,z
1/2-x,-y,1/2+z
1/2+x,1/2-y,-z
-x,1/2+y,1/2-z
loop_
_atom_site_type_symbol
_atom_site_label
_atom_site_fract_x
_atom_site_fract_y
_atom_site_fract_z
Si Si1 0.178575 0.966426 0.386162
Si Si2 0.772075 0.244899 0.455104
Si Si3 0.548173 0.340959 0.675718
Si Si4 0.609310 0.733405 0.272136
Si Si5 0.369122 0.582988 0.106702
Si Si6 0.027304 0.378644 0.943397
O O1 0.150324 0.906054 0.604148
O O2 0.231783 0.112969 0.420686
O O3 0.110087 0.031813 0.265194
O O4 0.212647 0.818800 0.266739
O O5 0.845301 0.219363 0.573166
O O6 0.714168 0.104260 0.431985
O O7 0.588997 0.203167 0.544587
O O8 0.493096 0.447305 0.542703
O O9 0.519783 0.251430 0.875465
O O10 0.530362 0.663688 0.267752
O O11 0.609299 0.896233 0.409396
O O12 0.396863 0.630060 0.335058
#
# Coordination Sequence:
#
# PCOD9315069 Si02
#       6
#     4   4   4   4   4   4
#     4  10  23  42  68  94 134 180 230 280 337 411
#     4  11  24  42  68  97 136 185 226 276 343 404
#     4  10  24  42  68 102 134 181 226 285 353 413
#     4  11  25  43  67 103 134 180 232 279 346 405
#     4  11  26  42  68 101 139 180 228 286 344 409
#     4  11  24  45  71 101 141 178 228 292 349 418
#
# _framework density 23.609646000000001
#
# number of rings (size 3 to 8) (size 9 to 14) (size 15 to 20)
#    0.000    1.333    1.667    2.000    4.667    8.000 
#    0.000    0.000    0.000    0.000    0.000    0.000 
#    0.000    0.000    0.000    0.000    0.000    0.000 
#
# Total GULP energy -134147.614363 kJ/mol
# GULP energy per Si atom -5589.483932 kJ/mol
# Density = 2.355591 g / cm^3
# Si number density = 23.609646 Si / 1000 Ang^3
#
#
#
# Elastic Constant Matrix: (Units=GPa)
#
#
# Indices 1 2 3 4 5 6 
#
# 1 81.2073 10.9182 31.2181 0.0000 0.0000 0.0000
# 2 10.9182 61.4048 -7.9414 0.0000 0.0000 0.0000
# 3 31.2181 -7.9414 35.1906 0.0000 0.0000 0.0000
# 4 0.0000 0.0000 0.0000 37.6928 0.0000 0.0000
# 5 0.0000 0.0000 0.0000 0.0000 38.1268 0.0000
# 6 0.0000 0.0000 0.0000 0.0000 0.0000 26.1690
#
#
#
# Elastic Compliance Matrix: (Units=1/GPa)
#
#
# Indices 1 2 3 4 5 6 
#
# 1 0.020790 -0.006265 -0.019857 0.000000 0.000000 0.000000
# 2 -0.006265 0.018663 0.009769 0.000000 0.000000 0.000000
# 3 -0.019857 0.009769 0.048236 0.000000 0.000000 0.000000
# 4 0.000000 0.000000 0.000000 0.026530 0.000000 0.000000
# 5 0.000000 0.000000 0.000000 0.000000 0.026228 0.000000
# 6 0.000000 0.000000 0.000000 0.000000 0.000000 0.038213
#
#
# Mechanical properties :
#
#
# Convention : Reuss Voigt Hill
#
# Bulk Modulus (GPa) = 18.18703 27.35470 22.77087
# Shear Modulus (GPa) = 21.76817 29.97157 25.86987
#
# Velocity S-wave (km/s) = 3.03974 3.56682 3.31378
# Velocity P-wave (km/s) = 4.47661 5.34549 4.93023
#
# Compressibility (1/GPa) = 0.05498425
#
# Stress axis : x y z
#
# Youngs Moduli (GPa) = 48.10048 53.58293 20.73126
#
# Poissons Ratio (x) = 0.33567 0.41165
# Poissons Ratio (y) = 0.30133 -0.20252
# Poissons Ratio (z) = 0.95511 -0.52345
#
# Static dielectric constant tensor:
#      x y z
#    x 1.916170 0.000000 0.000000 
#    y 0.000000 1.862730 0.000000 
#    z 0.000000 0.000000 1.882300 
# 
# From -- ./inp_files/1701.got.cif
#   From: 2010.05.17/outbox.cif.g08.bks.cpg/sg19_1_cif.got.tgz:1701.got - 2010.06.03 22:46:19.
