data_PCOD9315402
_publ_section_title
;
Structure prediction by ZEFSAII (Michael W. Deem and Ramdas Pophale) SiO2 
 PCOD9315402
Probable space group: P 21 21 21
;
_chemical_formula_sum "Si O2"
_cell_formula_units_Z 28
_cell_length_a 9.645284
_cell_length_b 14.817659
_cell_length_c 8.579422
_cell_angle_alpha 90.000000
_cell_angle_beta 90.000000
_cell_angle_gamma 90.000000
_cell_volume 1226.175533
_symmetry_space_group_name_H-M "P 21 21 21"
_symmetry_group_IT_number 19
_symmetry_cell_setting 'orthorhombic'
loop_
_space_group_symop_operation_xyz
x,y,z
1/2-x,-y,1/2+z
1/2+x,1/2-y,-z
-x,1/2+y,1/2-z
loop_
_atom_site_type_symbol
_atom_site_label
_atom_site_fract_x
_atom_site_fract_y
_atom_site_fract_z
Si Si1 0.187133 0.284899 0.507459
Si Si2 0.076414 0.056017 0.152207
Si Si3 0.377132 0.500858 0.287085
Si Si4 0.264352 0.215659 0.195390
Si Si5 0.709219 0.891585 0.489574
Si Si6 0.524774 0.860387 0.968617
Si Si7 0.559408 0.589825 0.078718
O O1 0.175602 0.274062 0.319009
O O2 0.342649 0.295758 0.577326
O O3 0.095771 0.197286 0.552992
O O4 0.093186 0.370508 0.547124
O O5 0.185989 0.134112 0.111641
O O6 0.045253 0.077906 0.334508
O O7 0.930782 0.077974 0.072766
O O8 0.116716 0.959308 0.076137
O O9 0.327005 0.588446 0.382618
O O10 0.274097 0.459416 0.157622
O O11 0.397140 0.423173 0.411304
O O12 0.526266 0.514388 0.207433
O O13 0.311432 0.290338 0.072713
O O14 0.360678 0.166160 0.324452
#
# Coordination Sequence:
#
# PCOD9315402 Si02
#       7
#     4   4   4   4   4   4   4
#     4  11  21  41  69  96 136 180 230 284 347 418
#     4  10  25  43  66  98 139 181 238 289 356 429
#     4  11  23  38  72  94 137 181 233 286 345 422
#     4  11  25  42  67 101 142 176 235 292 361 418
#     4  11  22  42  67 100 134 182 240 286 350 426
#     4  11  22  43  67 103 134 189 234 291 352 421
#     4  11  24  45  68 100 136 183 236 292 353 422
#
# _framework density 22.835229999999999
#
# number of rings (size 3 to 8) (size 9 to 14) (size 15 to 20)
#    0.000    1.143    2.857    3.429    4.000    2.286 
#    5.143    1.429    0.000    0.000    0.000    0.000 
#    0.000    0.000    0.000    0.000    0.000    0.000 
#
# Total GULP energy -155931.085348 kJ/mol
# GULP energy per Si atom -5568.967334 kJ/mol
# Density = 2.278326 g / cm^3
# Si number density = 22.835230 Si / 1000 Ang^3
#
#
#
# Elastic Constant Matrix: (Units=GPa)
#
#
# Indices 1 2 3 4 5 6 
#
# 1 41.5521 15.7442 2.2773 0.0000 0.0000 0.0000
# 2 15.7442 76.4471 34.9556 0.0000 0.0000 0.0000
# 3 2.2773 34.9556 73.8835 0.0000 0.0000 0.0000
# 4 0.0000 0.0000 0.0000 41.7578 0.0000 0.0000
# 5 0.0000 0.0000 0.0000 0.0000 18.3633 0.0000
# 6 0.0000 0.0000 0.0000 0.0000 0.0000 38.9958
#
#
#
# Elastic Compliance Matrix: (Units=1/GPa)
#
#
# Indices 1 2 3 4 5 6 
#
# 1 0.026391 -0.006461 0.002243 0.000000 0.000000 0.000000
# 2 -0.006461 0.018274 -0.008446 0.000000 0.000000 0.000000
# 3 0.002243 -0.008446 0.017462 0.000000 0.000000 0.000000
# 4 0.000000 0.000000 0.000000 0.023948 0.000000 0.000000
# 5 0.000000 0.000000 0.000000 0.000000 0.054456 0.000000
# 6 0.000000 0.000000 0.000000 0.000000 0.000000 0.025644
#
#
# Mechanical properties :
#
#
# Convention : Reuss Voigt Hill
#
# Bulk Modulus (GPa) = 27.17494 33.09299 30.13396
# Shear Modulus (GPa) = 24.53756 29.08376 26.81066
#
# Velocity S-wave (km/s) = 3.28159 3.57268 3.43022
# Velocity P-wave (km/s) = 5.12686 5.61625 5.37712
#
# Compressibility (1/GPa) = 0.03679861
#
# Stress axis : x y z
#
# Youngs Moduli (GPa) = 37.89128 54.72334 57.26775
#
# Poissons Ratio (x) = 0.35357 -0.12847
# Poissons Ratio (y) = 0.24482 0.48371
# Poissons Ratio (z) = -0.08500 0.46222
#
# Static dielectric constant tensor:
#      x y z
#    x 1.932590 0.000000 0.000000 
#    y 0.000000 1.982330 0.000000 
#    z 0.000000 0.000000 1.881420 
# 
# From -- ./inp_files/3502.got.cif
#   From: 2010.05.17/outbox.cif.g08.bks.cpg/sg19_2_cif.got.tgz:3502.got - 2010.06.03 22:46:19.
