data_PCOD9315665
_publ_section_title
;
Structure prediction by ZEFSAII (Michael W. Deem and Ramdas Pophale) SiO2 
 PCOD9315665
Probable space group: P 21 21 21
;
_chemical_formula_sum "Si O2"
_cell_formula_units_Z 32
_cell_length_a 11.300553
_cell_length_b 22.056233
_cell_length_c 6.595295
_cell_angle_alpha 90.000000
_cell_angle_beta 90.000000
_cell_angle_gamma 90.000000
_cell_volume 1643.861648
_symmetry_space_group_name_H-M "P 21 21 21"
_symmetry_group_IT_number 19
_symmetry_cell_setting 'orthorhombic'
loop_
_space_group_symop_operation_xyz
x,y,z
1/2-x,-y,1/2+z
1/2+x,1/2-y,-z
-x,1/2+y,1/2-z
loop_
_atom_site_type_symbol
_atom_site_label
_atom_site_fract_x
_atom_site_fract_y
_atom_site_fract_z
Si Si1 0.091939 0.984050 0.166219
Si Si2 0.301093 0.830662 0.648438
Si Si3 0.088380 0.781807 0.893195
Si Si4 0.160915 0.066694 0.819165
Si Si5 0.717332 0.837575 0.943488
Si Si6 0.948058 0.861706 0.205692
Si Si7 0.624357 0.210746 0.090062
Si Si8 0.975188 0.600152 0.070874
O O1 0.225019 0.961601 0.210719
O O2 0.005592 0.927534 0.190837
O O3 0.057332 0.036836 0.322788
O O4 0.093439 0.014598 0.944687
O O5 0.181528 0.824565 0.776851
O O6 0.295786 0.883688 0.482178
O O7 0.327475 0.767549 0.536967
O O8 0.406519 0.848081 0.802138
O O9 0.157183 0.721696 0.957976
O O10 0.979822 0.768593 0.741943
O O11 0.035297 0.815540 0.088263
O O12 0.076385 0.097628 0.655036
O O13 0.824046 0.859141 0.086163
O O14 0.773903 0.818303 0.729220
O O15 0.613611 0.886272 0.922916
O O16 0.926977 0.837938 0.432036
#
# Coordination Sequence:
#
# PCOD9315665 Si02
#       8
#     4   4   4   4   4   4   4   4
#     4  11  24  43  70  98 130 178 228 281 335 397
#     4  11  24  38  71 102 130 180 216 278 344 396
#     4  11  24  40  68 100 138 174 221 278 332 405
#     4  11  23  42  70 100 132 170 228 286 337 397
#     4  11  26  44  64 100 141 180 224 271 339 416
#     4  11  25  44  66 100 137 177 227 278 333 405
#     4  11  25  43  68 100 138 180 219 272 342 411
#     4  11  25  44  67  98 138 175 229 280 338 397
#
# _framework density 19.466358
#
# number of rings (size 3 to 8) (size 9 to 14) (size 15 to 20)
#    0.000    1.000    2.500    3.000   10.500    4.000 
#    4.500    0.000    0.000    0.000    0.000    0.000 
#    0.000    0.000    0.000    0.000    0.000    0.000 
#
# Total GULP energy -179064.372874 kJ/mol
# GULP energy per Si atom -5595.761652 kJ/mol
# Density = 1.942205 g / cm^3
# Si number density = 19.466358 Si / 1000 Ang^3
#
#
#
# Elastic Constant Matrix: (Units=GPa)
#
#
# Indices 1 2 3 4 5 6 
#
# 1 106.7454 42.4796 42.6171 0.0000 0.0000 0.0000
# 2 42.4796 68.4016 34.0390 0.0000 0.0000 0.0000
# 3 42.6171 34.0390 114.4926 0.0000 0.0000 0.0000
# 4 0.0000 0.0000 0.0000 17.7854 0.0000 0.0000
# 5 0.0000 0.0000 0.0000 0.0000 13.7984 0.0000
# 6 0.0000 0.0000 0.0000 0.0000 0.0000 39.1443
#
#
#
# Elastic Compliance Matrix: (Units=1/GPa)
#
#
# Indices 1 2 3 4 5 6 
#
# 1 0.013221 -0.006762 -0.002911 0.000000 0.000000 0.000000
# 2 -0.006762 0.020617 -0.003612 0.000000 0.000000 0.000000
# 3 -0.002911 -0.003612 0.010892 0.000000 0.000000 0.000000
# 4 0.000000 0.000000 0.000000 0.056226 0.000000 0.000000
# 5 0.000000 0.000000 0.000000 0.000000 0.072472 0.000000
# 6 0.000000 0.000000 0.000000 0.000000 0.000000 0.025546
#
#
# Mechanical properties :
#
#
# Convention : Reuss Voigt Hill
#
# Bulk Modulus (GPa) = 55.06990 58.65676 56.86333
# Shear Modulus (GPa) = 21.58911 25.51255 23.55083
#
# Velocity S-wave (km/s) = 3.33385 3.62414 3.48202
# Velocity P-wave (km/s) = 6.57043 6.90727 6.74095
#
# Compressibility (1/GPa) = 0.01815874
#
# Stress axis : x y z
#
# Youngs Moduli (GPa) = 75.63557 48.50422 91.81353
#
# Poissons Ratio (x) = 0.32800 0.26726
# Poissons Ratio (y) = 0.51147 0.33166
# Poissons Ratio (z) = 0.22016 0.17521
#
# Static dielectric constant tensor:
#      x y z
#    x 1.655230 0.000000 0.000000 
#    y 0.000000 1.670000 0.000000 
#    z 0.000000 0.000000 1.678780 
# 
# From -- ./inp_files/1158.got.cif
#   From: 2010.05.17/outbox.cif.g08.bks.cpg/sg19_1_cif.got.tgz:1158.got - 2010.06.03 22:46:19.
