data_PCOD9315941
_publ_section_title
;
Structure prediction by ZEFSAII (Michael W. Deem and Ramdas Pophale) SiO2 
 PCOD9315941
Probable space group: P 21 21 21
;
_chemical_formula_sum "Si O2"
_cell_formula_units_Z 28
_cell_length_a 25.734103
_cell_length_b 5.098182
_cell_length_c 8.774725
_cell_angle_alpha 90.000000
_cell_angle_beta 90.000000
_cell_angle_gamma 90.000000
_cell_volume 1151.218830
_symmetry_space_group_name_H-M "P 21 21 21"
_symmetry_group_IT_number 19
_symmetry_cell_setting 'orthorhombic'
loop_
_space_group_symop_operation_xyz
x,y,z
1/2-x,-y,1/2+z
1/2+x,1/2-y,-z
-x,1/2+y,1/2-z
loop_
_atom_site_type_symbol
_atom_site_label
_atom_site_fract_x
_atom_site_fract_y
_atom_site_fract_z
Si Si1 0.164526 0.183424 0.799424
Si Si2 0.793939 0.038517 0.453798
Si Si3 0.501747 0.226138 0.351967
Si Si4 0.254364 0.847183 0.790121
Si Si5 0.635407 0.512436 0.658006
Si Si6 0.611109 0.017903 0.464618
Si Si7 0.399924 0.159940 0.528490
O O1 0.202547 0.306674 0.923377
O O2 0.141077 0.405111 0.690829
O O3 0.202005 0.972072 0.720572
O O4 0.120598 0.034678 0.896323
O O5 0.760470 0.258051 0.539025
O O6 0.853926 0.129564 0.446606
O O7 0.770358 0.907793 0.306034
O O8 0.513655 0.505774 0.273981
O O9 0.454304 0.266236 0.468558
O O10 0.551613 0.097246 0.432437
O O11 0.304641 0.034558 0.788084
O O12 0.619588 0.731036 0.534232
O O13 0.631860 0.225968 0.586557
O O14 0.598668 0.526986 0.806033
#
# Coordination Sequence:
#
# PCOD9315941 Si02
#       7
#     4   4   4   4   4   4   4
#     4  11  26  45  75 108 151 203 263 310 380 478
#     4  11  26  47  73 109 152 210 260 316 385 464
#     4  12  26  50  85 114 146 201 258 328 390 465
#     4  11  28  45  72 110 156 213 254 318 391 463
#     4  12  29  49  72 112 163 199 249 326 390 463
#     4  12  29  48  77 118 150 200 263 324 390 462
#     4  11  26  50  76 107 156 202 261 318 396 471
#
# _framework density 24.322047000000001
#
# number of rings (size 3 to 8) (size 9 to 14) (size 15 to 20)
#    0.000    0.571    2.857    2.571   12.000    1.143 
#    0.000    0.000    0.000    0.000    0.000    0.000 
#    0.000    0.000    0.000    0.000    0.000    0.000 
#
# Total GULP energy -156911.124407 kJ/mol
# GULP energy per Si atom -5603.968729 kJ/mol
# Density = 2.426669 g / cm^3
# Si number density = 24.322047 Si / 1000 Ang^3
#
#
#
# Elastic Constant Matrix: (Units=GPa)
#
#
# Indices 1 2 3 4 5 6 
#
# 1 100.5422 2.5702 30.4641 0.0000 0.0000 0.0000
# 2 2.5702 64.9043 0.2710 0.0000 0.0000 0.0000
# 3 30.4641 0.2710 79.2879 0.0000 0.0000 0.0000
# 4 0.0000 0.0000 0.0000 43.8345 0.0000 0.0000
# 5 0.0000 0.0000 0.0000 0.0000 43.3334 0.0000
# 6 0.0000 0.0000 0.0000 0.0000 0.0000 26.5442
#
#
#
# Elastic Compliance Matrix: (Units=1/GPa)
#
#
# Indices 1 2 3 4 5 6 
#
# 1 0.011268 -0.000428 -0.004328 0.000000 0.000000 0.000000
# 2 -0.000428 0.015424 0.000112 0.000000 0.000000 0.000000
# 3 -0.004328 0.000112 0.014275 0.000000 0.000000 0.000000
# 4 0.000000 0.000000 0.000000 0.022813 0.000000 0.000000
# 5 0.000000 0.000000 0.000000 0.000000 0.023077 0.000000
# 6 0.000000 0.000000 0.000000 0.000000 0.000000 0.037673
#
#
# Mechanical properties :
#
#
# Convention : Reuss Voigt Hill
#
# Bulk Modulus (GPa) = 31.56753 34.59387 33.08070
# Shear Modulus (GPa) = 34.63125 36.83770 35.73448
#
# Velocity S-wave (km/s) = 3.77750 3.89598 3.83720
# Velocity P-wave (km/s) = 5.65979 5.87302 5.76739
#
# Compressibility (1/GPa) = 0.03167812
#
# Stress axis : x y z
#
# Youngs Moduli (GPa) = 88.74353 64.83495 70.05340
#
# Poissons Ratio (x) = 0.02776 0.30320
# Poissons Ratio (y) = 0.03800 -0.00783
# Poissons Ratio (z) = 0.38409 -0.00725
#
# Static dielectric constant tensor:
#      x y z
#    x 1.934100 0.000000 0.000000 
#    y 0.000000 1.968510 0.000000 
#    z 0.000000 0.000000 1.992160 
# 
# From -- ./inp_files/4361.got.cif
#   From: 2010.05.17/outbox.cif.g08.bks.cpg/sg19_3_cif.got.tgz:4361.got - 2010.06.03 22:46:19.
