data_PCOD9315951
_publ_section_title
;
Structure prediction by ZEFSAII (Michael W. Deem and Ramdas Pophale) SiO2 
 PCOD9315951
Probable space group: P 21 21 21
;
_chemical_formula_sum "Si O2"
_cell_formula_units_Z 28
_cell_length_a 11.399821
_cell_length_b 10.552941
_cell_length_c 8.867393
_cell_angle_alpha 90.000000
_cell_angle_beta 90.000000
_cell_angle_gamma 90.000000
_cell_volume 1066.761906
_symmetry_space_group_name_H-M "P 21 21 21"
_symmetry_group_IT_number 19
_symmetry_cell_setting 'orthorhombic'
loop_
_space_group_symop_operation_xyz
x,y,z
1/2-x,-y,1/2+z
1/2+x,1/2-y,-z
-x,1/2+y,1/2-z
loop_
_atom_site_type_symbol
_atom_site_label
_atom_site_fract_x
_atom_site_fract_y
_atom_site_fract_z
Si Si1 0.337502 0.795024 0.662516
Si Si2 0.571892 0.295124 0.161901
Si Si3 0.488287 0.420410 0.612193
Si Si4 0.910134 0.291795 0.588446
Si Si5 0.290710 0.944818 0.081495
Si Si6 0.404393 0.524517 0.075990
Si Si7 0.781757 0.961645 0.214151
O O1 0.369553 0.750290 0.493271
O O2 0.452458 0.831872 0.759296
O O3 0.263026 0.688484 0.753899
O O4 0.267365 0.927371 0.643437
O O5 0.470500 0.212532 0.245286
O O6 0.664319 0.349618 0.286311
O O7 0.499593 0.419261 0.109652
O O8 0.411122 0.344354 0.489824
O O9 0.596220 0.477664 0.519376
O O10 0.401542 0.513518 0.695377
O O11 0.801891 0.373195 0.527095
O O12 0.025057 0.358037 0.510618
O O13 0.325976 0.542117 0.222980
O O14 0.310488 0.491248 0.950867
#
# Coordination Sequence:
#
# PCOD9315951 Si02
#       7
#     4   4   4   4   4   4   4
#     4  12  25  50  77 113 153 213 261 331 388 476
#     4  11  27  46  80 116 155 205 265 323 393 480
#     4  11  26  48  76 110 159 204 259 326 405 462
#     4  11  26  49  80 111 162 201 258 323 399 470
#     4  11  26  50  80 113 156 208 265 326 400 480
#     4  12  28  51  71 118 157 201 262 324 391 481
#     4  12  30  48  78 111 160 204 266 329 400 471
#
# _framework density 26.247655999999999
#
# number of rings (size 3 to 8) (size 9 to 14) (size 15 to 20)
#    0.000    0.571    4.286    0.857   12.000    1.143 
#    0.000    0.000    0.000    0.000    0.000    0.000 
#    0.000    0.000    0.000    0.000    0.000    0.000 
#
# Total GULP energy -156846.589929 kJ/mol
# GULP energy per Si atom -5601.663926 kJ/mol
# Density = 2.618792 g / cm^3
# Si number density = 26.247656 Si / 1000 Ang^3
#
#
#
# Elastic Constant Matrix: (Units=GPa)
#
#
# Indices 1 2 3 4 5 6 
#
# 1 86.2463 25.9506 27.3053 0.0000 0.0000 0.0000
# 2 25.9506 74.9838 23.1259 0.0000 0.0000 0.0000
# 3 27.3053 23.1259 136.2619 0.0000 0.0000 0.0000
# 4 0.0000 0.0000 0.0000 41.9228 0.0000 0.0000
# 5 0.0000 0.0000 0.0000 0.0000 42.5840 0.0000
# 6 0.0000 0.0000 0.0000 0.0000 0.0000 45.9471
#
#
#
# Elastic Compliance Matrix: (Units=1/GPa)
#
#
# Indices 1 2 3 4 5 6 
#
# 1 0.013444 -0.004033 -0.002010 0.000000 0.000000 0.000000
# 2 -0.004033 0.015283 -0.001786 0.000000 0.000000 0.000000
# 3 -0.002010 -0.001786 0.008045 0.000000 0.000000 0.000000
# 4 0.000000 0.000000 0.000000 0.023853 0.000000 0.000000
# 5 0.000000 0.000000 0.000000 0.000000 0.023483 0.000000
# 6 0.000000 0.000000 0.000000 0.000000 0.000000 0.021764
#
#
# Mechanical properties :
#
#
# Convention : Reuss Voigt Hill
#
# Bulk Modulus (GPa) = 47.35932 50.02838 48.69385
# Shear Modulus (GPa) = 38.89021 40.83149 39.86085
#
# Velocity S-wave (km/s) = 3.85341 3.94842 3.90121
# Velocity P-wave (km/s) = 6.15474 6.31571 6.23574
#
# Compressibility (1/GPa) = 0.02111517
#
# Stress axis : x y z
#
# Youngs Moduli (GPa) = 74.38008 65.43356 124.30779
#
# Poissons Ratio (x) = 0.26390 0.24981
# Poissons Ratio (y) = 0.29998 0.22196
# Poissons Ratio (z) = 0.14948 0.11683
#
# Static dielectric constant tensor:
#      x y z
#    x 2.019540 0.000000 0.000000 
#    y 0.000000 2.071770 0.000000 
#    z 0.000000 0.000000 2.057700 
# 
# From -- ./inp_files/3441.got.cif
#   From: 2010.05.17/outbox.cif.g08.bks.cpg/sg19_2_cif.got.tgz:3441.got - 2010.06.03 22:46:19.
