data_PCOD9315900
_publ_section_title
;
Structure prediction by ZEFSAII (Michael W. Deem and Ramdas Pophale) SiO2 
 PCOD9315900
Probable space group: P 21 21 21
;
_chemical_formula_sum "Si O2"
_cell_formula_units_Z 28
_cell_length_a 6.084313
_cell_length_b 8.338839
_cell_length_c 21.364963
_cell_angle_alpha 90.000000
_cell_angle_beta 90.000000
_cell_angle_gamma 90.000000
_cell_volume 1083.975039
_symmetry_space_group_name_H-M "P 21 21 21"
_symmetry_group_IT_number 19
_symmetry_cell_setting 'orthorhombic'
loop_
_space_group_symop_operation_xyz
x,y,z
1/2-x,-y,1/2+z
1/2+x,1/2-y,-z
-x,1/2+y,1/2-z
loop_
_atom_site_type_symbol
_atom_site_label
_atom_site_fract_x
_atom_site_fract_y
_atom_site_fract_z
Si Si1 0.319965 0.679056 0.745790
Si Si2 0.576059 0.562718 0.630628
Si Si3 0.734414 0.113608 0.975713
Si Si4 0.934857 0.491584 0.776135
Si Si5 0.153815 0.269029 0.527609
Si Si6 0.362483 0.214161 0.654601
Si Si7 0.564983 0.210709 0.103640
O O1 0.471281 0.674162 0.684694
O O2 0.434292 0.626729 0.810899
O O3 0.135383 0.546514 0.734161
O O4 0.227392 0.859487 0.752523
O O5 0.494850 0.587264 0.559452
O O6 0.472710 0.388264 0.644978
O O7 0.824707 0.624829 0.628735
O O8 0.846001 0.253514 0.935725
O O9 0.876589 0.957266 0.961806
O O10 0.719020 0.137923 0.049472
O O11 0.822162 0.660383 0.795612
O O12 0.017867 0.404076 0.838812
O O13 0.395284 0.275996 0.488680
O O14 0.244697 0.177534 0.588855
#
# Coordination Sequence:
#
# PCOD9315900 Si02
#       7
#     4   4   4   4   4   4   4
#     4  12  28  47  77 110 155 209 268 340 409 510
#     4  11  26  47  73 113 152 203 261 337 404 497
#     4  11  25  46  78 111 155 203 272 330 419 493
#     4  12  29  48  78 114 159 209 276 341 424 499
#     4  11  28  49  78 116 163 210 271 341 421 501
#     4  11  28  47  77 106 156 208 268 334 414 492
#     4  12  26  46  79 114 154 208 268 343 413 504
#
# _framework density 25.830853000000001
#
# number of rings (size 3 to 8) (size 9 to 14) (size 15 to 20)
#    0.000    0.571    2.857    2.571   16.000    2.286 
#    0.000    0.000    0.000    0.000    0.000    0.000 
#    0.000    0.000    0.000    0.000    0.000    0.000 
#
# Total GULP energy -156017.680255 kJ/mol
# GULP energy per Si atom -5572.060009 kJ/mol
# Density = 2.577206 g / cm^3
# Si number density = 25.830853 Si / 1000 Ang^3
#
#
#
# Elastic Constant Matrix: (Units=GPa)
#
#
# Indices 1 2 3 4 5 6 
#
# 1 89.0905 23.0582 44.4186 0.0000 0.0000 0.0000
# 2 23.0582 67.7110 0.1294 0.0000 0.0000 0.0000
# 3 44.4186 0.1294 89.0481 0.0000 0.0000 0.0000
# 4 0.0000 0.0000 0.0000 29.4950 0.0000 0.0000
# 5 0.0000 0.0000 0.0000 0.0000 50.8451 0.0000
# 6 0.0000 0.0000 0.0000 0.0000 0.0000 34.4402
#
#
#
# Elastic Compliance Matrix: (Units=1/GPa)
#
#
# Indices 1 2 3 4 5 6 
#
# 1 0.016913 -0.005743 -0.008428 0.000000 0.000000 0.000000
# 2 -0.005743 0.016719 0.002841 0.000000 0.000000 0.000000
# 3 -0.008428 0.002841 0.015430 0.000000 0.000000 0.000000
# 4 0.000000 0.000000 0.000000 0.033904 0.000000 0.000000
# 5 0.000000 0.000000 0.000000 0.000000 0.019668 0.000000
# 6 0.000000 0.000000 0.000000 0.000000 0.000000 0.029036
#
#
# Mechanical properties :
#
#
# Convention : Reuss Voigt Hill
#
# Bulk Modulus (GPa) = 37.87870 42.34022 40.10946
# Shear Modulus (GPa) = 30.65005 34.83894 32.74450
#
# Velocity S-wave (km/s) = 3.44840 3.67649 3.56427
# Velocity P-wave (km/s) = 5.52732 5.86933 5.70089
#
# Compressibility (1/GPa) = 0.02640006
#
# Stress axis : x y z
#
# Youngs Moduli (GPa) = 59.12545 59.81182 64.80930
#
# Poissons Ratio (x) = 0.34353 0.54623
# Poissons Ratio (y) = 0.33959 -0.18410
# Poissons Ratio (z) = 0.49832 -0.16990
#
# Static dielectric constant tensor:
#      x y z
#    x 2.124540 0.000000 0.000000 
#    y 0.000000 2.052020 0.000000 
#    z 0.000000 0.000000 2.010930 
# 
# From -- ./inp_files/2416.got.cif
#   From: 2010.05.17/outbox.cif.g08.bks.cpg/sg19_2_cif.got.tgz:2416.got - 2010.06.03 22:46:19.
