data_PCOD9315179
_publ_section_title
;
Structure prediction by ZEFSAII (Michael W. Deem and Ramdas Pophale) SiO2 
 PCOD9315179
Probable space group: P 21 21 21
;
_chemical_formula_sum "Si O2"
_cell_formula_units_Z 28
_cell_length_a 9.071284
_cell_length_b 13.900516
_cell_length_c 9.604012
_cell_angle_alpha 90.000000
_cell_angle_beta 90.000000
_cell_angle_gamma 90.000000
_cell_volume 1211.022968
_symmetry_space_group_name_H-M "P 21 21 21"
_symmetry_group_IT_number 19
_symmetry_cell_setting 'orthorhombic'
loop_
_space_group_symop_operation_xyz
x,y,z
1/2-x,-y,1/2+z
1/2+x,1/2-y,-z
-x,1/2+y,1/2-z
loop_
_atom_site_type_symbol
_atom_site_label
_atom_site_fract_x
_atom_site_fract_y
_atom_site_fract_z
Si Si1 0.584126 0.493407 0.137079
Si Si2 0.264570 0.245046 0.166905
Si Si3 0.203091 0.564099 0.522631
Si Si4 0.004813 0.384775 0.891327
Si Si5 0.680592 0.357941 0.565252
Si Si6 0.955800 0.181431 0.212436
Si Si7 0.672897 0.291833 0.256261
O O1 0.569152 0.538553 0.289607
O O2 0.714120 0.549190 0.056600
O O3 0.627869 0.383006 0.162747
O O4 0.421459 0.510811 0.070177
O O5 0.364517 0.180073 0.065581
O O6 0.271198 0.213591 0.328943
O O7 0.094571 0.226239 0.130813
O O8 0.302334 0.354768 0.142498
O O9 0.376794 0.559683 0.486937
O O10 0.130080 0.607611 0.383663
O O11 0.092380 0.303071 0.802427
O O12 0.532758 0.371119 0.656819
O O13 0.640158 0.315154 0.417039
O O14 0.845640 0.265329 0.255680
#
# Coordination Sequence:
#
# PCOD9315179 Si02
#       7
#     4   4   4   4   4   4   4
#     4  11  25  43  68 105 140 189 233 302 350 413
#     4   9  19  39  68  93 128 176 223 282 344 405
#     4  11  21  43  66  98 133 179 241 286 344 426
#     4  10  23  45  68  99 140 186 228 290 360 421
#     4   9  24  41  65 101 138 176 233 287 351 421
#     4   9  23  39  70  99 123 188 234 279 352 422
#     4  11  23  46  71  97 142 186 228 294 363 416
#
# _framework density 23.120950000000001
#
# number of rings (size 3 to 8) (size 9 to 14) (size 15 to 20)
#    0.857    1.143    1.429    0.857    8.000    0.000 
#   12.857    0.000    0.000    0.000    0.000    0.000 
#    0.000    0.000    0.000    0.000    0.000    0.000 
#
# Total GULP energy -156105.343799 kJ/mol
# GULP energy per Si atom -5575.190850 kJ/mol
# Density = 2.306833 g / cm^3
# Si number density = 23.120950 Si / 1000 Ang^3
#
#
#
# Elastic Constant Matrix: (Units=GPa)
#
#
# Indices 1 2 3 4 5 6 
#
# 1 104.9190 12.2612 -5.8996 0.0000 0.0000 0.0000
# 2 12.2612 55.7215 10.1680 0.0000 0.0000 0.0000
# 3 -5.8996 10.1680 74.5337 0.0000 0.0000 0.0000
# 4 0.0000 0.0000 0.0000 11.0700 0.0000 0.0000
# 5 0.0000 0.0000 0.0000 0.0000 38.9745 0.0000
# 6 0.0000 0.0000 0.0000 0.0000 0.0000 31.2140
#
#
#
# Elastic Compliance Matrix: (Units=1/GPa)
#
#
# Indices 1 2 3 4 5 6 
#
# 1 0.009871 -0.002374 0.001105 0.000000 0.000000 0.000000
# 2 -0.002374 0.018975 -0.002777 0.000000 0.000000 0.000000
# 3 0.001105 -0.002777 0.013883 0.000000 0.000000 0.000000
# 4 0.000000 0.000000 0.000000 0.090335 0.000000 0.000000
# 5 0.000000 0.000000 0.000000 0.000000 0.025658 0.000000
# 6 0.000000 0.000000 0.000000 0.000000 0.000000 0.032037
#
#
# Mechanical properties :
#
#
# Convention : Reuss Voigt Hill
#
# Bulk Modulus (GPa) = 28.86926 29.80372 29.33649
# Shear Modulus (GPa) = 23.76485 30.82800 27.29642
#
# Velocity S-wave (km/s) = 3.20949 3.65545 3.43970
# Velocity P-wave (km/s) = 5.12325 5.54389 5.33772
#
# Compressibility (1/GPa) = 0.03463892
#
# Stress axis : x y z
#
# Youngs Moduli (GPa) = 101.30994 52.69995 72.03049
#
# Poissons Ratio (x) = 0.12509 -0.07960
# Poissons Ratio (y) = 0.24047 0.20000
# Poissons Ratio (z) = -0.11196 0.14632
#
# Static dielectric constant tensor:
#      x y z
#    x 2.389490 0.000000 0.000000 
#    y 0.000000 1.883810 0.000000 
#    z 0.000000 0.000000 1.878470 
# 
# From -- ./inp_files/4655.got.cif
#   From: 2010.05.17/outbox.cif.g08.bks.cpg/sg19_3_cif.got.tgz:4655.got - 2010.06.03 22:46:19.
