data_PCOD9315884
_publ_section_title
;
Structure prediction by ZEFSAII (Michael W. Deem and Ramdas Pophale) SiO2 
 PCOD9315884
Probable space group: P 21 21 21
;
_chemical_formula_sum "Si O2"
_cell_formula_units_Z 28
_cell_length_a 5.278259
_cell_length_b 10.836596
_cell_length_c 19.836064
_cell_angle_alpha 90.000000
_cell_angle_beta 90.000000
_cell_angle_gamma 90.000000
_cell_volume 1134.590337
_symmetry_space_group_name_H-M "P 21 21 21"
_symmetry_group_IT_number 19
_symmetry_cell_setting 'orthorhombic'
loop_
_space_group_symop_operation_xyz
x,y,z
1/2-x,-y,1/2+z
1/2+x,1/2-y,-z
-x,1/2+y,1/2-z
loop_
_atom_site_type_symbol
_atom_site_label
_atom_site_fract_x
_atom_site_fract_y
_atom_site_fract_z
Si Si1 0.692517 0.760763 0.215260
Si Si2 0.281169 0.559265 0.992935
Si Si3 0.385624 0.317501 0.629345
Si Si4 0.123241 0.292499 0.031446
Si Si5 0.538456 0.344527 0.834685
Si Si6 0.333497 0.532944 0.244031
Si Si7 0.210817 0.068712 0.597870
O O1 0.833099 0.735507 0.143854
O O2 0.920326 0.739809 0.269722
O O3 0.539063 0.636819 0.229946
O O4 0.593965 0.891908 0.243306
O O5 0.202920 0.648476 0.054252
O O6 0.258269 0.423966 0.026035
O O7 0.053748 0.565492 0.939828
O O8 0.553188 0.573922 0.956165
O O9 0.343415 0.435730 0.678316
O O10 0.219866 0.193959 0.642521
O O11 0.019276 0.245584 0.102496
O O12 0.363587 0.205813 0.012017
O O13 0.304945 0.428260 0.812843
O O14 0.740776 0.448341 0.856993
#
# Coordination Sequence:
#
# PCOD9315884 Si02
#       7
#     4   4   4   4   4   4   4
#     4  11  27  46  76 106 146 203 253 329 379 455
#     4  12  26  46  75 112 149 198 247 309 388 454
#     4  11  27  47  72 107 150 187 262 305 389 450
#     4  12  24  44  69 106 145 193 241 309 366 452
#     4  11  25  45  72 103 147 195 258 304 383 450
#     4  11  27  48  76 108 147 202 259 323 385 450
#     4  12  26  46  78 106 152 198 244 311 382 463
#
# _framework density 24.678508999999998
#
# number of rings (size 3 to 8) (size 9 to 14) (size 15 to 20)
#    0.000    0.571    4.286    1.714   10.000    2.286 
#    0.000    0.000    0.000    0.000    0.000    0.000 
#    0.000    0.000    0.000    0.000    0.000    0.000 
#
# Total GULP energy -156307.757394 kJ/mol
# GULP energy per Si atom -5582.419907 kJ/mol
# Density = 2.462234 g / cm^3
# Si number density = 24.678509 Si / 1000 Ang^3
#
#
#
# Elastic Constant Matrix: (Units=GPa)
#
#
# Indices 1 2 3 4 5 6 
#
# 1 63.4493 2.4623 12.6999 0.0000 0.0000 0.0000
# 2 2.4623 116.8364 31.2114 0.0000 0.0000 0.0000
# 3 12.6999 31.2114 64.7127 0.0000 0.0000 0.0000
# 4 0.0000 0.0000 0.0000 24.4801 0.0000 0.0000
# 5 0.0000 0.0000 0.0000 0.0000 31.6376 0.0000
# 6 0.0000 0.0000 0.0000 0.0000 0.0000 40.7729
#
#
#
# Elastic Compliance Matrix: (Units=1/GPa)
#
#
# Indices 1 2 3 4 5 6 
#
# 1 0.016441 0.000592 -0.003512 0.000000 0.000000 0.000000
# 2 0.000592 0.009846 -0.004865 0.000000 0.000000 0.000000
# 3 -0.003512 -0.004865 0.018489 0.000000 0.000000 0.000000
# 4 0.000000 0.000000 0.000000 0.040850 0.000000 0.000000
# 5 0.000000 0.000000 0.000000 0.000000 0.031608 0.000000
# 6 0.000000 0.000000 0.000000 0.000000 0.000000 0.024526
#
#
# Mechanical properties :
#
#
# Convention : Reuss Voigt Hill
#
# Bulk Modulus (GPa) = 34.24079 37.52730 35.88404
# Shear Modulus (GPa) = 29.92863 32.61976 31.27420
#
# Velocity S-wave (km/s) = 3.48622 3.63958 3.56373
# Velocity P-wave (km/s) = 5.48724 5.73599 5.61299
#
# Compressibility (1/GPa) = 0.02920494
#
# Stress axis : x y z
#
# Youngs Moduli (GPa) = 60.82508 101.56277 54.08763
#
# Poissons Ratio (x) = -0.06009 0.18995
# Poissons Ratio (y) = -0.03599 0.26313
# Poissons Ratio (z) = 0.21361 0.49410
#
# Static dielectric constant tensor:
#      x y z
#    x 2.172670 0.000000 0.000000 
#    y 0.000000 1.999550 0.000000 
#    z 0.000000 0.000000 2.022270 
# 
# From -- ./inp_files/6427.got.cif
#   From: 2010.05.17/outbox.cif.g08.bks.cpg/sg19_4_cif.got.tgz:6427.got - 2010.06.03 22:46:19.
