data_PCOD9315466
_publ_section_title
;
Structure prediction by ZEFSAII (Michael W. Deem and Ramdas Pophale) SiO2 
 PCOD9315466
Probable space group: P 21 21 21
;
_chemical_formula_sum "Si O2"
_cell_formula_units_Z 20
_cell_length_a 5.000201
_cell_length_b 29.733304
_cell_length_c 5.119374
_cell_angle_alpha 90.000000
_cell_angle_beta 90.000000
_cell_angle_gamma 90.000000
_cell_volume 761.110113
_symmetry_space_group_name_H-M "P 21 21 21"
_symmetry_group_IT_number 19
_symmetry_cell_setting 'orthorhombic'
loop_
_space_group_symop_operation_xyz
x,y,z
1/2-x,-y,1/2+z
1/2+x,1/2-y,-z
-x,1/2+y,1/2-z
loop_
_atom_site_type_symbol
_atom_site_label
_atom_site_fract_x
_atom_site_fract_y
_atom_site_fract_z
Si Si1 0.603279 0.162788 0.326641
Si Si2 0.194643 0.242285 0.839406
Si Si3 0.539377 0.854187 0.317516
Si Si4 0.740516 0.029299 0.320248
Si Si5 0.233272 0.088799 0.444698
O O1 0.590592 0.216837 0.338516
O O2 0.739991 0.145929 0.588842
O O3 0.329016 0.135063 0.303830
O O4 0.790913 0.150877 0.080540
O O5 0.132675 0.191214 0.771061
O O6 0.503660 0.249441 0.907474
O O7 0.356534 0.896528 0.236725
O O8 0.481448 0.055396 0.424600
O O9 0.986401 0.063591 0.314472
O O10 0.806799 0.991553 0.536204
#
# Coordination Sequence:
#
# PCOD9315466 Si02
#       5
#     4   4   4   4   4
#     4  11  28  47  77 115 159 209 263 317 377 461
#     4  10  26  46  72 108 160 208 256 306 374 440
#     4  11  28  47  77 115 159 209 263 317 377 461
#     4  12  30  54  81 114 152 198 253 332 412 482
#     4  12  28  52  83 116 154 202 263 324 396 472
#
# _framework density 26.277404000000001
#
# number of rings (size 3 to 8) (size 9 to 14) (size 15 to 20)
#    0.000    0.800    2.000    1.200   16.800    4.800 
#    0.000    0.000    0.000    0.000    0.000    0.000 
#    0.000    0.000    0.000    0.000    0.000    0.000 
#
# Total GULP energy -112200.683033 kJ/mol
# GULP energy per Si atom -5610.034152 kJ/mol
# Density = 2.621760 g / cm^3
# Si number density = 26.277404 Si / 1000 Ang^3
#
#
#
# Elastic Constant Matrix: (Units=GPa)
#
#
# Indices 1 2 3 4 5 6 
#
# 1 133.5409 36.5577 30.2207 0.0000 0.0000 0.0000
# 2 36.5577 89.2140 8.8763 0.0000 0.0000 0.0000
# 3 30.2207 8.8763 105.8177 0.0000 0.0000 0.0000
# 4 0.0000 0.0000 0.0000 50.1693 0.0000 0.0000
# 5 0.0000 0.0000 0.0000 0.0000 28.2143 0.0000
# 6 0.0000 0.0000 0.0000 0.0000 0.0000 59.8786
#
#
#
# Elastic Compliance Matrix: (Units=1/GPa)
#
#
# Indices 1 2 3 4 5 6 
#
# 1 0.008942 -0.003439 -0.002265 0.000000 0.000000 0.000000
# 2 -0.003439 0.012626 -0.000077 0.000000 0.000000 0.000000
# 3 -0.002265 -0.000077 0.010104 0.000000 0.000000 0.000000
# 4 0.000000 0.000000 0.000000 0.019932 0.000000 0.000000
# 5 0.000000 0.000000 0.000000 0.000000 0.035443 0.000000
# 6 0.000000 0.000000 0.000000 0.000000 0.000000 0.016700
#
#
# Mechanical properties :
#
#
# Convention : Reuss Voigt Hill
#
# Bulk Modulus (GPa) = 49.72834 53.32021 51.52427
# Shear Modulus (GPa) = 40.97898 44.51364 42.74631
#
# Velocity S-wave (km/s) = 3.95330 4.12028 4.03765
# Velocity P-wave (km/s) = 6.30901 6.55522 6.43329
#
# Compressibility (1/GPa) = 0.02010926
#
# Stress axis : x y z
#
# Youngs Moduli (GPa) = 111.82597 79.20244 98.97402
#
# Poissons Ratio (x) = 0.27238 0.22422
# Poissons Ratio (y) = 0.38457 0.00762
# Poissons Ratio (z) = 0.25333 0.00609
#
# Static dielectric constant tensor:
#      x y z
#    x 2.053820 0.000000 0.000000 
#    y 0.000000 2.086720 0.000000 
#    z 0.000000 0.000000 2.054190 
# 
# From -- ./inp_files/197.got.cif
#   From: 2010.05.17/outbox.cif.g08.bks.cpg/sg19_1_cif.got.tgz:197.got - 2010.06.03 22:46:19.
