data_PCOD9315004
_publ_section_title
;
Structure prediction by ZEFSAII (Michael W. Deem and Ramdas Pophale) SiO2 
 PCOD9315004
Probable space group: P 21 21 21
;
_chemical_formula_sum "Si O2"
_cell_formula_units_Z 32
_cell_length_a 20.584936
_cell_length_b 7.874653
_cell_length_c 9.193812
_cell_angle_alpha 90.000000
_cell_angle_beta 90.000000
_cell_angle_gamma 90.000000
_cell_volume 1490.309828
_symmetry_space_group_name_H-M "P 21 21 21"
_symmetry_group_IT_number 19
_symmetry_cell_setting 'orthorhombic'
loop_
_space_group_symop_operation_xyz
x,y,z
1/2-x,-y,1/2+z
1/2+x,1/2-y,-z
-x,1/2+y,1/2-z
loop_
_atom_site_type_symbol
_atom_site_label
_atom_site_fract_x
_atom_site_fract_y
_atom_site_fract_z
Si Si1 0.229252 0.318387 0.129688
Si Si2 0.576926 0.752291 0.807834
Si Si3 0.044972 0.140210 0.152851
Si Si4 0.139997 0.240599 0.403271
Si Si5 0.892516 0.949052 0.516545
Si Si6 0.657776 0.037695 0.327401
Si Si7 0.246897 0.008892 0.444868
Si Si8 0.222508 0.789208 0.189095
O O1 0.194810 0.301116 0.286602
O O2 0.181937 0.447352 0.043394
O O3 0.304686 0.364383 0.140859
O O4 0.227284 0.152543 0.030619
O O5 0.529661 0.813478 0.679472
O O6 0.559102 0.560945 0.861076
O O7 0.651430 0.751615 0.753350
O O8 0.573101 0.895224 0.933891
O O9 0.079263 0.194876 0.304916
O O10 0.076339 0.269246 0.035459
O O11 0.128625 0.376893 0.528508
O O12 0.173120 0.072763 0.471683
O O13 0.888730 0.965864 0.689406
O O14 0.721711 0.152328 0.290524
O O15 0.248504 0.953164 0.278155
O O16 0.286054 0.161877 0.519591
#
# Coordination Sequence:
#
# PCOD9315004 Si02
#       8
#     4   4   4   4   4   4   4   4
#     4  11  20  36  58  94 132 168 208 258 335 410
#     4  12  23  42  69  97 127 176 232 266 317 388
#     4  11  24  45  70  93 126 176 233 276 307 387
#     4  10  23  40  60  91 136 171 214 269 334 394
#     4  11  23  40  66  97 130 170 216 271 327 385
#     4  11  23  37  62  96 138 161 205 276 341 402
#     4  11  20  36  58  93 134 165 209 262 340 405
#     4  11  22  36  63  95 131 167 205 272 333 399
#
# _framework density 21.472045000000001
#
# number of rings (size 3 to 8) (size 9 to 14) (size 15 to 20)
#    0.000    1.000    6.250    1.500    1.750    0.000 
#    2.250    0.000    2.750    1.500    0.000    0.000 
#    0.000    0.000    0.000    0.000    0.000    0.000 
#
# Total GULP energy -178525.944648 kJ/mol
# GULP energy per Si atom -5578.935770 kJ/mol
# Density = 2.142317 g / cm^3
# Si number density = 21.472045 Si / 1000 Ang^3
#
#
#
# Elastic Constant Matrix: (Units=GPa)
#
#
# Indices 1 2 3 4 5 6 
#
# 1 47.6269 -0.5664 2.6193 0.0000 0.0000 0.0000
# 2 -0.5664 88.6876 10.2017 0.0000 0.0000 0.0000
# 3 2.6193 10.2017 82.4475 0.0000 0.0000 0.0000
# 4 0.0000 0.0000 0.0000 15.3525 0.0000 0.0000
# 5 0.0000 0.0000 0.0000 0.0000 17.9408 0.0000
# 6 0.0000 0.0000 0.0000 0.0000 0.0000 25.2767
#
#
#
# Elastic Compliance Matrix: (Units=1/GPa)
#
#
# Indices 1 2 3 4 5 6 
#
# 1 0.021037 0.000214 -0.000695 0.000000 0.000000 0.000000
# 2 0.000214 0.011441 -0.001422 0.000000 0.000000 0.000000
# 3 -0.000695 -0.001422 0.012327 0.000000 0.000000 0.000000
# 4 0.000000 0.000000 0.000000 0.065136 0.000000 0.000000
# 5 0.000000 0.000000 0.000000 0.000000 0.055739 0.000000
# 6 0.000000 0.000000 0.000000 0.000000 0.000000 0.039562
#
#
# Mechanical properties :
#
#
# Convention : Reuss Voigt Hill
#
# Bulk Modulus (GPa) = 24.39090 27.03012 25.71051
# Shear Modulus (GPa) = 22.45032 25.48117 23.96575
#
# Velocity S-wave (km/s) = 3.23702 3.44861 3.34449
# Velocity P-wave (km/s) = 5.03539 5.33601 5.18788
#
# Compressibility (1/GPa) = 0.04099889
#
# Stress axis : x y z
#
# Youngs Moduli (GPa) = 47.53457 87.40857 81.12274
#
# Poissons Ratio (x) = -0.01873 0.05637
# Poissons Ratio (y) = -0.01019 0.11539
# Poissons Ratio (z) = 0.03303 0.12433
#
# Static dielectric constant tensor:
#      x y z
#    x 1.799220 0.000000 0.000000 
#    y 0.000000 1.915900 0.000000 
#    z 0.000000 0.000000 1.806040 
# 
# From -- ./inp_files/4372.got.cif
#   From: 2010.05.17/outbox.cif.g08.bks.cpg/sg19_3_cif.got.tgz:4372.got - 2010.06.03 22:46:19.
