data_PCOD9315585
_publ_section_title
;
Structure prediction by ZEFSAII (Michael W. Deem and Ramdas Pophale) SiO2 
 PCOD9315585
Probable space group: P 21 21 21
;
_chemical_formula_sum "Si O2"
_cell_formula_units_Z 32
_cell_length_a 14.648683
_cell_length_b 12.631584
_cell_length_c 8.159708
_cell_angle_alpha 90.000000
_cell_angle_beta 90.000000
_cell_angle_gamma 90.000000
_cell_volume 1509.840299
_symmetry_space_group_name_H-M "P 21 21 21"
_symmetry_group_IT_number 19
_symmetry_cell_setting 'orthorhombic'
loop_
_space_group_symop_operation_xyz
x,y,z
1/2-x,-y,1/2+z
1/2+x,1/2-y,-z
-x,1/2+y,1/2-z
loop_
_atom_site_type_symbol
_atom_site_label
_atom_site_fract_x
_atom_site_fract_y
_atom_site_fract_z
Si Si1 0.716430 0.874945 0.978424
Si Si2 0.460073 0.984642 0.657592
Si Si3 0.617544 0.258974 0.953376
Si Si4 0.844844 0.552882 0.038922
Si Si5 0.645560 0.060330 0.754820
Si Si6 0.785227 0.360056 0.825760
Si Si7 0.386589 0.744468 0.166669
Si Si8 0.581445 0.683803 0.055343
O O1 0.767385 0.903156 0.148505
O O2 0.638430 0.785138 0.992828
O O3 0.797835 0.824307 0.872653
O O4 0.677585 0.979988 0.895251
O O5 0.568399 0.001588 0.647828
O O6 0.409862 0.078625 0.556779
O O7 0.429932 0.869597 0.593435
O O8 0.428467 0.985285 0.847666
O O9 0.595551 0.162410 0.833332
O O10 0.726604 0.274167 0.923826
O O11 0.596603 0.238408 0.141057
O O12 0.776869 0.607723 0.169109
O O13 0.798187 0.455673 0.949583
O O14 0.869576 0.637348 0.900025
O O15 0.879927 0.332681 0.739338
O O16 0.474560 0.705995 0.067822
#
# Coordination Sequence:
#
# PCOD9315585 Si02
#       8
#     4   4   4   4   4   4   4   4
#     4  12  26  48  74 103 148 193 240 304 372 439
#     4  11  26  45  75 104 145 186 244 303 364 435
#     4  11  26  47  69 105 142 187 244 295 358 440
#     4  11  22  42  70 104 139 183 236 298 357 422
#     4  12  26  50  71 104 146 194 242 295 372 444
#     4  11  22  42  70 103 136 184 236 297 355 428
#     4  12  25  46  72 106 150 184 244 300 364 439
#     4  12  25  46  73 107 144 193 242 304 364 433
#
# _framework density 21.194293999999999
#
# number of rings (size 3 to 8) (size 9 to 14) (size 15 to 20)
#    0.000    0.500    3.750    5.250    5.250    1.000 
#    6.750    0.000    0.000    0.000    0.000    0.000 
#    0.000    0.000    0.000    0.000    0.000    0.000 
#
# Total GULP energy -178916.541334 kJ/mol
# GULP energy per Si atom -5591.141917 kJ/mol
# Density = 2.114605 g / cm^3
# Si number density = 21.194294 Si / 1000 Ang^3
#
#
#
# Elastic Constant Matrix: (Units=GPa)
#
#
# Indices 1 2 3 4 5 6 
#
# 1 68.2117 20.2698 7.5629 0.0000 0.0000 0.0000
# 2 20.2698 111.7362 37.1792 0.0000 0.0000 0.0000
# 3 7.5629 37.1792 78.6227 0.0000 0.0000 0.0000
# 4 0.0000 0.0000 0.0000 35.2707 0.0000 0.0000
# 5 0.0000 0.0000 0.0000 0.0000 25.1742 0.0000
# 6 0.0000 0.0000 0.0000 0.0000 0.0000 32.7133
#
#
#
# Elastic Compliance Matrix: (Units=1/GPa)
#
#
# Indices 1 2 3 4 5 6 
#
# 1 0.015498 -0.002748 -0.000191 0.000000 0.000000 0.000000
# 2 -0.002748 0.011108 -0.004988 0.000000 0.000000 0.000000
# 3 -0.000191 -0.004988 0.015096 0.000000 0.000000 0.000000
# 4 0.000000 0.000000 0.000000 0.028352 0.000000 0.000000
# 5 0.000000 0.000000 0.000000 0.000000 0.039723 0.000000
# 6 0.000000 0.000000 0.000000 0.000000 0.000000 0.030569
#
#
# Mechanical properties :
#
#
# Convention : Reuss Voigt Hill
#
# Bulk Modulus (GPa) = 38.68916 43.17715 40.93316
# Shear Modulus (GPa) = 30.33664 31.53555 30.93609
#
# Velocity S-wave (km/s) = 3.78743 3.86155 3.82467
# Velocity P-wave (km/s) = 6.11722 6.34810 6.23373
#
# Compressibility (1/GPa) = 0.02584704
#
# Stress axis : x y z
#
# Youngs Moduli (GPa) = 64.52455 90.02539 66.24126
#
# Poissons Ratio (x) = 0.24737 0.01268
# Poissons Ratio (y) = 0.17730 0.33044
# Poissons Ratio (z) = 0.01235 0.44909
#
# Static dielectric constant tensor:
#      x y z
#    x 1.813220 0.000000 0.000000 
#    y 0.000000 1.776070 0.000000 
#    z 0.000000 0.000000 1.749520 
# 
# From -- ./inp_files/3963.got.cif
#   From: 2010.05.17/outbox.cif.g08.bks.cpg/sg19_2_cif.got.tgz:3963.got - 2010.06.03 22:46:19.
