data_PCOD9315130
_publ_section_title
;
Structure prediction by ZEFSAII (Michael W. Deem and Ramdas Pophale) SiO2 
 PCOD9315130
Probable space group: P 21 21 21
;
_chemical_formula_sum "Si O2"
_cell_formula_units_Z 32
_cell_length_a 5.431031
_cell_length_b 12.467009
_cell_length_c 21.082503
_cell_angle_alpha 90.000000
_cell_angle_beta 90.000000
_cell_angle_gamma 90.000000
_cell_volume 1427.469131
_symmetry_space_group_name_H-M "P 21 21 21"
_symmetry_group_IT_number 19
_symmetry_cell_setting 'orthorhombic'
loop_
_space_group_symop_operation_xyz
x,y,z
1/2-x,-y,1/2+z
1/2+x,1/2-y,-z
-x,1/2+y,1/2-z
loop_
_atom_site_type_symbol
_atom_site_label
_atom_site_fract_x
_atom_site_fract_y
_atom_site_fract_z
Si Si1 0.259828 0.617050 0.973447
Si Si2 0.697765 0.997146 0.226595
Si Si3 0.994196 0.585005 0.516304
Si Si4 0.821358 0.763989 0.674413
Si Si5 0.191697 0.597631 0.641483
Si Si6 0.740555 0.279114 0.418948
Si Si7 0.686472 0.629970 0.789297
Si Si8 0.912509 0.308869 0.045653
O O1 0.501365 0.669188 0.941305
O O2 0.003478 0.654192 0.941450
O O3 0.334881 0.493127 0.977674
O O4 0.264009 0.666085 0.044783
O O5 0.740502 0.984962 0.302573
O O6 0.430331 0.944544 0.213084
O O7 0.933655 0.934161 0.197686
O O8 0.687948 0.117007 0.200693
O O9 0.987786 0.556093 0.591285
O O10 0.044770 0.710339 0.501986
O O11 0.703573 0.594376 0.503430
O O12 0.665165 0.688107 0.721552
O O13 0.726819 0.753213 0.603196
O O14 0.088488 0.706551 0.673606
O O15 0.388197 0.630494 0.588719
O O16 0.755630 0.282940 0.343409
#
# Coordination Sequence:
#
# PCOD9315130 Si02
#       8
#     4   4   4   4   4   4   4   4
#     4  10  24  43  66  96 130 173 218 270 335 387
#     4  11  25  43  68  97 129 180 220 271 340 394
#     4  11  24  38  67  94 130 182 213 278 342 398
#     4  10  25  42  66  94 134 176 218 282 331 396
#     4  10  23  45  61  97 136 165 232 274 325 411
#     4  10  23  44  64  96 132 166 223 277 318 402
#     4  11  24  43  65  98 129 169 225 271 329 400
#     4  11  22  42  61  98 136 169 227 279 336 400
#
# _framework density 22.417296
#
# number of rings (size 3 to 8) (size 9 to 14) (size 15 to 20)
#    0.000    1.500    2.500    0.750    8.750    0.000 
#    0.000    1.250    0.000    0.000    0.000    0.000 
#    0.000    0.000    0.000    0.000    0.000    0.000 
#
# Total GULP energy -178185.193911 kJ/mol
# GULP energy per Si atom -5568.287310 kJ/mol
# Density = 2.236627 g / cm^3
# Si number density = 22.417296 Si / 1000 Ang^3
#
#
#
# Elastic Constant Matrix: (Units=GPa)
#
#
# Indices 1 2 3 4 5 6 
#
# 1 84.3520 7.2467 3.3467 0.0000 0.0000 0.0000
# 2 7.2467 42.6256 10.0625 0.0000 0.0000 0.0000
# 3 3.3467 10.0625 73.1117 0.0000 0.0000 0.0000
# 4 0.0000 0.0000 0.0000 17.1444 0.0000 0.0000
# 5 0.0000 0.0000 0.0000 0.0000 19.3232 0.0000
# 6 0.0000 0.0000 0.0000 0.0000 0.0000 23.2844
#
#
#
# Elastic Compliance Matrix: (Units=1/GPa)
#
#
# Indices 1 2 3 4 5 6 
#
# 1 0.012036 -0.001981 -0.000278 0.000000 0.000000 0.000000
# 2 -0.001981 0.024574 -0.003291 0.000000 0.000000 0.000000
# 3 -0.000278 -0.003291 0.014143 0.000000 0.000000 0.000000
# 4 0.000000 0.000000 0.000000 0.058328 0.000000 0.000000
# 5 0.000000 0.000000 0.000000 0.000000 0.051751 0.000000
# 6 0.000000 0.000000 0.000000 0.000000 0.000000 0.042947
#
#
# Mechanical properties :
#
#
# Convention : Reuss Voigt Hill
#
# Bulk Modulus (GPa) = 25.21891 26.82231 26.02061
# Shear Modulus (GPa) = 21.92035 23.91262 22.91649
#
# Velocity S-wave (km/s) = 3.13042 3.26959 3.20076
# Velocity P-wave (km/s) = 4.93358 5.12295 5.02916
#
# Compressibility (1/GPa) = 0.03965278
#
# Stress axis : x y z
#
# Youngs Moduli (GPa) = 83.08216 40.69375 70.70408
#
# Poissons Ratio (x) = 0.08060 0.01968
# Poissons Ratio (y) = 0.16455 0.23272
# Poissons Ratio (z) = 0.02313 0.13394
#
# Static dielectric constant tensor:
#      x y z
#    x 2.199040 0.000000 0.000000 
#    y 0.000000 1.827590 0.000000 
#    z 0.000000 0.000000 1.833990 
# 
# From -- ./inp_files/1165.got.cif
#   From: 2010.05.17/outbox.cif.g08.bks.cpg/sg19_1_cif.got.tgz:1165.got - 2010.06.03 22:46:19.
