data_PCOD9315762
_publ_section_title
;
Structure prediction by ZEFSAII (Michael W. Deem and Ramdas Pophale) SiO2 
 PCOD9315762
Probable space group: P 21 21 21
;
_chemical_formula_sum "Si O2"
_cell_formula_units_Z 20
_cell_length_a 17.738830
_cell_length_b 9.416631
_cell_length_c 5.192208
_cell_angle_alpha 90.000000
_cell_angle_beta 90.000000
_cell_angle_gamma 90.000000
_cell_volume 867.306510
_symmetry_space_group_name_H-M "P 21 21 21"
_symmetry_group_IT_number 19
_symmetry_cell_setting 'orthorhombic'
loop_
_space_group_symop_operation_xyz
x,y,z
1/2-x,-y,1/2+z
1/2+x,1/2-y,-z
-x,1/2+y,1/2-z
loop_
_atom_site_type_symbol
_atom_site_label
_atom_site_fract_x
_atom_site_fract_y
_atom_site_fract_z
Si Si1 0.375019 0.973447 0.197377
Si Si2 0.499702 0.071365 0.875823
Si Si3 0.900260 0.187448 0.313531
Si Si4 0.193172 0.723562 0.681197
Si Si5 0.860273 0.721570 0.308309
O O1 0.361022 0.890250 0.458413
O O2 0.317667 0.104888 0.178148
O O3 0.367335 0.863222 0.960223
O O4 0.458262 0.041212 0.148029
O O5 0.436163 0.155544 0.715243
O O6 0.572110 0.171571 0.871131
O O7 0.531196 0.921754 0.780291
O O8 0.857350 0.170170 0.581681
O O9 0.841981 0.168102 0.082440
O O10 0.281227 0.695417 0.702114
#
# Coordination Sequence:
#
# PCOD9315762 Si02
#       5
#     4   4   4   4   4
#     4  11  24  42  71 100 143 183 238 284 351 425
#     4  11  26  45  72 105 140 189 236 292 353 419
#     4  11  26  45  70 101 144 182 236 290 354 421
#     4  11  25  44  71 102 143 184 234 293 353 424
#     4  12  25  44  72 104 140 188 234 291 357 417
#
# _framework density 23.059898
#
# number of rings (size 3 to 8) (size 9 to 14) (size 15 to 20)
#    0.000    0.800    2.000    4.800    5.600    6.400 
#    0.000    0.000    0.000    0.000    0.000    0.000 
#    0.000    0.000    0.000    0.000    0.000    0.000 
#
# Total GULP energy -111969.102479 kJ/mol
# GULP energy per Si atom -5598.455124 kJ/mol
# Density = 2.300741 g / cm^3
# Si number density = 23.059898 Si / 1000 Ang^3
#
#
#
# Elastic Constant Matrix: (Units=GPa)
#
#
# Indices 1 2 3 4 5 6 
#
# 1 130.1556 2.3691 18.1933 0.0000 0.0000 0.0000
# 2 2.3691 43.7805 18.9774 0.0000 0.0000 0.0000
# 3 18.1933 18.9774 103.1792 0.0000 0.0000 0.0000
# 4 0.0000 0.0000 0.0000 13.3151 0.0000 0.0000
# 5 0.0000 0.0000 0.0000 0.0000 25.2138 0.0000
# 6 0.0000 0.0000 0.0000 0.0000 0.0000 32.9987
#
#
#
# Elastic Compliance Matrix: (Units=1/GPa)
#
#
# Indices 1 2 3 4 5 6 
#
# 1 0.007879 0.000191 -0.001424 0.000000 0.000000 0.000000
# 2 0.000191 0.024825 -0.004600 0.000000 0.000000 0.000000
# 3 -0.001424 -0.004600 0.010789 0.000000 0.000000 0.000000
# 4 0.000000 0.000000 0.000000 0.075103 0.000000 0.000000
# 5 0.000000 0.000000 0.000000 0.000000 0.039661 0.000000
# 6 0.000000 0.000000 0.000000 0.000000 0.000000 0.030304
#
#
# Mechanical properties :
#
#
# Convention : Reuss Voigt Hill
#
# Bulk Modulus (GPa) = 31.42027 39.57722 35.49874
# Shear Modulus (GPa) = 23.71527 30.14389 26.92958
#
# Velocity S-wave (km/s) = 3.21038 3.61944 3.42103
# Velocity P-wave (km/s) = 5.23423 5.88789 5.57065
#
# Compressibility (1/GPa) = 0.03182659
#
# Stress axis : x y z
#
# Youngs Moduli (GPa) = 126.92393 40.28256 92.68682
#
# Poissons Ratio (x) = -0.00770 0.13202
# Poissons Ratio (y) = -0.02425 0.42632
# Poissons Ratio (z) = 0.18079 0.18528
#
# Static dielectric constant tensor:
#      x y z
#    x 1.879260 0.000000 0.000000 
#    y 0.000000 1.903460 0.000000 
#    z 0.000000 0.000000 1.816950 
# 
# From -- ./inp_files/349.got.cif
#   From: 2010.05.17/outbox.cif.g08.bks.cpg/sg19_1_cif.got.tgz:349.got - 2010.06.03 22:46:19.
