data_PCOD9315872
_publ_section_title
;
Structure prediction by ZEFSAII (Michael W. Deem and Ramdas Pophale) SiO2 
 PCOD9315872
Probable space group: P 21 21 21
;
_chemical_formula_sum "Si O2"
_cell_formula_units_Z 24
_cell_length_a 5.103188
_cell_length_b 7.731575
_cell_length_c 28.315132
_cell_angle_alpha 90.000000
_cell_angle_beta 90.000000
_cell_angle_gamma 90.000000
_cell_volume 1117.192809
_symmetry_space_group_name_H-M "P 21 21 21"
_symmetry_group_IT_number 19
_symmetry_cell_setting 'orthorhombic'
loop_
_space_group_symop_operation_xyz
x,y,z
1/2-x,-y,1/2+z
1/2+x,1/2-y,-z
-x,1/2+y,1/2-z
loop_
_atom_site_type_symbol
_atom_site_label
_atom_site_fract_x
_atom_site_fract_y
_atom_site_fract_z
Si Si1 0.344213 0.575381 0.346181
Si Si2 0.007682 0.245316 0.221123
Si Si3 0.004023 0.248953 0.711975
Si Si4 0.671479 0.937955 0.347617
Si Si5 0.348032 0.633648 0.551985
Si Si6 0.848964 0.873538 0.551055
O O1 0.071183 0.605780 0.318759
O O2 0.483446 0.429862 0.315882
O O3 0.498761 0.760226 0.346733
O O4 0.312734 0.521830 0.400726
O O5 0.754422 0.259990 0.253842
O O6 0.254571 0.218875 0.254713
O O7 0.089341 0.407000 0.188686
O O8 0.020706 0.402015 0.674207
O O9 0.777092 0.966599 0.400397
O O10 0.635598 0.718281 0.555233
O O11 0.314729 0.544157 0.500844
O O12 0.138442 0.790996 0.551063
#
# Coordination Sequence:
#
# PCOD9315872 Si02
#       6
#     4   4   4   4   4   4
#     4  11  25  43  66  94 128 173 215 268 324 382
#     4  12  26  42  64  96 130 174 220 262 324 380
#     4  12  30  40  64  96 132 172 222 268 312 392
#     4  11  25  43  66  94 128 173 215 268 324 382
#     4   9  18  35  63  94 121 160 212 263 320 384
#     4   9  18  35  63  94 121 160 212 263 320 384
#
# _framework density 21.482417999999999
#
# number of rings (size 3 to 8) (size 9 to 14) (size 15 to 20)
#    0.000    1.333    3.333    1.000    9.333    0.000 
#    0.000    0.000    0.000   18.000    0.000    0.000 
#    0.000    0.000    0.000    0.000    0.000    0.000 
#
# Total GULP energy -134056.834580 kJ/mol
# GULP energy per Si atom -5585.701441 kJ/mol
# Density = 2.143352 g / cm^3
# Si number density = 21.482418 Si / 1000 Ang^3
#
#
#
# Elastic Constant Matrix: (Units=GPa)
#
#
# Indices 1 2 3 4 5 6 
#
# 1 97.8440 15.4849 21.6956 0.0000 0.0000 0.0000
# 2 15.4849 57.1623 31.1710 0.0000 0.0000 0.0000
# 3 21.6956 31.1710 175.5558 0.0000 0.0000 0.0000
# 4 0.0000 0.0000 0.0000 -8.4759 0.0000 0.0000
# 5 0.0000 0.0000 0.0000 0.0000 22.1736 0.0000
# 6 0.0000 0.0000 0.0000 0.0000 0.0000 12.5668
#
#
#
# Elastic Compliance Matrix: (Units=1/GPa)
#
#
# Indices 1 2 3 4 5 6 
#
# 1 0.010806 -0.002435 -0.000903 0.000000 0.000000 0.000000
# 2 -0.002435 0.019918 -0.003236 0.000000 0.000000 0.000000
# 3 -0.000903 -0.003236 0.006382 0.000000 0.000000 0.000000
# 4 0.000000 0.000000 0.000000 -0.117982 0.000000 0.000000
# 5 0.000000 0.000000 0.000000 0.000000 0.045099 0.000000
# 6 0.000000 0.000000 0.000000 0.000000 0.000000 0.079575
#
#
# Mechanical properties :
#
#
# Convention : Reuss Voigt Hill
#
# Bulk Modulus (GPa) = 41.73767 51.91834 46.82800
# Shear Modulus (GPa) = 77.00390 22.73360 49.86875
#
# Velocity S-wave (km/s) = 5.99357 3.25659 4.82329
# Velocity P-wave (km/s) = 8.20781 6.19361 7.27080
#
# Compressibility (1/GPa) = 0.02395917
#
# Stress axis : x y z
#
# Youngs Moduli (GPa) = 92.54176 50.20568 156.68290
#
# Poissons Ratio (x) = 0.12224 0.14150
# Poissons Ratio (y) = 0.22532 0.50698
# Poissons Ratio (z) = 0.08358 0.16245
#
# Static dielectric constant tensor:
#      x y z
#    x 1.836500 0.000000 0.000000 
#    y 0.000000 1.783670 0.000000 
#    z 0.000000 0.000000 1.825490 
# 
# From -- ./inp_files/7438.got.cif
#   From: 2010.05.17/outbox.cif.g08.bks.cpg/sg19_4_cif.got.tgz:7438.got - 2010.06.03 22:46:19.
