data_PCOD9315189
_publ_section_title
;
Structure prediction by ZEFSAII (Michael W. Deem and Ramdas Pophale) SiO2 
 PCOD9315189
Probable space group: P 21 21 21
;
_chemical_formula_sum "Si O2"
_cell_formula_units_Z 28
_cell_length_a 9.386884
_cell_length_b 23.458385
_cell_length_c 5.603972
_cell_angle_alpha 90.000000
_cell_angle_beta 90.000000
_cell_angle_gamma 90.000000
_cell_volume 1234.001016
_symmetry_space_group_name_H-M "P 21 21 21"
_symmetry_group_IT_number 19
_symmetry_cell_setting 'orthorhombic'
loop_
_space_group_symop_operation_xyz
x,y,z
1/2-x,-y,1/2+z
1/2+x,1/2-y,-z
-x,1/2+y,1/2-z
loop_
_atom_site_type_symbol
_atom_site_label
_atom_site_fract_x
_atom_site_fract_y
_atom_site_fract_z
Si Si1 0.169681 0.986786 0.149033
Si Si2 0.807005 0.677716 0.178916
Si Si3 0.461083 0.320003 0.301961
Si Si4 0.732567 0.148916 0.340297
Si Si5 0.053291 0.862995 0.094561
Si Si6 0.555134 0.223877 0.969341
Si Si7 0.476652 0.410514 0.923183
O O1 0.128698 0.920799 0.173683
O O2 0.235420 0.005890 0.406005
O O3 0.032569 0.025822 0.091283
O O4 0.844753 0.735996 0.308598
O O5 0.892886 0.627925 0.317633
O O6 0.645451 0.661917 0.125114
O O7 0.884791 0.681585 0.923655
O O8 0.342183 0.313636 0.503760
O O9 0.461755 0.269837 0.111788
O O10 0.445808 0.381593 0.178243
O O11 0.606859 0.125761 0.505794
O O12 0.834804 0.101468 0.227199
O O13 0.654460 0.186048 0.139436
O O14 0.038939 0.816616 0.302330
#
# Coordination Sequence:
#
# PCOD9315189 Si02
#       7
#     4   4   4   4   4   4   4
#     4  12  28  54  85 114 148 201 269 331 383 461
#     4  10  23  45  72 106 143 200 249 312 375 459
#     4  10  23  45  72 102 150 204 248 311 383 457
#     4  11  26  45  65 112 157 198 249 307 392 463
#     4  12  27  46  75 113 152 196 261 316 389 465
#     4  11  26  43  72 111 157 197 250 311 389 471
#     4  10  23  48  75 102 147 196 252 310 389 446
#
# _framework density 22.69042
#
# number of rings (size 3 to 8) (size 9 to 14) (size 15 to 20)
#    0.000    1.143    1.429    2.571    4.000   17.143 
#    5.143    1.429    0.000    0.000    0.000    0.000 
#    0.000    0.000    0.000    0.000    0.000    0.000 
#
# Total GULP energy -156792.985156 kJ/mol
# GULP energy per Si atom -5599.749470 kJ/mol
# Density = 2.263878 g / cm^3
# Si number density = 22.690420 Si / 1000 Ang^3
#
#
#
# Elastic Constant Matrix: (Units=GPa)
#
#
# Indices 1 2 3 4 5 6 
#
# 1 105.8103 17.3283 19.3943 0.0000 0.0000 0.0000
# 2 17.3283 93.9931 7.3219 0.0000 0.0000 0.0000
# 3 19.3943 7.3219 68.7262 0.0000 0.0000 0.0000
# 4 0.0000 0.0000 0.0000 16.8850 0.0000 0.0000
# 5 0.0000 0.0000 0.0000 0.0000 35.9662 0.0000
# 6 0.0000 0.0000 0.0000 0.0000 0.0000 36.5848
#
#
#
# Elastic Compliance Matrix: (Units=1/GPa)
#
#
# Indices 1 2 3 4 5 6 
#
# 1 0.010221 -0.001674 -0.002706 0.000000 0.000000 0.000000
# 2 -0.001674 0.011002 -0.000700 0.000000 0.000000 0.000000
# 3 -0.002706 -0.000700 0.015389 0.000000 0.000000 0.000000
# 4 0.000000 0.000000 0.000000 0.059224 0.000000 0.000000
# 5 0.000000 0.000000 0.000000 0.000000 0.027804 0.000000
# 6 0.000000 0.000000 0.000000 0.000000 0.000000 0.027334
#
#
# Mechanical properties :
#
#
# Convention : Reuss Voigt Hill
#
# Bulk Modulus (GPa) = 37.80301 39.62430 38.71365
# Shear Modulus (GPa) = 29.42039 32.85285 31.13662
#
# Velocity S-wave (km/s) = 3.60474 3.80922 3.70839
# Velocity P-wave (km/s) = 5.83284 6.07024 5.95272
#
# Compressibility (1/GPa) = 0.02645292
#
# Stress axis : x y z
#
# Youngs Moduli (GPa) = 97.83838 90.89156 64.98281
#
# Poissons Ratio (x) = 0.15211 0.17585
# Poissons Ratio (y) = 0.16373 0.04548
# Poissons Ratio (z) = 0.26475 0.06361
#
# Static dielectric constant tensor:
#      x y z
#    x 1.846220 0.000000 0.000000 
#    y 0.000000 1.806870 0.000000 
#    z 0.000000 0.000000 1.883660 
# 
# From -- ./inp_files/555.got.cif
#   From: 2010.05.17/outbox.cif.g08.bks.cpg/sg19_1_cif.got.tgz:555.got - 2010.06.03 22:46:19.
