data_PCOD9315204
_publ_section_title
;
Structure prediction by ZEFSAII (Michael W. Deem and Ramdas Pophale) SiO2 
 PCOD9315204
Probable space group: P 21 21 21
;
_chemical_formula_sum "Si O2"
_cell_formula_units_Z 24
_cell_length_a 5.154485
_cell_length_b 16.337114
_cell_length_c 11.450670
_cell_angle_alpha 90.000000
_cell_angle_beta 90.000000
_cell_angle_gamma 90.000000
_cell_volume 964.254154
_symmetry_space_group_name_H-M "P 21 21 21"
_symmetry_group_IT_number 19
_symmetry_cell_setting 'orthorhombic'
loop_
_space_group_symop_operation_xyz
x,y,z
1/2-x,-y,1/2+z
1/2+x,1/2-y,-z
-x,1/2+y,1/2-z
loop_
_atom_site_type_symbol
_atom_site_label
_atom_site_fract_x
_atom_site_fract_y
_atom_site_fract_z
Si Si1 0.727607 0.866329 0.789953
Si Si2 0.092413 0.641130 0.540527
Si Si3 0.289301 0.546103 0.746008
Si Si4 0.595725 0.671696 0.387124
Si Si5 0.581310 0.851114 0.059608
Si Si6 0.563935 0.697594 0.814785
O O1 0.614158 0.779910 0.743951
O O2 0.023919 0.861097 0.742366
O O3 0.621170 0.953793 0.752767
O O4 0.661801 0.861585 0.926695
O O5 0.111453 0.568819 0.635152
O O6 0.349861 0.641815 0.462887
O O7 0.094544 0.728870 0.608278
O O8 0.844778 0.639875 0.456585
O O9 0.138001 0.566693 0.865718
O O10 0.514865 0.615131 0.741731
O O11 0.299318 0.820598 0.097233
O O12 0.297101 0.708451 0.884428
#
# Coordination Sequence:
#
# PCOD9315204 Si02
#       6
#     4   4   4   4   4   4
#     4  12  25  49  81 114 154 213 262 321 405 479
#     4  10  23  46  72 103 156 188 257 316 384 459
#     4  10  27  48  74 112 152 204 254 331 381 468
#     4  10  25  42  75 109 140 210 244 312 393 467
#     4  10  25  50  72 115 153 203 260 328 384 468
#     4  10  25  49  76 111 153 202 259 322 387 461
#
# _framework density 24.889703999999998
#
# number of rings (size 3 to 8) (size 9 to 14) (size 15 to 20)
#    1.000    0.667    0.000    2.000   11.667    1.333 
#   12.000    0.000    0.000    0.000    0.000    0.000 
#    0.000    0.000    0.000    0.000    0.000    0.000 
#
# Total GULP energy -134200.236657 kJ/mol
# GULP energy per Si atom -5591.676527 kJ/mol
# Density = 2.483305 g / cm^3
# Si number density = 24.889704 Si / 1000 Ang^3
#
#
#
# Elastic Constant Matrix: (Units=GPa)
#
#
# Indices 1 2 3 4 5 6 
#
# 1 144.8078 39.7889 54.3203 0.0000 0.0000 0.0000
# 2 39.7889 178.4763 48.1783 0.0000 0.0000 0.0000
# 3 54.3203 48.1783 128.7630 0.0000 0.0000 0.0000
# 4 0.0000 0.0000 0.0000 32.4861 0.0000 0.0000
# 5 0.0000 0.0000 0.0000 0.0000 37.0061 0.0000
# 6 0.0000 0.0000 0.0000 0.0000 0.0000 20.7259
#
#
#
# Elastic Compliance Matrix: (Units=1/GPa)
#
#
# Indices 1 2 3 4 5 6 
#
# 1 0.008366 -0.001015 -0.003150 0.000000 0.000000 0.000000
# 2 -0.001015 0.006356 -0.001950 0.000000 0.000000 0.000000
# 3 -0.003150 -0.001950 0.009824 0.000000 0.000000 0.000000
# 4 0.000000 0.000000 0.000000 0.030782 0.000000 0.000000
# 5 0.000000 0.000000 0.000000 0.000000 0.027023 0.000000
# 6 0.000000 0.000000 0.000000 0.000000 0.000000 0.048249
#
#
# Mechanical properties :
#
#
# Convention : Reuss Voigt Hill
#
# Bulk Modulus (GPa) = 81.18603 81.84691 81.51647
# Shear Modulus (GPa) = 34.02880 38.69426 36.36153
#
# Velocity S-wave (km/s) = 3.70156 3.94716 3.82633
# Velocity P-wave (km/s) = 7.13847 7.32998 7.23486
#
# Compressibility (1/GPa) = 0.01231739
#
# Stress axis : x y z
#
# Youngs Moduli (GPa) = 119.53084 157.34161 101.78667
#
# Poissons Ratio (x) = 0.15968 0.32059
# Poissons Ratio (y) = 0.12131 0.19847
# Poissons Ratio (z) = 0.37647 0.30680
#
# Static dielectric constant tensor:
#      x y z
#    x 2.000450 0.000000 0.000000 
#    y 0.000000 1.947370 0.000000 
#    z 0.000000 0.000000 2.047100 
# 
# From -- ./inp_files/4463.got.cif
#   From: 2010.05.17/outbox.cif.g08.bks.cpg/sg19_3_cif.got.tgz:4463.got - 2010.06.03 22:46:19.
