data_PCOD9315345
_publ_section_title
;
Structure prediction by ZEFSAII (Michael W. Deem and Ramdas Pophale) SiO2 
 PCOD9315345
Probable space group: P 21 21 21
;
_chemical_formula_sum "Si O2"
_cell_formula_units_Z 32
_cell_length_a 10.436984
_cell_length_b 14.478055
_cell_length_c 9.382202
_cell_angle_alpha 90.000000
_cell_angle_beta 90.000000
_cell_angle_gamma 90.000000
_cell_volume 1417.718540
_symmetry_space_group_name_H-M "P 21 21 21"
_symmetry_group_IT_number 19
_symmetry_cell_setting 'orthorhombic'
loop_
_space_group_symop_operation_xyz
x,y,z
1/2-x,-y,1/2+z
1/2+x,1/2-y,-z
-x,1/2+y,1/2-z
loop_
_atom_site_type_symbol
_atom_site_label
_atom_site_fract_x
_atom_site_fract_y
_atom_site_fract_z
Si Si1 0.361283 0.043967 0.524333
Si Si2 0.923775 0.971847 0.227754
Si Si3 0.716466 0.396007 0.197507
Si Si4 0.024926 0.715414 0.622604
Si Si5 0.648723 0.857829 0.907252
Si Si6 0.056404 0.382031 0.686889
Si Si7 0.547944 0.718906 0.678720
Si Si8 0.646421 0.918779 0.208822
O O1 0.469003 0.991279 0.619031
O O2 0.265502 0.082676 0.643467
O O3 0.452142 0.115003 0.439674
O O4 0.289549 0.983938 0.406085
O O5 0.785058 0.957803 0.160436
O O6 0.969009 0.871900 0.281053
O O7 0.900632 0.042687 0.354062
O O8 0.578988 0.350452 0.196558
O O9 0.814441 0.322220 0.132212
O O10 0.002370 0.814689 0.694059
O O11 0.998440 0.725709 0.456320
O O12 0.150774 0.654755 0.660446
O O13 0.801425 0.851651 0.867865
O O14 0.574680 0.782546 0.813947
O O15 0.612327 0.856558 0.072288
O O16 0.072767 0.487192 0.746430
#
# Coordination Sequence:
#
# PCOD9315345 Si02
#       8
#     4   4   4   4   4   4   4   4
#     4  11  24  48  71  99 146 185 238 297 358 425
#     4  10  24  45  72 102 142 187 238 289 360 425
#     4  11  26  46  73 106 143 191 242 294 367 427
#     4  12  26  43  73 103 148 187 242 293 357 432
#     4  11  23  43  73 101 142 186 235 296 349 428
#     4  11  24  44  71  98 147 187 237 294 354 427
#     4  11  26  45  70 106 146 185 241 296 359 427
#     4  11  25  42  73 107 136 188 241 285 364 421
#
# _framework density 22.571476000000001
#
# number of rings (size 3 to 8) (size 9 to 14) (size 15 to 20)
#    0.000    1.000    3.750    1.500    7.000    3.000 
#    0.000    0.000    0.000    0.000    0.000    0.000 
#    0.000    0.000    0.000    0.000    0.000    0.000 
#
# Total GULP energy -178701.281438 kJ/mol
# GULP energy per Si atom -5584.415045 kJ/mol
# Density = 2.252010 g / cm^3
# Si number density = 22.571476 Si / 1000 Ang^3
#
#
#
# Elastic Constant Matrix: (Units=GPa)
#
#
# Indices 1 2 3 4 5 6 
#
# 1 45.6787 13.5575 14.7414 0.0000 0.0000 0.0000
# 2 13.5575 110.5422 33.6401 0.0000 0.0000 0.0000
# 3 14.7414 33.6401 98.1179 0.0000 0.0000 0.0000
# 4 0.0000 0.0000 0.0000 28.7734 0.0000 0.0000
# 5 0.0000 0.0000 0.0000 0.0000 29.8361 0.0000
# 6 0.0000 0.0000 0.0000 0.0000 0.0000 32.0051
#
#
#
# Elastic Compliance Matrix: (Units=1/GPa)
#
#
# Indices 1 2 3 4 5 6 
#
# 1 0.023401 -0.002010 -0.002827 0.000000 0.000000 0.000000
# 2 -0.002010 0.010273 -0.003220 0.000000 0.000000 0.000000
# 3 -0.002827 -0.003220 0.011721 0.000000 0.000000 0.000000
# 4 0.000000 0.000000 0.000000 0.034754 0.000000 0.000000
# 5 0.000000 0.000000 0.000000 0.000000 0.033516 0.000000
# 6 0.000000 0.000000 0.000000 0.000000 0.000000 0.031245
#
#
# Mechanical properties :
#
#
# Convention : Reuss Voigt Hill
#
# Bulk Modulus (GPa) = 34.15197 42.02408 38.08803
# Shear Modulus (GPa) = 29.27685 30.94956 30.11320
#
# Velocity S-wave (km/s) = 3.60540 3.70696 3.65653
# Velocity P-wave (km/s) = 5.70046 6.08118 5.89390
#
# Compressibility (1/GPa) = 0.02928089
#
# Stress axis : x y z
#
# Youngs Moduli (GPa) = 42.73361 97.34496 85.32036
#
# Poissons Ratio (x) = 0.19564 0.24118
# Poissons Ratio (y) = 0.08588 0.27474
# Poissons Ratio (z) = 0.12080 0.31346
#
# Static dielectric constant tensor:
#      x y z
#    x 1.966580 0.000000 0.000000 
#    y 0.000000 1.833790 0.000000 
#    z 0.000000 0.000000 1.874130 
# 
# From -- ./inp_files/3604.got.cif
#   From: 2010.05.17/outbox.cif.g08.bks.cpg/sg19_2_cif.got.tgz:3604.got - 2010.06.03 22:46:19.
