data_PCOD9315255
_publ_section_title
;
Structure prediction by ZEFSAII (Michael W. Deem and Ramdas Pophale) SiO2 
 PCOD9315255
Probable space group: P 21 21 21
;
_chemical_formula_sum "Si O2"
_cell_formula_units_Z 20
_cell_length_a 7.039220
_cell_length_b 8.795185
_cell_length_c 12.437533
_cell_angle_alpha 90.000000
_cell_angle_beta 90.000000
_cell_angle_gamma 90.000000
_cell_volume 770.023117
_symmetry_space_group_name_H-M "P 21 21 21"
_symmetry_group_IT_number 19
_symmetry_cell_setting 'orthorhombic'
loop_
_space_group_symop_operation_xyz
x,y,z
1/2-x,-y,1/2+z
1/2+x,1/2-y,-z
-x,1/2+y,1/2-z
loop_
_atom_site_type_symbol
_atom_site_label
_atom_site_fract_x
_atom_site_fract_y
_atom_site_fract_z
Si Si1 0.492024 0.602691 0.783729
Si Si2 0.530386 0.740169 0.006276
Si Si3 0.275195 0.507678 0.452870
Si Si4 0.132011 0.951305 0.793123
Si Si5 0.832283 0.206216 0.862270
O O1 0.024043 0.579513 0.969122
O O2 0.663485 0.523963 0.724247
O O3 0.364545 0.696128 0.702075
O O4 0.336947 0.490874 0.840658
O O5 0.577520 0.698552 0.882720
O O6 0.641061 0.667562 0.108288
O O7 0.840173 0.866521 0.987714
O O8 0.229789 0.661423 0.517154
O O9 0.079443 0.861539 0.683097
O O10 0.981131 0.079650 0.823291
#
# Coordination Sequence:
#
# PCOD9315255 Si02
#       5
#     4   4   4   4   4
#     4  10  24  41  68 100 131 178 229 284 336 399
#     4   9  20  41  66  95 127 181 233 261 338 424
#     4   9  21  40  65  96 130 175 231 271 337 408
#     4  11  24  44  68 101 139 179 230 279 347 411
#     4  11  25  44  69 102 137 179 229 289 336 410
#
# _framework density 25.973246
#
# number of rings (size 3 to 8) (size 9 to 14) (size 15 to 20)
#    1.200    0.800    2.000    0.000   11.200    0.000 
#    3.600    0.000    0.000    0.000    0.000    0.000 
#    0.000    0.000    0.000    0.000    0.000    0.000 
#
# Total GULP energy -111536.573115 kJ/mol
# GULP energy per Si atom -5576.828656 kJ/mol
# Density = 2.591413 g / cm^3
# Si number density = 25.973246 Si / 1000 Ang^3
#
#
#
# Elastic Constant Matrix: (Units=GPa)
#
#
# Indices 1 2 3 4 5 6 
#
# 1 29.6091 17.3487 2.5797 0.0000 0.0000 0.0000
# 2 17.3487 54.6244 11.9688 0.0000 0.0000 0.0000
# 3 2.5797 11.9688 77.9836 0.0000 0.0000 0.0000
# 4 0.0000 0.0000 0.0000 40.6480 0.0000 0.0000
# 5 0.0000 0.0000 0.0000 0.0000 15.1907 0.0000
# 6 0.0000 0.0000 0.0000 0.0000 0.0000 23.8397
#
#
#
# Elastic Compliance Matrix: (Units=1/GPa)
#
#
# Indices 1 2 3 4 5 6 
#
# 1 0.041529 -0.013337 0.000673 0.000000 0.000000 0.000000
# 2 -0.013337 0.023227 -0.003124 0.000000 0.000000 0.000000
# 3 0.000673 -0.003124 0.013280 0.000000 0.000000 0.000000
# 4 0.000000 0.000000 0.000000 0.024601 0.000000 0.000000
# 5 0.000000 0.000000 0.000000 0.000000 0.065830 0.000000
# 6 0.000000 0.000000 0.000000 0.000000 0.000000 0.041947
#
#
# Mechanical properties :
#
#
# Convention : Reuss Voigt Hill
#
# Bulk Modulus (GPa) = 21.52319 25.11237 23.31778
# Shear Modulus (GPa) = 19.41918 24.62367 22.02143
#
# Velocity S-wave (km/s) = 2.73731 3.08237 2.91495
# Velocity P-wave (km/s) = 4.27728 4.72837 4.50847
#
# Compressibility (1/GPa) = 0.04646151
#
# Stress axis : x y z
#
# Youngs Moduli (GPa) = 24.07936 43.05302 75.29914
#
# Poissons Ratio (x) = 0.57421 -0.05069
# Poissons Ratio (y) = 0.32115 0.23521
# Poissons Ratio (z) = -0.01621 0.13448
#
# Static dielectric constant tensor:
#      x y z
#    x 2.605600 0.000000 0.000000 
#    y 0.000000 2.295290 0.000000 
#    z 0.000000 0.000000 2.142640 
# 
# From -- ./inp_files/2384.got.cif
#   From: 2010.05.17/outbox.cif.g08.bks.cpg/sg19_2_cif.got.tgz:2384.got - 2010.06.03 22:46:19.
