data_PCOD9315584
_publ_section_title
;
Structure prediction by ZEFSAII (Michael W. Deem and Ramdas Pophale) SiO2 
 PCOD9315584
Probable space group: P 21 21 21
;
_chemical_formula_sum "Si O2"
_cell_formula_units_Z 20
_cell_length_a 8.505078
_cell_length_b 4.911379
_cell_length_c 20.635630
_cell_angle_alpha 90.000000
_cell_angle_beta 90.000000
_cell_angle_gamma 90.000000
_cell_volume 861.984551
_symmetry_space_group_name_H-M "P 21 21 21"
_symmetry_group_IT_number 19
_symmetry_cell_setting 'orthorhombic'
loop_
_space_group_symop_operation_xyz
x,y,z
1/2-x,-y,1/2+z
1/2+x,1/2-y,-z
-x,1/2+y,1/2-z
loop_
_atom_site_type_symbol
_atom_site_label
_atom_site_fract_x
_atom_site_fract_y
_atom_site_fract_z
Si Si1 0.541517 0.712373 0.100051
Si Si2 0.980001 0.740061 0.292407
Si Si3 0.675735 0.740710 0.376417
Si Si4 0.106437 0.470859 0.009094
Si Si5 0.195984 0.852672 0.406621
O O1 0.451708 0.471439 0.137900
O O2 0.721591 0.631551 0.117763
O O3 0.421345 0.964401 0.110827
O O4 0.570533 0.729140 0.020854
O O5 0.810719 0.685022 0.324247
O O6 0.014387 0.548380 0.232062
O O7 0.113990 0.706789 0.346530
O O8 0.766747 0.887609 0.436771
O O9 0.173419 0.321247 0.945002
O O10 0.942509 0.396742 0.041837
#
# Coordination Sequence:
#
# PCOD9315584 Si02
#       5
#     4   4   4   4   4
#     4  12  22  42  66 108 143 180 228 291 370 424
#     4  11  27  51  75 100 141 198 254 297 359 435
#     4  11  25  43  72 104 142 191 235 298 357 435
#     4  11  22  42  67 112 145 183 227 298 369 430
#     4  11  24  42  76 104 151 184 242 298 371 438
#
# _framework density 23.202273000000002
#
# number of rings (size 3 to 8) (size 9 to 14) (size 15 to 20)
#    0.000    0.800    4.000    2.400    2.800    0.000 
#    0.000    4.000    0.000    0.000    0.000    0.000 
#    0.000    0.000    0.000    0.000    0.000    0.000 
#
# Total GULP energy -111336.890786 kJ/mol
# GULP energy per Si atom -5566.844539 kJ/mol
# Density = 2.314946 g / cm^3
# Si number density = 23.202273 Si / 1000 Ang^3
#
#
#
# Elastic Constant Matrix: (Units=GPa)
#
#
# Indices 1 2 3 4 5 6 
#
# 1 147.3047 51.9737 44.9854 0.0000 0.0000 0.0000
# 2 51.9737 71.6945 0.2738 0.0000 0.0000 0.0000
# 3 44.9854 0.2738 51.6939 0.0000 0.0000 0.0000
# 4 0.0000 0.0000 0.0000 33.5175 0.0000 0.0000
# 5 0.0000 0.0000 0.0000 0.0000 24.8578 0.0000
# 6 0.0000 0.0000 0.0000 0.0000 0.0000 35.7890
#
#
#
# Elastic Compliance Matrix: (Units=1/GPa)
#
#
# Indices 1 2 3 4 5 6 
#
# 1 0.014120 -0.010189 -0.012233 0.000000 0.000000 0.000000
# 2 -0.010189 0.021301 0.008754 0.000000 0.000000 0.000000
# 3 -0.012233 0.008754 0.029944 0.000000 0.000000 0.000000
# 4 0.000000 0.000000 0.000000 0.029835 0.000000 0.000000
# 5 0.000000 0.000000 0.000000 0.000000 0.040229 0.000000
# 6 0.000000 0.000000 0.000000 0.000000 0.000000 0.027942
#
#
# Mechanical properties :
#
#
# Convention : Reuss Voigt Hill
#
# Bulk Modulus (GPa) = 26.29652 51.68431 38.99042
# Shear Modulus (GPa) = 24.58421 30.39688 27.49054
#
# Velocity S-wave (km/s) = 3.25862 3.62343 3.44586
# Velocity P-wave (km/s) = 5.05137 6.31107 5.71603
#
# Compressibility (1/GPa) = 0.03802784
#
# Stress axis : x y z
#
# Youngs Moduli (GPa) = 70.82379 46.94621 33.39573
#
# Poissons Ratio (x) = 0.47834 0.40854
# Poissons Ratio (y) = 0.72162 -0.29234
# Poissons Ratio (z) = 0.86640 -0.41096
#
# Static dielectric constant tensor:
#      x y z
#    x 1.896580 0.000000 0.000000 
#    y 0.000000 2.104190 0.000000 
#    z 0.000000 0.000000 1.871000 
# 
# From -- ./inp_files/2392.got.cif
#   From: 2010.05.17/outbox.cif.g08.bks.cpg/sg19_2_cif.got.tgz:2392.got - 2010.06.03 22:46:19.
