data_PCOD9315485
_publ_section_title
;
Structure prediction by ZEFSAII (Michael W. Deem and Ramdas Pophale) SiO2 
 PCOD9315485
Probable space group: P 21 21 21
;
_chemical_formula_sum "Si O2"
_cell_formula_units_Z 32
_cell_length_a 12.384501
_cell_length_b 18.321618
_cell_length_c 5.544247
_cell_angle_alpha 90.000000
_cell_angle_beta 90.000000
_cell_angle_gamma 90.000000
_cell_volume 1258.012356
_symmetry_space_group_name_H-M "P 21 21 21"
_symmetry_group_IT_number 19
_symmetry_cell_setting 'orthorhombic'
loop_
_space_group_symop_operation_xyz
x,y,z
1/2-x,-y,1/2+z
1/2+x,1/2-y,-z
-x,1/2+y,1/2-z
loop_
_atom_site_type_symbol
_atom_site_label
_atom_site_fract_x
_atom_site_fract_y
_atom_site_fract_z
Si Si1 0.720217 0.752558 0.918524
Si Si2 0.560955 0.587232 0.716423
Si Si3 0.155941 0.393702 0.421582
Si Si4 0.500636 0.939103 0.967027
Si Si5 0.971587 0.656097 0.425115
Si Si6 0.907726 0.282241 0.914483
Si Si7 0.837329 0.054959 0.855329
Si Si8 0.306180 0.890646 0.235979
O O1 0.780670 0.829270 0.944059
O O2 0.660230 0.741941 0.658210
O O3 0.803106 0.685309 0.907975
O O4 0.648413 0.738151 0.161532
O O5 0.517172 0.505762 0.709392
O O6 0.567959 0.632670 0.465397
O O7 0.685029 0.582111 0.793075
O O8 0.469178 0.626859 0.875440
O O9 0.221618 0.406570 0.169585
O O10 0.162861 0.473201 0.545868
O O11 0.493989 0.859342 0.852139
O O12 0.614643 0.949860 0.086863
O O13 0.397024 0.944461 0.138472
O O14 0.853349 0.626944 0.498401
O O15 0.985470 0.734613 0.541292
O O16 0.071447 0.607688 0.531558
#
# Coordination Sequence:
#
# PCOD9315485 Si02
#       8
#     4   4   4   4   4   4   4   4
#     4  11  27  49  76 114 149 201 250 318 381 459
#     4  11  27  45  69 113 139 193 248 315 367 446
#     4  12  25  46  76 110 157 191 254 324 389 454
#     4  11  25  45  76 101 146 198 253 312 376 455
#     4  11  24  49  73 100 149 199 248 305 384 457
#     4  11  27  49  77 107 154 193 258 307 385 457
#     4  11  25  45  71 113 140 198 249 310 389 461
#     4  10  28  44  72 104 144 197 250 297 379 451
#
# _framework density 25.436952000000002
#
# number of rings (size 3 to 8) (size 9 to 14) (size 15 to 20)
#    0.000    1.000    2.500    1.500   10.500    5.000 
#    0.000    0.000    0.000    0.000    0.000    0.000 
#    0.000    0.000    0.000    0.000    0.000    0.000 
#
# Total GULP energy -178684.873640 kJ/mol
# GULP energy per Si atom -5583.902301 kJ/mol
# Density = 2.537906 g / cm^3
# Si number density = 25.436952 Si / 1000 Ang^3
#
#
#
# Elastic Constant Matrix: (Units=GPa)
#
#
# Indices 1 2 3 4 5 6 
#
# 1 136.8985 -3.1858 38.9683 0.0000 0.0000 0.0000
# 2 -3.1858 67.8315 5.9554 0.0000 0.0000 0.0000
# 3 38.9683 5.9554 79.7625 0.0000 0.0000 0.0000
# 4 0.0000 0.0000 0.0000 35.7088 0.0000 0.0000
# 5 0.0000 0.0000 0.0000 0.0000 26.0956 0.0000
# 6 0.0000 0.0000 0.0000 0.0000 0.0000 42.6102
#
#
#
# Elastic Compliance Matrix: (Units=1/GPa)
#
#
# Indices 1 2 3 4 5 6 
#
# 1 0.008524 0.000771 -0.004222 0.000000 0.000000 0.000000
# 2 0.000771 0.014909 -0.001490 0.000000 0.000000 0.000000
# 3 -0.004222 -0.001490 0.014711 0.000000 0.000000 0.000000
# 4 0.000000 0.000000 0.000000 0.028004 0.000000 0.000000
# 5 0.000000 0.000000 0.000000 0.000000 0.038321 0.000000
# 6 0.000000 0.000000 0.000000 0.000000 0.000000 0.023469
#
#
# Mechanical properties :
#
#
# Convention : Reuss Voigt Hill
#
# Bulk Modulus (GPa) = 35.38194 40.88537 38.13365
# Shear Modulus (GPa) = 33.95771 37.06654 35.51213
#
# Velocity S-wave (km/s) = 3.65770 3.82146 3.74047
# Velocity P-wave (km/s) = 5.63721 5.96486 5.80335
#
# Compressibility (1/GPa) = 0.02826301
#
# Stress axis : x y z
#
# Youngs Moduli (GPa) = 117.30902 67.07164 67.97516
#
# Poissons Ratio (x) = -0.05172 0.28701
# Poissons Ratio (y) = -0.09045 0.10128
# Poissons Ratio (z) = 0.49531 0.09993
#
# Static dielectric constant tensor:
#      x y z
#    x 2.001190 0.000000 0.000000 
#    y 0.000000 2.027040 0.000000 
#    z 0.000000 0.000000 2.177370 
# 
# From -- ./inp_files/1217.got.cif
#   From: 2010.05.17/outbox.cif.g08.bks.cpg/sg19_1_cif.got.tgz:1217.got - 2010.06.03 22:46:19.
