data_PCOD9315109
_publ_section_title
;
Structure prediction by ZEFSAII (Michael W. Deem and Ramdas Pophale) SiO2 
 PCOD9315109
Probable space group: P 21 21 21
;
_chemical_formula_sum "Si O2"
_cell_formula_units_Z 24
_cell_length_a 10.736110
_cell_length_b 16.138058
_cell_length_c 4.861147
_cell_angle_alpha 90.000000
_cell_angle_beta 90.000000
_cell_angle_gamma 90.000000
_cell_volume 842.242163
_symmetry_space_group_name_H-M "P 21 21 21"
_symmetry_group_IT_number 19
_symmetry_cell_setting 'orthorhombic'
loop_
_space_group_symop_operation_xyz
x,y,z
1/2-x,-y,1/2+z
1/2+x,1/2-y,-z
-x,1/2+y,1/2-z
loop_
_atom_site_type_symbol
_atom_site_label
_atom_site_fract_x
_atom_site_fract_y
_atom_site_fract_z
Si Si1 0.404785 0.451024 0.075991
Si Si2 0.536496 0.212763 0.216927
Si Si3 0.693483 0.730723 0.668814
Si Si4 0.993847 0.665337 0.160416
Si Si5 0.735840 0.439036 0.415996
Si Si6 0.887215 0.948127 0.432431
O O1 0.357394 0.306979 0.642661
O O2 0.494203 0.381906 0.954811
O O3 0.423399 0.530519 0.876925
O O4 0.259048 0.431084 0.043885
O O5 0.663129 0.253832 0.089923
O O6 0.546857 0.243935 0.531208
O O7 0.546606 0.119968 0.111650
O O8 0.402364 0.234865 0.085999
O O9 0.684016 0.639142 0.804658
O O10 0.086184 0.532050 0.897361
O O11 0.884666 0.609601 0.027799
O O12 0.786232 0.495903 0.666661
#
# Coordination Sequence:
#
# PCOD9315109 Si02
#       6
#     4   4   4   4   4   4
#     4  10  23  43  70 108 151 193 260 326 400 474
#     4  11  27  48  80 116 164 219 276 352 421 511
#     4  11  28  52  82 124 166 226 284 357 429 513
#     4  11  27  46  79 112 166 214 275 346 417 504
#     4  11  30  55  83 123 173 232 287 352 434 525
#     4  10  23  44  72 109 146 204 254 327 399 479
#
# _framework density 28.495366000000001
#
# number of rings (size 3 to 8) (size 9 to 14) (size 15 to 20)
#    0.000    1.333    1.667    0.000   14.000    2.667 
#    0.000    0.000    0.000    0.000    0.000    0.000 
#    0.000    0.000    0.000    0.000    0.000    0.000 
#
# Total GULP energy -133836.665765 kJ/mol
# GULP energy per Si atom -5576.527740 kJ/mol
# Density = 2.843051 g / cm^3
# Si number density = 28.495366 Si / 1000 Ang^3
#
#
#
# Elastic Constant Matrix: (Units=GPa)
#
#
# Indices 1 2 3 4 5 6 
#
# 1 119.5680 50.2336 37.2640 0.0000 0.0000 0.0000
# 2 50.2336 115.3298 29.0217 0.0000 0.0000 0.0000
# 3 37.2640 29.0217 132.0894 0.0000 0.0000 0.0000
# 4 0.0000 0.0000 0.0000 34.4347 0.0000 0.0000
# 5 0.0000 0.0000 0.0000 0.0000 52.2110 0.0000
# 6 0.0000 0.0000 0.0000 0.0000 0.0000 69.8625
#
#
#
# Elastic Compliance Matrix: (Units=1/GPa)
#
#
# Indices 1 2 3 4 5 6 
#
# 1 0.010772 -0.004157 -0.002126 0.000000 0.000000 0.000000
# 2 -0.004157 0.010783 -0.001196 0.000000 0.000000 0.000000
# 3 -0.002126 -0.001196 0.008433 0.000000 0.000000 0.000000
# 4 0.000000 0.000000 0.000000 0.029040 0.000000 0.000000
# 5 0.000000 0.000000 0.000000 0.000000 0.019153 0.000000
# 6 0.000000 0.000000 0.000000 0.000000 0.000000 0.014314
#
#
# Mechanical properties :
#
#
# Convention : Reuss Voigt Hill
#
# Bulk Modulus (GPa) = 66.53399 66.66951 66.60175
# Shear Modulus (GPa) = 44.45880 47.99951 46.22915
#
# Velocity S-wave (km/s) = 3.95424 4.10868 4.03220
# Velocity P-wave (km/s) = 6.65190 6.77907 6.71578
#
# Compressibility (1/GPa) = 0.01502991
#
# Stress axis : x y z
#
# Youngs Moduli (GPa) = 92.82931 92.74249 118.57991
#
# Poissons Ratio (x) = 0.38555 0.25206
# Poissons Ratio (y) = 0.38591 0.14185
# Poissons Ratio (z) = 0.19732 0.11094
#
# Static dielectric constant tensor:
#      x y z
#    x 2.268710 0.000000 0.000000 
#    y 0.000000 2.549140 0.000000 
#    z 0.000000 0.000000 2.587780 
# 
# From -- ./inp_files/952.got.cif
#   From: 2010.05.17/outbox.cif.g08.bks.cpg/sg19_1_cif.got.tgz:952.got - 2010.06.03 22:46:19.
