data_PCOD9315522
_publ_section_title
;
Structure prediction by ZEFSAII (Michael W. Deem and Ramdas Pophale) SiO2 
 PCOD9315522
Probable space group: P 21 21 21
;
_chemical_formula_sum "Si O2"
_cell_formula_units_Z 32
_cell_length_a 11.080983
_cell_length_b 6.119453
_cell_length_c 21.851969
_cell_angle_alpha 90.000000
_cell_angle_beta 90.000000
_cell_angle_gamma 90.000000
_cell_volume 1481.772286
_symmetry_space_group_name_H-M "P 21 21 21"
_symmetry_group_IT_number 19
_symmetry_cell_setting 'orthorhombic'
loop_
_space_group_symop_operation_xyz
x,y,z
1/2-x,-y,1/2+z
1/2+x,1/2-y,-z
-x,1/2+y,1/2-z
loop_
_atom_site_type_symbol
_atom_site_label
_atom_site_fract_x
_atom_site_fract_y
_atom_site_fract_z
Si Si1 0.995128 0.425560 0.886727
Si Si2 0.483978 0.544208 0.588361
Si Si3 0.733889 0.880934 0.404034
Si Si4 0.887061 0.804916 0.807735
Si Si5 0.120628 0.072197 0.809704
Si Si6 0.786076 0.700381 0.107836
Si Si7 0.620361 0.930979 0.526830
Si Si8 0.090269 0.759698 0.986683
O O1 0.869264 0.301238 0.897231
O O2 0.959486 0.607635 0.838043
O O3 0.091021 0.249196 0.862351
O O4 0.048363 0.563877 0.942386
O O5 0.370647 0.676694 0.614747
O O6 0.593232 0.433239 0.623940
O O7 0.558210 0.706434 0.544809
O O8 0.416642 0.342837 0.554218
O O9 0.726676 0.915445 0.477517
O O10 0.693160 0.079636 0.359909
O O11 0.824705 0.703035 0.747758
O O12 0.989243 0.981577 0.790006
O O13 0.195500 0.871433 0.838464
O O14 0.710919 0.643325 0.044606
O O15 0.833348 0.939864 0.087142
O O16 0.517090 0.064727 0.490182
#
# Coordination Sequence:
#
# PCOD9315522 Si02
#       8
#     4   4   4   4   4   4   4   4
#     4  11  21  37  65  94 128 166 211 275 327 379
#     4  11  26  39  61  94 137 181 214 261 336 405
#     4  11  23  40  62  93 133 176 224 257 334 403
#     4  11  22  40  67  99 123 167 214 288 325 386
#     4  11  23  40  68  98 127 160 223 270 342 381
#     4  11  25  39  63  95 131 175 212 274 327 402
#     4  11  23  38  60  94 130 175 211 267 324 393
#     4  11  21  37  62  97 129 166 219 260 325 397
#
# _framework density 21.595763999999999
#
# number of rings (size 3 to 8) (size 9 to 14) (size 15 to 20)
#    0.000    1.000    6.250    0.750    3.500    2.000 
#    0.000    0.000    2.750    0.000    0.000    0.000 
#    0.000    0.000    0.000    0.000    0.000    0.000 
#
# Total GULP energy -178304.391569 kJ/mol
# GULP energy per Si atom -5572.012237 kJ/mol
# Density = 2.154661 g / cm^3
# Si number density = 21.595764 Si / 1000 Ang^3
#
#
#
# Elastic Constant Matrix: (Units=GPa)
#
#
# Indices 1 2 3 4 5 6 
#
# 1 106.8744 11.5090 12.1257 0.0000 0.0000 0.0000
# 2 11.5090 53.6633 19.3443 0.0000 0.0000 0.0000
# 3 12.1257 19.3443 67.4222 0.0000 0.0000 0.0000
# 4 0.0000 0.0000 0.0000 28.6254 0.0000 0.0000
# 5 0.0000 0.0000 0.0000 0.0000 13.7736 0.0000
# 6 0.0000 0.0000 0.0000 0.0000 0.0000 16.3327
#
#
#
# Elastic Compliance Matrix: (Units=1/GPa)
#
#
# Indices 1 2 3 4 5 6 
#
# 1 0.009676 -0.001615 -0.001277 0.000000 0.000000 0.000000
# 2 -0.001615 0.021054 -0.005750 0.000000 0.000000 0.000000
# 3 -0.001277 -0.005750 0.016711 0.000000 0.000000 0.000000
# 4 0.000000 0.000000 0.000000 0.034934 0.000000 0.000000
# 5 0.000000 0.000000 0.000000 0.000000 0.072603 0.000000
# 6 0.000000 0.000000 0.000000 0.000000 0.000000 0.061227
#
#
# Mechanical properties :
#
#
# Convention : Reuss Voigt Hill
#
# Bulk Modulus (GPa) = 33.15971 34.87976 34.01974
# Shear Modulus (GPa) = 20.53048 24.07840 22.30444
#
# Velocity S-wave (km/s) = 3.08664 3.34272 3.21723
# Velocity P-wave (km/s) = 5.30011 5.57536 5.43948
#
# Compressibility (1/GPa) = 0.03015708
#
# Stress axis : x y z
#
# Youngs Moduli (GPa) = 103.35345 47.49729 59.83962
#
# Poissons Ratio (x) = 0.07670 0.07640
# Poissons Ratio (y) = 0.16690 0.34409
# Poissons Ratio (z) = 0.13196 0.27312
#
# Static dielectric constant tensor:
#      x y z
#    x 1.864070 0.000000 0.000000 
#    y 0.000000 1.853070 0.000000 
#    z 0.000000 0.000000 1.836900 
# 
# From -- ./inp_files/2164.got.cif
#   From: 2010.05.17/outbox.cif.g08.bks.cpg/sg19_2_cif.got.tgz:2164.got - 2010.06.03 22:46:19.
