data_PCOD9315324
_publ_section_title
;
Structure prediction by ZEFSAII (Michael W. Deem and Ramdas Pophale) SiO2 
 PCOD9315324
Probable space group: P 21 21 21
;
_chemical_formula_sum "Si O2"
_cell_formula_units_Z 20
_cell_length_a 5.140967
_cell_length_b 18.295944
_cell_length_c 7.870132
_cell_angle_alpha 90.000000
_cell_angle_beta 90.000000
_cell_angle_gamma 90.000000
_cell_volume 740.255521
_symmetry_space_group_name_H-M "P 21 21 21"
_symmetry_group_IT_number 19
_symmetry_cell_setting 'orthorhombic'
loop_
_space_group_symop_operation_xyz
x,y,z
1/2-x,-y,1/2+z
1/2+x,1/2-y,-z
-x,1/2+y,1/2-z
loop_
_atom_site_type_symbol
_atom_site_label
_atom_site_fract_x
_atom_site_fract_y
_atom_site_fract_z
Si Si1 0.990076 0.551354 0.718423
Si Si2 0.830257 0.833165 0.147373
Si Si3 0.008346 0.542674 0.315693
Si Si4 0.701671 0.661965 0.153133
Si Si5 0.533713 0.200810 0.002049
O O1 0.999362 0.563078 0.515131
O O2 0.475288 0.656833 0.672118
O O3 0.729214 0.511908 0.775497
O O4 0.060120 0.625417 0.819968
O O5 0.009913 0.861033 0.996637
O O6 0.726852 0.002431 0.231207
O O7 0.947096 0.611871 0.195804
O O8 0.783263 0.746403 0.124882
O O9 0.537998 0.659209 0.328259
O O10 0.317251 0.263831 0.985621
#
# Coordination Sequence:
#
# PCOD9315324 Si02
#       5
#     4   4   4   4   4
#     4  12  30  55  84 119 166 219 279 339 412 494
#     4  11  27  50  86 122 166 214 275 339 410 487
#     4  12  30  55  84 119 166 219 279 339 412 494
#     4  11  27  50  86 122 166 214 275 339 410 487
#     4  10  24  44  76 118 162 206 264 328 404 474
#
# _framework density 27.017700999999999
#
# number of rings (size 3 to 8) (size 9 to 14) (size 15 to 20)
#    0.000    0.800    0.000    3.600   16.800    6.400 
#    0.000    0.000    0.000    0.000    0.000    0.000 
#    0.000    0.000    0.000    0.000    0.000    0.000 
#
# Total GULP energy -112492.499860 kJ/mol
# GULP energy per Si atom -5624.624993 kJ/mol
# Density = 2.695621 g / cm^3
# Si number density = 27.017701 Si / 1000 Ang^3
#
#
#
# Elastic Constant Matrix: (Units=GPa)
#
#
# Indices 1 2 3 4 5 6 
#
# 1 125.4876 57.5046 44.1308 0.0000 0.0000 0.0000
# 2 57.5046 143.8740 -1.8536 0.0000 0.0000 0.0000
# 3 44.1308 -1.8536 197.2610 0.0000 0.0000 0.0000
# 4 0.0000 0.0000 0.0000 30.9774 0.0000 0.0000
# 5 0.0000 0.0000 0.0000 0.0000 56.5792 0.0000
# 6 0.0000 0.0000 0.0000 0.0000 0.0000 45.4664
#
#
#
# Elastic Compliance Matrix: (Units=1/GPa)
#
#
# Indices 1 2 3 4 5 6 
#
# 1 0.010835 -0.004362 -0.002465 0.000000 0.000000 0.000000
# 2 -0.004362 0.008708 0.001058 0.000000 0.000000 0.000000
# 3 -0.002465 0.001058 0.005631 0.000000 0.000000 0.000000
# 4 0.000000 0.000000 0.000000 0.032282 0.000000 0.000000
# 5 0.000000 0.000000 0.000000 0.000000 0.017674 0.000000
# 6 0.000000 0.000000 0.000000 0.000000 0.000000 0.021994
#
#
# Mechanical properties :
#
#
# Convention : Reuss Voigt Hill
#
# Bulk Modulus (GPa) = 73.34405 74.02069 73.68237
# Shear Modulus (GPa) = 44.16680 51.06065 47.61372
#
# Velocity S-wave (km/s) = 4.04757 4.35201 4.20255
# Velocity P-wave (km/s) = 7.00353 7.26016 7.13300
#
# Compressibility (1/GPa) = 0.01363437
#
# Stress axis : x y z
#
# Youngs Moduli (GPa) = 92.29539 114.84083 177.59430
#
# Poissons Ratio (x) = 0.50097 0.43776
# Poissons Ratio (y) = 0.40262 -0.18785
# Poissons Ratio (z) = 0.22750 -0.12147
#
# Static dielectric constant tensor:
#      x y z
#    x 2.085730 0.000000 0.000000 
#    y 0.000000 2.129050 0.000000 
#    z 0.000000 0.000000 2.074710 
# 
# From -- ./inp_files/2451.got.cif
#   From: 2010.05.17/outbox.cif.g08.bks.cpg/sg19_2_cif.got.tgz:2451.got - 2010.06.03 22:46:19.
