data_PCOD9315849
_publ_section_title
;
Structure prediction by ZEFSAII (Michael W. Deem and Ramdas Pophale) SiO2 
 PCOD9315849
Probable space group: P 21 21 21
;
_chemical_formula_sum "Si O2"
_cell_formula_units_Z 32
_cell_length_a 8.360686
_cell_length_b 8.689599
_cell_length_c 18.496974
_cell_angle_alpha 90.000000
_cell_angle_beta 90.000000
_cell_angle_gamma 90.000000
_cell_volume 1343.823819
_symmetry_space_group_name_H-M "P 21 21 21"
_symmetry_group_IT_number 19
_symmetry_cell_setting 'orthorhombic'
loop_
_space_group_symop_operation_xyz
x,y,z
1/2-x,-y,1/2+z
1/2+x,1/2-y,-z
-x,1/2+y,1/2-z
loop_
_atom_site_type_symbol
_atom_site_label
_atom_site_fract_x
_atom_site_fract_y
_atom_site_fract_z
Si Si1 0.738705 0.567975 0.060652
Si Si2 0.039192 0.644968 0.966313
Si Si3 0.409958 0.842568 0.797607
Si Si4 0.035929 0.956687 0.668647
Si Si5 0.149989 0.639186 0.712693
Si Si6 0.592200 0.548649 0.836616
Si Si7 0.709896 0.067122 0.934849
Si Si8 0.522005 0.356101 0.976945
O O1 0.592874 0.690504 0.063316
O O2 0.827787 0.564142 0.137236
O O3 0.662554 0.412983 0.030513
O O4 0.866230 0.631615 0.002568
O O5 0.051675 0.521156 0.901867
O O6 0.158531 0.590442 0.028874
O O7 0.272460 0.733146 0.763309
O O8 0.540998 0.724232 0.827379
O O9 0.467505 0.952440 0.733226
O O10 0.217509 0.019800 0.662448
O O11 0.954256 0.026001 0.739472
O O12 0.044755 0.773524 0.675328
O O13 0.244383 0.556915 0.648487
O O14 0.522193 0.475151 0.909727
O O15 0.567025 0.189804 0.945831
O O16 0.860074 0.133436 0.978806
#
# Coordination Sequence:
#
# PCOD9315849 Si02
#       8
#     4   4   4   4   4   4   4   4
#     4  12  25  44  69 105 139 185 233 285 345 413
#     4  12  25  45  72 103 145 181 237 286 348 414
#     4  11  25  44  69 100 138 180 232 283 349 410
#     4  11  24  48  69 102 142 181 231 291 341 421
#     4  11  25  46  69  99 140 178 237 284 349 414
#     4  11  25  48  66 104 140 183 228 292 339 418
#     4  12  26  46  73 105 136 188 230 293 351 414
#     4  12  25  47  71 102 146 176 240 286 348 416
#
# _framework density 23.812643000000001
#
# number of rings (size 3 to 8) (size 9 to 14) (size 15 to 20)
#    0.000    0.500    5.000    3.750    5.250    3.000 
#    0.000    0.000    0.000    0.000    0.000    0.000 
#    0.000    0.000    0.000    0.000    0.000    0.000 
#
# Total GULP energy -179436.860356 kJ/mol
# GULP energy per Si atom -5607.401886 kJ/mol
# Density = 2.375844 g / cm^3
# Si number density = 23.812643 Si / 1000 Ang^3
#
#
#
# Elastic Constant Matrix: (Units=GPa)
#
#
# Indices 1 2 3 4 5 6 
#
# 1 51.6848 2.4287 11.2493 0.0000 0.0000 0.0000
# 2 2.4287 63.0621 29.9373 0.0000 0.0000 0.0000
# 3 11.2493 29.9373 133.0824 0.0000 0.0000 0.0000
# 4 0.0000 0.0000 0.0000 44.1946 0.0000 0.0000
# 5 0.0000 0.0000 0.0000 0.0000 38.2563 0.0000
# 6 0.0000 0.0000 0.0000 0.0000 0.0000 38.7322
#
#
#
# Elastic Compliance Matrix: (Units=1/GPa)
#
#
# Indices 1 2 3 4 5 6 
#
# 1 0.019711 0.000036 -0.001674 0.000000 0.000000 0.000000
# 2 0.000036 0.017753 -0.003997 0.000000 0.000000 0.000000
# 3 -0.001674 -0.003997 0.008555 0.000000 0.000000 0.000000
# 4 0.000000 0.000000 0.000000 0.022627 0.000000 0.000000
# 5 0.000000 0.000000 0.000000 0.000000 0.026139 0.000000
# 6 0.000000 0.000000 0.000000 0.000000 0.000000 0.025818
#
#
# Mechanical properties :
#
#
# Convention : Reuss Voigt Hill
#
# Bulk Modulus (GPa) = 28.77826 37.22887 33.00357
# Shear Modulus (GPa) = 34.85366 37.85090 36.35228
#
# Velocity S-wave (km/s) = 3.82993 3.99122 3.91141
# Velocity P-wave (km/s) = 5.62756 6.07518 5.85564
#
# Compressibility (1/GPa) = 0.03474846
#
# Stress axis : x y z
#
# Youngs Moduli (GPa) = 50.73374 56.32737 116.89447
#
# Poissons Ratio (x) = -0.00201 0.19570
# Poissons Ratio (y) = -0.00181 0.46719
# Poissons Ratio (z) = 0.08494 0.22512
#
# Static dielectric constant tensor:
#      x y z
#    x 1.907240 0.000000 0.000000 
#    y 0.000000 1.879020 0.000000 
#    z 0.000000 0.000000 1.883050 
# 
# From -- ./inp_files/6621.got.cif
#   From: 2010.05.17/outbox.cif.g08.bks.cpg/sg19_4_cif.got.tgz:6621.got - 2010.06.03 22:46:19.
