data_PCOD9315809
_publ_section_title
;
Structure prediction by ZEFSAII (Michael W. Deem and Ramdas Pophale) SiO2 
 PCOD9315809
Probable space group: P 21 21 21
;
_chemical_formula_sum "Si O2"
_cell_formula_units_Z 24
_cell_length_a 9.529812
_cell_length_b 5.165775
_cell_length_c 19.309802
_cell_angle_alpha 90.000000
_cell_angle_beta 90.000000
_cell_angle_gamma 90.000000
_cell_volume 950.599628
_symmetry_space_group_name_H-M "P 21 21 21"
_symmetry_group_IT_number 19
_symmetry_cell_setting 'orthorhombic'
loop_
_space_group_symop_operation_xyz
x,y,z
1/2-x,-y,1/2+z
1/2+x,1/2-y,-z
-x,1/2+y,1/2-z
loop_
_atom_site_type_symbol
_atom_site_label
_atom_site_fract_x
_atom_site_fract_y
_atom_site_fract_z
Si Si1 0.474748 0.488794 0.204438
Si Si2 0.320593 0.734207 0.679396
Si Si3 0.247755 0.660272 0.991367
Si Si4 0.400569 0.979991 0.808564
Si Si5 0.472768 0.115353 0.580528
Si Si6 0.696132 0.325255 0.091436
O O1 0.493767 0.773170 0.236329
O O2 0.320002 0.426613 0.176053
O O3 0.575555 0.434424 0.140036
O O4 0.445254 0.565017 0.711816
O O5 0.304533 0.940320 0.742000
O O6 0.384025 0.878280 0.612586
O O7 0.413506 0.581599 0.982747
O O8 0.170768 0.449043 0.943254
O O9 0.234212 0.954846 0.964192
O O10 0.149445 0.680212 0.059062
O O11 0.328539 0.191930 0.857338
O O12 0.429475 0.740400 0.859906
#
# Coordination Sequence:
#
# PCOD9315809 Si02
#       6
#     4   4   4   4   4   4
#     4  12  28  44  72 109 146 187 236 299 367 425
#     4  12  25  43  74 106 146 186 246 297 371 431
#     4  11  27  47  72  99 145 188 247 290 354 435
#     4  11  24  45  74 104 141 188 240 303 359 432
#     4  11  27  46  71 106 140 198 242 298 363 431
#     4  11  25  49  69 102 146 189 231 299 356 424
#
# _framework density 25.247219000000001
#
# number of rings (size 3 to 8) (size 9 to 14) (size 15 to 20)
#    0.000    0.667    5.000    1.000   11.667    1.333 
#    0.000    0.000    0.000    0.000    0.000    0.000 
#    0.000    0.000    0.000    0.000    0.000    0.000 
#
# Total GULP energy -134203.489727 kJ/mol
# GULP energy per Si atom -5591.812072 kJ/mol
# Density = 2.518976 g / cm^3
# Si number density = 25.247219 Si / 1000 Ang^3
#
#
#
# Elastic Constant Matrix: (Units=GPa)
#
#
# Indices 1 2 3 4 5 6 
#
# 1 113.9615 -11.7019 29.6113 0.0000 0.0000 0.0000
# 2 -11.7019 59.2299 11.4899 0.0000 0.0000 0.0000
# 3 29.6113 11.4899 61.5691 0.0000 0.0000 0.0000
# 4 0.0000 0.0000 0.0000 33.6188 0.0000 0.0000
# 5 0.0000 0.0000 0.0000 0.0000 36.4329 0.0000
# 6 0.0000 0.0000 0.0000 0.0000 0.0000 34.9271
#
#
#
# Elastic Compliance Matrix: (Units=1/GPa)
#
#
# Indices 1 2 3 4 5 6 
#
# 1 0.010580 0.003193 -0.005684 0.000000 0.000000 0.000000
# 2 0.003193 0.018481 -0.004984 0.000000 0.000000 0.000000
# 3 -0.005684 -0.004984 0.019906 0.000000 0.000000 0.000000
# 4 0.000000 0.000000 0.000000 0.029745 0.000000 0.000000
# 5 0.000000 0.000000 0.000000 0.000000 0.027448 0.000000
# 6 0.000000 0.000000 0.000000 0.000000 0.000000 0.028631
#
#
# Mechanical properties :
#
#
# Convention : Reuss Voigt Hill
#
# Bulk Modulus (GPa) = 29.39863 32.61766 31.00814
# Shear Modulus (GPa) = 31.04040 34.68652 32.86346
#
# Velocity S-wave (km/s) = 3.51017 3.71060 3.61178
# Velocity P-wave (km/s) = 5.30075 5.59513 5.44993
#
# Compressibility (1/GPa) = 0.03401519
#
# Stress axis : x y z
#
# Youngs Moduli (GPa) = 94.52093 54.10936 50.23654
#
# Poissons Ratio (x) = -0.17276 0.28555
# Poissons Ratio (y) = -0.30179 0.25040
# Poissons Ratio (z) = 0.53726 0.26971
#
# Static dielectric constant tensor:
#      x y z
#    x 2.005870 0.000000 0.000000 
#    y 0.000000 2.024100 0.000000 
#    z 0.000000 0.000000 2.156540 
# 
# From -- ./inp_files/414.got.cif
#   From: 2010.05.17/outbox.cif.g08.bks.cpg/sg19_1_cif.got.tgz:414.got - 2010.06.03 22:46:19.
