data_PCOD9315152
_publ_section_title
;
Structure prediction by ZEFSAII (Michael W. Deem and Ramdas Pophale) SiO2 
 PCOD9315152
Probable space group: P 21 21 21
;
_chemical_formula_sum "Si O2"
_cell_formula_units_Z 32
_cell_length_a 14.277425
_cell_length_b 9.703349
_cell_length_c 9.867868
_cell_angle_alpha 90.000000
_cell_angle_beta 90.000000
_cell_angle_gamma 90.000000
_cell_volume 1367.082962
_symmetry_space_group_name_H-M "P 21 21 21"
_symmetry_group_IT_number 19
_symmetry_cell_setting 'orthorhombic'
loop_
_space_group_symop_operation_xyz
x,y,z
1/2-x,-y,1/2+z
1/2+x,1/2-y,-z
-x,1/2+y,1/2-z
loop_
_atom_site_type_symbol
_atom_site_label
_atom_site_fract_x
_atom_site_fract_y
_atom_site_fract_z
Si Si1 0.780361 0.460809 0.327604
Si Si2 0.751272 0.683858 0.113188
Si Si3 0.405045 0.638746 0.025846
Si Si4 0.559071 0.808400 0.161476
Si Si5 0.698243 0.192746 0.200038
Si Si6 0.093220 0.580906 0.325817
Si Si7 0.989872 0.884706 0.604874
Si Si8 0.471238 0.123845 0.808537
O O1 0.756486 0.605654 0.256967
O O2 0.764416 0.423198 0.486044
O O3 0.718283 0.349630 0.243475
O O4 0.887885 0.431743 0.285628
O O5 0.665868 0.791830 0.118093
O O6 0.842111 0.772081 0.076199
O O7 0.497706 0.725223 0.052503
O O8 0.347013 0.628490 0.164323
O O9 0.427270 0.488988 0.969330
O O10 0.540074 0.723051 0.297523
O O11 0.521366 0.963032 0.166799
O O12 0.798825 0.125893 0.173994
O O13 0.617267 0.171499 0.088824
O O14 0.030011 0.712350 0.292356
O O15 0.064557 0.460670 0.222819
O O16 0.046945 0.898898 0.466975
#
# Coordination Sequence:
#
# PCOD9315152 Si02
#       8
#     4   4   4   4   4   4   4   4
#     4  10  24  44  67 106 142 184 238 299 362 426
#     4  11  24  43  75 100 144 193 236 301 366 426
#     4  10  23  44  68  96 140 181 233 289 354 424
#     4  11  26  43  74  97 144 185 243 290 366 424
#     4   9  23  43  68  95 139 180 230 294 349 431
#     4  11  25  45  68 103 136 186 237 294 358 429
#     4  11  26  45  71 106 139 191 240 296 363 433
#     4  11  27  43  73 101 146 182 243 297 362 431
#
# _framework density 23.407502000000001
#
# number of rings (size 3 to 8) (size 9 to 14) (size 15 to 20)
#    0.000    1.500    0.000    2.250   21.000    1.000 
#    0.000    0.000    0.000    0.000    0.000    0.000 
#    0.000    0.000    0.000    0.000    0.000    0.000 
#
# Total GULP energy -178968.600589 kJ/mol
# GULP energy per Si atom -5592.768768 kJ/mol
# Density = 2.335423 g / cm^3
# Si number density = 23.407502 Si / 1000 Ang^3
#
#
#
# Elastic Constant Matrix: (Units=GPa)
#
#
# Indices 1 2 3 4 5 6 
#
# 1 44.9522 5.5403 1.7244 0.0000 0.0000 0.0000
# 2 5.5403 64.3903 22.7662 0.0000 0.0000 0.0000
# 3 1.7244 22.7662 61.7086 0.0000 0.0000 0.0000
# 4 0.0000 0.0000 0.0000 38.4675 0.0000 0.0000
# 5 0.0000 0.0000 0.0000 0.0000 23.8151 0.0000
# 6 0.0000 0.0000 0.0000 0.0000 0.0000 29.9197
#
#
#
# Elastic Compliance Matrix: (Units=1/GPa)
#
#
# Indices 1 2 3 4 5 6 
#
# 1 0.022485 -0.001969 0.000098 0.000000 0.000000 0.000000
# 2 -0.001969 0.018032 -0.006598 0.000000 0.000000 0.000000
# 3 0.000098 -0.006598 0.018637 0.000000 0.000000 0.000000
# 4 0.000000 0.000000 0.000000 0.025996 0.000000 0.000000
# 5 0.000000 0.000000 0.000000 0.000000 0.041990 0.000000
# 6 0.000000 0.000000 0.000000 0.000000 0.000000 0.033423
#
#
# Mechanical properties :
#
#
# Convention : Reuss Voigt Hill
#
# Bulk Modulus (GPa) = 23.68763 25.67922 24.68342
# Shear Modulus (GPa) = 26.09978 27.84181 26.97080
#
# Velocity S-wave (km/s) = 3.34281 3.45257 3.39813
# Velocity P-wave (km/s) = 5.00408 5.18536 5.09553
#
# Compressibility (1/GPa) = 0.04221613
#
# Stress axis : x y z
#
# Youngs Moduli (GPa) = 44.47448 55.45554 53.65797
#
# Poissons Ratio (x) = 0.10921 -0.00527
# Poissons Ratio (y) = 0.08759 0.35402
# Poissons Ratio (z) = -0.00437 0.36588
#
# Static dielectric constant tensor:
#      x y z
#    x 1.888990 0.000000 0.000000 
#    y 0.000000 1.879180 0.000000 
#    z 0.000000 0.000000 1.940560 
# 
# From -- ./inp_files/5290.got.cif
#   From: 2010.05.17/outbox.cif.g08.bks.cpg/sg19_3_cif.got.tgz:5290.got - 2010.06.03 22:46:19.
