data_PCOD9315564
_publ_section_title
;
Structure prediction by ZEFSAII (Michael W. Deem and Ramdas Pophale) SiO2 
 PCOD9315564
Probable space group: P 21 21 21
;
_chemical_formula_sum "Si O2"
_cell_formula_units_Z 32
_cell_length_a 9.353904
_cell_length_b 13.770014
_cell_length_c 11.452774
_cell_angle_alpha 90.000000
_cell_angle_beta 90.000000
_cell_angle_gamma 90.000000
_cell_volume 1475.156105
_symmetry_space_group_name_H-M "P 21 21 21"
_symmetry_group_IT_number 19
_symmetry_cell_setting 'orthorhombic'
loop_
_space_group_symop_operation_xyz
x,y,z
1/2-x,-y,1/2+z
1/2+x,1/2-y,-z
-x,1/2+y,1/2-z
loop_
_atom_site_type_symbol
_atom_site_label
_atom_site_fract_x
_atom_site_fract_y
_atom_site_fract_z
Si Si1 0.871238 0.974673 0.285450
Si Si2 0.664352 0.536044 0.605701
Si Si3 0.728615 0.335481 0.503779
Si Si4 0.207537 0.870699 0.634080
Si Si5 0.985797 0.801285 0.141321
Si Si6 0.380117 0.346334 0.114404
Si Si7 0.540822 0.847725 0.658537
Si Si8 0.381568 0.929790 0.217982
O O1 0.745451 0.921330 0.353667
O O2 0.999555 0.987171 0.377342
O O3 0.923776 0.904723 0.180654
O O4 0.852822 0.078658 0.224859
O O5 0.746596 0.436491 0.574115
O O6 0.691723 0.611678 0.503781
O O7 0.725770 0.577156 0.724885
O O8 0.644615 0.258420 0.582152
O O9 0.879608 0.305089 0.447161
O O10 0.622549 0.367336 0.398815
O O11 0.162645 0.760934 0.659893
O O12 0.375659 0.886159 0.661948
O O13 0.108635 0.955826 0.687454
O O14 0.031170 0.747600 0.261610
O O15 0.512246 0.388285 0.186956
O O16 0.415085 0.338404 0.976592
#
# Coordination Sequence:
#
# PCOD9315564 Si02
#       8
#     4   4   4   4   4   4   4   4
#     4  12  25  47  73 106 151 189 243 309 370 431
#     4  11  21  46  73  98 143 198 240 285 372 440
#     4  11  26  43  75 104 145 192 246 300 368 439
#     4  11  23  46  76 101 150 198 239 298 366 447
#     4  12  25  47  74 106 146 197 245 303 369 444
#     4  12  29  44  77 117 143 189 259 307 361 446
#     4  12  25  49  74 106 152 199 235 310 383 433
#     4  11  24  46  72 110 142 194 249 298 363 448
#
# _framework density 21.692620000000002
#
# number of rings (size 3 to 8) (size 9 to 14) (size 15 to 20)
#    0.000    0.500    6.250    1.500    1.750    3.000 
#    2.250    0.000    0.000    0.000    0.000    0.000 
#    0.000    0.000    0.000    0.000    0.000    0.000 
#
# Total GULP energy -178844.924025 kJ/mol
# GULP energy per Si atom -5588.903876 kJ/mol
# Density = 2.164325 g / cm^3
# Si number density = 21.692620 Si / 1000 Ang^3
#
#
#
# Elastic Constant Matrix: (Units=GPa)
#
#
# Indices 1 2 3 4 5 6 
#
# 1 64.0796 0.1580 16.6361 0.0000 0.0000 0.0000
# 2 0.1580 52.5109 -1.7310 0.0000 0.0000 0.0000
# 3 16.6361 -1.7310 77.3813 0.0000 0.0000 0.0000
# 4 0.0000 0.0000 0.0000 32.4240 0.0000 0.0000
# 5 0.0000 0.0000 0.0000 0.0000 32.8873 0.0000
# 6 0.0000 0.0000 0.0000 0.0000 0.0000 28.3139
#
#
#
# Elastic Compliance Matrix: (Units=1/GPa)
#
#
# Indices 1 2 3 4 5 6 
#
# 1 0.016530 -0.000167 -0.003557 0.000000 0.000000 0.000000
# 2 -0.000167 0.019059 0.000462 0.000000 0.000000 0.000000
# 3 -0.003557 0.000462 0.013698 0.000000 0.000000 0.000000
# 4 0.000000 0.000000 0.000000 0.030841 0.000000 0.000000
# 5 0.000000 0.000000 0.000000 0.000000 0.030407 0.000000
# 6 0.000000 0.000000 0.000000 0.000000 0.000000 0.035318
#
#
# Mechanical properties :
#
#
# Convention : Reuss Voigt Hill
#
# Bulk Modulus (GPa) = 23.38480 24.89978 24.14229
# Shear Modulus (GPa) = 30.00619 30.65229 30.32924
#
# Velocity S-wave (km/s) = 3.72323 3.76310 3.74322
# Velocity P-wave (km/s) = 5.41173 5.51223 5.46221
#
# Compressibility (1/GPa) = 0.04276282
#
# Stress axis : x y z
#
# Youngs Moduli (GPa) = 60.49765 52.46758 73.00253
#
# Poissons Ratio (x) = 0.00876 0.25970
# Poissons Ratio (y) = 0.01010 -0.03375
# Poissons Ratio (z) = 0.21521 -0.02425
#
# Static dielectric constant tensor:
#      x y z
#    x 1.794770 0.000000 0.000000 
#    y 0.000000 1.786670 0.000000 
#    z 0.000000 0.000000 1.795410 
# 
# From -- ./inp_files/4735.got.cif
#   From: 2010.05.17/outbox.cif.g08.bks.cpg/sg19_3_cif.got.tgz:4735.got - 2010.06.03 22:46:19.
