data_PCOD9315890
_publ_section_title
;
Structure prediction by ZEFSAII (Michael W. Deem and Ramdas Pophale) SiO2 
 PCOD9315890
Probable space group: P 21 21 21
;
_chemical_formula_sum "Si O2"
_cell_formula_units_Z 28
_cell_length_a 8.307280
_cell_length_b 9.256033
_cell_length_c 16.227109
_cell_angle_alpha 90.000000
_cell_angle_beta 90.000000
_cell_angle_gamma 90.000000
_cell_volume 1247.742294
_symmetry_space_group_name_H-M "P 21 21 21"
_symmetry_group_IT_number 19
_symmetry_cell_setting 'orthorhombic'
loop_
_space_group_symop_operation_xyz
x,y,z
1/2-x,-y,1/2+z
1/2+x,1/2-y,-z
-x,1/2+y,1/2-z
loop_
_atom_site_type_symbol
_atom_site_label
_atom_site_fract_x
_atom_site_fract_y
_atom_site_fract_z
Si Si1 0.731853 0.719743 0.582190
Si Si2 0.856503 0.274851 0.734271
Si Si3 0.937795 0.299266 0.435784
Si Si4 0.106242 0.326827 0.603286
Si Si5 0.571963 0.461441 0.670524
Si Si6 0.399549 0.343770 0.086396
Si Si7 0.344421 0.505591 0.825901
O O1 0.607790 0.611289 0.625774
O O2 0.673859 0.764032 0.491838
O O3 0.736162 0.864738 0.636330
O O4 0.907301 0.648816 0.577953
O O5 0.735468 0.404619 0.713177
O O6 0.863832 0.242605 0.830387
O O7 0.026976 0.306405 0.692061
O O8 0.782618 0.131689 0.691848
O O9 0.751035 0.282319 0.414599
O O10 0.971901 0.303633 0.532721
O O11 0.020455 0.158439 0.395524
O O12 0.025176 0.433339 0.391547
O O13 0.163990 0.492233 0.593382
O O14 0.438586 0.473362 0.741461
#
# Coordination Sequence:
#
# PCOD9315890 Si02
#       7
#     4   4   4   4   4   4   4
#     4  12  28  48  72 112 148 197 242 308 377 449
#     4  11  27  49  73 107 145 198 251 303 374 452
#     4  11  25  45  78 101 144 196 242 310 357 454
#     4  12  26  49  72 109 147 195 255 302 378 441
#     4  11  25  47  76 108 145 192 247 301 377 444
#     4  12  30  47  74 108 154 191 248 312 377 449
#     4  11  25  47  75 109 143 193 247 308 376 437
#
# _framework density 22.440532000000001
#
# number of rings (size 3 to 8) (size 9 to 14) (size 15 to 20)
#    0.000    0.571    2.857    4.286   12.000    0.000 
#    0.000    0.000    0.000    0.000    0.000    0.000 
#    0.000    0.000    0.000    0.000    0.000    0.000 
#
# Total GULP energy -156986.432396 kJ/mol
# GULP energy per Si atom -5606.658300 kJ/mol
# Density = 2.238946 g / cm^3
# Si number density = 22.440532 Si / 1000 Ang^3
#
#
#
# Elastic Constant Matrix: (Units=GPa)
#
#
# Indices 1 2 3 4 5 6 
#
# 1 55.1510 -9.9587 9.2776 0.0000 0.0000 0.0000
# 2 -9.9587 58.0014 19.7819 0.0000 0.0000 0.0000
# 3 9.2776 19.7819 136.0853 0.0000 0.0000 0.0000
# 4 0.0000 0.0000 0.0000 37.4011 0.0000 0.0000
# 5 0.0000 0.0000 0.0000 0.0000 42.7164 0.0000
# 6 0.0000 0.0000 0.0000 0.0000 0.0000 30.7145
#
#
#
# Elastic Compliance Matrix: (Units=1/GPa)
#
#
# Indices 1 2 3 4 5 6 
#
# 1 0.019157 0.003930 -0.001877 0.000000 0.000000 0.000000
# 2 0.003930 0.018946 -0.003022 0.000000 0.000000 0.000000
# 3 -0.001877 -0.003022 0.007916 0.000000 0.000000 0.000000
# 4 0.000000 0.000000 0.000000 0.026737 0.000000 0.000000
# 5 0.000000 0.000000 0.000000 0.000000 0.023410 0.000000
# 6 0.000000 0.000000 0.000000 0.000000 0.000000 0.032558
#
#
# Mechanical properties :
#
#
# Convention : Reuss Voigt Hill
#
# Bulk Modulus (GPa) = 22.68608 31.93768 27.31188
# Shear Modulus (GPa) = 34.39797 37.50886 35.95342
#
# Velocity S-wave (km/s) = 3.91941 4.09281 4.00705
# Velocity P-wave (km/s) = 5.53297 6.04961 5.79705
#
# Compressibility (1/GPa) = 0.04407990
#
# Stress axis : x y z
#
# Youngs Moduli (GPa) = 52.19911 52.78064 126.33269
#
# Poissons Ratio (x) = -0.20740 0.23716
# Poissons Ratio (y) = -0.20512 0.38178
# Poissons Ratio (z) = 0.09799 0.15950
#
# Static dielectric constant tensor:
#      x y z
#    x 1.821680 0.000000 0.000000 
#    y 0.000000 1.781400 0.000000 
#    z 0.000000 0.000000 1.792650 
# 
# From -- ./inp_files/2855.got.cif
#   From: 2010.05.17/outbox.cif.g08.bks.cpg/sg19_2_cif.got.tgz:2855.got - 2010.06.03 22:46:19.
