data_PCOD9315465
_publ_section_title
;
Structure prediction by ZEFSAII (Michael W. Deem and Ramdas Pophale) SiO2 
 PCOD9315465
Probable space group: P 21 21 21
;
_chemical_formula_sum "Si O2"
_cell_formula_units_Z 28
_cell_length_a 8.036213
_cell_length_b 7.717202
_cell_length_c 17.906463
_cell_angle_alpha 90.000000
_cell_angle_beta 90.000000
_cell_angle_gamma 90.000000
_cell_volume 1110.506531
_symmetry_space_group_name_H-M "P 21 21 21"
_symmetry_group_IT_number 19
_symmetry_cell_setting 'orthorhombic'
loop_
_space_group_symop_operation_xyz
x,y,z
1/2-x,-y,1/2+z
1/2+x,1/2-y,-z
-x,1/2+y,1/2-z
loop_
_atom_site_type_symbol
_atom_site_label
_atom_site_fract_x
_atom_site_fract_y
_atom_site_fract_z
Si Si1 0.672592 0.800596 0.094915
Si Si2 0.621857 0.921784 0.939785
Si Si3 0.249072 0.198095 0.795244
Si Si4 0.692829 0.289127 0.885248
Si Si5 0.980048 0.373151 0.335327
Si Si6 0.019196 0.965696 0.700600
Si Si7 0.753130 0.446716 0.045558
O O1 0.634457 0.606146 0.068163
O O2 0.833045 0.813599 0.148530
O O3 0.524783 0.885847 0.141023
O O4 0.714914 0.903537 0.018524
O O5 0.665883 0.084632 0.888432
O O6 0.626968 0.744997 0.892821
O O7 0.431261 0.960321 0.964134
O O8 0.413750 0.170405 0.746706
O O9 0.151622 0.373882 0.777079
O O10 0.125408 0.046384 0.766785
O O11 0.268138 0.177933 0.883355
O O12 0.559631 0.426277 0.851832
O O13 0.863147 0.329712 0.841917
O O14 0.705141 0.345963 0.971878
#
# Coordination Sequence:
#
# PCOD9315465 Si02
#       7
#     4   4   4   4   4   4   4
#     4  11  23  44  74 101 140 184 240 299 357 429
#     4  11  24  43  71 106 136 186 239 303 358 421
#     4  11  26  46  68 103 145 190 236 299 366 434
#     4  11  24  44  73 102 139 182 246 294 356 432
#     4  10  26  46  69 102 145 187 234 298 364 435
#     4  11  25  46  71 107 140 192 240 299 363 434
#     4  11  24  45  68 105 143 183 241 298 356 429
#
# _framework density 25.213719999999999
#
# number of rings (size 3 to 8) (size 9 to 14) (size 15 to 20)
#    0.000    1.143    2.857    1.714    6.000    2.286 
#    5.143    0.000    0.000    0.000    0.000    0.000 
#    0.000    0.000    0.000    0.000    0.000    0.000 
#
# Total GULP energy -156957.754121 kJ/mol
# GULP energy per Si atom -5605.634076 kJ/mol
# Density = 2.515633 g / cm^3
# Si number density = 25.213720 Si / 1000 Ang^3
#
#
#
# Elastic Constant Matrix: (Units=GPa)
#
#
# Indices 1 2 3 4 5 6 
#
# 1 36.7359 13.0863 12.0003 0.0000 0.0000 0.0000
# 2 13.0863 108.1454 22.5221 0.0000 0.0000 0.0000
# 3 12.0003 22.5221 117.2279 0.0000 0.0000 0.0000
# 4 0.0000 0.0000 0.0000 36.9205 0.0000 0.0000
# 5 0.0000 0.0000 0.0000 0.0000 26.9220 0.0000
# 6 0.0000 0.0000 0.0000 0.0000 0.0000 41.9934
#
#
#
# Elastic Compliance Matrix: (Units=1/GPa)
#
#
# Indices 1 2 3 4 5 6 
#
# 1 0.029080 -0.003020 -0.002397 0.000000 0.000000 0.000000
# 2 -0.003020 0.009946 -0.001602 0.000000 0.000000 0.000000
# 3 -0.002397 -0.001602 0.009083 0.000000 0.000000 0.000000
# 4 0.000000 0.000000 0.000000 0.027085 0.000000 0.000000
# 5 0.000000 0.000000 0.000000 0.000000 0.037144 0.000000
# 6 0.000000 0.000000 0.000000 0.000000 0.000000 0.023813
#
#
# Mechanical properties :
#
#
# Convention : Reuss Voigt Hill
#
# Bulk Modulus (GPa) = 29.34875 39.70296 34.52586
# Shear Modulus (GPa) = 30.95094 35.46720 33.20907
#
# Velocity S-wave (km/s) = 3.50743 3.75462 3.63313
# Velocity P-wave (km/s) = 5.29793 5.88022 5.59665
#
# Compressibility (1/GPa) = 0.03407300
#
# Stress axis : x y z
#
# Youngs Moduli (GPa) = 34.38790 100.54509 110.09029
#
# Poissons Ratio (x) = 0.30362 0.26385
# Poissons Ratio (y) = 0.10384 0.17633
# Poissons Ratio (z) = 0.08242 0.16104
#
# Static dielectric constant tensor:
#      x y z
#    x 2.020870 0.000000 0.000000 
#    y 0.000000 1.980250 0.000000 
#    z 0.000000 0.000000 1.952120 
# 
# From -- ./inp_files/3031.got.cif
#   From: 2010.05.17/outbox.cif.g08.bks.cpg/sg19_2_cif.got.tgz:3031.got - 2010.06.03 22:46:19.
