data_PCOD9315479
_publ_section_title
;
Structure prediction by ZEFSAII (Michael W. Deem and Ramdas Pophale) SiO2 
 PCOD9315479
Probable space group: P 21 21 21
;
_chemical_formula_sum "Si O2"
_cell_formula_units_Z 28
_cell_length_a 5.663078
_cell_length_b 9.683957
_cell_length_c 21.175003
_cell_angle_alpha 90.000000
_cell_angle_beta 90.000000
_cell_angle_gamma 90.000000
_cell_volume 1161.258421
_symmetry_space_group_name_H-M "P 21 21 21"
_symmetry_group_IT_number 19
_symmetry_cell_setting 'orthorhombic'
loop_
_space_group_symop_operation_xyz
x,y,z
1/2-x,-y,1/2+z
1/2+x,1/2-y,-z
-x,1/2+y,1/2-z
loop_
_atom_site_type_symbol
_atom_site_label
_atom_site_fract_x
_atom_site_fract_y
_atom_site_fract_z
Si Si1 0.176484 0.927698 0.563381
Si Si2 0.069396 0.247251 0.833742
Si Si3 0.083581 0.206038 0.608194
Si Si4 0.974473 0.276675 0.062454
Si Si5 0.085343 0.624617 0.246860
Si Si6 0.788230 0.004452 0.869570
Si Si7 0.087216 0.352776 0.321652
O O1 0.449911 0.883910 0.561150
O O2 0.080953 0.865397 0.629753
O O3 0.085679 0.833792 0.506026
O O4 0.108078 0.086675 0.555158
O O5 0.275978 0.216993 0.884544
O O6 0.170591 0.304163 0.768463
O O7 0.958664 0.096281 0.826108
O O8 0.094120 0.371342 0.597341
O O9 0.335504 0.178715 0.644199
O O10 0.831506 0.172179 0.641160
O O11 0.178722 0.381709 0.084888
O O12 0.094464 0.552577 0.178964
O O13 0.054464 0.507659 0.298062
O O14 0.904539 0.749438 0.238848
#
# Coordination Sequence:
#
# PCOD9315479 Si02
#       7
#     4   4   4   4   4   4   4
#     4  11  23  44  76 100 142 185 251 302 359 429
#     4  11  23  44  72 101 142 188 244 299 363 429
#     4  11  26  47  68 105 145 188 239 296 367 431
#     4  11  23  46  70 107 134 188 245 304 356 431
#     4  11  24  43  71 102 144 191 236 299 363 432
#     4  10  27  43  66 105 145 187 236 297 362 439
#     4  11  26  43  69 104 146 185 245 291 362 435
#
# _framework density 24.111775000000002
#
# number of rings (size 3 to 8) (size 9 to 14) (size 15 to 20)
#    0.000    1.143    2.857    1.714   10.000    2.286 
#    2.571    0.000    0.000    0.000    0.000    0.000 
#    0.000    0.000    0.000    0.000    0.000    0.000 
#
# Total GULP energy -156248.480224 kJ/mol
# GULP energy per Si atom -5580.302865 kJ/mol
# Density = 2.405690 g / cm^3
# Si number density = 24.111775 Si / 1000 Ang^3
#
#
#
# Elastic Constant Matrix: (Units=GPa)
#
#
# Indices 1 2 3 4 5 6 
#
# 1 84.6770 17.4735 4.7037 0.0000 0.0000 0.0000
# 2 17.4735 107.6734 -1.1467 0.0000 0.0000 0.0000
# 3 4.7037 -1.1467 38.6282 0.0000 0.0000 0.0000
# 4 0.0000 0.0000 0.0000 32.3478 0.0000 0.0000
# 5 0.0000 0.0000 0.0000 0.0000 31.4897 0.0000
# 6 0.0000 0.0000 0.0000 0.0000 0.0000 26.4532
#
#
#
# Elastic Compliance Matrix: (Units=1/GPa)
#
#
# Indices 1 2 3 4 5 6 
#
# 1 0.012312 -0.002015 -0.001559 0.000000 0.000000 0.000000
# 2 -0.002015 0.009620 0.000531 0.000000 0.000000 0.000000
# 3 -0.001559 0.000531 0.026093 0.000000 0.000000 0.000000
# 4 0.000000 0.000000 0.000000 0.030914 0.000000 0.000000
# 5 0.000000 0.000000 0.000000 0.000000 0.031756 0.000000
# 6 0.000000 0.000000 0.000000 0.000000 0.000000 0.037803
#
#
# Mechanical properties :
#
#
# Convention : Reuss Voigt Hill
#
# Bulk Modulus (GPa) = 23.84368 30.33772 27.09070
# Shear Modulus (GPa) = 29.66238 32.05468 30.85853
#
# Velocity S-wave (km/s) = 3.51123 3.65008 3.58133
# Velocity P-wave (km/s) = 5.13309 5.51122 5.32551
#
# Compressibility (1/GPa) = 0.04193984
#
# Stress axis : x y z
#
# Youngs Moduli (GPa) = 81.22221 103.95079 38.32383
#
# Poissons Ratio (x) = 0.20942 0.05975
# Poissons Ratio (y) = 0.16363 -0.02035
# Poissons Ratio (z) = 0.12662 -0.05519
#
# Static dielectric constant tensor:
#      x y z
#    x 2.033200 0.000000 0.000000 
#    y 0.000000 1.962610 0.000000 
#    z 0.000000 0.000000 1.925150 
# 
# From -- ./inp_files/550.got.cif
#   From: 2010.05.17/outbox.cif.g08.bks.cpg/sg19_1_cif.got.tgz:550.got - 2010.06.03 22:46:19.
