data_PCOD9315954
_publ_section_title
;
Structure prediction by ZEFSAII (Michael W. Deem and Ramdas Pophale) SiO2 
 PCOD9315954
Probable space group: P 21 21 21
;
_chemical_formula_sum "Si O2"
_cell_formula_units_Z 32
_cell_length_a 13.506924
_cell_length_b 11.424784
_cell_length_c 8.651137
_cell_angle_alpha 90.000000
_cell_angle_beta 90.000000
_cell_angle_gamma 90.000000
_cell_volume 1334.988866
_symmetry_space_group_name_H-M "P 21 21 21"
_symmetry_group_IT_number 19
_symmetry_cell_setting 'orthorhombic'
loop_
_space_group_symop_operation_xyz
x,y,z
1/2-x,-y,1/2+z
1/2+x,1/2-y,-z
-x,1/2+y,1/2-z
loop_
_atom_site_type_symbol
_atom_site_label
_atom_site_fract_x
_atom_site_fract_y
_atom_site_fract_z
Si Si1 0.572228 0.449661 0.353930
Si Si2 0.557628 0.782113 0.968170
Si Si3 0.502179 0.530048 0.025886
Si Si4 0.718748 0.037549 0.471636
Si Si5 0.265775 0.671915 0.709673
Si Si6 0.749620 0.266819 0.306194
Si Si7 0.877906 0.309682 0.997884
Si Si8 0.955025 0.672629 0.337763
O O1 0.476355 0.375708 0.406956
O O2 0.545369 0.511000 0.193925
O O3 0.661786 0.357926 0.332750
O O4 0.603854 0.553052 0.469439
O O5 0.665783 0.728434 0.939085
O O6 0.527048 0.842054 0.807489
O O7 0.493790 0.665660 0.988285
O O8 0.390439 0.484191 0.009780
O O9 0.567259 0.453389 0.909291
O O10 0.746430 0.102674 0.629707
O O11 0.713642 0.133631 0.333871
O O12 0.785818 0.930438 0.416549
O O13 0.173247 0.748881 0.650416
O O14 0.358113 0.759129 0.714623
O O15 0.802913 0.289230 0.142261
O O16 0.982942 0.250210 0.039819
#
# Coordination Sequence:
#
# PCOD9315954 Si02
#       8
#     4   4   4   4   4   4   4   4
#     4  12  29  47  78 112 157 200 260 324 396 459
#     4  11  28  50  75 112 152 207 260 321 393 471
#     4  12  27  50  75 113 156 201 262 320 390 470
#     4  12  27  48  79 113 152 203 263 324 394 467
#     4  12  26  48  76 112 153 201 258 327 390 472
#     4  11  27  49  74 108 153 202 259 315 390 464
#     4  11  28  47  71 111 148 201 255 314 391 464
#     4  11  26  49  74 103 153 201 257 311 396 459
#
# _framework density 23.970237999999998
#
# number of rings (size 3 to 8) (size 9 to 14) (size 15 to 20)
#    0.000    0.500    3.750    1.500   15.750    1.000 
#    0.000    0.000    0.000    0.000    0.000    0.000 
#    0.000    0.000    0.000    0.000    0.000    0.000 
#
# Total GULP energy -179137.743449 kJ/mol
# GULP energy per Si atom -5598.054483 kJ/mol
# Density = 2.391568 g / cm^3
# Si number density = 23.970238 Si / 1000 Ang^3
#
#
#
# Elastic Constant Matrix: (Units=GPa)
#
#
# Indices 1 2 3 4 5 6 
#
# 1 72.4922 5.8265 15.5185 0.0000 0.0000 0.0000
# 2 5.8265 123.8485 34.6487 0.0000 0.0000 0.0000
# 3 15.5185 34.6487 88.0658 0.0000 0.0000 0.0000
# 4 0.0000 0.0000 0.0000 37.6016 0.0000 0.0000
# 5 0.0000 0.0000 0.0000 0.0000 34.7797 0.0000
# 6 0.0000 0.0000 0.0000 0.0000 0.0000 29.6066
#
#
#
# Elastic Compliance Matrix: (Units=1/GPa)
#
#
# Indices 1 2 3 4 5 6 
#
# 1 0.014335 0.000036 -0.002540 0.000000 0.000000 0.000000
# 2 0.000036 0.009073 -0.003576 0.000000 0.000000 0.000000
# 3 -0.002540 -0.003576 0.013210 0.000000 0.000000 0.000000
# 4 0.000000 0.000000 0.000000 0.026595 0.000000 0.000000
# 5 0.000000 0.000000 0.000000 0.000000 0.028752 0.000000
# 6 0.000000 0.000000 0.000000 0.000000 0.000000 0.033776
#
#
# Mechanical properties :
#
#
# Convention : Reuss Voigt Hill
#
# Bulk Modulus (GPa) = 40.88649 44.04375 42.46512
# Shear Modulus (GPa) = 34.23371 35.62511 34.92941
#
# Velocity S-wave (km/s) = 3.78322 3.85934 3.82147
# Velocity P-wave (km/s) = 6.01481 6.18656 6.10129
#
# Compressibility (1/GPa) = 0.02445796
#
# Stress axis : x y z
#
# Youngs Moduli (GPa) = 69.75696 110.21517 75.70133
#
# Poissons Ratio (x) = -0.00400 0.19231
# Poissons Ratio (y) = -0.00253 0.27072
# Poissons Ratio (z) = 0.17721 0.39415
#
# Static dielectric constant tensor:
#      x y z
#    x 1.931690 0.000000 0.000000 
#    y 0.000000 1.911740 0.000000 
#    z 0.000000 0.000000 1.920060 
# 
# From -- ./inp_files/3946.got.cif
#   From: 2010.05.17/outbox.cif.g08.bks.cpg/sg19_2_cif.got.tgz:3946.got - 2010.06.03 22:46:19.
