data_PCOD9315008
_publ_section_title
;
Structure prediction by ZEFSAII (Michael W. Deem and Ramdas Pophale) SiO2 
 PCOD9315008
Probable space group: P 21 21 21
;
_chemical_formula_sum "Si O2"
_cell_formula_units_Z 20
_cell_length_a 5.385230
_cell_length_b 8.097288
_cell_length_c 17.532088
_cell_angle_alpha 90.000000
_cell_angle_beta 90.000000
_cell_angle_gamma 90.000000
_cell_volume 764.499991
_symmetry_space_group_name_H-M "P 21 21 21"
_symmetry_group_IT_number 19
_symmetry_cell_setting 'orthorhombic'
loop_
_space_group_symop_operation_xyz
x,y,z
1/2-x,-y,1/2+z
1/2+x,1/2-y,-z
-x,1/2+y,1/2-z
loop_
_atom_site_type_symbol
_atom_site_label
_atom_site_fract_x
_atom_site_fract_y
_atom_site_fract_z
Si Si1 0.971045 0.657069 0.264606
Si Si2 0.495384 0.531158 0.474556
Si Si3 0.163606 0.567596 0.725263
Si Si4 0.491328 0.918129 0.436660
Si Si5 0.698404 0.346162 0.333625
O O1 0.902015 0.826805 0.305424
O O2 0.779124 0.519346 0.292744
O O3 0.224265 0.561979 0.284896
O O4 0.069921 0.721894 0.180651
O O5 0.504357 0.717587 0.439390
O O6 0.221299 0.515419 0.511494
O O7 0.583155 0.392457 0.414101
O O8 0.722122 0.531487 0.533992
O O9 0.024915 0.520124 0.649350
O O10 0.025139 0.700505 0.777036
#
# Coordination Sequence:
#
# PCOD9315008 Si02
#       5
#     4   4   4   4   4
#     4  10  24  38  66  96 128 168 222 270 332 388
#     4  10  23  40  65  95 131 174 220 273 334 400
#     4  11  23  41  67  97 133 171 224 277 328 394
#     4  10  23  40  65  95 131 174 220 273 334 400
#     4  11  23  41  67  97 133 171 224 277 328 394
#
# _framework density 26.160889999999998
#
# number of rings (size 3 to 8) (size 9 to 14) (size 15 to 20)
#    0.000    1.600    2.000    1.200   11.200    0.000 
#    0.000    2.000    0.000    0.000    0.000    0.000 
#    0.000    0.000    0.000    0.000    0.000    0.000 
#
# Total GULP energy -111430.797724 kJ/mol
# GULP energy per Si atom -5571.539886 kJ/mol
# Density = 2.610135 g / cm^3
# Si number density = 26.160890 Si / 1000 Ang^3
#
#
#
# Elastic Constant Matrix: (Units=GPa)
#
#
# Indices 1 2 3 4 5 6 
#
# 1 79.5156 13.3571 18.8967 0.0000 0.0000 0.0000
# 2 13.3571 53.5076 7.8512 0.0000 0.0000 0.0000
# 3 18.8967 7.8512 87.1415 0.0000 0.0000 0.0000
# 4 0.0000 0.0000 0.0000 44.4326 0.0000 0.0000
# 5 0.0000 0.0000 0.0000 0.0000 44.9900 0.0000
# 6 0.0000 0.0000 0.0000 0.0000 0.0000 28.8520
#
#
#
# Elastic Compliance Matrix: (Units=1/GPa)
#
#
# Indices 1 2 3 4 5 6 
#
# 1 0.013728 -0.003030 -0.002704 0.000000 0.000000 0.000000
# 2 -0.003030 0.019608 -0.001110 0.000000 0.000000 0.000000
# 3 -0.002704 -0.001110 0.012162 0.000000 0.000000 0.000000
# 4 0.000000 0.000000 0.000000 0.022506 0.000000 0.000000
# 5 0.000000 0.000000 0.000000 0.000000 0.022227 0.000000
# 6 0.000000 0.000000 0.000000 0.000000 0.000000 0.034660
#
#
# Mechanical properties :
#
#
# Convention : Reuss Voigt Hill
#
# Bulk Modulus (GPa) = 31.43597 33.37497 32.40547
# Shear Modulus (GPa) = 33.51629 35.65891 34.58760
#
# Velocity S-wave (km/s) = 3.58321 3.69597 3.64003
# Velocity P-wave (km/s) = 5.40016 5.56766 5.48455
#
# Compressibility (1/GPa) = 0.03181069
#
# Stress axis : x y z
#
# Youngs Moduli (GPa) = 72.84526 50.99921 82.22407
#
# Poissons Ratio (x) = 0.15453 0.22232
# Poissons Ratio (y) = 0.22073 0.09123
# Poissons Ratio (z) = 0.19696 0.05659
#
# Static dielectric constant tensor:
#      x y z
#    x 2.119530 0.000000 0.000000 
#    y 0.000000 2.173980 0.000000 
#    z 0.000000 0.000000 1.993770 
# 
# From -- ./inp_files/309.got.cif
#   From: 2010.05.17/outbox.cif.g08.bks.cpg/sg19_1_cif.got.tgz:309.got - 2010.06.03 22:46:19.
