data_PCOD9315395
_publ_section_title
;
Structure prediction by ZEFSAII (Michael W. Deem and Ramdas Pophale) SiO2 
 PCOD9315395
Probable space group: P 21 21 21
;
_chemical_formula_sum "Si O2"
_cell_formula_units_Z 24
_cell_length_a 9.344407
_cell_length_b 23.231982
_cell_length_c 5.009631
_cell_angle_alpha 90.000000
_cell_angle_beta 90.000000
_cell_angle_gamma 90.000000
_cell_volume 1087.536261
_symmetry_space_group_name_H-M "P 21 21 21"
_symmetry_group_IT_number 19
_symmetry_cell_setting 'orthorhombic'
loop_
_space_group_symop_operation_xyz
x,y,z
1/2-x,-y,1/2+z
1/2+x,1/2-y,-z
-x,1/2+y,1/2-z
loop_
_atom_site_type_symbol
_atom_site_label
_atom_site_fract_x
_atom_site_fract_y
_atom_site_fract_z
Si Si1 0.041365 0.898894 0.401302
Si Si2 0.179489 0.146922 0.068077
Si Si3 0.117697 0.212682 0.563528
Si Si4 0.589804 0.875895 0.872086
Si Si5 0.086966 0.344217 0.620662
Si Si6 0.650286 0.995537 0.096910
O O1 0.988065 0.883344 0.105735
O O2 0.211414 0.899523 0.449391
O O3 0.960381 0.954616 0.515210
O O4 0.995931 0.847296 0.600733
O O5 0.214028 0.177188 0.351726
O O6 0.021560 0.121424 0.126843
O O7 0.172258 0.198280 0.856082
O O8 0.102595 0.279609 0.514927
O O9 0.965667 0.180397 0.528560
O O10 0.755005 0.867433 0.809900
O O11 0.579340 0.933950 0.040936
O O12 0.714998 0.999087 0.392672
#
# Coordination Sequence:
#
# PCOD9315395 Si02
#       6
#     4   4   4   4   4   4
#     4  12  25  45  67 104 134 185 230 297 335 423
#     4  10  25  43  66  99 141 174 233 273 359 403
#     4  10  25  42  67 101 140 181 222 285 345 428
#     4  10  26  44  71  98 138 183 230 283 351 412
#     4  12  25  42  74  98 143 179 234 278 361 405
#     4  12  24  46  69 100 134 180 239 290 343 417
#
# _framework density 22.068228999999999
#
# number of rings (size 3 to 8) (size 9 to 14) (size 15 to 20)
#    1.000    0.000    3.333    2.000    9.333    0.000 
#    3.000    0.000    0.000    0.000    0.000    0.000 
#    0.000    0.000    0.000    0.000    0.000    0.000 
#
# Total GULP energy -133985.578161 kJ/mol
# GULP energy per Si atom -5582.732423 kJ/mol
# Density = 2.201800 g / cm^3
# Si number density = 22.068229 Si / 1000 Ang^3
#
#
#
# Elastic Constant Matrix: (Units=GPa)
#
#
# Indices 1 2 3 4 5 6 
#
# 1 91.1010 18.8885 33.2661 0.0000 0.0000 0.0000
# 2 18.8885 68.9078 -12.4171 0.0000 0.0000 0.0000
# 3 33.2661 -12.4171 82.6335 0.0000 0.0000 0.0000
# 4 0.0000 0.0000 0.0000 25.6672 0.0000 0.0000
# 5 0.0000 0.0000 0.0000 0.0000 25.3499 0.0000
# 6 0.0000 0.0000 0.0000 0.0000 0.0000 22.5352
#
#
#
# Elastic Compliance Matrix: (Units=1/GPa)
#
#
# Indices 1 2 3 4 5 6 
#
# 1 0.014451 -0.005149 -0.006591 0.000000 0.000000 0.000000
# 2 -0.005149 0.016751 0.004590 0.000000 0.000000 0.000000
# 3 -0.006591 0.004590 0.015445 0.000000 0.000000 0.000000
# 4 0.000000 0.000000 0.000000 0.038960 0.000000 0.000000
# 5 0.000000 0.000000 0.000000 0.000000 0.039448 0.000000
# 6 0.000000 0.000000 0.000000 0.000000 0.000000 0.044375
#
#
# Mechanical properties :
#
#
# Convention : Reuss Voigt Hill
#
# Bulk Modulus (GPa) = 30.91595 35.79080 33.35337
# Shear Modulus (GPa) = 25.70519 28.23743 26.97131
#
# Velocity S-wave (km/s) = 3.41663 3.58096 3.49976
# Velocity P-wave (km/s) = 5.44097 5.77505 5.61049
#
# Compressibility (1/GPa) = 0.03234577
#
# Stress axis : x y z
#
# Youngs Moduli (GPa) = 69.19778 59.69908 64.74628
#
# Poissons Ratio (x) = 0.30739 0.42677
# Poissons Ratio (y) = 0.35630 -0.29718
# Poissons Ratio (z) = 0.45611 -0.27402
#
# Static dielectric constant tensor:
#      x y z
#    x 1.888120 0.000000 0.000000 
#    y 0.000000 1.782230 0.000000 
#    z 0.000000 0.000000 1.785710 
# 
# From -- ./inp_files/509.got.cif
#   From: 2010.05.17/outbox.cif.g08.bks.cpg/sg19_1_cif.got.tgz:509.got - 2010.06.03 22:46:19.
