data_PCOD9315310
_publ_section_title
;
Structure prediction by ZEFSAII (Michael W. Deem and Ramdas Pophale) SiO2 
 PCOD9315310
Probable space group: P 21 21 21
;
_chemical_formula_sum "Si O2"
_cell_formula_units_Z 28
_cell_length_a 17.232781
_cell_length_b 5.130782
_cell_length_c 13.141439
_cell_angle_alpha 90.000000
_cell_angle_beta 90.000000
_cell_angle_gamma 90.000000
_cell_volume 1161.935056
_symmetry_space_group_name_H-M "P 21 21 21"
_symmetry_group_IT_number 19
_symmetry_cell_setting 'orthorhombic'
loop_
_space_group_symop_operation_xyz
x,y,z
1/2-x,-y,1/2+z
1/2+x,1/2-y,-z
-x,1/2+y,1/2-z
loop_
_atom_site_type_symbol
_atom_site_label
_atom_site_fract_x
_atom_site_fract_y
_atom_site_fract_z
Si Si1 0.787146 0.250781 0.016971
Si Si2 0.298826 0.121994 0.582018
Si Si3 0.482084 0.871246 0.188013
Si Si4 0.864055 0.039904 0.591559
Si Si5 0.822695 0.927749 0.817074
Si Si6 0.081137 0.737719 0.323609
Si Si7 0.411541 0.761840 0.690360
O O1 0.852731 0.190449 0.096451
O O2 0.702751 0.166269 0.059765
O O3 0.773553 0.552497 0.991404
O O4 0.813598 0.120996 0.911571
O O5 0.355674 0.266244 0.504361
O O6 0.257847 0.268033 0.675716
O O7 0.340630 0.866101 0.624875
O O8 0.521547 0.603962 0.229694
O O9 0.542807 0.990459 0.105813
O O10 0.395606 0.767800 0.166575
O O11 0.836931 0.075938 0.710143
O O12 0.090547 0.530027 0.232006
O O13 0.993976 0.699704 0.364901
O O14 0.086377 0.032309 0.283040
#
# Coordination Sequence:
#
# PCOD9315310 Si02
#       7
#     4   4   4   4   4   4   4
#     4  11  26  42  69 107 137 190 239 295 356 428
#     4  11  26  42  72 108 135 197 237 301 357 434
#     4  10  24  44  70 100 136 190 235 287 359 425
#     4  10  25  45  68 101 144 183 238 294 357 424
#     4  10  25  45  67 102 147 185 238 293 362 420
#     4  10  24  46  71 104 138 189 232 299 352 421
#     4  10  24  46  73 100 143 184 239 293 359 414
#
# _framework density 24.097735
#
# number of rings (size 3 to 8) (size 9 to 14) (size 15 to 20)
#    0.000    1.714    0.000    0.857   20.000    0.000 
#    2.571    0.000    0.000    0.000    0.000    0.000 
#    0.000    0.000    0.000    0.000    0.000    0.000 
#
# Total GULP energy -156152.686457 kJ/mol
# GULP energy per Si atom -5576.881659 kJ/mol
# Density = 2.404289 g / cm^3
# Si number density = 24.097735 Si / 1000 Ang^3
#
#
#
# Elastic Constant Matrix: (Units=GPa)
#
#
# Indices 1 2 3 4 5 6 
#
# 1 136.9537 25.0179 48.0497 0.0000 0.0000 0.0000
# 2 25.0179 35.1005 0.6385 0.0000 0.0000 0.0000
# 3 48.0497 0.6385 81.4046 0.0000 0.0000 0.0000
# 4 0.0000 0.0000 0.0000 20.0094 0.0000 0.0000
# 5 0.0000 0.0000 0.0000 0.0000 20.7073 0.0000
# 6 0.0000 0.0000 0.0000 0.0000 0.0000 32.0304
#
#
#
# Elastic Compliance Matrix: (Units=1/GPa)
#
#
# Indices 1 2 3 4 5 6 
#
# 1 0.010954 -0.007691 -0.006405 0.000000 0.000000 0.000000
# 2 -0.007691 0.033894 0.004274 0.000000 0.000000 0.000000
# 3 -0.006405 0.004274 0.016032 0.000000 0.000000 0.000000
# 4 0.000000 0.000000 0.000000 0.049976 0.000000 0.000000
# 5 0.000000 0.000000 0.000000 0.000000 0.048292 0.000000
# 6 0.000000 0.000000 0.000000 0.000000 0.000000 0.031220
#
#
# Mechanical properties :
#
#
# Convention : Reuss Voigt Hill
#
# Bulk Modulus (GPa) = 24.25174 44.54124 34.39649
# Shear Modulus (GPa) = 22.34560 26.53294 24.43927
#
# Velocity S-wave (km/s) = 3.04845 3.32182 3.18806
# Velocity P-wave (km/s) = 4.74094 5.76509 5.27792
#
# Compressibility (1/GPa) = 0.04123415
#
# Stress axis : x y z
#
# Youngs Moduli (GPa) = 91.29128 29.50410 62.37688
#
# Poissons Ratio (x) = 0.22691 0.39954
# Poissons Ratio (y) = 0.70211 -0.26658
# Poissons Ratio (z) = 0.58475 -0.12609
#
# Static dielectric constant tensor:
#      x y z
#    x 1.930850 0.000000 0.000000 
#    y 0.000000 1.998870 0.000000 
#    z 0.000000 0.000000 1.913090 
# 
# From -- ./inp_files/4471.got.cif
#   From: 2010.05.17/outbox.cif.g08.bks.cpg/sg19_3_cif.got.tgz:4471.got - 2010.06.03 22:46:19.
