data_PCOD9315504
_publ_section_title
;
Structure prediction by ZEFSAII (Michael W. Deem and Ramdas Pophale) SiO2 
 PCOD9315504
Probable space group: P 21 21 21
;
_chemical_formula_sum "Si O2"
_cell_formula_units_Z 20
_cell_length_a 5.752425
_cell_length_b 17.505418
_cell_length_c 7.639206
_cell_angle_alpha 90.000000
_cell_angle_beta 90.000000
_cell_angle_gamma 90.000000
_cell_volume 769.257381
_symmetry_space_group_name_H-M "P 21 21 21"
_symmetry_group_IT_number 19
_symmetry_cell_setting 'orthorhombic'
loop_
_space_group_symop_operation_xyz
x,y,z
1/2-x,-y,1/2+z
1/2+x,1/2-y,-z
-x,1/2+y,1/2-z
loop_
_atom_site_type_symbol
_atom_site_label
_atom_site_fract_x
_atom_site_fract_y
_atom_site_fract_z
Si Si1 0.154677 0.026845 0.716522
Si Si2 0.802245 0.376495 0.954352
Si Si3 0.882215 0.780194 0.322708
Si Si4 0.386756 0.355218 0.468358
Si Si5 0.107959 0.853298 0.011213
O O1 0.366150 0.064937 0.606417
O O2 0.933846 0.060035 0.610125
O O3 0.162540 0.935984 0.705719
O O4 0.182342 0.070022 0.899399
O O5 0.654531 0.301174 0.911066
O O6 0.043169 0.342393 0.031111
O O7 0.658801 0.803883 0.205122
O O8 0.082172 0.794472 0.176580
O O9 0.146612 0.350148 0.572536
O O10 0.633132 0.336211 0.554944
#
# Coordination Sequence:
#
# PCOD9315504 Si02
#       5
#     4   4   4   4   4
#     4   9  20  36  53  89 115 161 183 263 281 376
#     4  11  20  38  62  90 124 151 213 238 318 330
#     4   9  19  33  58  87 105 162 191 254 256 383
#     4   8  15  36  53  83 111 148 190 247 288 336
#     4   7  16  33  54  81 111 150 183 254 279 351
#
# _framework density 25.999102000000001
#
# number of rings (size 3 to 8) (size 9 to 14) (size 15 to 20)
#    2.400    0.800    0.000    1.200    0.000    0.000 
#    7.200    0.000    0.000    9.600    0.000    0.000 
#    0.000    0.000    0.000    0.000    0.000    0.000 
#
# Total GULP energy -111359.079301 kJ/mol
# GULP energy per Si atom -5567.953965 kJ/mol
# Density = 2.593993 g / cm^3
# Si number density = 25.999102 Si / 1000 Ang^3
#
#
#
# Elastic Constant Matrix: (Units=GPa)
#
#
# Indices 1 2 3 4 5 6 
#
# 1 200.5425 58.3853 33.0933 0.0000 0.0000 0.0000
# 2 58.3853 203.3278 32.5146 0.0000 0.0000 0.0000
# 3 33.0933 32.5146 76.2381 0.0000 0.0000 0.0000
# 4 0.0000 0.0000 0.0000 47.4922 0.0000 0.0000
# 5 0.0000 0.0000 0.0000 0.0000 25.4602 0.0000
# 6 0.0000 0.0000 0.0000 0.0000 0.0000 26.1091
#
#
#
# Elastic Compliance Matrix: (Units=1/GPa)
#
#
# Indices 1 2 3 4 5 6 
#
# 1 0.005687 -0.001329 -0.001902 0.000000 0.000000 0.000000
# 2 -0.001329 0.005589 -0.001807 0.000000 0.000000 0.000000
# 3 -0.001902 -0.001807 0.014713 0.000000 0.000000 0.000000
# 4 0.000000 0.000000 0.000000 0.021056 0.000000 0.000000
# 5 0.000000 0.000000 0.000000 0.000000 0.039277 0.000000
# 6 0.000000 0.000000 0.000000 0.000000 0.000000 0.038301
#
#
# Mechanical properties :
#
#
# Convention : Reuss Voigt Hill
#
# Bulk Modulus (GPa) = 62.83857 80.89941 71.86899
# Shear Modulus (GPa) = 35.71372 43.55332 39.63352
#
# Velocity S-wave (km/s) = 3.71030 4.09734 3.90862
# Velocity P-wave (km/s) = 6.52511 7.31902 6.93344
#
# Compressibility (1/GPa) = 0.01591379
#
# Stress axis : x y z
#
# Youngs Moduli (GPa) = 175.83248 178.93342 67.96765
#
# Poissons Ratio (x) = 0.23779 0.12927
# Poissons Ratio (y) = 0.23367 0.12279
# Poissons Ratio (z) = 0.33442 0.32327
#
# Static dielectric constant tensor:
#      x y z
#    x 1.990850 0.000000 0.000000 
#    y 0.000000 2.076690 0.000000 
#    z 0.000000 0.000000 2.156520 
# 
# From -- ./inp_files/4434.got.cif
#   From: 2010.05.17/outbox.cif.g08.bks.cpg/sg19_3_cif.got.tgz:4434.got - 2010.06.03 22:46:19.
