data_PCOD9315921
_publ_section_title
;
Structure prediction by ZEFSAII (Michael W. Deem and Ramdas Pophale) SiO2 
 PCOD9315921
Probable space group: P 21 21 21
;
_chemical_formula_sum "Si O2"
_cell_formula_units_Z 28
_cell_length_a 13.372334
_cell_length_b 5.640302
_cell_length_c 14.377203
_cell_angle_alpha 90.000000
_cell_angle_beta 90.000000
_cell_angle_gamma 90.000000
_cell_volume 1084.386191
_symmetry_space_group_name_H-M "P 21 21 21"
_symmetry_group_IT_number 19
_symmetry_cell_setting 'orthorhombic'
loop_
_space_group_symop_operation_xyz
x,y,z
1/2-x,-y,1/2+z
1/2+x,1/2-y,-z
-x,1/2+y,1/2-z
loop_
_atom_site_type_symbol
_atom_site_label
_atom_site_fract_x
_atom_site_fract_y
_atom_site_fract_z
Si Si1 0.862783 0.447383 0.662449
Si Si2 0.590366 0.782975 0.977631
Si Si3 0.915761 0.085998 0.811048
Si Si4 0.164103 0.887696 0.251073
Si Si5 0.786075 0.729087 0.914222
Si Si6 0.026501 0.544758 0.333937
Si Si7 0.925942 0.388453 0.993569
O O1 0.883219 0.414582 0.553467
O O2 0.864957 0.201743 0.721402
O O3 0.754929 0.561210 0.679747
O O4 0.964815 0.568591 0.699980
O O5 0.527821 0.979570 0.029717
O O6 0.696953 0.895761 0.949750
O O7 0.516277 0.671333 0.898986
O O8 0.896995 0.238592 0.904093
O O9 0.864997 0.844028 0.844886
O O10 0.217063 0.931374 0.151582
O O11 0.122216 0.619173 0.269563
O O12 0.065847 0.054526 0.240360
O O13 0.842830 0.594826 0.995678
O O14 0.050742 0.740142 0.414262
#
# Coordination Sequence:
#
# PCOD9315921 Si02
#       7
#     4   4   4   4   4   4   4
#     4  12  23  48  74 114 147 202 257 323 390 458
#     4  11  26  47  76 109 149 205 259 309 400 463
#     4  12  25  47  76 110 158 194 262 327 386 468
#     4  11  27  47  80 111 152 200 262 315 402 459
#     4  11  25  49  73 112 151 210 251 319 395 469
#     4  11  27  50  75 109 155 201 256 325 383 478
#     4  12  23  50  76 107 160 198 259 318 384 481
#
# _framework density 25.821058000000001
#
# number of rings (size 3 to 8) (size 9 to 14) (size 15 to 20)
#    0.000    0.571    4.286    2.571    6.000    0.000 
#   12.857    0.000    0.000    0.000    0.000    0.000 
#    0.000    0.000    0.000    0.000    0.000    0.000 
#
# Total GULP energy -156103.294649 kJ/mol
# GULP energy per Si atom -5575.117666 kJ/mol
# Density = 2.576229 g / cm^3
# Si number density = 25.821058 Si / 1000 Ang^3
#
#
#
# Elastic Constant Matrix: (Units=GPa)
#
#
# Indices 1 2 3 4 5 6 
#
# 1 143.5525 32.1376 40.5315 0.0000 0.0000 0.0000
# 2 32.1376 29.7189 14.1392 0.0000 0.0000 0.0000
# 3 40.5315 14.1392 99.7897 0.0000 0.0000 0.0000
# 4 0.0000 0.0000 0.0000 34.3381 0.0000 0.0000
# 5 0.0000 0.0000 0.0000 0.0000 57.3304 0.0000
# 6 0.0000 0.0000 0.0000 0.0000 0.0000 43.1072
#
#
#
# Elastic Compliance Matrix: (Units=1/GPa)
#
#
# Indices 1 2 3 4 5 6 
#
# 1 0.009808 -0.009341 -0.002660 0.000000 0.000000 0.000000
# 2 -0.009341 0.044977 -0.002579 0.000000 0.000000 0.000000
# 3 -0.002660 -0.002579 0.011467 0.000000 0.000000 0.000000
# 4 0.000000 0.000000 0.000000 0.029122 0.000000 0.000000
# 5 0.000000 0.000000 0.000000 0.000000 0.017443 0.000000
# 6 0.000000 0.000000 0.000000 0.000000 0.000000 0.023198
#
#
# Mechanical properties :
#
#
# Convention : Reuss Voigt Hill
#
# Bulk Modulus (GPa) = 26.96002 49.63089 38.29546
# Shear Modulus (GPa) = 28.16279 39.37200 33.76739
#
# Velocity S-wave (km/s) = 3.30614 3.90911 3.62020
# Velocity P-wave (km/s) = 5.00379 6.29584 5.68663
#
# Compressibility (1/GPa) = 0.03709196
#
# Stress axis : x y z
#
# Youngs Moduli (GPa) = 101.95303 22.23373 87.20672
#
# Poissons Ratio (x) = 0.20769 0.23200
# Poissons Ratio (y) = 0.95234 0.22488
# Poissons Ratio (z) = 0.27123 0.05733
#
# Static dielectric constant tensor:
#      x y z
#    x 2.032590 0.000000 0.000000 
#    y 0.000000 2.133130 0.000000 
#    z 0.000000 0.000000 2.159960 
# 
# From -- ./inp_files/6711.got.cif
#   From: 2010.05.17/outbox.cif.g08.bks.cpg/sg19_4_cif.got.tgz:6711.got - 2010.06.03 22:46:19.
