data_PCOD9315193
_publ_section_title
;
Structure prediction by ZEFSAII (Michael W. Deem and Ramdas Pophale) SiO2 
 PCOD9315193
Probable space group: P 21 21 21
;
_chemical_formula_sum "Si O2"
_cell_formula_units_Z 32
_cell_length_a 5.183736
_cell_length_b 8.950648
_cell_length_c 29.739364
_cell_angle_alpha 90.000000
_cell_angle_beta 90.000000
_cell_angle_gamma 90.000000
_cell_volume 1379.840952
_symmetry_space_group_name_H-M "P 21 21 21"
_symmetry_group_IT_number 19
_symmetry_cell_setting 'orthorhombic'
loop_
_space_group_symop_operation_xyz
x,y,z
1/2-x,-y,1/2+z
1/2+x,1/2-y,-z
-x,1/2+y,1/2-z
loop_
_atom_site_type_symbol
_atom_site_label
_atom_site_fract_x
_atom_site_fract_y
_atom_site_fract_z
Si Si1 0.667964 0.682057 0.983200
Si Si2 0.709939 0.343403 0.014683
Si Si3 0.479863 0.176029 0.184470
Si Si4 0.871009 0.167770 0.393772
Si Si5 0.651512 0.332794 0.315208
Si Si6 0.505860 0.788941 0.742685
Si Si7 0.754149 0.419167 0.683655
Si Si8 0.511331 0.884349 0.387808
O O1 0.542624 0.748321 0.937963
O O2 0.453931 0.745734 0.017693
O O3 0.692947 0.505745 0.991083
O O4 0.667482 0.369631 0.068334
O O5 0.477351 0.238619 0.996868
O O6 0.243730 0.246694 0.212941
O O7 0.427276 0.221409 0.132032
O O8 0.756871 0.199114 0.208364
O O9 0.447757 0.997801 0.187835
O O10 0.694693 0.283299 0.366473
O O11 0.100826 0.138725 0.359542
O O12 0.727889 0.007836 0.400233
O O13 0.459116 0.202088 0.299623
O O14 0.902897 0.315283 0.284087
O O15 0.434344 0.934922 0.773999
O O16 0.898517 0.555464 0.660113
#
# Coordination Sequence:
#
# PCOD9315193 Si02
#       8
#     4   4   4   4   4   4   4   4
#     4  12  25  48  80 110 141 201 259 313 373 477
#     4  12  29  50  78 114 162 197 253 331 404 466
#     4  12  29  42  75 100 150 191 245 302 380 438
#     4  10  24  44  75 102 145 186 255 300 370 447
#     4  10  25  45  67 105 137 184 239 301 354 438
#     4  11  26  45  67 106 142 193 240 302 361 436
#     4  10  23  45  75 101 149 185 249 304 358 449
#     4  11  27  49  71 112 148 203 246 311 388 457
#
# _framework density 23.191079999999999
#
# number of rings (size 3 to 8) (size 9 to 14) (size 15 to 20)
#    0.000    1.000    2.500    1.500   12.250    3.000 
#    0.000    0.000    0.000    0.000    0.000    0.000 
#    0.000    0.000    0.000    0.000    0.000    0.000 
#
# Total GULP energy -178537.376030 kJ/mol
# GULP energy per Si atom -5579.293001 kJ/mol
# Density = 2.313830 g / cm^3
# Si number density = 23.191080 Si / 1000 Ang^3
#
#
#
# Elastic Constant Matrix: (Units=GPa)
#
#
# Indices 1 2 3 4 5 6 
#
# 1 94.7694 12.2371 14.7783 0.0000 0.0000 0.0000
# 2 12.2371 72.0633 19.8553 0.0000 0.0000 0.0000
# 3 14.7783 19.8553 65.9626 0.0000 0.0000 0.0000
# 4 0.0000 0.0000 0.0000 36.0621 0.0000 0.0000
# 5 0.0000 0.0000 0.0000 0.0000 33.8464 0.0000
# 6 0.0000 0.0000 0.0000 0.0000 0.0000 17.9684
#
#
#
# Elastic Compliance Matrix: (Units=1/GPa)
#
#
# Indices 1 2 3 4 5 6 
#
# 1 0.011045 -0.001302 -0.002083 0.000000 0.000000 0.000000
# 2 -0.001302 0.015285 -0.004309 0.000000 0.000000 0.000000
# 3 -0.002083 -0.004309 0.016924 0.000000 0.000000 0.000000
# 4 0.000000 0.000000 0.000000 0.027730 0.000000 0.000000
# 5 0.000000 0.000000 0.000000 0.000000 0.029545 0.000000
# 6 0.000000 0.000000 0.000000 0.000000 0.000000 0.055653
#
#
# Mechanical properties :
#
#
# Convention : Reuss Voigt Hill
#
# Bulk Modulus (GPa) = 35.88556 36.28187 36.08371
# Shear Modulus (GPa) = 27.64595 29.97034 28.80815
#
# Velocity S-wave (km/s) = 3.45642 3.59879 3.52832
# Velocity P-wave (km/s) = 5.60683 5.73995 5.67378
#
# Compressibility (1/GPa) = 0.02786636
#
# Stress axis : x y z
#
# Youngs Moduli (GPa) = 90.54046 65.42336 59.08827
#
# Poissons Ratio (x) = 0.08516 0.12306
# Poissons Ratio (y) = 0.11786 0.25463
# Poissons Ratio (z) = 0.18857 0.28193
#
# Static dielectric constant tensor:
#      x y z
#    x 2.002630 0.000000 0.000000 
#    y 0.000000 2.001370 0.000000 
#    z 0.000000 0.000000 1.941040 
# 
# From -- ./inp_files/7543.got.cif
#   From: 2010.05.17/outbox.cif.g08.bks.cpg/sg19_4_cif.got.tgz:7543.got - 2010.06.03 22:46:19.
