data_PCOD9315399
_publ_section_title
;
Structure prediction by ZEFSAII (Michael W. Deem and Ramdas Pophale) SiO2 
 PCOD9315399
Probable space group: P 21 21 21
;
_chemical_formula_sum "Si O2"
_cell_formula_units_Z 32
_cell_length_a 14.074603
_cell_length_b 6.412424
_cell_length_c 15.544498
_cell_angle_alpha 90.000000
_cell_angle_beta 90.000000
_cell_angle_gamma 90.000000
_cell_volume 1402.927040
_symmetry_space_group_name_H-M "P 21 21 21"
_symmetry_group_IT_number 19
_symmetry_cell_setting 'orthorhombic'
loop_
_space_group_symop_operation_xyz
x,y,z
1/2-x,-y,1/2+z
1/2+x,1/2-y,-z
-x,1/2+y,1/2-z
loop_
_atom_site_type_symbol
_atom_site_label
_atom_site_fract_x
_atom_site_fract_y
_atom_site_fract_z
Si Si1 0.938380 0.663741 0.154291
Si Si2 0.213766 0.988312 0.084783
Si Si3 0.063081 0.697329 0.993489
Si Si4 0.968589 0.511666 0.654509
Si Si5 0.337999 0.687317 0.443329
Si Si6 0.123447 0.811669 0.243342
Si Si7 0.119500 0.837127 0.683358
Si Si8 0.738179 0.058690 0.702311
O O1 0.895095 0.433429 0.168196
O O2 0.857871 0.821792 0.181839
O O3 0.979359 0.721692 0.061930
O O4 0.029461 0.688417 0.216141
O O5 0.161236 0.801673 0.031446
O O6 0.148267 0.983333 0.170611
O O7 0.320373 0.007080 0.122926
O O8 0.206348 0.186929 0.022194
O O9 0.035332 0.810111 0.905657
O O10 0.078494 0.453217 0.981870
O O11 0.878560 0.646993 0.624141
O O12 0.954373 0.455011 0.754026
O O13 0.060201 0.654171 0.637947
O O14 0.278475 0.523912 0.387863
O O15 0.209532 0.648673 0.245200
O O16 0.192155 0.712114 0.746398
#
# Coordination Sequence:
#
# PCOD9315399 Si02
#       8
#     4   4   4   4   4   4   4   4
#     4  11  24  40  69 101 141 179 228 281 359 409
#     4  10  25  42  72 101 137 181 232 286 345 417
#     4  10  25  48  69  99 147 184 226 292 356 421
#     4  11  26  50  69 104 141 187 237 291 354 412
#     4  11  25  48  69 101 143 183 235 292 350 417
#     4  11  23  43  67 103 140 180 228 291 345 414
#     4  12  25  48  74 103 138 190 241 294 345 414
#     4  12  25  43  71 102 137 184 235 291 342 414
#
# _framework density 22.809455
#
# number of rings (size 3 to 8) (size 9 to 14) (size 15 to 20)
#    0.000    1.000    3.750    1.500    7.000    1.000 
#    2.250    0.000    0.000    0.000    0.000    0.000 
#    0.000    0.000    0.000    0.000    0.000    0.000 
#
# Total GULP energy -178801.544306 kJ/mol
# GULP energy per Si atom -5587.548260 kJ/mol
# Density = 2.275754 g / cm^3
# Si number density = 22.809455 Si / 1000 Ang^3
#
#
#
# Elastic Constant Matrix: (Units=GPa)
#
#
# Indices 1 2 3 4 5 6 
#
# 1 42.5770 -8.4346 4.5814 0.0000 0.0000 0.0000
# 2 -8.4346 46.7964 13.1301 0.0000 0.0000 0.0000
# 3 4.5814 13.1301 59.2446 0.0000 0.0000 0.0000
# 4 0.0000 0.0000 0.0000 27.5161 0.0000 0.0000
# 5 0.0000 0.0000 0.0000 0.0000 31.4176 0.0000
# 6 0.0000 0.0000 0.0000 0.0000 0.0000 23.1461
#
#
#
# Elastic Compliance Matrix: (Units=1/GPa)
#
#
# Indices 1 2 3 4 5 6 
#
# 1 0.024883 0.005358 -0.003112 0.000000 0.000000 0.000000
# 2 0.005358 0.023940 -0.005720 0.000000 0.000000 0.000000
# 3 -0.003112 -0.005720 0.018388 0.000000 0.000000 0.000000
# 4 0.000000 0.000000 0.000000 0.036342 0.000000 0.000000
# 5 0.000000 0.000000 0.000000 0.000000 0.031829 0.000000
# 6 0.000000 0.000000 0.000000 0.000000 0.000000 0.043204
#
#
# Mechanical properties :
#
#
# Convention : Reuss Voigt Hill
#
# Bulk Modulus (GPa) = 16.59391 18.57465 17.58428
# Shear Modulus (GPa) = 24.31659 25.70537 25.01098
#
# Velocity S-wave (km/s) = 3.26862 3.36067 3.31496
# Velocity P-wave (km/s) = 4.64069 4.81870 4.73053
#
# Compressibility (1/GPa) = 0.06026307
#
# Stress axis : x y z
#
# Youngs Moduli (GPa) = 40.18787 41.77144 54.38475
#
# Poissons Ratio (x) = -0.22381 0.16923
# Poissons Ratio (y) = -0.21533 0.31108
# Poissons Ratio (z) = 0.12505 0.23893
#
# Static dielectric constant tensor:
#      x y z
#    x 1.849090 0.000000 0.000000 
#    y 0.000000 1.847870 0.000000 
#    z 0.000000 0.000000 1.939390 
# 
# From -- ./inp_files/6818.got.cif
#   From: 2010.05.17/outbox.cif.g08.bks.cpg/sg19_4_cif.got.tgz:6818.got - 2010.06.03 22:46:19.
