data_PCOD9315899
_publ_section_title
;
Structure prediction by ZEFSAII (Michael W. Deem and Ramdas Pophale) SiO2 
 PCOD9315899
Probable space group: P 21 21 21
;
_chemical_formula_sum "Si O2"
_cell_formula_units_Z 20
_cell_length_a 8.422018
_cell_length_b 18.618086
_cell_length_c 5.038382
_cell_angle_alpha 90.000000
_cell_angle_beta 90.000000
_cell_angle_gamma 90.000000
_cell_volume 790.027646
_symmetry_space_group_name_H-M "P 21 21 21"
_symmetry_group_IT_number 19
_symmetry_cell_setting 'orthorhombic'
loop_
_space_group_symop_operation_xyz
x,y,z
1/2-x,-y,1/2+z
1/2+x,1/2-y,-z
-x,1/2+y,1/2-z
loop_
_atom_site_type_symbol
_atom_site_label
_atom_site_fract_x
_atom_site_fract_y
_atom_site_fract_z
Si Si1 0.409883 0.405632 0.677681
Si Si2 0.854500 0.516382 0.454948
Si Si3 0.428238 0.546605 0.324854
Si Si4 0.772444 0.242136 0.348400
Si Si5 0.422088 0.192741 0.175820
O O1 0.435662 0.470433 0.471047
O O2 0.250526 0.425903 0.837815
O O3 0.364082 0.329878 0.553435
O O4 0.564605 0.409383 0.864083
O O5 0.747117 0.485440 0.221674
O O6 0.007703 0.467170 0.526160
O O7 0.540377 0.611555 0.415624
O O8 0.590730 0.222733 0.285108
O O9 0.801191 0.300155 0.577928
O O10 0.855631 0.265004 0.075339
#
# Coordination Sequence:
#
# PCOD9315899 Si02
#       5
#     4   4   4   4   4
#     4  11  25  46  77 103 143 190 243 286 351 430
#     4  12  26  42  66 110 144 176 226 302 360 398
#     4  11  25  46  77 103 143 190 243 286 351 430
#     4  11  27  48  73 104 144 192 235 289 354 424
#     4  11  27  48  73 104 144 192 235 289 354 424
#
# _framework density 25.315570999999998
#
# number of rings (size 3 to 8) (size 9 to 14) (size 15 to 20)
#    0.000    0.800    4.000    1.200    5.600    4.800 
#    0.000    0.000    0.000    0.000    0.000    0.000 
#    0.000    0.000    0.000    0.000    0.000    0.000 
#
# Total GULP energy -111987.665667 kJ/mol
# GULP energy per Si atom -5599.383283 kJ/mol
# Density = 2.525795 g / cm^3
# Si number density = 25.315571 Si / 1000 Ang^3
#
#
#
# Elastic Constant Matrix: (Units=GPa)
#
#
# Indices 1 2 3 4 5 6 
#
# 1 80.8421 17.3707 26.5251 0.0000 0.0000 0.0000
# 2 17.3707 65.5422 21.8625 0.0000 0.0000 0.0000
# 3 26.5251 21.8625 110.4486 0.0000 0.0000 0.0000
# 4 0.0000 0.0000 0.0000 36.3717 0.0000 0.0000
# 5 0.0000 0.0000 0.0000 0.0000 49.6203 0.0000
# 6 0.0000 0.0000 0.0000 0.0000 0.0000 38.2890
#
#
#
# Elastic Compliance Matrix: (Units=1/GPa)
#
#
# Indices 1 2 3 4 5 6 
#
# 1 0.013875 -0.002747 -0.002788 0.000000 0.000000 0.000000
# 2 -0.002747 0.016880 -0.002681 0.000000 0.000000 0.000000
# 3 -0.002788 -0.002681 0.010254 0.000000 0.000000 0.000000
# 4 0.000000 0.000000 0.000000 0.027494 0.000000 0.000000
# 5 0.000000 0.000000 0.000000 0.000000 0.020153 0.000000
# 6 0.000000 0.000000 0.000000 0.000000 0.000000 0.026117
#
#
# Mechanical properties :
#
#
# Convention : Reuss Voigt Hill
#
# Bulk Modulus (GPa) = 40.69155 43.14996 41.92075
# Shear Modulus (GPa) = 35.86821 37.59453 36.73137
#
# Velocity S-wave (km/s) = 3.76818 3.85780 3.81325
# Velocity P-wave (km/s) = 5.91953 6.07662 5.99859
#
# Compressibility (1/GPa) = 0.02457513
#
# Stress axis : x y z
#
# Youngs Moduli (GPa) = 72.07215 59.24212 97.51892
#
# Poissons Ratio (x) = 0.16275 0.27192
# Poissons Ratio (y) = 0.19800 0.26150
# Poissons Ratio (z) = 0.20097 0.15886
#
# Static dielectric constant tensor:
#      x y z
#    x 2.022890 0.000000 0.000000 
#    y 0.000000 2.018230 0.000000 
#    z 0.000000 0.000000 1.987470 
# 
# From -- ./inp_files/401.got.cif
#   From: 2010.05.17/outbox.cif.g08.bks.cpg/sg19_1_cif.got.tgz:401.got - 2010.06.03 22:46:19.
