data_PCOD9315064
_publ_section_title
;
Structure prediction by ZEFSAII (Michael W. Deem and Ramdas Pophale) SiO2 
 PCOD9315064
Probable space group: P 21 21 21
;
_chemical_formula_sum "Si O2"
_cell_formula_units_Z 32
_cell_length_a 5.492266
_cell_length_b 12.849943
_cell_length_c 20.123683
_cell_angle_alpha 90.000000
_cell_angle_beta 90.000000
_cell_angle_gamma 90.000000
_cell_volume 1420.235066
_symmetry_space_group_name_H-M "P 21 21 21"
_symmetry_group_IT_number 19
_symmetry_cell_setting 'orthorhombic'
loop_
_space_group_symop_operation_xyz
x,y,z
1/2-x,-y,1/2+z
1/2+x,1/2-y,-z
-x,1/2+y,1/2-z
loop_
_atom_site_type_symbol
_atom_site_label
_atom_site_fract_x
_atom_site_fract_y
_atom_site_fract_z
Si Si1 0.521526 0.089826 0.065392
Si Si2 0.949005 0.544799 0.257866
Si Si3 0.500236 0.161257 0.924643
Si Si4 0.594681 0.749264 0.959037
Si Si5 0.617634 0.414070 0.166518
Si Si6 0.327360 0.220014 0.174855
Si Si7 0.262792 0.446068 0.628188
Si Si8 0.987946 0.477302 0.408274
O O1 0.520204 0.147167 0.136621
O O2 0.266361 0.026297 0.064881
O O3 0.515269 0.168233 0.003178
O O4 0.765929 0.021411 0.058119
O O5 0.796548 0.452627 0.223203
O O6 0.795595 0.650365 0.269079
O O7 0.013816 0.507315 0.331133
O O8 0.158492 0.566252 0.204809
O O9 0.234791 0.150273 0.893570
O O10 0.635479 0.250486 0.883504
O O11 0.615180 0.049399 0.903511
O O12 0.663786 0.846922 0.913287
O O13 0.535400 0.645206 0.918339
O O14 0.342970 0.771265 0.998813
O O15 0.427653 0.331853 0.197164
O O16 0.515908 0.519063 0.133083
#
# Coordination Sequence:
#
# PCOD9315064 Si02
#       8
#     4   4   4   4   4   4   4   4
#     4  11  26  44  73 102 149 182 234 303 363 432
#     4  10  25  45  67 101 142 189 240 304 365 427
#     4  10  23  42  66 102 134 181 230 294 363 424
#     4  12  27  46  75 108 146 196 252 299 375 446
#     4  10  24  43  71 100 140 186 243 295 366 438
#     4  10  25  41  69 104 138 187 239 293 363 443
#     4  10  24  44  70  98 141 186 239 304 354 432
#     4  11  26  47  69 107 144 193 239 300 365 432
#
# _framework density 22.531480999999999
#
# number of rings (size 3 to 8) (size 9 to 14) (size 15 to 20)
#    0.000    1.500    0.000    2.250   17.500    4.000 
#    0.000    0.000    0.000    0.000    0.000    0.000 
#    0.000    0.000    0.000    0.000    0.000    0.000 
#
# Total GULP energy -178809.469041 kJ/mol
# GULP energy per Si atom -5587.795908 kJ/mol
# Density = 2.248020 g / cm^3
# Si number density = 22.531481 Si / 1000 Ang^3
#
#
#
# Elastic Constant Matrix: (Units=GPa)
#
#
# Indices 1 2 3 4 5 6 
#
# 1 100.4047 31.1950 27.6883 0.0000 0.0000 0.0000
# 2 31.1950 105.0335 9.0883 0.0000 0.0000 0.0000
# 3 27.6883 9.0883 67.4033 0.0000 0.0000 0.0000
# 4 0.0000 0.0000 0.0000 29.5636 0.0000 0.0000
# 5 0.0000 0.0000 0.0000 0.0000 17.1956 0.0000
# 6 0.0000 0.0000 0.0000 0.0000 0.0000 36.5412
#
#
#
# Elastic Compliance Matrix: (Units=1/GPa)
#
#
# Indices 1 2 3 4 5 6 
#
# 1 0.012230 -0.003235 -0.004588 0.000000 0.000000 0.000000
# 2 -0.003235 0.010489 -0.000085 0.000000 0.000000 0.000000
# 3 -0.004588 -0.000085 0.016732 0.000000 0.000000 0.000000
# 4 0.000000 0.000000 0.000000 0.033825 0.000000 0.000000
# 5 0.000000 0.000000 0.000000 0.000000 0.058154 0.000000
# 6 0.000000 0.000000 0.000000 0.000000 0.000000 0.027366
#
#
# Mechanical properties :
#
#
# Convention : Reuss Voigt Hill
#
# Bulk Modulus (GPa) = 42.31082 45.42054 43.86568
# Shear Modulus (GPa) = 27.39844 30.31806 28.85825
#
# Velocity S-wave (km/s) = 3.49091 3.67220 3.58270
# Velocity P-wave (km/s) = 5.92182 6.17920 6.05188
#
# Compressibility (1/GPa) = 0.02363461
#
# Stress axis : x y z
#
# Youngs Moduli (GPa) = 81.76597 95.33746 59.76524
#
# Poissons Ratio (x) = 0.30845 0.27418
# Poissons Ratio (y) = 0.26454 0.00509
# Poissons Ratio (z) = 0.37512 0.00813
#
# Static dielectric constant tensor:
#      x y z
#    x 1.951310 0.000000 0.000000 
#    y 0.000000 1.811870 0.000000 
#    z 0.000000 0.000000 1.803690 
# 
# From -- ./inp_files/6937.got.cif
#   From: 2010.05.17/outbox.cif.g08.bks.cpg/sg19_4_cif.got.tgz:6937.got - 2010.06.03 22:46:19.
