data_PCOD9315499
_publ_section_title
;
Structure prediction by ZEFSAII (Michael W. Deem and Ramdas Pophale) SiO2 
 PCOD9315499
Probable space group: P 21 21 21
;
_chemical_formula_sum "Si O2"
_cell_formula_units_Z 32
_cell_length_a 12.942356
_cell_length_b 5.509778
_cell_length_c 17.870254
_cell_angle_alpha 90.000000
_cell_angle_beta 90.000000
_cell_angle_gamma 90.000000
_cell_volume 1274.319027
_symmetry_space_group_name_H-M "P 21 21 21"
_symmetry_group_IT_number 19
_symmetry_cell_setting 'orthorhombic'
loop_
_space_group_symop_operation_xyz
x,y,z
1/2-x,-y,1/2+z
1/2+x,1/2-y,-z
-x,1/2+y,1/2-z
loop_
_atom_site_type_symbol
_atom_site_label
_atom_site_fract_x
_atom_site_fract_y
_atom_site_fract_z
Si Si1 0.223408 0.345912 0.159012
Si Si2 0.752606 0.331399 0.997839
Si Si3 0.533100 0.833447 0.870011
Si Si4 0.460223 0.768724 0.409768
Si Si5 0.198049 0.407912 0.789870
Si Si6 0.255647 0.665631 0.935871
Si Si7 0.010911 0.732138 0.963059
Si Si8 0.118328 0.967114 0.261998
O O1 0.250819 0.167659 0.091646
O O2 0.145580 0.542463 0.122818
O O3 0.313184 0.466334 0.209054
O O4 0.156584 0.207681 0.220948
O O5 0.635044 0.305306 0.030913
O O6 0.795408 0.576634 0.034678
O O7 0.799936 0.074027 0.024046
O O8 0.446820 0.012029 0.837450
O O9 0.498662 0.726148 0.948561
O O10 0.546614 0.650069 0.801738
O O11 0.402281 0.701615 0.331800
O O12 0.525884 0.533702 0.434934
O O13 0.515631 0.029463 0.415059
O O14 0.281571 0.196642 0.777645
O O15 0.250113 0.597720 0.848597
O O16 0.134005 0.692854 0.953330
#
# Coordination Sequence:
#
# PCOD9315499 Si02
#       8
#     4   4   4   4   4   4   4   4
#     4  11  20  32  46  71 100 141 181 226 248 313
#     4   9  17  29  49  65  86 121 177 212 255 298
#     4  11  20  33  43  70  99 147 190 219 242 305
#     4   9  17  32  49  66  85 123 179 227 261 305
#     4   9  22  31  47  70  97 134 181 227 279 301
#     4   9  17  32  47  65  86 124 176 222 258 308
#     4   9  17  29  52  62  83 123 181 221 247 292
#     4  11  22  30  45  65 108 145 181 222 256 294
#
# _framework density 25.111450999999999
#
# number of rings (size 3 to 8) (size 9 to 14) (size 15 to 20)
#    0.000    2.500    3.750    1.500    8.750    0.000 
#    0.000    0.000    0.000    0.000    0.000    0.000 
#    0.000    0.000    0.000    0.000  266.000   71.000 
#
# Total GULP energy -178766.066745 kJ/mol
# GULP energy per Si atom -5586.439586 kJ/mol
# Density = 2.505430 g / cm^3
# Si number density = 25.111451 Si / 1000 Ang^3
#
#
#
# Elastic Constant Matrix: (Units=GPa)
#
#
# Indices 1 2 3 4 5 6 
#
# 1 47.8612 6.7325 22.3264 0.0000 0.0000 0.0000
# 2 6.7325 166.0847 31.1849 0.0000 0.0000 0.0000
# 3 22.3264 31.1849 93.0742 0.0000 0.0000 0.0000
# 4 0.0000 0.0000 0.0000 21.6292 0.0000 0.0000
# 5 0.0000 0.0000 0.0000 0.0000 31.4067 0.0000
# 6 0.0000 0.0000 0.0000 0.0000 0.0000 1.2697
#
#
#
# Elastic Compliance Matrix: (Units=1/GPa)
#
#
# Indices 1 2 3 4 5 6 
#
# 1 0.023528 0.000113 -0.005682 0.000000 0.000000 0.000000
# 2 0.000113 0.006426 -0.002180 0.000000 0.000000 0.000000
# 3 -0.005682 -0.002180 0.012837 0.000000 0.000000 0.000000
# 4 0.000000 0.000000 0.000000 0.046234 0.000000 0.000000
# 5 0.000000 0.000000 0.000000 0.000000 0.031840 0.000000
# 6 0.000000 0.000000 0.000000 0.000000 0.000000 0.787563
#
#
# Mechanical properties :
#
#
# Convention : Reuss Voigt Hill
#
# Bulk Modulus (GPa) = 36.63816 47.50085 42.06951
# Shear Modulus (GPa) = 5.35891 27.31288 16.33590
#
# Velocity S-wave (km/s) = 1.46242 3.30156 2.55333
# Velocity P-wave (km/s) = 4.18013 5.78712 5.04798
#
# Compressibility (1/GPa) = 0.02729394
#
# Stress axis : x y z
#
# Youngs Moduli (GPa) = 42.50204 155.62293 77.89680
#
# Poissons Ratio (x) = -0.01760 0.44259
# Poissons Ratio (y) = -0.00481 0.16982
# Poissons Ratio (z) = 0.24149 0.33928
#
# Static dielectric constant tensor:
#      x y z
#    x 2.004130 0.000000 0.000000 
#    y 0.000000 2.122430 0.000000 
#    z 0.000000 0.000000 1.948240 
# 
# From -- ./inp_files/6842.got.cif
#   From: 2010.05.17/outbox.cif.g08.bks.cpg/sg19_4_cif.got.tgz:6842.got - 2010.06.03 22:46:19.
