data_PCOD9315075
_publ_section_title
;
Structure prediction by ZEFSAII (Michael W. Deem and Ramdas Pophale) SiO2 
 PCOD9315075
Probable space group: P 21 21 21
;
_chemical_formula_sum "Si O2"
_cell_formula_units_Z 12
_cell_length_a 4.808803
_cell_length_b 10.792569
_cell_length_c 10.082938
_cell_angle_alpha 90.000000
_cell_angle_beta 90.000000
_cell_angle_gamma 90.000000
_cell_volume 523.297809
_symmetry_space_group_name_H-M "P 21 21 21"
_symmetry_group_IT_number 19
_symmetry_cell_setting 'orthorhombic'
loop_
_space_group_symop_operation_xyz
x,y,z
1/2-x,-y,1/2+z
1/2+x,1/2-y,-z
-x,1/2+y,1/2-z
loop_
_atom_site_type_symbol
_atom_site_label
_atom_site_fract_x
_atom_site_fract_y
_atom_site_fract_z
Si Si1 0.257571 0.183650 0.162532
Si Si2 0.257708 0.415788 0.980082
Si Si3 0.014603 0.681018 0.051178
O O1 0.142963 0.175599 0.309235
O O2 0.221642 0.321705 0.103259
O O3 0.073273 0.094904 0.067921
O O4 0.572050 0.141158 0.139041
O O5 0.152420 0.551013 0.013441
O O6 0.771781 0.723014 0.950189
#
# Coordination Sequence:
#
# PCOD9315075 Si02
#       3
#     4   4   4
#     4  10  23  45  64  95 124 171 210 259 320 378
#     4  10  23  42  69  89 130 168 208 262 321 373
#     4  12  26  41  67 100 128 165 216 265 317 375
#
# _framework density 22.931491999999999
#
# number of rings (size 3 to 8) (size 9 to 14) (size 15 to 20)
#    0.000    1.333    0.000    4.000    9.333    0.000 
#    0.000    0.000    0.000    0.000    0.000    0.000 
#    0.000    0.000    0.000    0.000    0.000    0.000 
#
# Total GULP energy -67208.935691 kJ/mol
# GULP energy per Si atom -5600.744641 kJ/mol
# Density = 2.287930 g / cm^3
# Si number density = 22.931492 Si / 1000 Ang^3
#
#
#
# Elastic Constant Matrix: (Units=GPa)
#
#
# Indices 1 2 3 4 5 6 
#
# 1 66.9293 -5.7514 -24.6964 0.0000 0.0000 0.0000
# 2 -5.7514 96.4673 6.4792 0.0000 0.0000 0.0000
# 3 -24.6964 6.4792 54.3437 0.0000 0.0000 0.0000
# 4 0.0000 0.0000 0.0000 7.7708 0.0000 0.0000
# 5 0.0000 0.0000 0.0000 0.0000 23.1135 0.0000
# 6 0.0000 0.0000 0.0000 0.0000 0.0000 15.9944
#
#
#
# Elastic Compliance Matrix: (Units=1/GPa)
#
#
# Indices 1 2 3 4 5 6 
#
# 1 0.017978 0.000527 0.008107 0.000000 0.000000 0.000000
# 2 0.000527 0.010465 -0.001008 0.000000 0.000000 0.000000
# 3 0.008107 -0.001008 0.022206 0.000000 0.000000 0.000000
# 4 0.000000 0.000000 0.000000 0.128687 0.000000 0.000000
# 5 0.000000 0.000000 0.000000 0.000000 0.043265 0.000000
# 6 0.000000 0.000000 0.000000 0.000000 0.000000 0.062522
#
#
# Mechanical properties :
#
#
# Convention : Reuss Voigt Hill
#
# Bulk Modulus (GPa) = 15.17407 18.86702 17.02054
# Shear Modulus (GPa) = 17.13287 25.48969 21.31128
#
# Velocity S-wave (km/s) = 2.73634 3.33762 3.05182
# Velocity P-wave (km/s) = 4.07614 4.80608 4.45608
#
# Compressibility (1/GPa) = 0.06590191
#
# Stress axis : x y z
#
# Youngs Moduli (GPa) = 55.62379 95.55336 45.03316
#
# Poissons Ratio (x) = -0.05039 -0.36509
# Poissons Ratio (y) = -0.02933 0.04540
# Poissons Ratio (z) = -0.45095 0.09633
#
# Static dielectric constant tensor:
#      x y z
#    x 1.810360 0.000000 0.000000 
#    y 0.000000 1.829660 0.000000 
#    z 0.000000 0.000000 1.845030 
# 
# From -- ./inp_files/249.got.cif
#   From: 2010.05.17/outbox.cif.g08.bks.cpg/sg19_1_cif.got.tgz:249.got - 2010.06.03 22:46:19.
