data_PCOD9315639
_publ_section_title
;
Structure prediction by ZEFSAII (Michael W. Deem and Ramdas Pophale) SiO2 
 PCOD9315639
Probable space group: P 21 21 21
;
_chemical_formula_sum "Si O2"
_cell_formula_units_Z 28
_cell_length_a 7.184586
_cell_length_b 6.895167
_cell_length_c 21.851991
_cell_angle_alpha 90.000000
_cell_angle_beta 90.000000
_cell_angle_gamma 90.000000
_cell_volume 1082.524040
_symmetry_space_group_name_H-M "P 21 21 21"
_symmetry_group_IT_number 19
_symmetry_cell_setting 'orthorhombic'
loop_
_space_group_symop_operation_xyz
x,y,z
1/2-x,-y,1/2+z
1/2+x,1/2-y,-z
-x,1/2+y,1/2-z
loop_
_atom_site_type_symbol
_atom_site_label
_atom_site_fract_x
_atom_site_fract_y
_atom_site_fract_z
Si Si1 0.028592 0.800474 0.615425
Si Si2 0.677016 0.070388 0.906379
Si Si3 0.342319 0.915117 0.496697
Si Si4 0.278310 0.122764 0.245970
Si Si5 0.104264 0.770147 0.307943
Si Si6 0.678336 0.890508 0.145299
Si Si7 0.442838 0.765204 0.955838
O O1 0.126932 0.583378 0.626287
O O2 0.111760 0.870657 0.682939
O O3 0.889849 0.714665 0.561719
O O4 0.981259 0.031605 0.600579
O O5 0.504648 0.120553 0.862619
O O6 0.635559 0.873905 0.940305
O O7 0.708434 0.270812 0.946544
O O8 0.174864 0.059746 0.484119
O O9 0.511443 0.058714 0.513741
O O10 0.367044 0.261150 0.296719
O O11 0.065441 0.196722 0.233832
O O12 0.243699 0.911364 0.273448
O O13 0.227172 0.594058 0.333323
O O14 0.833620 0.783411 0.106052
#
# Coordination Sequence:
#
# PCOD9315639 Si02
#       7
#     4   4   4   4   4   4   4
#     4  11  29  46  73 109 159 199 252 329 390 467
#     4  11  24  49  74 107 150 200 259 325 385 475
#     4  12  27  47  74 112 154 205 262 327 391 482
#     4  11  25  47  74 108 149 199 259 318 399 467
#     4  11  22  47  76 108 143 199 258 327 383 464
#     4  12  26  46  73 112 149 200 257 323 388 468
#     4  12  27  46  80 108 156 206 263 323 408 467
#
# _framework density 25.865476999999998
#
# number of rings (size 3 to 8) (size 9 to 14) (size 15 to 20)
#    0.000    0.571    4.286    2.571    8.000    0.000 
#    0.000    0.000    0.000    0.000    0.000    0.000 
#    0.000    0.000    0.000    0.000    0.000    0.000 
#
# Total GULP energy -156035.254296 kJ/mol
# GULP energy per Si atom -5572.687653 kJ/mol
# Density = 2.580661 g / cm^3
# Si number density = 25.865477 Si / 1000 Ang^3
#
#
#
# Elastic Constant Matrix: (Units=GPa)
#
#
# Indices 1 2 3 4 5 6 
#
# 1 48.5241 28.3935 57.2006 0.0000 0.0000 0.0000
# 2 28.3935 152.4902 97.5748 0.0000 0.0000 0.0000
# 3 57.2006 97.5748 139.1966 0.0000 0.0000 0.0000
# 4 0.0000 0.0000 0.0000 21.8432 0.0000 0.0000
# 5 0.0000 0.0000 0.0000 0.0000 50.9204 0.0000
# 6 0.0000 0.0000 0.0000 0.0000 0.0000 55.5758
#
#
#
# Elastic Compliance Matrix: (Units=1/GPa)
#
#
# Indices 1 2 3 4 5 6 
#
# 1 0.042754 0.005950 -0.021740 0.000000 0.000000 0.000000
# 2 0.005950 0.012720 -0.011362 0.000000 0.000000 0.000000
# 3 -0.021740 -0.011362 0.024082 0.000000 0.000000 0.000000
# 4 0.000000 0.000000 0.000000 0.045781 0.000000 0.000000
# 5 0.000000 0.000000 0.000000 0.000000 0.019638 0.000000
# 6 0.000000 0.000000 0.000000 0.000000 0.000000 0.017993
#
#
# Mechanical properties :
#
#
# Convention : Reuss Voigt Hill
#
# Bulk Modulus (GPa) = 39.59913 78.50540 59.05227
# Shear Modulus (GPa) = 22.15435 36.13736 29.14586
#
# Velocity S-wave (km/s) = 2.92982 3.74187 3.36046
# Velocity P-wave (km/s) = 5.17571 7.00615 6.15931
#
# Compressibility (1/GPa) = 0.02525308
#
# Stress axis : x y z
#
# Youngs Moduli (GPa) = 23.38965 78.61703 41.52460
#
# Poissons Ratio (x) = -0.46779 0.90275
# Poissons Ratio (y) = -0.13917 0.47179
# Poissons Ratio (z) = 0.50849 0.89321
#
# Static dielectric constant tensor:
#      x y z
#    x 2.951610 0.000000 0.000000 
#    y 0.000000 1.914050 0.000000 
#    z 0.000000 0.000000 1.666880 
# 
# From -- ./inp_files/7334.got.cif
#   From: 2010.05.17/outbox.cif.g08.bks.cpg/sg19_4_cif.got.tgz:7334.got - 2010.06.03 22:46:19.
