data_PCOD9315771
_publ_section_title
;
Structure prediction by ZEFSAII (Michael W. Deem and Ramdas Pophale) SiO2 
 PCOD9315771
Probable space group: P 21 21 21
;
_chemical_formula_sum "Si O2"
_cell_formula_units_Z 32
_cell_length_a 6.624578
_cell_length_b 8.194380
_cell_length_c 25.959981
_cell_angle_alpha 90.000000
_cell_angle_beta 90.000000
_cell_angle_gamma 90.000000
_cell_volume 1409.219642
_symmetry_space_group_name_H-M "P 21 21 21"
_symmetry_group_IT_number 19
_symmetry_cell_setting 'orthorhombic'
loop_
_space_group_symop_operation_xyz
x,y,z
1/2-x,-y,1/2+z
1/2+x,1/2-y,-z
-x,1/2+y,1/2-z
loop_
_atom_site_type_symbol
_atom_site_label
_atom_site_fract_x
_atom_site_fract_y
_atom_site_fract_z
Si Si1 0.268110 0.966038 0.777528
Si Si2 0.182015 0.841581 0.371128
Si Si3 0.233661 0.834267 0.123143
Si Si4 0.535238 0.028211 0.421251
Si Si5 0.726163 0.507179 0.987173
Si Si6 0.973716 0.143871 0.710552
Si Si7 0.425054 0.478354 0.810413
Si Si8 0.407193 0.639969 0.528300
O O1 0.384190 0.030546 0.827209
O O2 0.136057 0.115968 0.755191
O O3 0.110167 0.826098 0.791381
O O4 0.416958 0.913145 0.731862
O O5 0.146193 0.662334 0.348953
O O6 0.047205 0.853581 0.421478
O O7 0.407113 0.901799 0.386432
O O8 0.332068 0.658432 0.110538
O O9 0.413883 0.910767 0.158006
O O10 0.186120 0.911687 0.067641
O O11 0.036909 0.873962 0.158403
O O12 0.371677 0.097669 0.463197
O O13 0.699168 0.938393 0.455713
O O14 0.638451 0.322985 0.989351
O O15 0.966311 0.476077 0.990658
O O16 0.773033 0.040083 0.718170
#
# Coordination Sequence:
#
# PCOD9315771 Si02
#       8
#     4   4   4   4   4   4   4   4
#     4  11  24  45  67 104 137 181 236 287 351 419
#     4  11  24  45  68 103 135 183 236 286 353 423
#     4  11  26  45  65 105 139 181 230 288 356 419
#     4  11  26  43  69  99 140 183 229 290 350 413
#     4  11  24  44  69 102 137 179 235 282 347 418
#     4  11  25  45  69  97 141 181 228 294 347 419
#     4  11  25  42  74 100 137 185 231 284 356 419
#     4  11  24  43  71  98 134 185 231 285 346 418
#
# _framework density 22.707601
#
# number of rings (size 3 to 8) (size 9 to 14) (size 15 to 20)
#    0.000    1.000    3.750    1.500    5.250    4.000 
#    0.000    0.000    0.000    0.000    0.000    0.000 
#    0.000    0.000    0.000    0.000    0.000    0.000 
#
# Total GULP energy -178702.378534 kJ/mol
# GULP energy per Si atom -5584.449329 kJ/mol
# Density = 2.265592 g / cm^3
# Si number density = 22.707601 Si / 1000 Ang^3
#
#
#
# Elastic Constant Matrix: (Units=GPa)
#
#
# Indices 1 2 3 4 5 6 
#
# 1 86.2832 15.8971 9.1905 0.0000 0.0000 0.0000
# 2 15.8971 37.9656 -2.2362 0.0000 0.0000 0.0000
# 3 9.1905 -2.2362 70.1573 0.0000 0.0000 0.0000
# 4 0.0000 0.0000 0.0000 32.4963 0.0000 0.0000
# 5 0.0000 0.0000 0.0000 0.0000 460.8999 0.0000
# 6 0.0000 0.0000 0.0000 0.0000 0.0000 35.0738
#
#
#
# Elastic Compliance Matrix: (Units=1/GPa)
#
#
# Indices 1 2 3 4 5 6 
#
# 1 0.012794 -0.005466 -0.001850 0.000000 0.000000 0.000000
# 2 -0.005466 0.028724 0.001632 0.000000 0.000000 0.000000
# 3 -0.001850 0.001632 0.014548 0.000000 0.000000 0.000000
# 4 0.000000 0.000000 0.000000 0.030773 0.000000 0.000000
# 5 0.000000 0.000000 0.000000 0.000000 0.002170 0.000000
# 6 0.000000 0.000000 0.000000 0.000000 0.000000 0.028511
#
#
# Mechanical properties :
#
#
# Convention : Reuss Voigt Hill
#
# Bulk Modulus (GPa) = 22.37281 26.67877 24.52579
# Shear Modulus (GPa) = 34.77327 117.13096 75.95212
#
# Velocity S-wave (km/s) = 3.91749 7.18987 5.78969
# Velocity P-wave (km/s) = 5.50784 8.98332 7.45105
#
# Compressibility (1/GPa) = 0.04469711
#
# Stress axis : x y z
#
# Youngs Moduli (GPa) = 78.16220 34.81349 68.73760
#
# Poissons Ratio (x) = 0.19029 0.12718
# Poissons Ratio (y) = 0.42724 -0.11215
# Poissons Ratio (z) = 0.14462 -0.05680
#
# Static dielectric constant tensor:
#      x y z
#    x 1.839790 0.000000 0.000000 
#    y 0.000000 1.779610 0.000000 
#    z 0.000000 0.000000 1.862920 
# 
# From -- ./inp_files/7534.got.cif
#   From: 2010.05.17/outbox.cif.g08.bks.cpg/sg19_4_cif.got.tgz:7534.got - 2010.06.03 22:46:19.
