data_PCOD9315624
_publ_section_title
;
Structure prediction by ZEFSAII (Michael W. Deem and Ramdas Pophale) SiO2 
 PCOD9315624
Probable space group: P 21 21 21
;
_chemical_formula_sum "Si O2"
_cell_formula_units_Z 28
_cell_length_a 12.852897
_cell_length_b 6.636436
_cell_length_c 13.586662
_cell_angle_alpha 90.000000
_cell_angle_beta 90.000000
_cell_angle_gamma 90.000000
_cell_volume 1158.907329
_symmetry_space_group_name_H-M "P 21 21 21"
_symmetry_group_IT_number 19
_symmetry_cell_setting 'orthorhombic'
loop_
_space_group_symop_operation_xyz
x,y,z
1/2-x,-y,1/2+z
1/2+x,1/2-y,-z
-x,1/2+y,1/2-z
loop_
_atom_site_type_symbol
_atom_site_label
_atom_site_fract_x
_atom_site_fract_y
_atom_site_fract_z
Si Si1 0.837832 0.312850 0.071820
Si Si2 0.596267 0.928603 0.177716
Si Si3 0.133499 0.226812 0.655720
Si Si4 0.017888 0.568428 0.112889
Si Si5 0.256931 0.097879 0.269527
Si Si6 0.767925 0.014574 0.478717
Si Si7 0.583014 0.074042 0.689902
O O1 0.945203 0.424831 0.048901
O O2 0.768307 0.471719 0.131195
O O3 0.867019 0.122368 0.141325
O O4 0.778316 0.209896 0.982309
O O5 0.476996 0.887185 0.148084
O O6 0.636621 0.720980 0.224445
O O7 0.616497 0.107947 0.256120
O O8 0.671650 0.953984 0.082439
O O9 0.224105 0.071360 0.687950
O O10 0.176266 0.339158 0.558273
O O11 0.980963 0.796957 0.110566
O O12 0.138485 0.544824 0.095671
O O13 0.004411 0.492385 0.225059
O O14 0.169070 0.271250 0.267305
#
# Coordination Sequence:
#
# PCOD9315624 Si02
#       7
#     4   4   4   4   4   4   4
#     4  11  24  44  69 105 148 183 243 308 370 441
#     4  12  26  50  77 108 156 200 256 310 381 465
#     4  12  27  49  78 110 149 211 253 311 388 460
#     4  11  25  43  74 103 144 195 242 307 374 443
#     4  11  22  46  76  99 147 197 241 304 370 448
#     4  12  28  47  72 115 152 189 263 314 375 454
#     4  11  22  45  72 106 138 189 240 302 374 441
#
# _framework density 24.160689000000001
#
# number of rings (size 3 to 8) (size 9 to 14) (size 15 to 20)
#    0.000    0.571    5.714    1.714    4.000    2.286 
#    7.714    0.000    0.000    0.000    0.000    0.000 
#    0.000    0.000    0.000    0.000    0.000    0.000 
#
# Total GULP energy -156584.872825 kJ/mol
# GULP energy per Si atom -5592.316887 kJ/mol
# Density = 2.410570 g / cm^3
# Si number density = 24.160689 Si / 1000 Ang^3
#
#
#
# Elastic Constant Matrix: (Units=GPa)
#
#
# Indices 1 2 3 4 5 6 
#
# 1 111.6682 37.3670 31.0804 0.0000 0.0000 0.0000
# 2 37.3670 127.1408 48.3637 0.0000 0.0000 0.0000
# 3 31.0804 48.3637 77.2221 0.0000 0.0000 0.0000
# 4 0.0000 0.0000 0.0000 44.2330 0.0000 0.0000
# 5 0.0000 0.0000 0.0000 0.0000 23.0040 0.0000
# 6 0.0000 0.0000 0.0000 0.0000 0.0000 44.1321
#
#
#
# Elastic Compliance Matrix: (Units=1/GPa)
#
#
# Indices 1 2 3 4 5 6 
#
# 1 0.010433 -0.001928 -0.002991 0.000000 0.000000 0.000000
# 2 -0.001928 0.010682 -0.005914 0.000000 0.000000 0.000000
# 3 -0.002991 -0.005914 0.017857 0.000000 0.000000 0.000000
# 4 0.000000 0.000000 0.000000 0.022608 0.000000 0.000000
# 5 0.000000 0.000000 0.000000 0.000000 0.043471 0.000000
# 6 0.000000 0.000000 0.000000 0.000000 0.000000 0.022659
#
#
# Mechanical properties :
#
#
# Convention : Reuss Voigt Hill
#
# Bulk Modulus (GPa) = 57.78649 61.07259 59.42954
# Shear Modulus (GPa) = 32.22801 35.55514 33.89157
#
# Velocity S-wave (km/s) = 3.65623 3.84032 3.74940
# Velocity P-wave (km/s) = 6.46479 6.70795 6.58749
#
# Compressibility (1/GPa) = 0.01730508
#
# Stress axis : x y z
#
# Youngs Moduli (GPa) = 95.85009 93.61911 55.99948
#
# Poissons Ratio (x) = 0.18053 0.16751
# Poissons Ratio (y) = 0.18484 0.33116
# Poissons Ratio (z) = 0.28672 0.55363
#
# Static dielectric constant tensor:
#      x y z
#    x 1.948050 0.000000 0.000000 
#    y 0.000000 1.897380 0.000000 
#    z 0.000000 0.000000 2.038710 
# 
# From -- ./inp_files/6238.got.cif
#   From: 2010.05.17/outbox.cif.g08.bks.cpg/sg19_4_cif.got.tgz:6238.got - 2010.06.03 22:46:19.
