data_PCOD9315756
_publ_section_title
;
Structure prediction by ZEFSAII (Michael W. Deem and Ramdas Pophale) SiO2 
 PCOD9315756
Probable space group: P 21 21 21
;
_chemical_formula_sum "Si O2"
_cell_formula_units_Z 32
_cell_length_a 16.881897
_cell_length_b 4.915319
_cell_length_c 15.641724
_cell_angle_alpha 90.000000
_cell_angle_beta 90.000000
_cell_angle_gamma 90.000000
_cell_volume 1297.948835
_symmetry_space_group_name_H-M "P 21 21 21"
_symmetry_group_IT_number 19
_symmetry_cell_setting 'orthorhombic'
loop_
_space_group_symop_operation_xyz
x,y,z
1/2-x,-y,1/2+z
1/2+x,1/2-y,-z
-x,1/2+y,1/2-z
loop_
_atom_site_type_symbol
_atom_site_label
_atom_site_fract_x
_atom_site_fract_y
_atom_site_fract_z
Si Si1 0.029241 0.715981 0.706441
Si Si2 0.664136 0.687866 0.519163
Si Si3 0.055307 0.720262 0.232705
Si Si4 0.273496 0.449059 0.760076
Si Si5 0.246592 0.708652 0.933765
Si Si6 0.988283 0.889197 0.516724
Si Si7 0.203038 0.920176 0.673064
Si Si8 0.594584 0.612527 0.959491
O O1 0.995212 0.802238 0.614860
O O2 0.120622 0.801967 0.709000
O O3 0.016595 0.399317 0.724291
O O4 0.706494 0.486625 0.585388
O O5 0.570646 0.686713 0.527343
O O6 0.687106 0.556992 0.427508
O O7 0.697946 0.989592 0.519919
O O8 0.135024 0.621665 0.280466
O O9 0.087292 0.812028 0.139619
O O10 0.993153 0.471642 0.227535
O O11 0.270041 0.697054 0.692845
O O12 0.228758 0.196817 0.717741
O O13 0.229282 0.560536 0.844315
O O14 0.172627 0.787657 0.991860
O O15 0.919964 0.705663 0.474674
O O16 0.973457 0.207482 0.504996
#
# Coordination Sequence:
#
# PCOD9315756 Si02
#       8
#     4   4   4   4   4   4   4   4
#     4  11  24  41  69 102 147 187 236 292 363 439
#     4  11  24  47  71 101 139 193 240 293 368 439
#     4  12  28  48  76 106 146 197 245 308 366 438
#     4  12  27  46  74 109 143 188 247 302 372 440
#     4  12  27  44  77 106 146 188 242 309 368 442
#     4  11  26  43  73 103 143 189 238 298 363 440
#     4  11  24  45  72  98 143 191 235 298 359 447
#     4  12  26  46  72 107 149 189 243 306 369 437
#
# _framework density 24.654284000000001
#
# number of rings (size 3 to 8) (size 9 to 14) (size 15 to 20)
#    0.000    0.500    0.000    7.500   10.500    4.000 
#    0.000    0.000    0.000    0.000    0.000    0.000 
#    0.000    0.000    0.000    0.000    0.000    0.000 
#
# Total GULP energy -179476.208194 kJ/mol
# GULP energy per Si atom -5608.631506 kJ/mol
# Density = 2.459817 g / cm^3
# Si number density = 24.654284 Si / 1000 Ang^3
#
#
#
# Elastic Constant Matrix: (Units=GPa)
#
#
# Indices 1 2 3 4 5 6 
#
# 1 86.9472 22.2801 20.3018 0.0000 0.0000 0.0000
# 2 22.2801 117.2285 1.7303 0.0000 0.0000 0.0000
# 3 20.3018 1.7303 68.9790 0.0000 0.0000 0.0000
# 4 0.0000 0.0000 0.0000 34.3117 0.0000 0.0000
# 5 0.0000 0.0000 0.0000 0.0000 26.2167 0.0000
# 6 0.0000 0.0000 0.0000 0.0000 0.0000 44.7397
#
#
#
# Elastic Compliance Matrix: (Units=1/GPa)
#
#
# Indices 1 2 3 4 5 6 
#
# 1 0.012999 -0.002415 -0.003765 0.000000 0.000000 0.000000
# 2 -0.002415 0.008982 0.000485 0.000000 0.000000 0.000000
# 3 -0.003765 0.000485 0.015593 0.000000 0.000000 0.000000
# 4 0.000000 0.000000 0.000000 0.029145 0.000000 0.000000
# 5 0.000000 0.000000 0.000000 0.000000 0.038144 0.000000
# 6 0.000000 0.000000 0.000000 0.000000 0.000000 0.022352
#
#
# Mechanical properties :
#
#
# Convention : Reuss Voigt Hill
#
# Bulk Modulus (GPa) = 38.19001 40.19766 39.19384
# Shear Modulus (GPa) = 33.93687 36.30980 35.12334
#
# Velocity S-wave (km/s) = 3.71416 3.84182 3.77853
# Velocity P-wave (km/s) = 5.82384 6.00161 5.91340
#
# Compressibility (1/GPa) = 0.02618486
#
# Stress axis : x y z
#
# Youngs Moduli (GPa) = 76.92736 111.33165 64.13047
#
# Poissons Ratio (x) = 0.26887 0.24147
# Poissons Ratio (y) = 0.18578 -0.03113
# Poissons Ratio (z) = 0.28966 -0.05405
#
# Static dielectric constant tensor:
#      x y z
#    x 1.952390 0.000000 0.000000 
#    y 0.000000 1.883040 0.000000 
#    z 0.000000 0.000000 1.989470 
# 
# From -- ./inp_files/6306.got.cif
#   From: 2010.05.17/outbox.cif.g08.bks.cpg/sg19_4_cif.got.tgz:6306.got - 2010.06.03 22:46:19.
