data_PCOD9315381
_publ_section_title
;
Structure prediction by ZEFSAII (Michael W. Deem and Ramdas Pophale) SiO2 
 PCOD9315381
Probable space group: P 21 21 21
;
_chemical_formula_sum "Si O2"
_cell_formula_units_Z 28
_cell_length_a 6.048295
_cell_length_b 17.264796
_cell_length_c 11.692417
_cell_angle_alpha 90.000000
_cell_angle_beta 90.000000
_cell_angle_gamma 90.000000
_cell_volume 1220.952342
_symmetry_space_group_name_H-M "P 21 21 21"
_symmetry_group_IT_number 19
_symmetry_cell_setting 'orthorhombic'
loop_
_space_group_symop_operation_xyz
x,y,z
1/2-x,-y,1/2+z
1/2+x,1/2-y,-z
-x,1/2+y,1/2-z
loop_
_atom_site_type_symbol
_atom_site_label
_atom_site_fract_x
_atom_site_fract_y
_atom_site_fract_z
Si Si1 0.834993 0.042811 0.997163
Si Si2 0.563396 0.647893 0.453587
Si Si3 0.581358 0.316200 0.124900
Si Si4 0.113552 0.592991 0.094065
Si Si5 0.834288 0.542245 0.299254
Si Si6 0.129384 0.114502 0.644455
Si Si7 0.114944 0.756008 0.056468
O O1 0.597410 0.075303 0.032700
O O2 0.971813 0.023298 0.110160
O O3 0.936890 0.117820 0.936217
O O4 0.812093 0.967923 0.916319
O O5 0.676696 0.662539 0.576501
O O6 0.463095 0.729336 0.415480
O O7 0.728461 0.619218 0.354182
O O8 0.540484 0.328098 0.258467
O O9 0.149327 0.680591 0.137006
O O10 0.929347 0.556291 0.174540
O O11 0.027078 0.604297 0.964533
O O12 0.676640 0.468253 0.301022
O O13 0.353411 0.158266 0.605933
O O14 0.355302 0.749412 0.985555
#
# Coordination Sequence:
#
# PCOD9315381 Si02
#       7
#     4   4   4   4   4   4   4
#     4  11  24  45  71 101 141 188 238 303 365 442
#     4  11  23  46  70 104 143 183 245 293 364 442
#     4  11  25  43  74 105 142 191 238 301 364 444
#     4  11  25  46  70 110 141 193 249 306 381 451
#     4  11  26  44  71 100 142 190 240 304 367 450
#     4  11  25  46  71 109 145 190 248 306 377 446
#     4  10  24  48  73 105 152 195 244 307 372 453
#
# _framework density 22.932918999999998
#
# number of rings (size 3 to 8) (size 9 to 14) (size 15 to 20)
#    0.000    1.143    2.857    1.714    6.000    4.571 
#    7.714    0.000    0.000    0.000    0.000    0.000 
#    0.000    0.000    0.000    0.000    0.000    0.000 
#
# Total GULP energy -156169.922814 kJ/mol
# GULP energy per Si atom -5577.497243 kJ/mol
# Density = 2.288072 g / cm^3
# Si number density = 22.932919 Si / 1000 Ang^3
#
#
#
# Elastic Constant Matrix: (Units=GPa)
#
#
# Indices 1 2 3 4 5 6 
#
# 1 50.0084 4.1958 3.8486 0.0000 0.0000 0.0000
# 2 4.1958 109.3432 -12.1845 0.0000 0.0000 0.0000
# 3 3.8486 -12.1845 60.6678 0.0000 0.0000 0.0000
# 4 0.0000 0.0000 0.0000 20.8286 0.0000 0.0000
# 5 0.0000 0.0000 0.0000 0.0000 20.2787 0.0000
# 6 0.0000 0.0000 0.0000 0.0000 0.0000 31.1830
#
#
#
# Elastic Compliance Matrix: (Units=1/GPa)
#
#
# Indices 1 2 3 4 5 6 
#
# 1 0.020188 -0.000938 -0.001469 0.000000 0.000000 0.000000
# 2 -0.000938 0.009398 0.001947 0.000000 0.000000 0.000000
# 3 -0.001469 0.001947 0.016967 0.000000 0.000000 0.000000
# 4 0.000000 0.000000 0.000000 0.048011 0.000000 0.000000
# 5 0.000000 0.000000 0.000000 0.000000 0.049313 0.000000
# 6 0.000000 0.000000 0.000000 0.000000 0.000000 0.032069
#
#
# Mechanical properties :
#
#
# Convention : Reuss Voigt Hill
#
# Bulk Modulus (GPa) = 21.91374 23.52660 22.72017
# Shear Modulus (GPa) = 26.03097 29.40204 27.71651
#
# Velocity S-wave (km/s) = 3.37277 3.58451 3.48025
# Velocity P-wave (km/s) = 4.97431 5.23572 5.10669
#
# Compressibility (1/GPa) = 0.04563348
#
# Stress axis : x y z
#
# Youngs Moduli (GPa) = 49.53334 106.39999 58.93632
#
# Poissons Ratio (x) = 0.09985 0.08659
# Poissons Ratio (y) = 0.04648 -0.11476
# Poissons Ratio (z) = 0.07277 -0.20717
#
# Static dielectric constant tensor:
#      x y z
#    x 1.932300 0.000000 0.000000 
#    y 0.000000 1.857040 0.000000 
#    z 0.000000 0.000000 1.870800 
# 
# From -- ./inp_files/1067.got.cif
#   From: 2010.05.17/outbox.cif.g08.bks.cpg/sg19_1_cif.got.tgz:1067.got - 2010.06.03 22:46:19.
