data_PCOD9315137
_publ_section_title
;
Structure prediction by ZEFSAII (Michael W. Deem and Ramdas Pophale) SiO2 
 PCOD9315137
Probable space group: P 21 21 21
;
_chemical_formula_sum "Si O2"
_cell_formula_units_Z 24
_cell_length_a 12.715374
_cell_length_b 8.653688
_cell_length_c 9.010512
_cell_angle_alpha 90.000000
_cell_angle_beta 90.000000
_cell_angle_gamma 90.000000
_cell_volume 991.470601
_symmetry_space_group_name_H-M "P 21 21 21"
_symmetry_group_IT_number 19
_symmetry_cell_setting 'orthorhombic'
loop_
_space_group_symop_operation_xyz
x,y,z
1/2-x,-y,1/2+z
1/2+x,1/2-y,-z
-x,1/2+y,1/2-z
loop_
_atom_site_type_symbol
_atom_site_label
_atom_site_fract_x
_atom_site_fract_y
_atom_site_fract_z
Si Si1 0.462976 0.947707 0.948739
Si Si2 0.556585 0.661008 0.823499
Si Si3 0.174193 0.798581 0.612996
Si Si4 0.074731 0.523082 0.747589
Si Si5 0.860343 0.459305 0.623149
Si Si6 0.760993 0.785471 0.673230
O O1 0.466702 0.770441 0.893359
O O2 0.486707 0.047398 0.802172
O O3 0.365877 0.046698 0.024077
O O4 0.547999 0.944948 0.080835
O O5 0.645824 0.763401 0.741769
O O6 0.623993 0.569961 0.949955
O O7 0.083992 0.673312 0.645285
O O8 0.212149 0.846374 0.777427
O O9 0.250730 0.706587 0.504846
O O10 0.179098 0.422738 0.748523
O O11 0.976901 0.429360 0.685005
O O12 0.827926 0.627574 0.680657
#
# Coordination Sequence:
#
# PCOD9315137 Si02
#       6
#     4   4   4   4   4   4
#     4  10  24  44  68 104 141 185 238 288 366 424
#     4  11  25  45  72 108 144 189 234 303 360 430
#     4  10  23  44  66 101 141 184 240 291 356 431
#     4  11  24  44  70  99 137 194 237 290 359 432
#     4  11  22  45  71 100 139 190 237 293 368 428
#     4  11  26  42  67 104 144 184 242 299 357 429
#
# _framework density 24.206465999999999
#
# number of rings (size 3 to 8) (size 9 to 14) (size 15 to 20)
#    0.000    1.333    1.667    3.000   11.667    0.000 
#    0.000    0.000    0.000    0.000    0.000    0.000 
#    0.000    0.000    0.000    0.000    0.000    0.000 
#
# Total GULP energy -133868.549532 kJ/mol
# GULP energy per Si atom -5577.856230 kJ/mol
# Density = 2.415137 g / cm^3
# Si number density = 24.206466 Si / 1000 Ang^3
#
#
#
# Elastic Constant Matrix: (Units=GPa)
#
#
# Indices 1 2 3 4 5 6 
#
# 1 44.9343 21.4844 11.8545 0.0000 0.0000 0.0000
# 2 21.4844 60.5783 21.4368 0.0000 0.0000 0.0000
# 3 11.8545 21.4368 127.5294 0.0000 0.0000 0.0000
# 4 0.0000 0.0000 0.0000 43.9294 0.0000 0.0000
# 5 0.0000 0.0000 0.0000 0.0000 28.5065 0.0000
# 6 0.0000 0.0000 0.0000 0.0000 0.0000 31.1519
#
#
#
# Elastic Compliance Matrix: (Units=1/GPa)
#
#
# Indices 1 2 3 4 5 6 
#
# 1 0.026908 -0.009205 -0.000954 0.000000 0.000000 0.000000
# 2 -0.009205 0.020701 -0.002624 0.000000 0.000000 0.000000
# 3 -0.000954 -0.002624 0.008371 0.000000 0.000000 0.000000
# 4 0.000000 0.000000 0.000000 0.022764 0.000000 0.000000
# 5 0.000000 0.000000 0.000000 0.000000 0.035080 0.000000
# 6 0.000000 0.000000 0.000000 0.000000 0.000000 0.032101
#
#
# Mechanical properties :
#
#
# Convention : Reuss Voigt Hill
#
# Bulk Modulus (GPa) = 32.88051 38.06594 35.47323
# Shear Modulus (GPa) = 27.52877 32.60199 30.06538
#
# Velocity S-wave (km/s) = 3.37597 3.67390 3.52808
# Velocity P-wave (km/s) = 5.36741 5.81002 5.59310
#
# Compressibility (1/GPa) = 0.03041315
#
# Stress axis : x y z
#
# Youngs Moduli (GPa) = 37.16407 48.30712 119.45913
#
# Poissons Ratio (x) = 0.44469 0.11394
# Poissons Ratio (y) = 0.34211 0.31346
# Poissons Ratio (z) = 0.03545 0.12676
#
# Static dielectric constant tensor:
#      x y z
#    x 2.001250 0.000000 0.000000 
#    y 0.000000 1.990790 0.000000 
#    z 0.000000 0.000000 2.015280 
# 
# From -- ./inp_files/3833.got.cif
#   From: 2010.05.17/outbox.cif.g08.bks.cpg/sg19_2_cif.got.tgz:3833.got - 2010.06.03 22:46:19.
