data_PCOD9315093
_publ_section_title
;
Structure prediction by ZEFSAII (Michael W. Deem and Ramdas Pophale) SiO2 
 PCOD9315093
Probable space group: P 21 21 21
;
_chemical_formula_sum "Si O2"
_cell_formula_units_Z 32
_cell_length_a 14.399769
_cell_length_b 12.505397
_cell_length_c 7.822258
_cell_angle_alpha 90.000000
_cell_angle_beta 90.000000
_cell_angle_gamma 90.000000
_cell_volume 1408.591764
_symmetry_space_group_name_H-M "P 21 21 21"
_symmetry_group_IT_number 19
_symmetry_cell_setting 'orthorhombic'
loop_
_space_group_symop_operation_xyz
x,y,z
1/2-x,-y,1/2+z
1/2+x,1/2-y,-z
-x,1/2+y,1/2-z
loop_
_atom_site_type_symbol
_atom_site_label
_atom_site_fract_x
_atom_site_fract_y
_atom_site_fract_z
Si Si1 0.923602 0.836933 0.044763
Si Si2 0.807871 0.342621 0.158446
Si Si3 0.258483 0.955686 0.679305
Si Si4 0.112498 0.464722 0.125159
Si Si5 0.043472 0.129340 0.256037
Si Si6 0.728071 0.833064 0.897012
Si Si7 0.895923 0.328515 0.628366
Si Si8 0.005232 0.794025 0.522825
O O1 0.959254 0.722386 0.104968
O O2 0.875581 0.890878 0.208861
O O3 0.838164 0.824960 0.918485
O O4 0.020642 0.885173 0.977871
O O5 0.773086 0.416720 0.315679
O O6 0.792739 0.220582 0.213004
O O7 0.754624 0.394081 0.998637
O O8 0.915184 0.344816 0.101443
O O9 0.353924 0.916636 0.760753
O O10 0.172202 0.916939 0.792265
O O11 0.196327 0.544168 0.084699
O O12 0.031846 0.544712 0.187120
O O13 0.075826 0.383272 0.980658
O O14 0.025203 0.186108 0.073344
O O15 0.665911 0.760514 0.028882
O O16 0.949492 0.277532 0.792398
#
# Coordination Sequence:
#
# PCOD9315093 Si02
#       8
#     4   4   4   4   4   4   4   4
#     4  11  26  44  68  96 134 183 226 279 347 403
#     4  11  23  40  66 100 132 176 224 284 337 397
#     4  11  24  39  69  99 135 171 230 282 341 397
#     4  11  23  45  70  93 138 186 220 274 344 412
#     4  11  21  43  69  93 130 179 217 275 345 397
#     4  12  24  47  68  98 141 181 223 282 344 408
#     4  11  24  45  66 101 133 171 234 286 329 405
#     4  10  23  43  66 100 135 175 226 282 339 403
#
# _framework density 22.717725999999999
#
# number of rings (size 3 to 8) (size 9 to 14) (size 15 to 20)
#    0.000    1.000    5.000    1.500    3.500    1.000 
#    6.750    0.000    0.000    0.000    0.000    0.000 
#    0.000    0.000    0.000    0.000    0.000    0.000 
#
# Total GULP energy -178734.950699 kJ/mol
# GULP energy per Si atom -5585.467209 kJ/mol
# Density = 2.266602 g / cm^3
# Si number density = 22.717726 Si / 1000 Ang^3
#
#
#
# Elastic Constant Matrix: (Units=GPa)
#
#
# Indices 1 2 3 4 5 6 
#
# 1 70.4534 -10.8533 7.2363 0.0000 0.0000 0.0000
# 2 -10.8533 37.1220 -11.2263 0.0000 0.0000 0.0000
# 3 7.2363 -11.2263 45.1583 0.0000 0.0000 0.0000
# 4 0.0000 0.0000 0.0000 9.4418 0.0000 0.0000
# 5 0.0000 0.0000 0.0000 0.0000 30.2585 0.0000
# 6 0.0000 0.0000 0.0000 0.0000 0.0000 24.2905
#
#
#
# Elastic Compliance Matrix: (Units=1/GPa)
#
#
# Indices 1 2 3 4 5 6 
#
# 1 0.014946 0.003942 -0.001415 0.000000 0.000000 0.000000
# 2 0.003942 0.030168 0.006868 0.000000 0.000000 0.000000
# 3 -0.001415 0.006868 0.024078 0.000000 0.000000 0.000000
# 4 0.000000 0.000000 0.000000 0.105912 0.000000 0.000000
# 5 0.000000 0.000000 0.000000 0.000000 0.033049 0.000000
# 6 0.000000 0.000000 0.000000 0.000000 0.000000 0.041168
#
#
# Mechanical properties :
#
#
# Convention : Reuss Voigt Hill
#
# Bulk Modulus (GPa) = 11.36594 13.67190 12.51892
# Shear Modulus (GPa) = 19.24120 23.96996 21.60558
#
# Velocity S-wave (km/s) = 2.91343 3.25179 3.08725
# Velocity P-wave (km/s) = 4.04121 4.48665 4.26975
#
# Compressibility (1/GPa) = 0.08798215
#
# Stress axis : x y z
#
# Youngs Moduli (GPa) = 66.90591 33.14801 41.53088
#
# Poissons Ratio (x) = -0.13067 0.05877
# Poissons Ratio (y) = -0.26374 -0.28523
# Poissons Ratio (z) = 0.09468 -0.22766
#
# Static dielectric constant tensor:
#      x y z
#    x 1.856340 0.000000 0.000000 
#    y 0.000000 1.877490 0.000000 
#    z 0.000000 0.000000 1.926820 
# 
# From -- ./inp_files/4000.got.cif
#   From: 2010.05.17/outbox.cif.g08.bks.cpg/sg19_2_cif.got.tgz:4000.got - 2010.06.03 22:46:19.
