data_PCOD9315290
_publ_section_title
;
Structure prediction by ZEFSAII (Michael W. Deem and Ramdas Pophale) SiO2 
 PCOD9315290
Probable space group: P 21 21 21
;
_chemical_formula_sum "Si O2"
_cell_formula_units_Z 20
_cell_length_a 8.648020
_cell_length_b 16.480737
_cell_length_c 5.275140
_cell_angle_alpha 90.000000
_cell_angle_beta 90.000000
_cell_angle_gamma 90.000000
_cell_volume 751.843249
_symmetry_space_group_name_H-M "P 21 21 21"
_symmetry_group_IT_number 19
_symmetry_cell_setting 'orthorhombic'
loop_
_space_group_symop_operation_xyz
x,y,z
1/2-x,-y,1/2+z
1/2+x,1/2-y,-z
-x,1/2+y,1/2-z
loop_
_atom_site_type_symbol
_atom_site_label
_atom_site_fract_x
_atom_site_fract_y
_atom_site_fract_z
Si Si1 0.512153 0.366245 0.818382
Si Si2 0.212637 0.421392 0.635986
Si Si3 0.997069 0.981076 0.498683
Si Si4 0.273928 0.741824 0.852373
Si Si5 0.291651 0.165029 0.866279
O O1 0.329572 0.377743 0.837384
O O2 0.566746 0.435420 0.613976
O O3 0.557717 0.278436 0.712151
O O4 0.622183 0.373500 0.060552
O O5 0.318399 0.498062 0.566767
O O6 0.041779 0.449292 0.716631
O O7 0.216721 0.352493 0.418453
O O8 0.086590 0.907553 0.372357
O O9 0.226872 0.789823 0.103926
O O10 0.178527 0.775651 0.610799
#
# Coordination Sequence:
#
# PCOD9315290 Si02
#       5
#     4   4   4   4   4
#     4   8  24  44  70 109 139 195 242 306 355 459
#     4  10  24  45  66 113 145 198 230 322 358 451
#     4  10  24  43  69 107 150 186 243 305 374 435
#     4  10  24  45  76 104 144 191 254 292 371 433
#     4  10  24  45  77 103 140 196 245 305 356 452
#
# _framework density 26.601289000000001
#
# number of rings (size 3 to 8) (size 9 to 14) (size 15 to 20)
#    2.400    0.000    0.000    0.000    5.600    6.400 
#    0.000    0.000    0.000    0.000    0.000    0.000 
#    0.000    0.000    0.000    0.000    0.000    0.000 
#
# Total GULP energy -111423.579682 kJ/mol
# GULP energy per Si atom -5571.178984 kJ/mol
# Density = 2.654074 g / cm^3
# Si number density = 26.601289 Si / 1000 Ang^3
#
#
#
# Elastic Constant Matrix: (Units=GPa)
#
#
# Indices 1 2 3 4 5 6 
#
# 1 58.0542 39.3210 33.1727 0.0000 0.0000 0.0000
# 2 39.3210 142.4211 48.6898 0.0000 0.0000 0.0000
# 3 33.1727 48.6898 149.6547 0.0000 0.0000 0.0000
# 4 0.0000 0.0000 0.0000 43.4399 0.0000 0.0000
# 5 0.0000 0.0000 0.0000 0.0000 29.5217 0.0000
# 6 0.0000 0.0000 0.0000 0.0000 0.0000 57.2578
#
#
#
# Elastic Compliance Matrix: (Units=1/GPa)
#
#
# Indices 1 2 3 4 5 6 
#
# 1 0.022588 -0.005091 -0.003351 0.000000 0.000000 0.000000
# 2 -0.005091 0.009047 -0.001815 0.000000 0.000000 0.000000
# 3 -0.003351 -0.001815 0.008015 0.000000 0.000000 0.000000
# 4 0.000000 0.000000 0.000000 0.023020 0.000000 0.000000
# 5 0.000000 0.000000 0.000000 0.000000 0.033873 0.000000
# 6 0.000000 0.000000 0.000000 0.000000 0.000000 0.017465
#
#
# Mechanical properties :
#
#
# Convention : Reuss Voigt Hill
#
# Bulk Modulus (GPa) = 52.25312 65.83299 59.04305
# Shear Modulus (GPa) = 35.48576 41.30698 38.39637
#
# Velocity S-wave (km/s) = 3.65634 3.94486 3.80334
# Velocity P-wave (km/s) = 6.12461 6.74915 6.44445
#
# Compressibility (1/GPa) = 0.01913761
#
# Stress axis : x y z
#
# Youngs Moduli (GPa) = 44.27148 110.52783 124.76144
#
# Poissons Ratio (x) = 0.56268 0.41802
# Poissons Ratio (y) = 0.22538 0.22646
# Poissons Ratio (z) = 0.14834 0.20062
#
# Static dielectric constant tensor:
#      x y z
#    x 2.099550 0.000000 0.000000 
#    y 0.000000 2.138160 0.000000 
#    z 0.000000 0.000000 2.332440 
# 
# From -- ./inp_files/919.got.cif
#   From: 2010.05.17/outbox.cif.g08.bks.cpg/sg19_1_cif.got.tgz:919.got - 2010.06.03 22:46:19.
