data_PCOD9315988
_publ_section_title
;
Structure prediction by ZEFSAII (Michael W. Deem and Ramdas Pophale) SiO2 
 PCOD9315988
Probable space group: P 21 21 21
;
_chemical_formula_sum "Si O2"
_cell_formula_units_Z 20
_cell_length_a 5.313846
_cell_length_b 9.028332
_cell_length_c 16.139068
_cell_angle_alpha 90.000000
_cell_angle_beta 90.000000
_cell_angle_gamma 90.000000
_cell_volume 774.274465
_symmetry_space_group_name_H-M "P 21 21 21"
_symmetry_group_IT_number 19
_symmetry_cell_setting 'orthorhombic'
loop_
_space_group_symop_operation_xyz
x,y,z
1/2-x,-y,1/2+z
1/2+x,1/2-y,-z
-x,1/2+y,1/2-z
loop_
_atom_site_type_symbol
_atom_site_label
_atom_site_fract_x
_atom_site_fract_y
_atom_site_fract_z
Si Si1 0.144361 0.873946 0.145615
Si Si2 0.148360 0.591320 0.919083
Si Si3 0.318949 0.948428 0.804271
Si Si4 0.318334 0.502132 0.099647
Si Si5 0.668992 0.666363 0.360598
O O1 0.391025 0.818630 0.099167
O O2 0.191130 0.904559 0.242358
O O3 0.875189 0.817161 0.120750
O O4 0.129608 0.044021 0.108290
O O5 0.080653 0.433134 0.875395
O O6 0.214107 0.560523 0.013000
O O7 0.609593 0.942789 0.832856
O O8 0.106743 0.970587 0.873417
O O9 0.225121 0.827806 0.737026
O O10 0.305977 0.322913 0.098481
#
# Coordination Sequence:
#
# PCOD9315988 Si02
#       5
#     4   4   4   4   4
#     4   8  18  36  46  67 117 129 153 206 262 298
#     4   9  19  30  52  77 101 131 161 209 269 306
#     4   9  22  33  46  79 107 135 173 197 253 319
#     4  12  20  31  58  80 100 138 173 204 259 312
#     4   8  23  32  52  71 119 125 164 212 261 295
#
# _framework density 25.830632000000001
#
# number of rings (size 3 to 8) (size 9 to 14) (size 15 to 20)
#    2.400    0.000    0.000    3.600    5.600    0.000 
#    0.000    0.000    0.000    0.000    0.000   61.600 
#    0.000    0.000    0.000    0.000    0.000    0.000 
#
# Total GULP energy -111575.443610 kJ/mol
# GULP energy per Si atom -5578.772180 kJ/mol
# Density = 2.577184 g / cm^3
# Si number density = 25.830632 Si / 1000 Ang^3
#
#
#
# Elastic Constant Matrix: (Units=GPa)
#
#
# Indices 1 2 3 4 5 6 
#
# 1 201.6554 22.4347 39.6066 0.0000 0.0000 0.0000
# 2 22.4347 67.4542 9.4004 0.0000 0.0000 0.0000
# 3 39.6066 9.4004 86.9610 0.0000 0.0000 0.0000
# 4 0.0000 0.0000 0.0000 28.1018 0.0000 0.0000
# 5 0.0000 0.0000 0.0000 0.0000 48.3161 0.0000
# 6 0.0000 0.0000 0.0000 0.0000 0.0000 41.8674
#
#
#
# Elastic Compliance Matrix: (Units=1/GPa)
#
#
# Indices 1 2 3 4 5 6 
#
# 1 0.005597 -0.001529 -0.002384 0.000000 0.000000 0.000000
# 2 -0.001529 0.015470 -0.000976 0.000000 0.000000 0.000000
# 3 -0.002384 -0.000976 0.012691 0.000000 0.000000 0.000000
# 4 0.000000 0.000000 0.000000 0.035585 0.000000 0.000000
# 5 0.000000 0.000000 0.000000 0.000000 0.020697 0.000000
# 6 0.000000 0.000000 0.000000 0.000000 0.000000 0.023885
#
#
# Mechanical properties :
#
#
# Convention : Reuss Voigt Hill
#
# Bulk Modulus (GPa) = 41.70246 55.43935 48.57090
# Shear Modulus (GPa) = 37.96633 42.63233 40.29933
#
# Velocity S-wave (km/s) = 3.83798 4.06699 3.95414
# Velocity P-wave (km/s) = 5.98496 6.60023 6.30011
#
# Compressibility (1/GPa) = 0.02397940
#
# Stress axis : x y z
#
# Youngs Moduli (GPa) = 178.65632 64.64331 78.79801
#
# Poissons Ratio (x) = 0.09887 0.18785
# Poissons Ratio (y) = 0.27324 0.07688
# Poissons Ratio (z) = 0.42592 0.06307
#
# Static dielectric constant tensor:
#      x y z
#    x 2.063570 0.000000 0.000000 
#    y 0.000000 2.234280 0.000000 
#    z 0.000000 0.000000 2.020020 
# 
# From -- ./inp_files/6398.got.cif
#   From: 2010.05.17/outbox.cif.g08.bks.cpg/sg19_4_cif.got.tgz:6398.got - 2010.06.03 22:46:19.
