data_PCOD9315476
_publ_section_title
;
Structure prediction by ZEFSAII (Michael W. Deem and Ramdas Pophale) SiO2 
 PCOD9315476
Probable space group: P 21 21 21
;
_chemical_formula_sum "Si O2"
_cell_formula_units_Z 20
_cell_length_a 10.668169
_cell_length_b 4.772443
_cell_length_c 13.157314
_cell_angle_alpha 90.000000
_cell_angle_beta 90.000000
_cell_angle_gamma 90.000000
_cell_volume 669.881334
_symmetry_space_group_name_H-M "P 21 21 21"
_symmetry_group_IT_number 19
_symmetry_cell_setting 'orthorhombic'
loop_
_space_group_symop_operation_xyz
x,y,z
1/2-x,-y,1/2+z
1/2+x,1/2-y,-z
-x,1/2+y,1/2-z
loop_
_atom_site_type_symbol
_atom_site_label
_atom_site_fract_x
_atom_site_fract_y
_atom_site_fract_z
Si Si1 0.472342 0.527864 0.897607
Si Si2 0.386312 0.152722 0.088869
Si Si3 0.351632 0.784647 0.360916
Si Si4 0.681498 0.346698 0.756609
Si Si5 0.194321 0.711997 0.997116
O O1 0.356053 0.681581 0.844928
O O2 0.550258 0.357235 0.814724
O O3 0.435149 0.330598 0.992083
O O4 0.577221 0.756377 0.926928
O O5 0.512937 0.146587 0.158486
O O6 0.282652 0.280318 0.165238
O O7 0.315790 0.871571 0.046069
O O8 0.361441 0.096863 0.405574
O O9 0.246965 0.856624 0.276118
O O10 0.695771 0.103094 0.043136
#
# Coordination Sequence:
#
# PCOD9315476 Si02
#       5
#     4   4   4   4   4
#     4  10  26  54  93 140 189 242 316 380 476 557
#     4  10  26  57  88 137 191 244 306 388 466 555
#     4  11  27  50  86 130 179 235 304 372 456 546
#     4  11  27  53  95 136 190 245 316 385 464 571
#     4  10  26  50  88 123 183 236 294 379 456 543
#
# _framework density 29.856036
#
# number of rings (size 3 to 8) (size 9 to 14) (size 15 to 20)
#    0.000    1.600    0.000    0.000    8.400    6.400 
#   14.400   12.000    4.400    0.000    0.000    0.000 
#    0.000    0.000    0.000    0.000    0.000    0.000 
#
# Total GULP energy -111950.133447 kJ/mol
# GULP energy per Si atom -5597.506672 kJ/mol
# Density = 2.978808 g / cm^3
# Si number density = 29.856036 Si / 1000 Ang^3
#
#
#
# Elastic Constant Matrix: (Units=GPa)
#
#
# Indices 1 2 3 4 5 6 
#
# 1 257.7489 60.5778 59.9002 0.0000 0.0000 0.0000
# 2 60.5778 148.4294 68.3136 0.0000 0.0000 0.0000
# 3 59.9002 68.3136 154.5438 0.0000 0.0000 0.0000
# 4 0.0000 0.0000 0.0000 63.3036 0.0000 0.0000
# 5 0.0000 0.0000 0.0000 0.0000 74.1762 0.0000
# 6 0.0000 0.0000 0.0000 0.0000 0.0000 50.5394
#
#
#
# Elastic Compliance Matrix: (Units=1/GPa)
#
#
# Indices 1 2 3 4 5 6 
#
# 1 0.004450 -0.001284 -0.001158 0.000000 0.000000 0.000000
# 2 -0.001284 0.008828 -0.003405 0.000000 0.000000 0.000000
# 3 -0.001158 -0.003405 0.008424 0.000000 0.000000 0.000000
# 4 0.000000 0.000000 0.000000 0.015797 0.000000 0.000000
# 5 0.000000 0.000000 0.000000 0.000000 0.013481 0.000000
# 6 0.000000 0.000000 0.000000 0.000000 0.000000 0.019787
#
#
# Mechanical properties :
#
#
# Convention : Reuss Voigt Hill
#
# Bulk Modulus (GPa) = 99.89027 104.25613 102.07320
# Shear Modulus (GPa) = 58.27730 62.39922 60.33826
#
# Velocity S-wave (km/s) = 4.42287 4.57662 4.50040
# Velocity P-wave (km/s) = 7.72090 7.93238 7.82736
#
# Compressibility (1/GPa) = 0.01001098
#
# Stress axis : x y z
#
# Youngs Moduli (GPa) = 224.69713 113.27448 118.70314
#
# Poissons Ratio (x) = 0.14540 0.13741
# Poissons Ratio (y) = 0.28841 0.40416
# Poissons Ratio (z) = 0.26010 0.38568
#
# Static dielectric constant tensor:
#      x y z
#    x 2.409730 0.000000 0.000000 
#    y 0.000000 2.300250 0.000000 
#    z 0.000000 0.000000 2.553020 
# 
# From -- ./inp_files/3858.got.cif
#   From: 2010.05.17/outbox.cif.g08.bks.cpg/sg19_2_cif.got.tgz:3858.got - 2010.06.03 22:46:19.
