data_PCOD9315044
_publ_section_title
;
Structure prediction by ZEFSAII (Michael W. Deem and Ramdas Pophale) SiO2 
 PCOD9315044
Probable space group: P 21 21 21
;
_chemical_formula_sum "Si O2"
_cell_formula_units_Z 28
_cell_length_a 12.418683
_cell_length_b 17.112945
_cell_length_c 5.353900
_cell_angle_alpha 90.000000
_cell_angle_beta 90.000000
_cell_angle_gamma 90.000000
_cell_volume 1137.812108
_symmetry_space_group_name_H-M "P 21 21 21"
_symmetry_group_IT_number 19
_symmetry_cell_setting 'orthorhombic'
loop_
_space_group_symop_operation_xyz
x,y,z
1/2-x,-y,1/2+z
1/2+x,1/2-y,-z
-x,1/2+y,1/2-z
loop_
_atom_site_type_symbol
_atom_site_label
_atom_site_fract_x
_atom_site_fract_y
_atom_site_fract_z
Si Si1 0.529351 0.850168 0.270361
Si Si2 0.768604 0.180516 0.487362
Si Si3 0.750640 0.415751 0.673135
Si Si4 0.379475 0.594361 0.708573
Si Si5 0.563634 0.509403 0.453659
Si Si6 0.332183 0.435034 0.877274
Si Si7 0.711093 0.317754 0.173844
O O1 0.575436 0.876525 0.534854
O O2 0.416896 0.808400 0.300654
O O3 0.624609 0.800606 0.143573
O O4 0.503034 0.932416 0.127850
O O5 0.657755 0.172440 0.645636
O O6 0.758533 0.234228 0.245940
O O7 0.793546 0.093395 0.391419
O O8 0.650773 0.476405 0.654101
O O9 0.748212 0.370970 0.409356
O O10 0.860946 0.460739 0.729268
O O11 0.736099 0.357087 0.908681
O O12 0.486734 0.579864 0.547288
O O13 0.272483 0.576000 0.547405
O O14 0.384558 0.519686 0.890425
#
# Coordination Sequence:
#
# PCOD9315044 Si02
#       7
#     4   4   4   4   4   4   4
#     4  10  23  41  70  94 134 190 226 292 359 412
#     4  11  25  43  66 102 144 183 228 287 350 437
#     4  11  26  47  73 102 138 184 241 295 336 421
#     4  11  21  37  68 104 132 176 231 296 352 402
#     4  11  22  46  73 104 134 180 244 302 354 394
#     4  11  20  40  65 103 134 173 236 288 353 417
#     4  11  27  48  67 101 144 190 232 276 356 429
#
# _framework density 24.608633999999999
#
# number of rings (size 3 to 8) (size 9 to 14) (size 15 to 20)
#    0.000    1.143    2.857    3.429    6.000    2.286 
#    2.571    0.000    0.000    0.000    0.000    0.000 
#    0.000    0.000    0.000    0.000    0.000    0.000 
#
# Total GULP energy -156454.638805 kJ/mol
# GULP energy per Si atom -5587.665672 kJ/mol
# Density = 2.455262 g / cm^3
# Si number density = 24.608634 Si / 1000 Ang^3
#
#
#
# Elastic Constant Matrix: (Units=GPa)
#
#
# Indices 1 2 3 4 5 6 
#
# 1 108.7330 32.0550 28.2342 0.0000 0.0000 0.0000
# 2 32.0550 49.3029 10.9412 0.0000 0.0000 0.0000
# 3 28.2342 10.9412 76.5498 0.0000 0.0000 0.0000
# 4 0.0000 0.0000 0.0000 38.4152 0.0000 0.0000
# 5 0.0000 0.0000 0.0000 0.0000 45.5087 0.0000
# 6 0.0000 0.0000 0.0000 0.0000 0.0000 27.9838
#
#
#
# Elastic Compliance Matrix: (Units=1/GPa)
#
#
# Indices 1 2 3 4 5 6 
#
# 1 0.012214 -0.007169 -0.003480 0.000000 0.000000 0.000000
# 2 -0.007169 0.025155 -0.000951 0.000000 0.000000 0.000000
# 3 -0.003480 -0.000951 0.014483 0.000000 0.000000 0.000000
# 4 0.000000 0.000000 0.000000 0.026031 0.000000 0.000000
# 5 0.000000 0.000000 0.000000 0.000000 0.021974 0.000000
# 6 0.000000 0.000000 0.000000 0.000000 0.000000 0.035735
#
#
# Mechanical properties :
#
#
# Convention : Reuss Voigt Hill
#
# Bulk Modulus (GPa) = 34.90270 41.89407 38.39839
# Shear Modulus (GPa) = 29.70131 33.27189 31.48660
#
# Velocity S-wave (km/s) = 3.47788 3.68100 3.58088
# Velocity P-wave (km/s) = 5.50831 5.92684 5.72140
#
# Compressibility (1/GPa) = 0.02865108
#
# Stress axis : x y z
#
# Youngs Moduli (GPa) = 81.87379 39.75399 69.04642
#
# Poissons Ratio (x) = 0.28498 0.24030
# Poissons Ratio (y) = 0.58693 0.06568
# Poissons Ratio (z) = 0.28495 0.03782
#
# Static dielectric constant tensor:
#      x y z
#    x 1.949430 0.000000 0.000000 
#    y 0.000000 2.044330 0.000000 
#    z 0.000000 0.000000 2.007040 
# 
# From -- ./inp_files/1128.got.cif
#   From: 2010.05.17/outbox.cif.g08.bks.cpg/sg19_1_cif.got.tgz:1128.got - 2010.06.03 22:46:19.
