data_PCOD9315223
_publ_section_title
;
Structure prediction by ZEFSAII (Michael W. Deem and Ramdas Pophale) SiO2 
 PCOD9315223
Probable space group: P 21 21 21
;
_chemical_formula_sum "Si O2"
_cell_formula_units_Z 32
_cell_length_a 12.326747
_cell_length_b 14.374518
_cell_length_c 8.292763
_cell_angle_alpha 90.000000
_cell_angle_beta 90.000000
_cell_angle_gamma 90.000000
_cell_volume 1469.403355
_symmetry_space_group_name_H-M "P 21 21 21"
_symmetry_group_IT_number 19
_symmetry_cell_setting 'orthorhombic'
loop_
_space_group_symop_operation_xyz
x,y,z
1/2-x,-y,1/2+z
1/2+x,1/2-y,-z
-x,1/2+y,1/2-z
loop_
_atom_site_type_symbol
_atom_site_label
_atom_site_fract_x
_atom_site_fract_y
_atom_site_fract_z
Si Si1 0.427078 0.067327 0.325124
Si Si2 0.507217 0.802538 0.699210
Si Si3 0.411285 0.855524 0.213912
Si Si4 0.285507 0.814843 0.889873
Si Si5 0.627219 0.838201 0.018565
Si Si6 0.798451 0.965373 0.387219
Si Si7 0.587519 0.997341 0.555545
Si Si8 0.431058 0.682621 0.429428
O O1 0.313324 0.119658 0.337361
O O2 0.501980 0.118600 0.193592
O O3 0.409567 0.959128 0.283153
O O4 0.494474 0.065750 0.492500
O O5 0.384567 0.811354 0.765536
O O6 0.583853 0.790234 0.854269
O O7 0.539419 0.898857 0.612624
O O8 0.509206 0.720075 0.570760
O O9 0.385519 0.773635 0.339177
O O10 0.334603 0.849434 0.058750
O O11 0.532288 0.833622 0.149275
O O12 0.232758 0.714144 0.919222
O O13 0.648199 0.944107 0.969898
O O14 0.670323 0.979454 0.407791
O O15 0.836303 0.876721 0.488361
O O16 0.844510 0.964498 0.206972
#
# Coordination Sequence:
#
# PCOD9315223 Si02
#       8
#     4   4   4   4   4   4   4   4
#     4  12  26  47  72 102 145 197 239 303 363 436
#     4  10  26  47  67 106 147 186 240 302 350 446
#     4  11  25  47  69 103 147 185 254 297 361 441
#     4  11  27  46  74  99 149 200 235 297 379 425
#     4  10  23  48  69 103 140 185 238 301 357 433
#     4  11  26  41  76 103 144 185 244 300 366 421
#     4  11  26  48  70 107 147 184 248 298 362 429
#     4  12  25  44  73 107 139 192 242 300 368 423
#
# _framework density 21.777546999999998
#
# number of rings (size 3 to 8) (size 9 to 14) (size 15 to 20)
#    0.000    1.000    3.750    0.750   10.500    1.000 
#    2.250    0.000    0.000    0.000    0.000    0.000 
#    0.000    0.000    0.000    0.000    0.000    0.000 
#
# Total GULP energy -179205.020621 kJ/mol
# GULP energy per Si atom -5600.156894 kJ/mol
# Density = 2.172798 g / cm^3
# Si number density = 21.777547 Si / 1000 Ang^3
#
#
#
# Elastic Constant Matrix: (Units=GPa)
#
#
# Indices 1 2 3 4 5 6 
#
# 1 82.0584 18.8017 27.8457 0.0000 0.0000 0.0000
# 2 18.8017 114.9424 46.3379 0.0000 0.0000 0.0000
# 3 27.8457 46.3379 83.2763 0.0000 0.0000 0.0000
# 4 0.0000 0.0000 0.0000 36.7433 0.0000 0.0000
# 5 0.0000 0.0000 0.0000 0.0000 27.8507 0.0000
# 6 0.0000 0.0000 0.0000 0.0000 0.0000 34.5408
#
#
#
# Elastic Compliance Matrix: (Units=1/GPa)
#
#
# Indices 1 2 3 4 5 6 
#
# 1 0.013769 -0.000511 -0.004320 0.000000 0.000000 0.000000
# 2 -0.000511 0.011235 -0.006081 0.000000 0.000000 0.000000
# 3 -0.004320 -0.006081 0.016836 0.000000 0.000000 0.000000
# 4 0.000000 0.000000 0.000000 0.027216 0.000000 0.000000
# 5 0.000000 0.000000 0.000000 0.000000 0.035906 0.000000
# 6 0.000000 0.000000 0.000000 0.000000 0.000000 0.028951
#
#
# Mechanical properties :
#
#
# Convention : Reuss Voigt Hill
#
# Bulk Modulus (GPa) = 49.95588 51.80530 50.88059
# Shear Modulus (GPa) = 30.78651 32.31310 31.54980
#
# Velocity S-wave (km/s) = 3.76397 3.85617 3.81035
# Velocity P-wave (km/s) = 6.47140 6.60808 6.54010
#
# Compressibility (1/GPa) = 0.02001766
#
# Stress axis : x y z
#
# Youngs Moduli (GPa) = 72.62474 89.00805 59.39574
#
# Poissons Ratio (x) = 0.04546 0.25659
# Poissons Ratio (y) = 0.03710 0.36117
# Poissons Ratio (z) = 0.31374 0.54123
#
# Static dielectric constant tensor:
#      x y z
#    x 1.772670 0.000000 0.000000 
#    y 0.000000 1.779920 0.000000 
#    z 0.000000 0.000000 1.808590 
# 
# From -- ./inp_files/3624.got.cif
#   From: 2010.05.17/outbox.cif.g08.bks.cpg/sg19_2_cif.got.tgz:3624.got - 2010.06.03 22:46:19.
