data_PCOD9315598
_publ_section_title
;
Structure prediction by ZEFSAII (Michael W. Deem and Ramdas Pophale) SiO2 
 PCOD9315598
Probable space group: P 21 21 21
;
_chemical_formula_sum "Si O2"
_cell_formula_units_Z 32
_cell_length_a 13.139338
_cell_length_b 8.575511
_cell_length_c 13.505274
_cell_angle_alpha 90.000000
_cell_angle_beta 90.000000
_cell_angle_gamma 90.000000
_cell_volume 1521.727513
_symmetry_space_group_name_H-M "P 21 21 21"
_symmetry_group_IT_number 19
_symmetry_cell_setting 'orthorhombic'
loop_
_space_group_symop_operation_xyz
x,y,z
1/2-x,-y,1/2+z
1/2+x,1/2-y,-z
-x,1/2+y,1/2-z
loop_
_atom_site_type_symbol
_atom_site_label
_atom_site_fract_x
_atom_site_fract_y
_atom_site_fract_z
Si Si1 0.427986 0.966730 0.691701
Si Si2 0.118420 0.401610 0.205110
Si Si3 0.272427 0.583204 0.072614
Si Si4 0.713031 0.879579 0.133534
Si Si5 0.926906 0.378454 0.722297
Si Si6 0.901841 0.804450 0.623412
Si Si7 0.283015 0.857634 0.228289
Si Si8 0.510219 0.956595 0.475356
O O1 0.402023 0.782838 0.694812
O O2 0.473283 0.009505 0.583296
O O3 0.513561 0.009542 0.772458
O O4 0.326560 0.065733 0.712896
O O5 0.182263 0.475242 0.114938
O O6 0.190683 0.427574 0.300963
O O7 0.295323 0.709528 0.157153
O O8 0.369420 0.477455 0.042495
O O9 0.245507 0.679434 0.973902
O O10 0.651852 0.757114 0.198340
O O11 0.640551 0.024510 0.108843
O O12 0.868774 0.510208 0.785435
O O13 0.020210 0.313699 0.784691
O O14 0.962670 0.448108 0.617133
O O15 0.805504 0.702603 0.660311
O O16 0.965067 0.717276 0.539179
#
# Coordination Sequence:
#
# PCOD9315598 Si02
#       8
#     4   4   4   4   4   4   4   4
#     4  12  26  46  68 101 143 187 234 285 356 418
#     4  12  25  46  70  97 143 186 228 294 347 413
#     4  12  24  45  70 105 139 185 237 285 352 421
#     4  12  23  44  71  99 134 185 229 283 354 414
#     4  11  22  43  70 101 136 178 231 286 353 408
#     4  11  23  42  71 101 134 179 233 295 346 407
#     4  11  23  41  68 100 139 180 228 288 346 414
#     4  11  24  43  68 104 138 176 236 290 340 423
#
# _framework density 21.028732000000002
#
# number of rings (size 3 to 8) (size 9 to 14) (size 15 to 20)
#    0.000    0.500    5.000    4.500    0.000    0.000 
#    0.000    1.250    0.000    0.000    0.000    0.000 
#    0.000    0.000    0.000    0.000    0.000    0.000 
#
# Total GULP energy -178839.815707 kJ/mol
# GULP energy per Si atom -5588.744241 kJ/mol
# Density = 2.098087 g / cm^3
# Si number density = 21.028732 Si / 1000 Ang^3
#
#
#
# Elastic Constant Matrix: (Units=GPa)
#
#
# Indices 1 2 3 4 5 6 
#
# 1 114.4832 27.5298 22.8376 0.0000 0.0000 0.0000
# 2 27.5298 75.7824 -13.0210 0.0000 0.0000 0.0000
# 3 22.8376 -13.0210 32.5818 0.0000 0.0000 0.0000
# 4 0.0000 0.0000 0.0000 23.0319 0.0000 0.0000
# 5 0.0000 0.0000 0.0000 0.0000 14.8335 0.0000
# 6 0.0000 0.0000 0.0000 0.0000 0.0000 38.2752
#
#
#
# Elastic Compliance Matrix: (Units=1/GPa)
#
#
# Indices 1 2 3 4 5 6 
#
# 1 0.012589 -0.006538 -0.011437 0.000000 0.000000 0.000000
# 2 -0.006538 0.017564 0.011602 0.000000 0.000000 0.000000
# 3 -0.011437 0.011602 0.043345 0.000000 0.000000 0.000000
# 4 0.000000 0.000000 0.000000 0.043418 0.000000 0.000000
# 5 0.000000 0.000000 0.000000 0.000000 0.067415 0.000000
# 6 0.000000 0.000000 0.000000 0.000000 0.000000 0.026127
#
#
# Mechanical properties :
#
#
# Convention : Reuss Voigt Hill
#
# Bulk Modulus (GPa) = 16.46018 33.06002 24.76010
# Shear Modulus (GPa) = 20.53782 27.59487 24.06635
#
# Velocity S-wave (km/s) = 3.12854 3.62642 3.38664
# Velocity P-wave (km/s) = 4.57108 5.76976 5.20504
#
# Compressibility (1/GPa) = 0.06075269
#
# Stress axis : x y z
#
# Youngs Moduli (GPa) = 79.43713 56.93361 23.07073
#
# Poissons Ratio (x) = 0.37224 0.26385
# Poissons Ratio (y) = 0.51937 -0.26767
# Poissons Ratio (z) = 0.90849 -0.66056
#
# Static dielectric constant tensor:
#      x y z
#    x 1.754560 0.000000 0.000000 
#    y 0.000000 1.758850 0.000000 
#    z 0.000000 0.000000 1.765700 
# 
# From -- ./inp_files/4689.got.cif
#   From: 2010.05.17/outbox.cif.g08.bks.cpg/sg19_3_cif.got.tgz:4689.got - 2010.06.03 22:46:19.
