data_PCOD9315458
_publ_section_title
;
Structure prediction by ZEFSAII (Michael W. Deem and Ramdas Pophale) SiO2 
 PCOD9315458
Probable space group: P 21 21 21
;
_chemical_formula_sum "Si O2"
_cell_formula_units_Z 28
_cell_length_a 4.898059
_cell_length_b 9.193562
_cell_length_c 24.283693
_cell_angle_alpha 90.000000
_cell_angle_beta 90.000000
_cell_angle_gamma 90.000000
_cell_volume 1093.509487
_symmetry_space_group_name_H-M "P 21 21 21"
_symmetry_group_IT_number 19
_symmetry_cell_setting 'orthorhombic'
loop_
_space_group_symop_operation_xyz
x,y,z
1/2-x,-y,1/2+z
1/2+x,1/2-y,-z
-x,1/2+y,1/2-z
loop_
_atom_site_type_symbol
_atom_site_label
_atom_site_fract_x
_atom_site_fract_y
_atom_site_fract_z
Si Si1 0.324960 0.486493 0.802188
Si Si2 0.666886 0.448433 0.442094
Si Si3 0.476708 0.586397 0.626646
Si Si4 0.482634 0.824746 0.944694
Si Si5 0.044860 0.272376 0.889968
Si Si6 0.115481 0.733106 0.857681
Si Si7 0.825106 0.467802 0.727370
O O1 0.203670 0.367178 0.843788
O O2 0.369170 0.637333 0.834769
O O3 0.594826 0.430043 0.772430
O O4 0.084326 0.529135 0.759496
O O5 0.930120 0.343965 0.451142
O O6 0.505116 0.400654 0.496645
O O7 0.605933 0.618740 0.433009
O O8 0.580086 0.386788 0.382456
O O9 0.377655 0.435407 0.598644
O O10 0.707612 0.668452 0.589240
O O11 0.647059 0.555849 0.682409
O O12 0.204954 0.679741 0.634297
O O13 0.194720 0.818407 0.913100
O O14 0.045906 0.837844 0.808369
#
# Coordination Sequence:
#
# PCOD9315458 Si02
#       7
#     4   4   4   4   4   4   4
#     4  11  26  43  69 100 142 193 240 293 355 426
#     4  11  25  46  77 104 143 190 246 308 370 432
#     4  11  27  47  71 106 152 190 243 305 368 447
#     4  11  25  46  77 104 143 190 246 308 370 432
#     4  11  27  47  71 106 152 190 243 305 368 447
#     4  10  26  44  66 104 138 180 248 292 350 432
#     4  11  26  43  69 100 142 193 240 293 355 426
#
# _framework density 25.605629
#
# number of rings (size 3 to 8) (size 9 to 14) (size 15 to 20)
#    0.000    1.143    1.429    1.714   22.000    1.143 
#    0.000    0.000    0.000    0.000    0.000    0.000 
#    0.000    0.000    0.000    0.000    0.000    0.000 
#
# Total GULP energy -156167.502891 kJ/mol
# GULP energy per Si atom -5577.410818 kJ/mol
# Density = 2.554735 g / cm^3
# Si number density = 25.605629 Si / 1000 Ang^3
#
#
#
# Elastic Constant Matrix: (Units=GPa)
#
#
# Indices 1 2 3 4 5 6 
#
# 1 112.0653 20.5513 23.0128 0.0000 0.0000 0.0000
# 2 20.5513 63.7107 17.6664 0.0000 0.0000 0.0000
# 3 23.0128 17.6664 89.4434 0.0000 0.0000 0.0000
# 4 0.0000 0.0000 0.0000 33.1830 0.0000 0.0000
# 5 0.0000 0.0000 0.0000 0.0000 27.7666 0.0000
# 6 0.0000 0.0000 0.0000 0.0000 0.0000 30.8780
#
#
#
# Elastic Compliance Matrix: (Units=1/GPa)
#
#
# Indices 1 2 3 4 5 6 
#
# 1 0.009814 -0.002609 -0.002010 0.000000 0.000000 0.000000
# 2 -0.002609 0.017299 -0.002746 0.000000 0.000000 0.000000
# 3 -0.002010 -0.002746 0.012240 0.000000 0.000000 0.000000
# 4 0.000000 0.000000 0.000000 0.030136 0.000000 0.000000
# 5 0.000000 0.000000 0.000000 0.000000 0.036015 0.000000
# 6 0.000000 0.000000 0.000000 0.000000 0.000000 0.032386
#
#
# Mechanical properties :
#
#
# Convention : Reuss Voigt Hill
#
# Bulk Modulus (GPa) = 40.60959 43.07561 41.84260
# Shear Modulus (GPa) = 31.08964 31.96477 31.52721
#
# Velocity S-wave (km/s) = 3.48828 3.53703 3.51274
# Velocity P-wave (km/s) = 5.66729 5.79137 5.72967
#
# Compressibility (1/GPa) = 0.02462473
#
# Stress axis : x y z
#
# Youngs Moduli (GPa) = 101.89017 57.80770 81.70143
#
# Poissons Ratio (x) = 0.15079 0.16421
# Poissons Ratio (y) = 0.26579 0.22432
# Poissons Ratio (z) = 0.20479 0.15872
#
# Static dielectric constant tensor:
#      x y z
#    x 2.092850 0.000000 0.000000 
#    y 0.000000 2.173280 0.000000 
#    z 0.000000 0.000000 2.039820 
# 
# From -- ./inp_files/7275.got.cif
#   From: 2010.05.17/outbox.cif.g08.bks.cpg/sg19_4_cif.got.tgz:7275.got - 2010.06.03 22:46:19.
