data_PCOD9315271
_publ_section_title
;
Structure prediction by ZEFSAII (Michael W. Deem and Ramdas Pophale) SiO2 
 PCOD9315271
Probable space group: P 21 21 21
;
_chemical_formula_sum "Si O2"
_cell_formula_units_Z 28
_cell_length_a 16.303805
_cell_length_b 7.414308
_cell_length_c 8.709047
_cell_angle_alpha 90.000000
_cell_angle_beta 90.000000
_cell_angle_gamma 90.000000
_cell_volume 1052.762071
_symmetry_space_group_name_H-M "P 21 21 21"
_symmetry_group_IT_number 19
_symmetry_cell_setting 'orthorhombic'
loop_
_space_group_symop_operation_xyz
x,y,z
1/2-x,-y,1/2+z
1/2+x,1/2-y,-z
-x,1/2+y,1/2-z
loop_
_atom_site_type_symbol
_atom_site_label
_atom_site_fract_x
_atom_site_fract_y
_atom_site_fract_z
Si Si1 0.060766 0.405680 0.981832
Si Si2 0.014864 0.427675 0.495652
Si Si3 0.076314 0.182262 0.249838
Si Si4 0.195074 0.570712 0.560973
Si Si5 0.183340 0.694294 0.904691
Si Si6 0.863289 0.437431 0.018578
Si Si7 0.623030 0.448425 0.181746
O O1 0.095649 0.595622 0.927106
O O2 0.961831 0.387295 0.001227
O O3 0.104115 0.252478 0.874841
O O4 0.097493 0.357591 0.151032
O O5 0.105869 0.486466 0.535558
O O6 0.970383 0.560049 0.373669
O O7 0.964701 0.450827 0.653115
O O8 0.022959 0.248890 0.393529
O O9 0.144246 0.063202 0.332990
O O10 0.207389 0.642596 0.732008
O O11 0.257233 0.415845 0.514276
O O12 0.190501 0.757426 0.464281
O O13 0.176896 0.910604 0.919533
O O14 0.848459 0.536901 0.856599
#
# Coordination Sequence:
#
# PCOD9315271 Si02
#       7
#     4   4   4   4   4   4   4
#     4  11  23  43  68 101 137 180 228 281 348 404
#     4  11  21  40  65 101 129 177 228 279 345 393
#     4  11  22  36  67 100 135 169 228 291 327 404
#     4  11  25  46  66  99 138 185 224 283 352 416
#     4  11  27  45  69  99 142 181 225 288 351 412
#     4  11  22  42  66 103 134 176 235 282 338 413
#     4  10  24  42  69  99 135 176 232 282 339 406
#
# _framework density 26.596703000000002
#
# number of rings (size 3 to 8) (size 9 to 14) (size 15 to 20)
#    0.000    1.143    4.286    1.714    8.000    2.286 
#    2.571    0.000    0.000    0.000    0.000    0.000 
#    0.000    0.000    0.000    0.000    0.000    0.000 
#
# Total GULP energy -156657.845230 kJ/mol
# GULP energy per Si atom -5594.923044 kJ/mol
# Density = 2.653617 g / cm^3
# Si number density = 26.596703 Si / 1000 Ang^3
#
#
#
# Elastic Constant Matrix: (Units=GPa)
#
#
# Indices 1 2 3 4 5 6 
#
# 1 70.8264 7.5545 -10.3336 0.0000 0.0000 0.0000
# 2 7.5545 95.6532 22.4385 0.0000 0.0000 0.0000
# 3 -10.3336 22.4385 76.4815 0.0000 0.0000 0.0000
# 4 0.0000 0.0000 0.0000 39.1326 0.0000 0.0000
# 5 0.0000 0.0000 0.0000 0.0000 26.2367 0.0000
# 6 0.0000 0.0000 0.0000 0.0000 0.0000 36.8827
#
#
#
# Elastic Compliance Matrix: (Units=1/GPa)
#
#
# Indices 1 2 3 4 5 6 
#
# 1 0.014669 -0.001743 0.002493 0.000000 0.000000 0.000000
# 2 -0.001743 0.011434 -0.003590 0.000000 0.000000 0.000000
# 3 0.002493 -0.003590 0.014465 0.000000 0.000000 0.000000
# 4 0.000000 0.000000 0.000000 0.025554 0.000000 0.000000
# 5 0.000000 0.000000 0.000000 0.000000 0.038115 0.000000
# 6 0.000000 0.000000 0.000000 0.000000 0.000000 0.027113
#
#
# Mechanical properties :
#
#
# Convention : Reuss Voigt Hill
#
# Bulk Modulus (GPa) = 28.66320 31.36445 30.01382
# Shear Modulus (GPa) = 33.63385 35.33718 34.48551
#
# Velocity S-wave (km/s) = 3.55996 3.64899 3.60475
# Velocity P-wave (km/s) = 5.26290 5.43799 5.35116
#
# Compressibility (1/GPa) = 0.03488794
#
# Stress axis : x y z
#
# Youngs Moduli (GPa) = 68.17197 87.45601 69.13112
#
# Poissons Ratio (x) = 0.15247 -0.17237
# Poissons Ratio (y) = 0.11885 0.24820
# Poissons Ratio (z) = -0.16998 0.31399
#
# Static dielectric constant tensor:
#      x y z
#    x 2.171090 0.000000 0.000000 
#    y 0.000000 2.165000 0.000000 
#    z 0.000000 0.000000 2.058340 
# 
# From -- ./inp_files/4304.got.cif
#   From: 2010.05.17/outbox.cif.g08.bks.cpg/sg19_3_cif.got.tgz:4304.got - 2010.06.03 22:46:19.
