data_PCOD9315815
_publ_section_title
;
Structure prediction by ZEFSAII (Michael W. Deem and Ramdas Pophale) SiO2 
 PCOD9315815
Probable space group: P 21 21 21
;
_chemical_formula_sum "Si O2"
_cell_formula_units_Z 24
_cell_length_a 13.787944
_cell_length_b 7.912131
_cell_length_c 8.655200
_cell_angle_alpha 90.000000
_cell_angle_beta 90.000000
_cell_angle_gamma 90.000000
_cell_volume 944.213244
_symmetry_space_group_name_H-M "P 21 21 21"
_symmetry_group_IT_number 19
_symmetry_cell_setting 'orthorhombic'
loop_
_space_group_symop_operation_xyz
x,y,z
1/2-x,-y,1/2+z
1/2+x,1/2-y,-z
-x,1/2+y,1/2-z
loop_
_atom_site_type_symbol
_atom_site_label
_atom_site_fract_x
_atom_site_fract_y
_atom_site_fract_z
Si Si1 0.848992 0.349927 0.037540
Si Si2 0.708474 0.047526 0.956764
Si Si3 0.821499 0.498637 0.701655
Si Si4 0.542116 0.261145 0.809055
Si Si5 0.862112 0.875982 0.764225
Si Si6 0.471433 0.111078 0.513683
O O1 0.793722 0.170349 0.021767
O O2 0.788663 0.465376 0.155869
O O3 0.956984 0.327010 0.092817
O O4 0.838612 0.427994 0.869523
O O5 0.647445 0.008888 0.111442
O O6 0.640699 0.158047 0.842401
O O7 0.763799 0.901947 0.864217
O O8 0.869907 0.379225 0.574512
O O9 0.870496 0.685039 0.700981
O O10 0.540764 0.447683 0.878014
O O11 0.509634 0.253477 0.630301
O O12 0.950477 0.914258 0.877406
#
# Coordination Sequence:
#
# PCOD9315815 Si02
#       6
#     4   4   4   4   4   4
#     4  11  24  46  71 100 146 178 238 291 353 418
#     4  11  24  46  71 101 142 181 238 292 351 428
#     4  11  26  46  70 106 139 186 235 292 358 425
#     4  12  26  47  69 104 141 187 237 291 353 427
#     4  11  24  46  73 101 141 184 234 293 354 422
#     4  12  26  47  70 104 145 184 240 291 353 426
#
# _framework density 25.417985999999999
#
# number of rings (size 3 to 8) (size 9 to 14) (size 15 to 20)
#    0.000    0.667    5.000    3.000    4.667    1.333 
#    3.000    0.000    0.000    0.000    0.000    0.000 
#    0.000    0.000    0.000    0.000    0.000    0.000 
#
# Total GULP energy -134560.597616 kJ/mol
# GULP energy per Si atom -5606.691567 kJ/mol
# Density = 2.536013 g / cm^3
# Si number density = 25.417986 Si / 1000 Ang^3
#
#
#
# Elastic Constant Matrix: (Units=GPa)
#
#
# Indices 1 2 3 4 5 6 
#
# 1 70.6273 10.0138 -7.3805 0.0000 0.0000 0.0000
# 2 10.0138 72.6863 30.3981 0.0000 0.0000 0.0000
# 3 -7.3805 30.3981 118.7833 0.0000 0.0000 0.0000
# 4 0.0000 0.0000 0.0000 46.7034 0.0000 0.0000
# 5 0.0000 0.0000 0.0000 0.0000 48.5781 0.0000
# 6 0.0000 0.0000 0.0000 0.0000 0.0000 15.8083
#
#
#
# Elastic Compliance Matrix: (Units=1/GPa)
#
#
# Indices 1 2 3 4 5 6 
#
# 1 0.014709 -0.002697 0.001604 0.000000 0.000000 0.000000
# 2 -0.002697 0.015901 -0.004237 0.000000 0.000000 0.000000
# 3 0.001604 -0.004237 0.009603 0.000000 0.000000 0.000000
# 4 0.000000 0.000000 0.000000 0.021412 0.000000 0.000000
# 5 0.000000 0.000000 0.000000 0.000000 0.020585 0.000000
# 6 0.000000 0.000000 0.000000 0.000000 0.000000 0.063258
#
#
# Mechanical properties :
#
#
# Convention : Reuss Voigt Hill
#
# Bulk Modulus (GPa) = 33.83777 36.46218 35.14997
# Shear Modulus (GPa) = 30.12432 37.48897 33.80665
#
# Velocity S-wave (km/s) = 3.44635 3.84461 3.65091
# Velocity P-wave (km/s) = 5.40165 5.83817 5.62415
#
# Compressibility (1/GPa) = 0.02955278
#
# Stress axis : x y z
#
# Youngs Moduli (GPa) = 67.98600 62.88807 104.13791
#
# Poissons Ratio (x) = 0.16963 -0.16706
# Poissons Ratio (y) = 0.18338 0.44122
# Poissons Ratio (z) = -0.10906 0.26645
#
# Static dielectric constant tensor:
#      x y z
#    x 1.998670 0.000000 0.000000 
#    y 0.000000 2.021720 0.000000 
#    z 0.000000 0.000000 1.980620 
# 
# From -- ./inp_files/3380.got.cif
#   From: 2010.05.17/outbox.cif.g08.bks.cpg/sg19_2_cif.got.tgz:3380.got - 2010.06.03 22:46:19.
