data_PCOD9315751
_publ_section_title
;
Structure prediction by ZEFSAII (Michael W. Deem and Ramdas Pophale) SiO2 
 PCOD9315751
Probable space group: P 21 21 21
;
_chemical_formula_sum "Si O2"
_cell_formula_units_Z 32
_cell_length_a 15.294499
_cell_length_b 5.828133
_cell_length_c 13.764817
_cell_angle_alpha 90.000000
_cell_angle_beta 90.000000
_cell_angle_gamma 90.000000
_cell_volume 1226.973410
_symmetry_space_group_name_H-M "P 21 21 21"
_symmetry_group_IT_number 19
_symmetry_cell_setting 'orthorhombic'
loop_
_space_group_symop_operation_xyz
x,y,z
1/2-x,-y,1/2+z
1/2+x,1/2-y,-z
-x,1/2+y,1/2-z
loop_
_atom_site_type_symbol
_atom_site_label
_atom_site_fract_x
_atom_site_fract_y
_atom_site_fract_z
Si Si1 0.954202 0.043645 0.101500
Si Si2 0.997780 0.600839 0.619902
Si Si3 0.352448 0.899095 0.046812
Si Si4 0.446303 0.403140 0.422570
Si Si5 0.702718 0.962313 0.914278
Si Si6 0.826364 0.250142 0.801308
Si Si7 0.597196 0.668544 0.774288
Si Si8 0.692998 0.315579 0.648665
O O1 0.969043 0.118641 0.992125
O O2 0.955009 0.245676 0.180612
O O3 0.866073 0.899614 0.117858
O O4 0.034368 0.890778 0.137630
O O5 0.946789 0.356736 0.625825
O O6 0.086927 0.599072 0.682430
O O7 0.950570 0.848595 0.633846
O O8 0.285218 0.692303 0.058609
O O9 0.312240 0.989571 0.943670
O O10 0.456213 0.879448 0.028671
O O11 0.353699 0.006288 0.154950
O O12 0.369133 0.445624 0.501120
O O13 0.660499 0.861215 0.816272
O O14 0.750432 0.192545 0.881170
O O15 0.783979 0.237491 0.695446
O O16 0.648929 0.450028 0.737195
#
# Coordination Sequence:
#
# PCOD9315751 Si02
#       8
#     4   4   4   4   4   4   4   4
#     4  12  23  35  59  95 140 169 210 274 349 427
#     4  11  24  43  63  92 139 181 215 276 338 405
#     4  11  24  45  61  97 141 175 230 286 345 406
#     4  11  24  40  69  96 135 182 219 276 348 404
#     4  12  23  40  65  98 134 180 226 276 342 423
#     4  11  24  41  65  92 136 183 230 277 348 412
#     4  12  23  33  59  96 134 170 216 270 350 432
#     4  12  23  39  63  94 129 180 222 283 340 419
#
# _framework density 26.080435000000001
#
# number of rings (size 3 to 8) (size 9 to 14) (size 15 to 20)
#    0.000    0.500    7.500    1.500    5.250    0.000 
#    0.000    0.000    0.000    3.000    0.000    0.000 
#    0.000    0.000    0.000    0.000    0.000    0.000 
#
# Total GULP energy -178693.582483 kJ/mol
# GULP energy per Si atom -5584.174453 kJ/mol
# Density = 2.602107 g / cm^3
# Si number density = 26.080435 Si / 1000 Ang^3
#
#
#
# Elastic Constant Matrix: (Units=GPa)
#
#
# Indices 1 2 3 4 5 6 
#
# 1 71.3861 35.1744 8.3053 0.0000 0.0000 0.0000
# 2 35.1744 92.9390 13.5381 0.0000 0.0000 0.0000
# 3 8.3053 13.5381 103.7477 0.0000 0.0000 0.0000
# 4 0.0000 0.0000 0.0000 43.0036 0.0000 0.0000
# 5 0.0000 0.0000 0.0000 0.0000 48.5542 0.0000
# 6 0.0000 0.0000 0.0000 0.0000 0.0000 34.9614
#
#
#
# Elastic Compliance Matrix: (Units=1/GPa)
#
#
# Indices 1 2 3 4 5 6 
#
# 1 0.017249 -0.006450 -0.000539 0.000000 0.000000 0.000000
# 2 -0.006450 0.013380 -0.001230 0.000000 0.000000 0.000000
# 3 -0.000539 -0.001230 0.009842 0.000000 0.000000 0.000000
# 4 0.000000 0.000000 0.000000 0.023254 0.000000 0.000000
# 5 0.000000 0.000000 0.000000 0.000000 0.020596 0.000000
# 6 0.000000 0.000000 0.000000 0.000000 0.000000 0.028603
#
#
# Mechanical properties :
#
#
# Convention : Reuss Voigt Hill
#
# Bulk Modulus (GPa) = 41.60725 42.45647 42.03186
# Shear Modulus (GPa) = 36.39752 39.37419 37.88586
#
# Velocity S-wave (km/s) = 3.73981 3.88973 3.81551
# Velocity P-wave (km/s) = 5.88526 6.04051 5.96339
#
# Compressibility (1/GPa) = 0.02403427
#
# Stress axis : x y z
#
# Youngs Moduli (GPa) = 57.97432 74.73930 101.60131
#
# Poissons Ratio (x) = 0.48204 0.05479
# Poissons Ratio (y) = 0.37391 0.12493
# Poissons Ratio (z) = 0.03126 0.09190
#
# Static dielectric constant tensor:
#      x y z
#    x 2.066750 0.000000 0.000000 
#    y 0.000000 1.998360 0.000000 
#    z 0.000000 0.000000 2.148650 
# 
# From -- ./inp_files/6302.got.cif
#   From: 2010.05.17/outbox.cif.g08.bks.cpg/sg19_4_cif.got.tgz:6302.got - 2010.06.03 22:46:19.
