data_PCOD9315016
_publ_section_title
;
Structure prediction by ZEFSAII (Michael W. Deem and Ramdas Pophale) SiO2 
 PCOD9315016
Probable space group: P 21 21 21
;
_chemical_formula_sum "Si O2"
_cell_formula_units_Z 32
_cell_length_a 14.069396
_cell_length_b 11.599346
_cell_length_c 7.545940
_cell_angle_alpha 90.000000
_cell_angle_beta 90.000000
_cell_angle_gamma 90.000000
_cell_volume 1231.465656
_symmetry_space_group_name_H-M "P 21 21 21"
_symmetry_group_IT_number 19
_symmetry_cell_setting 'orthorhombic'
loop_
_space_group_symop_operation_xyz
x,y,z
1/2-x,-y,1/2+z
1/2+x,1/2-y,-z
-x,1/2+y,1/2-z
loop_
_atom_site_type_symbol
_atom_site_label
_atom_site_fract_x
_atom_site_fract_y
_atom_site_fract_z
Si Si1 0.905646 0.670567 0.969704
Si Si2 0.577568 0.994170 0.700346
Si Si3 0.357182 0.253071 0.940706
Si Si4 0.937098 0.424739 0.797041
Si Si5 0.320546 0.439996 0.486542
Si Si6 0.220951 0.285022 0.247166
Si Si7 0.079270 0.845005 0.072817
Si Si8 0.351647 0.625253 0.238565
O O1 0.911231 0.541517 0.897809
O O2 0.866784 0.742590 0.799680
O O3 0.996625 0.751263 0.023724
O O4 0.832256 0.689692 0.133216
O O5 0.648298 0.104773 0.726799
O O6 0.476731 0.045301 0.653304
O O7 0.608765 0.886378 0.578373
O O8 0.586460 0.941110 0.895233
O O9 0.430870 0.177112 0.056869
O O10 0.261171 0.240757 0.059394
O O11 0.228715 0.414686 0.603497
O O12 0.880745 0.390122 0.616734
O O13 0.045442 0.433736 0.726366
O O14 0.314757 0.343419 0.337248
O O15 0.357802 0.204823 0.736542
O O16 0.312833 0.567673 0.413267
#
# Coordination Sequence:
#
# PCOD9315016 Si02
#       8
#     4   4   4   4   4   4   4   4
#     4   9  23  49  75 113 163 212 273 337 406 496
#     4  11  24  45  75 117 159 202 272 339 395 478
#     4  12  28  46  79 121 157 216 265 340 418 480
#     4  11  26  49  78 112 165 219 267 332 423 504
#     4  11  21  38  71 110 155 199 266 338 395 461
#     4  10  23  45  76 112 155 207 270 339 402 478
#     4  10  26  46  75 119 163 210 272 334 413 495
#     4  10  23  40  71 116 155 209 265 339 404 474
#
# _framework density 25.985298
#
# number of rings (size 3 to 8) (size 9 to 14) (size 15 to 20)
#    0.000    1.500    1.250    2.250   14.000    0.000 
#    0.000    2.500    0.000    0.000    0.000    0.000 
#    0.000    0.000    0.000    0.000    0.000    0.000 
#
# Total GULP energy -178606.484363 kJ/mol
# GULP energy per Si atom -5581.452636 kJ/mol
# Density = 2.592615 g / cm^3
# Si number density = 25.985298 Si / 1000 Ang^3
#
#
#
# Elastic Constant Matrix: (Units=GPa)
#
#
# Indices 1 2 3 4 5 6 
#
# 1 56.5543 68.3307 38.0084 0.0000 0.0000 0.0000
# 2 68.3307 167.9596 78.5022 0.0000 0.0000 0.0000
# 3 38.0084 78.5022 173.3451 0.0000 0.0000 0.0000
# 4 0.0000 0.0000 0.0000 40.9527 0.0000 0.0000
# 5 0.0000 0.0000 0.0000 0.0000 40.7835 0.0000
# 6 0.0000 0.0000 0.0000 0.0000 0.0000 31.9110
#
#
#
# Elastic Compliance Matrix: (Units=1/GPa)
#
#
# Indices 1 2 3 4 5 6 
#
# 1 0.035105 -0.013553 -0.001560 0.000000 0.000000 0.000000
# 2 -0.013553 0.012785 -0.002818 0.000000 0.000000 0.000000
# 3 -0.001560 -0.002818 0.007387 0.000000 0.000000 0.000000
# 4 0.000000 0.000000 0.000000 0.024418 0.000000 0.000000
# 5 0.000000 0.000000 0.000000 0.000000 0.024520 0.000000
# 6 0.000000 0.000000 0.000000 0.000000 0.000000 0.031337
#
#
# Mechanical properties :
#
#
# Convention : Reuss Voigt Hill
#
# Bulk Modulus (GPa) = 51.50457 85.28241 68.39349
# Shear Modulus (GPa) = 28.10794 36.93062 32.51928
#
# Velocity S-wave (km/s) = 3.29247 3.77399 3.54142
# Velocity P-wave (km/s) = 5.85811 7.20287 6.56502
#
# Compressibility (1/GPa) = 0.01941575
#
# Stress axis : x y z
#
# Youngs Moduli (GPa) = 28.48562 78.21881 135.37224
#
# Poissons Ratio (x) = 1.06009 0.21114
# Poissons Ratio (y) = 0.38606 0.38149
# Poissons Ratio (z) = 0.04443 0.22043
#
# Static dielectric constant tensor:
#      x y z
#    x 2.177930 0.000000 0.000000 
#    y 0.000000 2.040630 0.000000 
#    z 0.000000 0.000000 2.235450 
# 
# From -- ./inp_files/3924.got.cif
#   From: 2010.05.17/outbox.cif.g08.bks.cpg/sg19_2_cif.got.tgz:3924.got - 2010.06.03 22:46:19.
