data_PCOD9315770
_publ_section_title
;
Structure prediction by ZEFSAII (Michael W. Deem and Ramdas Pophale) SiO2 
 PCOD9315770
Probable space group: P 21 21 21
;
_chemical_formula_sum "Si O2"
_cell_formula_units_Z 32
_cell_length_a 12.803222
_cell_length_b 14.084562
_cell_length_c 8.005927
_cell_angle_alpha 90.000000
_cell_angle_beta 90.000000
_cell_angle_gamma 90.000000
_cell_volume 1443.690995
_symmetry_space_group_name_H-M "P 21 21 21"
_symmetry_group_IT_number 19
_symmetry_cell_setting 'orthorhombic'
loop_
_space_group_symop_operation_xyz
x,y,z
1/2-x,-y,1/2+z
1/2+x,1/2-y,-z
-x,1/2+y,1/2-z
loop_
_atom_site_type_symbol
_atom_site_label
_atom_site_fract_x
_atom_site_fract_y
_atom_site_fract_z
Si Si1 0.195318 0.312755 0.417968
Si Si2 0.776906 0.363788 0.364637
Si Si3 0.176096 0.698296 0.369094
Si Si4 0.021189 0.887626 0.926694
Si Si5 0.022218 0.745672 0.638006
Si Si6 0.108802 0.579840 0.063294
Si Si7 0.135369 0.361898 0.060806
Si Si8 0.067746 0.067155 0.707135
O O1 0.223681 0.214267 0.510724
O O2 0.293952 0.381218 0.454146
O O3 0.173035 0.303621 0.221778
O O4 0.090488 0.359255 0.496761
O O5 0.801906 0.303404 0.198736
O O6 0.886485 0.397973 0.439277
O O7 0.689707 0.443810 0.335335
O O8 0.116838 0.697854 0.542967
O O9 0.110055 0.644968 0.227319
O O10 0.285355 0.646940 0.404962
O O11 0.052537 0.801318 0.804149
O O12 0.020006 0.981290 0.813069
O O13 0.971436 0.819276 0.508877
O O14 0.941535 0.663758 0.686787
O O15 0.126981 0.470985 0.111495
O O16 0.003738 0.583230 0.955331
#
# Coordination Sequence:
#
# PCOD9315770 Si02
#       8
#     4   4   4   4   4   4   4   4
#     4  11  25  44  77 103 144 184 241 301 369 419
#     4  11  25  49  70  99 149 189 237 293 366 442
#     4  11  24  43  71 103 142 182 238 293 366 429
#     4  12  26  49  73 105 144 197 244 303 365 443
#     4  12  24  45  70 102 141 184 237 301 358 427
#     4  11  25  43  70 107 139 183 238 303 357 429
#     4  12  23  42  68 106 137 177 236 302 358 426
#     4  12  26  47  71 103 148 192 239 294 369 439
#
# _framework density 22.165410000000001
#
# number of rings (size 3 to 8) (size 9 to 14) (size 15 to 20)
#    0.000    0.500    3.750    5.250    7.000    1.000 
#    4.500    0.000    0.000    0.000    0.000    0.000 
#    0.000    0.000    0.000    0.000    0.000    0.000 
#
# Total GULP energy -179108.794035 kJ/mol
# GULP energy per Si atom -5597.149814 kJ/mol
# Density = 2.211496 g / cm^3
# Si number density = 22.165410 Si / 1000 Ang^3
#
#
#
# Elastic Constant Matrix: (Units=GPa)
#
#
# Indices 1 2 3 4 5 6 
#
# 1 79.8752 0.1595 -0.9796 0.0000 0.0000 0.0000
# 2 0.1595 39.2881 -1.8448 0.0000 0.0000 0.0000
# 3 -0.9796 -1.8448 44.7290 0.0000 0.0000 0.0000
# 4 0.0000 0.0000 0.0000 18.0960 0.0000 0.0000
# 5 0.0000 0.0000 0.0000 0.0000 34.3694 0.0000
# 6 0.0000 0.0000 0.0000 0.0000 0.0000 21.1336
#
#
#
# Elastic Compliance Matrix: (Units=1/GPa)
#
#
# Indices 1 2 3 4 5 6 
#
# 1 0.012523 -0.000038 0.000273 0.000000 0.000000 0.000000
# 2 -0.000038 0.025502 0.001051 0.000000 0.000000 0.000000
# 3 0.000273 0.001051 0.022406 0.000000 0.000000 0.000000
# 4 0.000000 0.000000 0.000000 0.055261 0.000000 0.000000
# 5 0.000000 0.000000 0.000000 0.000000 0.029096 0.000000
# 6 0.000000 0.000000 0.000000 0.000000 0.000000 0.047318
#
#
# Mechanical properties :
#
#
# Convention : Reuss Voigt Hill
#
# Bulk Modulus (GPa) = 15.87230 17.61807 16.74519
# Shear Modulus (GPa) = 23.74891 25.82359 24.78625
#
# Velocity S-wave (km/s) = 3.27684 3.41697 3.34764
# Velocity P-wave (km/s) = 4.63608 4.85111 4.74482
#
# Compressibility (1/GPa) = 0.06300286
#
# Stress axis : x y z
#
# Youngs Moduli (GPa) = 79.85339 39.21185 44.63056
#
# Poissons Ratio (x) = 0.00149 -0.01217
# Poissons Ratio (y) = 0.00304 -0.04691
# Poissons Ratio (z) = -0.02178 -0.04121
#
# Static dielectric constant tensor:
#      x y z
#    x 1.831290 0.000000 0.000000 
#    y 0.000000 1.799030 0.000000 
#    z 0.000000 0.000000 1.804230 
# 
# From -- ./inp_files/3638.got.cif
#   From: 2010.05.17/outbox.cif.g08.bks.cpg/sg19_2_cif.got.tgz:3638.got - 2010.06.03 22:46:19.
