data_PCOD9315961
_publ_section_title
;
Structure prediction by ZEFSAII (Michael W. Deem and Ramdas Pophale) SiO2 
 PCOD9315961
Probable space group: P 21 21 21
;
_chemical_formula_sum "Si O2"
_cell_formula_units_Z 28
_cell_length_a 5.130275
_cell_length_b 10.830380
_cell_length_c 20.011606
_cell_angle_alpha 90.000000
_cell_angle_beta 90.000000
_cell_angle_gamma 90.000000
_cell_volume 1111.901417
_symmetry_space_group_name_H-M "P 21 21 21"
_symmetry_group_IT_number 19
_symmetry_cell_setting 'orthorhombic'
loop_
_space_group_symop_operation_xyz
x,y,z
1/2-x,-y,1/2+z
1/2+x,1/2-y,-z
-x,1/2+y,1/2-z
loop_
_atom_site_type_symbol
_atom_site_label
_atom_site_fract_x
_atom_site_fract_y
_atom_site_fract_z
Si Si1 0.323553 0.691067 0.669132
Si Si2 0.712516 0.994147 0.446993
Si Si3 0.572716 0.668580 0.486868
Si Si4 0.149928 0.980428 0.078273
Si Si5 0.616128 0.243291 0.366146
Si Si6 0.190189 0.319006 0.781154
Si Si7 0.791908 0.918433 0.199625
O O1 0.579110 0.777137 0.668175
O O2 0.416337 0.597445 0.727455
O O3 0.069864 0.746537 0.702947
O O4 0.172650 0.896394 0.579998
O O5 0.541414 0.999912 0.514758
O O6 0.637992 0.115526 0.406110
O O7 0.707998 0.879784 0.394805
O O8 0.004364 0.958832 0.472872
O O9 0.809847 0.750635 0.515364
O O10 0.294525 0.848622 0.081102
O O11 0.994579 0.966724 0.146188
O O12 0.767658 0.215429 0.295881
O O13 0.349439 0.303587 0.337219
O O14 0.112652 0.462428 0.787476
#
# Coordination Sequence:
#
# PCOD9315961 Si02
#       7
#     4   4   4   4   4   4   4
#     4  11  27  48  78 114 152 214 267 343 406 492
#     4  12  29  50  81 120 168 212 278 344 421 494
#     4  12  29  54  79 118 164 217 275 339 418 498
#     4  12  28  48  83 117 167 216 274 345 417 497
#     4  11  27  50  78 123 163 219 277 339 421 501
#     4  11  26  51  82 111 157 209 280 335 411 488
#     4  11  26  51  77 119 161 217 273 347 408 496
#
# _framework density 25.182091
#
# number of rings (size 3 to 8) (size 9 to 14) (size 15 to 20)
#    0.000    0.571    4.286    0.857   10.000    1.143 
#    0.000    0.000    0.000    0.000    0.000    0.000 
#    0.000    0.000    0.000    0.000    0.000    0.000 
#
# Total GULP energy -156121.674749 kJ/mol
# GULP energy per Si atom -5575.774098 kJ/mol
# Density = 2.512478 g / cm^3
# Si number density = 25.182091 Si / 1000 Ang^3
#
#
#
# Elastic Constant Matrix: (Units=GPa)
#
#
# Indices 1 2 3 4 5 6 
#
# 1 97.1344 31.7461 17.1207 0.0000 0.0000 0.0000
# 2 31.7461 106.4884 16.7817 0.0000 0.0000 0.0000
# 3 17.1207 16.7817 113.3171 0.0000 0.0000 0.0000
# 4 0.0000 0.0000 0.0000 38.2956 0.0000 0.0000
# 5 0.0000 0.0000 0.0000 0.0000 41.3869 0.0000
# 6 0.0000 0.0000 0.0000 0.0000 0.0000 29.3362
#
#
#
# Elastic Compliance Matrix: (Units=1/GPa)
#
#
# Indices 1 2 3 4 5 6 
#
# 1 0.011582 -0.003253 -0.001268 0.000000 0.000000 0.000000
# 2 -0.003253 0.010529 -0.001068 0.000000 0.000000 0.000000
# 3 -0.001268 -0.001068 0.009175 0.000000 0.000000 0.000000
# 4 0.000000 0.000000 0.000000 0.026113 0.000000 0.000000
# 5 0.000000 0.000000 0.000000 0.000000 0.024162 0.000000
# 6 0.000000 0.000000 0.000000 0.000000 0.000000 0.034088
#
#
# Mechanical properties :
#
#
# Convention : Reuss Voigt Hill
#
# Bulk Modulus (GPa) = 49.73295 49.80408 49.76851
# Shear Modulus (GPa) = 37.44555 38.55651 38.00103
#
# Velocity S-wave (km/s) = 3.86034 3.91718 3.88886
# Velocity P-wave (km/s) = 6.29776 6.34662 6.32224
#
# Compressibility (1/GPa) = 0.02010740
#
# Stress axis : x y z
#
# Youngs Moduli (GPa) = 86.34351 94.97844 108.99757
#
# Poissons Ratio (x) = 0.30895 0.13822
# Poissons Ratio (y) = 0.28086 0.11639
# Poissons Ratio (z) = 0.10949 0.10142
#
# Static dielectric constant tensor:
#      x y z
#    x 2.073630 0.000000 0.000000 
#    y 0.000000 2.189600 0.000000 
#    z 0.000000 0.000000 2.216820 
# 
# From -- ./inp_files/6897.got.cif
#   From: 2010.05.17/outbox.cif.g08.bks.cpg/sg19_4_cif.got.tgz:6897.got - 2010.06.03 22:46:19.
