data_PCOD9315414
_publ_section_title
;
Structure prediction by ZEFSAII (Michael W. Deem and Ramdas Pophale) SiO2 
 PCOD9315414
Probable space group: P 21 21 21
;
_chemical_formula_sum "Si O2"
_cell_formula_units_Z 24
_cell_length_a 15.466294
_cell_length_b 5.267729
_cell_length_c 12.173850
_cell_angle_alpha 90.000000
_cell_angle_beta 90.000000
_cell_angle_gamma 90.000000
_cell_volume 991.830895
_symmetry_space_group_name_H-M "P 21 21 21"
_symmetry_group_IT_number 19
_symmetry_cell_setting 'orthorhombic'
loop_
_space_group_symop_operation_xyz
x,y,z
1/2-x,-y,1/2+z
1/2+x,1/2-y,-z
-x,1/2+y,1/2-z
loop_
_atom_site_type_symbol
_atom_site_label
_atom_site_fract_x
_atom_site_fract_y
_atom_site_fract_z
Si Si1 0.906504 0.804769 0.807869
Si Si2 0.065019 0.041210 0.902668
Si Si3 0.105324 0.694046 0.081309
Si Si4 0.754791 0.882823 0.305596
Si Si5 0.678084 0.628853 0.707702
Si Si6 0.934132 0.433473 0.998775
O O1 0.892661 0.736392 0.680907
O O2 0.840899 0.030039 0.839652
O O3 0.894824 0.575278 0.893252
O O4 0.008041 0.864733 0.822324
O O5 0.990584 0.184352 0.971634
O O6 0.127628 0.882845 0.981014
O O7 0.174222 0.465378 0.100956
O O8 0.105358 0.843931 0.196354
O O9 0.009835 0.607020 0.051070
O O10 0.779434 0.094331 0.214589
O O11 0.765947 0.605442 0.254900
O O12 0.638840 0.592255 0.589435
#
# Coordination Sequence:
#
# PCOD9315414 Si02
#       6
#     4   4   4   4   4   4
#     4  11  25  44  71  97 141 186 234 285 348 422
#     4  11  23  44  70 100 135 191 240 283 341 426
#     4   9  24  40  71 100 137 180 227 291 339 414
#     4  10  25  45  67 107 140 179 222 296 351 411
#     4  10  25  44  68 103 139 177 231 289 356 410
#     4  11  24  43  71  99 136 187 236 286 343 425
#
# _framework density 24.197675
#
# number of rings (size 3 to 8) (size 9 to 14) (size 15 to 20)
#    1.000    0.667    1.667    1.000   11.667    1.333 
#    6.000    0.000    0.000    0.000    0.000    0.000 
#    0.000    0.000    0.000    0.000    0.000    0.000 
#
# Total GULP energy -133994.049644 kJ/mol
# GULP energy per Si atom -5583.085402 kJ/mol
# Density = 2.414260 g / cm^3
# Si number density = 24.197675 Si / 1000 Ang^3
#
#
#
# Elastic Constant Matrix: (Units=GPa)
#
#
# Indices 1 2 3 4 5 6 
#
# 1 61.3410 0.8092 17.0255 0.0000 0.0000 0.0000
# 2 0.8092 76.8933 8.2974 0.0000 0.0000 0.0000
# 3 17.0255 8.2974 78.5069 0.0000 0.0000 0.0000
# 4 0.0000 0.0000 0.0000 29.7307 0.0000 0.0000
# 5 0.0000 0.0000 0.0000 0.0000 20.5067 0.0000
# 6 0.0000 0.0000 0.0000 0.0000 0.0000 36.4956
#
#
#
# Elastic Compliance Matrix: (Units=1/GPa)
#
#
# Indices 1 2 3 4 5 6 
#
# 1 0.017350 0.000226 -0.003787 0.000000 0.000000 0.000000
# 2 0.000226 0.013158 -0.001440 0.000000 0.000000 0.000000
# 3 -0.003787 -0.001440 0.013711 0.000000 0.000000 0.000000
# 4 0.000000 0.000000 0.000000 0.033635 0.000000 0.000000
# 5 0.000000 0.000000 0.000000 0.000000 0.048765 0.000000
# 6 0.000000 0.000000 0.000000 0.000000 0.000000 0.027401
#
#
# Mechanical properties :
#
#
# Convention : Reuss Voigt Hill
#
# Bulk Modulus (GPa) = 29.22361 29.88947 29.55654
# Shear Modulus (GPa) = 28.50194 30.05386 29.27790
#
# Velocity S-wave (km/s) = 3.43575 3.52805 3.48220
# Velocity P-wave (km/s) = 5.27659 5.38286 5.32999
#
# Compressibility (1/GPa) = 0.03421890
#
# Stress axis : x y z
#
# Youngs Moduli (GPa) = 57.63584 75.99935 72.93375
#
# Poissons Ratio (x) = -0.01718 0.27617
# Poissons Ratio (y) = -0.01303 0.10500
# Poissons Ratio (z) = 0.21824 0.10942
#
# Static dielectric constant tensor:
#      x y z
#    x 1.989760 0.000000 0.000000 
#    y 0.000000 2.012630 0.000000 
#    z 0.000000 0.000000 1.941110 
# 
# From -- ./inp_files/960.got.cif
#   From: 2010.05.17/outbox.cif.g08.bks.cpg/sg19_1_cif.got.tgz:960.got - 2010.06.03 22:46:19.
