data_PCOD9315300
_publ_section_title
;
Structure prediction by ZEFSAII (Michael W. Deem and Ramdas Pophale) SiO2 
 PCOD9315300
Probable space group: P 21 21 21
;
_chemical_formula_sum "Si O2"
_cell_formula_units_Z 32
_cell_length_a 12.188695
_cell_length_b 7.866237
_cell_length_c 14.201578
_cell_angle_alpha 90.000000
_cell_angle_beta 90.000000
_cell_angle_gamma 90.000000
_cell_volume 1361.635420
_symmetry_space_group_name_H-M "P 21 21 21"
_symmetry_group_IT_number 19
_symmetry_cell_setting 'orthorhombic'
loop_
_space_group_symop_operation_xyz
x,y,z
1/2-x,-y,1/2+z
1/2+x,1/2-y,-z
-x,1/2+y,1/2-z
loop_
_atom_site_type_symbol
_atom_site_label
_atom_site_fract_x
_atom_site_fract_y
_atom_site_fract_z
Si Si1 0.269706 0.114685 0.372486
Si Si2 0.632082 0.906730 0.690512
Si Si3 0.793813 0.807420 0.846306
Si Si4 0.769209 0.437003 0.938403
Si Si5 0.490333 0.644130 0.398539
Si Si6 0.010377 0.997278 0.792670
Si Si7 0.887131 0.719136 0.280964
Si Si8 0.278759 0.482897 0.471266
O O1 0.272550 0.979007 0.456861
O O2 0.159917 0.114281 0.309628
O O3 0.287485 0.299501 0.419413
O O4 0.370554 0.083742 0.303538
O O5 0.623037 0.088604 0.743670
O O6 0.677730 0.933249 0.585311
O O7 0.726803 0.810812 0.749125
O O8 0.512915 0.823075 0.696045
O O9 0.783950 0.621487 0.889691
O O10 0.916232 0.877102 0.834530
O O11 0.741622 0.937075 0.921215
O O12 0.689699 0.330681 0.869733
O O13 0.891370 0.363499 0.945933
O O14 0.485931 0.823231 0.344650
O O15 0.485310 0.499378 0.317487
O O16 0.386383 0.597939 0.461239
#
# Coordination Sequence:
#
# PCOD9315300 Si02
#       8
#     4   4   4   4   4   4   4   4
#     4  10  24  44  66  92 128 171 213 259 319 380
#     4  11  24  43  65  93 129 171 213 262 317 380
#     4  11  24  43  67  95 128 169 213 263 321 379
#     4  11  24  43  67  95 128 169 213 263 321 379
#     4  12  24  41  67  96 128 166 213 266 319 375
#     4  12  24  41  67  96 128 166 213 266 319 375
#     4  11  24  43  65  93 129 171 213 262 317 380
#     4  10  24  44  66  92 128 171 213 259 319 380
#
# _framework density 23.501151
#
# number of rings (size 3 to 8) (size 9 to 14) (size 15 to 20)
#    0.000    1.000    2.500    3.750    3.500    3.000 
#    0.000    0.000    0.000    0.000    0.000    0.000 
#    0.000    0.000    0.000    0.000    0.000    0.000 
#
# Total GULP energy -179243.690521 kJ/mol
# GULP energy per Si atom -5601.365329 kJ/mol
# Density = 2.344766 g / cm^3
# Si number density = 23.501151 Si / 1000 Ang^3
#
#
#
# Elastic Constant Matrix: (Units=GPa)
#
#
# Indices 1 2 3 4 5 6 
#
# 1 95.1353 29.6504 0.9795 0.0000 0.0000 0.0000
# 2 29.6504 91.3366 14.8085 0.0000 0.0000 0.0000
# 3 0.9795 14.8085 61.2844 0.0000 0.0000 0.0000
# 4 0.0000 0.0000 0.0000 39.4196 0.0000 0.0000
# 5 0.0000 0.0000 0.0000 0.0000 16.9820 0.0000
# 6 0.0000 0.0000 0.0000 0.0000 0.0000 7.3395
#
#
#
# Elastic Compliance Matrix: (Units=1/GPa)
#
#
# Indices 1 2 3 4 5 6 
#
# 1 0.011729 -0.003931 0.000762 0.000000 0.000000 0.000000
# 2 -0.003931 0.012712 -0.003009 0.000000 0.000000 0.000000
# 3 0.000762 -0.003009 0.017032 0.000000 0.000000 0.000000
# 4 0.000000 0.000000 0.000000 0.025368 0.000000 0.000000
# 5 0.000000 0.000000 0.000000 0.000000 0.058886 0.000000
# 6 0.000000 0.000000 0.000000 0.000000 0.000000 0.136249
#
#
# Mechanical properties :
#
#
# Convention : Reuss Voigt Hill
#
# Bulk Modulus (GPa) = 34.34275 37.62589 35.98432
# Shear Modulus (GPa) = 17.60328 26.23609 21.91968
#
# Velocity S-wave (km/s) = 2.73983 3.34484 3.05734
# Velocity P-wave (km/s) = 4.96526 5.56438 5.27333
#
# Compressibility (1/GPa) = 0.02911823
#
# Stress axis : x y z
#
# Youngs Moduli (GPa) = 85.26109 78.66278 58.71214
#
# Poissons Ratio (x) = 0.30923 -0.04476
# Poissons Ratio (y) = 0.33517 0.17666
# Poissons Ratio (z) = -0.06501 0.23669
#
# Static dielectric constant tensor:
#      x y z
#    x 1.848830 0.000000 0.000000 
#    y 0.000000 1.913080 0.000000 
#    z 0.000000 0.000000 1.848830 
# 
# From -- ./inp_files/6107.got.cif
#   From: 2010.05.17/outbox.cif.g08.bks.cpg/sg19_4_cif.got.tgz:6107.got - 2010.06.03 22:46:19.
