data_PCOD9315367
_publ_section_title
;
Structure prediction by ZEFSAII (Michael W. Deem and Ramdas Pophale) SiO2 
 PCOD9315367
Probable space group: P 21 21 21
;
_chemical_formula_sum "Si O2"
_cell_formula_units_Z 24
_cell_length_a 12.066980
_cell_length_b 9.169376
_cell_length_c 9.750441
_cell_angle_alpha 90.000000
_cell_angle_beta 90.000000
_cell_angle_gamma 90.000000
_cell_volume 1078.853894
_symmetry_space_group_name_H-M "P 21 21 21"
_symmetry_group_IT_number 19
_symmetry_cell_setting 'orthorhombic'
loop_
_space_group_symop_operation_xyz
x,y,z
1/2-x,-y,1/2+z
1/2+x,1/2-y,-z
-x,1/2+y,1/2-z
loop_
_atom_site_type_symbol
_atom_site_label
_atom_site_fract_x
_atom_site_fract_y
_atom_site_fract_z
Si Si1 0.305726 0.967310 0.521886
Si Si2 0.867396 0.603636 0.784925
Si Si3 0.072372 0.531178 0.933673
Si Si4 0.749180 0.105093 0.240051
Si Si5 0.556618 0.716472 0.847181
Si Si6 0.628681 0.165223 0.857818
O O1 0.320752 0.961751 0.357931
O O2 0.313700 0.803314 0.576227
O O3 0.195491 0.040413 0.582017
O O4 0.401070 0.060938 0.598953
O O5 0.843513 0.777038 0.785726
O O6 0.994159 0.558666 0.804402
O O7 0.192877 0.477919 0.885788
O O8 0.065940 0.677217 0.022672
O O9 0.038134 0.400309 0.035835
O O10 0.857811 0.209730 0.237636
O O11 0.789155 0.968631 0.329576
O O12 0.436782 0.706485 0.779843
#
# Coordination Sequence:
#
# PCOD9315367 Si02
#       6
#     4   4   4   4   4   4
#     4  11  25  45  69 105 140 189 237 309 361 435
#     4  11  27  45  70 106 150 186 252 299 371 435
#     4  11  25  45  70 105 142 196 242 297 375 436
#     4  10  24  47  67 104 146 190 245 296 361 446
#     4  10  25  44  71 106 142 188 241 302 374 432
#     4  11  24  46  75 102 144 189 243 303 372 438
#
# _framework density 22.245830000000002
#
# number of rings (size 3 to 8) (size 9 to 14) (size 15 to 20)
#    0.000    1.333    1.667    2.000   11.667    2.667 
#    6.000    0.000    0.000    0.000    0.000    0.000 
#    0.000    0.000    0.000    0.000    0.000    0.000 
#
# Total GULP energy -133864.636422 kJ/mol
# GULP energy per Si atom -5577.693184 kJ/mol
# Density = 2.219520 g / cm^3
# Si number density = 22.245830 Si / 1000 Ang^3
#
#
#
# Elastic Constant Matrix: (Units=GPa)
#
#
# Indices 1 2 3 4 5 6 
#
# 1 39.3031 19.5915 48.4738 0.0000 0.0000 0.0000
# 2 19.5915 119.6746 42.7059 0.0000 0.0000 0.0000
# 3 48.4738 42.7059 119.4565 0.0000 0.0000 0.0000
# 4 0.0000 0.0000 0.0000 35.3806 0.0000 0.0000
# 5 0.0000 0.0000 0.0000 0.0000 33.3398 0.0000
# 6 0.0000 0.0000 0.0000 0.0000 0.0000 13.8674
#
#
#
# Elastic Compliance Matrix: (Units=1/GPa)
#
#
# Indices 1 2 3 4 5 6 
#
# 1 0.051062 -0.001106 -0.020325 0.000000 0.000000 0.000000
# 2 -0.001106 0.009602 -0.002984 0.000000 0.000000 0.000000
# 3 -0.020325 -0.002984 0.017685 0.000000 0.000000 0.000000
# 4 0.000000 0.000000 0.000000 0.028264 0.000000 0.000000
# 5 0.000000 0.000000 0.000000 0.000000 0.029994 0.000000
# 6 0.000000 0.000000 0.000000 0.000000 0.000000 0.072111
#
#
# Mechanical properties :
#
#
# Convention : Reuss Voigt Hill
#
# Bulk Modulus (GPa) = 33.87579 55.55294 44.71437
# Shear Modulus (GPa) = 18.69944 27.69511 23.19727
#
# Velocity S-wave (km/s) = 2.90242 3.53222 3.23270
# Velocity P-wave (km/s) = 5.14714 6.45461 5.83760
#
# Compressibility (1/GPa) = 0.02951961
#
# Stress axis : x y z
#
# Youngs Moduli (GPa) = 19.58417 104.14660 56.54383
#
# Poissons Ratio (x) = 0.11521 1.14923
# Poissons Ratio (y) = 0.02167 0.16871
# Poissons Ratio (z) = 0.39804 0.31075
#
# Static dielectric constant tensor:
#      x y z
#    x 1.844290 0.000000 0.000000 
#    y 0.000000 1.814820 0.000000 
#    z 0.000000 0.000000 1.941670 
# 
# From -- ./inp_files/3834.got.cif
#   From: 2010.05.17/outbox.cif.g08.bks.cpg/sg19_2_cif.got.tgz:3834.got - 2010.06.03 22:46:19.
