data_PCOD9315803
_publ_section_title
;
Structure prediction by ZEFSAII (Michael W. Deem and Ramdas Pophale) SiO2 
 PCOD9315803
Probable space group: P 21 21 21
;
_chemical_formula_sum "Si O2"
_cell_formula_units_Z 32
_cell_length_a 11.217365
_cell_length_b 18.529815
_cell_length_c 6.436418
_cell_angle_alpha 90.000000
_cell_angle_beta 90.000000
_cell_angle_gamma 90.000000
_cell_volume 1337.846158
_symmetry_space_group_name_H-M "P 21 21 21"
_symmetry_group_IT_number 19
_symmetry_cell_setting 'orthorhombic'
loop_
_space_group_symop_operation_xyz
x,y,z
1/2-x,-y,1/2+z
1/2+x,1/2-y,-z
-x,1/2+y,1/2-z
loop_
_atom_site_type_symbol
_atom_site_label
_atom_site_fract_x
_atom_site_fract_y
_atom_site_fract_z
Si Si1 0.287558 0.080731 0.223316
Si Si2 0.990633 0.677378 0.625203
Si Si3 0.140417 0.568735 0.897784
Si Si4 0.228218 0.201486 0.563419
Si Si5 0.027713 0.059962 0.204873
Si Si6 0.466489 0.544304 0.150678
Si Si7 0.379285 0.654225 0.897715
Si Si8 0.913756 0.315397 0.094668
O O1 0.265167 0.136384 0.413290
O O2 0.165219 0.035941 0.225449
O O3 0.401871 0.030619 0.259690
O O4 0.329157 0.127024 0.021855
O O5 0.880162 0.683686 0.780900
O O6 0.956972 0.636322 0.413075
O O7 0.083776 0.624370 0.734062
O O8 0.048045 0.753194 0.564227
O O9 0.129295 0.488300 0.806623
O O10 0.273717 0.596132 0.915803
O O11 0.055445 0.571299 0.097621
O O12 0.181497 0.268630 0.428226
O O13 0.339834 0.218668 0.713020
O O14 0.965547 0.001476 0.059542
O O15 0.456394 0.628428 0.097079
O O16 0.465744 0.652442 0.698769
#
# Coordination Sequence:
#
# PCOD9315803 Si02
#       8
#     4   4   4   4   4   4   4   4
#     4  12  25  47  75 110 144 190 248 319 379 446
#     4  11  24  45  71 110 140 192 245 301 385 444
#     4  11  27  48  72 100 156 198 251 304 367 457
#     4  12  25  47  75 111 151 188 248 324 375 455
#     4  11  25  47  74 103 144 199 247 308 372 443
#     4  11  29  45  70 109 141 198 254 300 374 445
#     4  12  28  48  73 106 153 198 251 309 376 458
#     4  12  27  45  76 111 149 195 248 315 388 448
#
# _framework density 23.919046000000002
#
# number of rings (size 3 to 8) (size 9 to 14) (size 15 to 20)
#    0.000    0.500    3.750    3.000    8.750    0.000 
#    2.250    0.000    0.000    0.000    0.000    0.000 
#    0.000    0.000    0.000    0.000    0.000    0.000 
#
# Total GULP energy -179087.428512 kJ/mol
# GULP energy per Si atom -5596.482141 kJ/mol
# Density = 2.386460 g / cm^3
# Si number density = 23.919046 Si / 1000 Ang^3
#
#
#
# Elastic Constant Matrix: (Units=GPa)
#
#
# Indices 1 2 3 4 5 6 
#
# 1 92.3229 3.2095 21.7533 0.0000 0.0000 0.0000
# 2 3.2095 58.4915 20.0727 0.0000 0.0000 0.0000
# 3 21.7533 20.0727 82.8143 0.0000 0.0000 0.0000
# 4 0.0000 0.0000 0.0000 33.6206 0.0000 0.0000
# 5 0.0000 0.0000 0.0000 0.0000 31.7441 0.0000
# 6 0.0000 0.0000 0.0000 0.0000 0.0000 37.7821
#
#
#
# Elastic Compliance Matrix: (Units=1/GPa)
#
#
# Indices 1 2 3 4 5 6 
#
# 1 0.011557 0.000445 -0.003143 0.000000 0.000000 0.000000
# 2 0.000445 0.018665 -0.004641 0.000000 0.000000 0.000000
# 3 -0.003143 -0.004641 0.014026 0.000000 0.000000 0.000000
# 4 0.000000 0.000000 0.000000 0.029744 0.000000 0.000000
# 5 0.000000 0.000000 0.000000 0.000000 0.031502 0.000000
# 6 0.000000 0.000000 0.000000 0.000000 0.000000 0.026468
#
#
# Mechanical properties :
#
#
# Convention : Reuss Voigt Hill
#
# Bulk Modulus (GPa) = 33.82035 35.96663 34.89349
# Shear Modulus (GPa) = 31.94981 33.20226 32.57603
#
# Velocity S-wave (km/s) = 3.65875 3.72978 3.69444
# Velocity P-wave (km/s) = 5.65852 5.79808 5.72873
#
# Compressibility (1/GPa) = 0.02956800
#
# Stress axis : x y z
#
# Youngs Moduli (GPa) = 86.52953 53.57708 71.29743
#
# Poissons Ratio (x) = -0.02382 0.22412
# Poissons Ratio (y) = -0.03847 0.33088
# Poissons Ratio (z) = 0.27200 0.24864
#
# Static dielectric constant tensor:
#      x y z
#    x 1.988000 0.000000 0.000000 
#    y 0.000000 1.900440 0.000000 
#    z 0.000000 0.000000 1.958480 
# 
# From -- ./inp_files/1149.got.cif
#   From: 2010.05.17/outbox.cif.g08.bks.cpg/sg19_1_cif.got.tgz:1149.got - 2010.06.03 22:46:19.
