data_PCOD9315259
_publ_section_title
;
Structure prediction by ZEFSAII (Michael W. Deem and Ramdas Pophale) SiO2 
 PCOD9315259
Probable space group: P 21 21 21
;
_chemical_formula_sum "Si O2"
_cell_formula_units_Z 32
_cell_length_a 16.792641
_cell_length_b 8.210633
_cell_length_c 11.342288
_cell_angle_alpha 90.000000
_cell_angle_beta 90.000000
_cell_angle_gamma 90.000000
_cell_volume 1563.854393
_symmetry_space_group_name_H-M "P 21 21 21"
_symmetry_group_IT_number 19
_symmetry_cell_setting 'orthorhombic'
loop_
_space_group_symop_operation_xyz
x,y,z
1/2-x,-y,1/2+z
1/2+x,1/2-y,-z
-x,1/2+y,1/2-z
loop_
_atom_site_type_symbol
_atom_site_label
_atom_site_fract_x
_atom_site_fract_y
_atom_site_fract_z
Si Si1 0.105199 0.184061 0.833028
Si Si2 0.894801 0.184061 0.166972
Si Si3 0.250000 0.249999 0.657479
Si Si4 0.542755 0.460682 0.714798
Si Si5 0.641124 0.987930 0.430142
Si Si6 0.358876 0.987928 0.569859
Si Si7 0.042756 0.539320 0.785201
Si Si8 0.500000 0.230958 0.500000
O O1 0.177070 0.197902 0.740973
O O2 0.061044 0.358228 0.831026
O O3 0.039705 0.055101 0.787519
O O4 0.137367 0.135131 0.961279
O O5 0.822929 0.197904 0.259027
O O6 0.938956 0.358227 0.168973
O O7 0.960295 0.055100 0.212482
O O8 0.862632 0.135130 0.038722
O O9 0.220684 0.405643 0.583093
O O10 0.279315 0.094354 0.583094
O O11 0.613995 0.413200 0.804834
O O12 0.532832 0.342054 0.604991
O O13 0.613996 0.913200 0.304835
O O14 0.571585 0.119775 0.454223
O O15 0.428415 0.119774 0.545777
O O16 0.032834 0.657948 0.895008
#
# Coordination Sequence:
#
# PCOD9315259 Si02
#       8
#     4   4   4   4   4   4   4   4
#     4  11  22  44  67  97 136 171 221 278 331 395
#     4  11  22  44  67  97 136 171 221 278 331 395
#     4  10  24  42  62 100 142 168 220 270 354 382
#     4  11  22  39  67 100 125 172 225 270 323 400
#     4  11  23  44  66  95 133 176 217 280 324 399
#     4  11  23  44  66  95 133 176 217 280 324 399
#     4  11  22  39  67 100 125 172 225 270 323 400
#     4  12  22  38  70  96 128 174 224 272 326 388
#
# _framework density 20.462261999999999
#
# number of rings (size 3 to 8) (size 9 to 14) (size 15 to 20)
#    0.000    1.000    7.500    0.000    3.500    4.000 
#    0.000    0.000    0.000    0.000    0.000    0.000 
#    0.000    0.000    0.000    0.000    0.000    0.000 
#
# Total GULP energy -178862.641661 kJ/mol
# GULP energy per Si atom -5589.457552 kJ/mol
# Density = 2.041569 g / cm^3
# Si number density = 20.462262 Si / 1000 Ang^3
#
#
#
# Elastic Constant Matrix: (Units=GPa)
#
#
# Indices 1 2 3 4 5 6 
#
# 1 40.6431 9.8391 -27.0365 0.0000 0.0000 0.0000
# 2 9.8391 67.5429 22.8035 0.0000 0.0000 0.0000
# 3 -27.0365 22.8035 83.1822 0.0000 0.0000 0.0000
# 4 0.0000 0.0000 0.0000 41.6715 0.0000 0.0000
# 5 0.0000 0.0000 0.0000 0.0000 24.2017 0.0000
# 6 0.0000 0.0000 0.0000 0.0000 0.0000 34.3593
#
#
#
# Elastic Compliance Matrix: (Units=1/GPa)
#
#
# Indices 1 2 3 4 5 6 
#
# 1 0.037037 -0.010424 0.014896 0.000000 0.000000 0.000000
# 2 -0.010424 0.019249 -0.008665 0.000000 0.000000 0.000000
# 3 0.014896 -0.008665 0.019239 0.000000 0.000000 0.000000
# 4 0.000000 0.000000 0.000000 0.023997 0.000000 0.000000
# 5 0.000000 0.000000 0.000000 0.000000 0.041319 0.000000
# 6 0.000000 0.000000 0.000000 0.000000 0.000000 0.029104
#
#
# Mechanical properties :
#
#
# Convention : Reuss Voigt Hill
#
# Bulk Modulus (GPa) = 14.89481 22.50895 18.70188
# Shear Modulus (GPa) = 24.91125 32.43063 28.67094
#
# Velocity S-wave (km/s) = 3.49295 3.98540 3.74727
# Velocity P-wave (km/s) = 4.85412 5.67468 5.28036
#
# Compressibility (1/GPa) = 0.06713747
#
# Stress axis : x y z
#
# Youngs Moduli (GPa) = 27.00016 51.94960 51.97843
#
# Poissons Ratio (x) = 0.54153 -0.77425
# Poissons Ratio (y) = 0.28146 0.45040
# Poissons Ratio (z) = -0.40218 0.45015
#
# Static dielectric constant tensor:
#      x y z
#    x 1.719590 0.000000 0.000000 
#    y 0.000000 1.732160 0.000000 
#    z 0.000000 0.000000 1.769740 
# 
# From -- ./inp_files/5420.got.cif
#   From: 2010.05.17/outbox.cif.g08.bks.cpg/sg19_3_cif.got.tgz:5420.got - 2010.06.03 22:46:19.
