data_PCOD9315946
_publ_section_title
;
Structure prediction by ZEFSAII (Michael W. Deem and Ramdas Pophale) SiO2 
 PCOD9315946
Probable space group: P 21 21 21
;
_chemical_formula_sum "Si O2"
_cell_formula_units_Z 20
_cell_length_a 7.914540
_cell_length_b 6.754116
_cell_length_c 12.695412
_cell_angle_alpha 90.000000
_cell_angle_beta 90.000000
_cell_angle_gamma 90.000000
_cell_volume 678.642405
_symmetry_space_group_name_H-M "P 21 21 21"
_symmetry_group_IT_number 19
_symmetry_cell_setting 'orthorhombic'
loop_
_space_group_symop_operation_xyz
x,y,z
1/2-x,-y,1/2+z
1/2+x,1/2-y,-z
-x,1/2+y,1/2-z
loop_
_atom_site_type_symbol
_atom_site_label
_atom_site_fract_x
_atom_site_fract_y
_atom_site_fract_z
Si Si1 0.615318 0.351294 0.066433
Si Si2 0.230871 0.767515 0.220242
Si Si3 0.752472 0.196713 0.850179
Si Si4 0.623769 0.232009 0.633269
Si Si5 0.532603 0.821261 0.069848
O O1 0.753401 0.301953 0.155669
O O2 0.443673 0.264911 0.115352
O O3 0.574307 0.585669 0.060382
O O4 0.648767 0.265287 0.951417
O O5 0.229961 0.533941 0.185011
O O6 0.400277 0.846861 0.163555
O O7 0.055214 0.849049 0.173895
O O8 0.707427 0.306557 0.741420
O O9 0.776916 0.100084 0.584577
O O10 0.564904 0.370760 0.537118
#
# Coordination Sequence:
#
# PCOD9315946 Si02
#       5
#     4   4   4   4   4
#     4  11  26  50  71 109 148 196 250 308 370 449
#     4  11  26  47  72 103 151 190 252 305 371 445
#     4  11  27  45  77 107 147 199 246 312 369 447
#     4  12  25  47  72 108 145 200 243 313 373 433
#     4  11  26  47  72 105 149 195 247 306 369 440
#
# _framework density 29.470603000000001
#
# number of rings (size 3 to 8) (size 9 to 14) (size 15 to 20)
#    0.000    0.800    4.000    1.200   14.000    0.000 
#    0.000    0.000    0.000    0.000    0.000    0.000 
#    0.000    0.000    0.000    0.000    0.000    0.000 
#
# Total GULP energy -112244.642841 kJ/mol
# GULP energy per Si atom -5612.232142 kJ/mol
# Density = 2.940353 g / cm^3
# Si number density = 29.470603 Si / 1000 Ang^3
#
#
#
# Elastic Constant Matrix: (Units=GPa)
#
#
# Indices 1 2 3 4 5 6 
#
# 1 239.1804 18.0377 91.9764 0.0000 0.0000 0.0000
# 2 18.0377 151.8236 48.2892 0.0000 0.0000 0.0000
# 3 91.9764 48.2892 289.5749 0.0000 0.0000 0.0000
# 4 0.0000 0.0000 0.0000 50.2215 0.0000 0.0000
# 5 0.0000 0.0000 0.0000 0.0000 92.9683 0.0000
# 6 0.0000 0.0000 0.0000 0.0000 0.0000 21.7022
#
#
#
# Elastic Compliance Matrix: (Units=1/GPa)
#
#
# Indices 1 2 3 4 5 6 
#
# 1 0.004764 -0.000089 -0.001498 0.000000 0.000000 0.000000
# 2 -0.000089 0.006957 -0.001132 0.000000 0.000000 0.000000
# 3 -0.001498 -0.001132 0.004118 0.000000 0.000000 0.000000
# 4 0.000000 0.000000 0.000000 0.019912 0.000000 0.000000
# 5 0.000000 0.000000 0.000000 0.000000 0.010756 0.000000
# 6 0.000000 0.000000 0.000000 0.000000 0.000000 0.046078
#
#
# Mechanical properties :
#
#
# Convention : Reuss Voigt Hill
#
# Bulk Modulus (GPa) = 96.15273 110.79841 103.47557
# Shear Modulus (GPa) = 49.26549 67.79678 58.53113
#
# Velocity S-wave (km/s) = 4.09306 4.80154 4.46139
# Velocity P-wave (km/s) = 7.41856 8.27150 7.85661
#
# Compressibility (1/GPa) = 0.01040012
#
# Stress axis : x y z
#
# Youngs Moduli (GPa) = 209.91568 143.73620 242.84028
#
# Poissons Ratio (x) = 0.01286 0.36382
# Poissons Ratio (y) = 0.01878 0.27484
# Poissons Ratio (z) = 0.31449 0.16267
#
# Static dielectric constant tensor:
#      x y z
#    x 2.238220 0.000000 0.000000 
#    y 0.000000 2.413700 0.000000 
#    z 0.000000 0.000000 2.191510 
# 
# From -- ./inp_files/2613.got.cif
#   From: 2010.05.17/outbox.cif.g08.bks.cpg/sg19_2_cif.got.tgz:2613.got - 2010.06.03 22:46:19.
