data_PCOD9315031
_publ_section_title
;
Structure prediction by ZEFSAII (Michael W. Deem and Ramdas Pophale) SiO2 
 PCOD9315031
Probable space group: P 21 21 21
;
_chemical_formula_sum "Si O2"
_cell_formula_units_Z 20
_cell_length_a 7.068716
_cell_length_b 14.388649
_cell_length_c 7.830149
_cell_angle_alpha 90.000000
_cell_angle_beta 90.000000
_cell_angle_gamma 90.000000
_cell_volume 796.398765
_symmetry_space_group_name_H-M "P 21 21 21"
_symmetry_group_IT_number 19
_symmetry_cell_setting 'orthorhombic'
loop_
_space_group_symop_operation_xyz
x,y,z
1/2-x,-y,1/2+z
1/2+x,1/2-y,-z
-x,1/2+y,1/2-z
loop_
_atom_site_type_symbol
_atom_site_label
_atom_site_fract_x
_atom_site_fract_y
_atom_site_fract_z
Si Si1 0.322053 0.205136 0.187132
Si Si2 0.941750 0.861690 0.149368
Si Si3 0.481786 0.546555 0.187837
Si Si4 0.125385 0.555470 0.381048
Si Si5 0.259450 0.244825 0.802449
O O1 0.193576 0.287411 0.262552
O O2 0.326396 0.100932 0.267466
O O3 0.538893 0.237041 0.211907
O O4 0.290901 0.197611 0.985922
O O5 0.149321 0.817900 0.156897
O O6 0.950175 0.966383 0.224240
O O7 0.882306 0.886516 0.956796
O O8 0.352710 0.538567 0.355270
O O9 0.466570 0.455047 0.069764
O O10 0.115862 0.660266 0.317706
#
# Coordination Sequence:
#
# PCOD9315031 Si02
#       5
#     4   4   4   4   4
#     4  11  22  40  67  96 131 175 223 275 334 396
#     4  10  23  41  67  96 134 175 229 271 331 399
#     4   9  22  35  68  93 128 178 219 265 330 400
#     4   9  21  41  64  94 134 177 218 270 345 386
#     4  11  22  41  68  97 131 183 221 273 338 401
#
# _framework density 25.113049
#
# number of rings (size 3 to 8) (size 9 to 14) (size 15 to 20)
#    1.200    0.800    2.000    1.200    8.400    0.000 
#    0.000    6.000    4.400    0.000    0.000    0.000 
#    0.000    0.000    0.000    0.000    0.000    0.000 
#
# Total GULP energy -111352.212843 kJ/mol
# GULP energy per Si atom -5567.610642 kJ/mol
# Density = 2.505589 g / cm^3
# Si number density = 25.113049 Si / 1000 Ang^3
#
#
#
# Elastic Constant Matrix: (Units=GPa)
#
#
# Indices 1 2 3 4 5 6 
#
# 1 80.4760 39.6054 4.9191 0.0000 0.0000 0.0000
# 2 39.6054 103.8101 31.9142 0.0000 0.0000 0.0000
# 3 4.9191 31.9142 73.9415 0.0000 0.0000 0.0000
# 4 0.0000 0.0000 0.0000 39.8680 0.0000 0.0000
# 5 0.0000 0.0000 0.0000 0.0000 25.5366 0.0000
# 6 0.0000 0.0000 0.0000 0.0000 0.0000 42.2210
#
#
#
# Elastic Compliance Matrix: (Units=1/GPa)
#
#
# Indices 1 2 3 4 5 6 
#
# 1 0.015493 -0.006450 0.001753 0.000000 0.000000 0.000000
# 2 -0.006450 0.013792 -0.005524 0.000000 0.000000 0.000000
# 3 0.001753 -0.005524 0.015792 0.000000 0.000000 0.000000
# 4 0.000000 0.000000 0.000000 0.025083 0.000000 0.000000
# 5 0.000000 0.000000 0.000000 0.000000 0.039159 0.000000
# 6 0.000000 0.000000 0.000000 0.000000 0.000000 0.023685
#
#
# Mechanical properties :
#
#
# Convention : Reuss Voigt Hill
#
# Bulk Modulus (GPa) = 40.59123 45.67834 43.13478
# Shear Modulus (GPa) = 30.92978 33.64439 32.28709
#
# Velocity S-wave (km/s) = 3.51325 3.66419 3.58951
# Velocity P-wave (km/s) = 5.71452 6.01084 5.86456
#
# Compressibility (1/GPa) = 0.02463586
#
# Stress axis : x y z
#
# Youngs Moduli (GPa) = 64.54472 72.50665 63.32453
#
# Poissons Ratio (x) = 0.46766 -0.11102
# Poissons Ratio (y) = 0.41630 0.34978
# Poissons Ratio (z) = -0.11316 0.40050
#
# Static dielectric constant tensor:
#      x y z
#    x 1.993810 0.000000 0.000000 
#    y 0.000000 2.175100 0.000000 
#    z 0.000000 0.000000 1.987440 
# 
# From -- ./inp_files/2719.got.cif
#   From: 2010.05.17/outbox.cif.g08.bks.cpg/sg19_2_cif.got.tgz:2719.got - 2010.06.03 22:46:19.
