data_PCOD9315461
_publ_section_title
;
Structure prediction by ZEFSAII (Michael W. Deem and Ramdas Pophale) SiO2 
 PCOD9315461
Probable space group: P 21 21 21
;
_chemical_formula_sum "Si O2"
_cell_formula_units_Z 28
_cell_length_a 20.545752
_cell_length_b 10.968740
_cell_length_c 5.249229
_cell_angle_alpha 90.000000
_cell_angle_beta 90.000000
_cell_angle_gamma 90.000000
_cell_volume 1182.971559
_symmetry_space_group_name_H-M "P 21 21 21"
_symmetry_group_IT_number 19
_symmetry_cell_setting 'orthorhombic'
loop_
_space_group_symop_operation_xyz
x,y,z
1/2-x,-y,1/2+z
1/2+x,1/2-y,-z
-x,1/2+y,1/2-z
loop_
_atom_site_type_symbol
_atom_site_label
_atom_site_fract_x
_atom_site_fract_y
_atom_site_fract_z
Si Si1 0.316492 0.365795 0.561630
Si Si2 0.586438 0.873643 0.554096
Si Si3 0.830092 0.929882 0.812192
Si Si4 0.895134 0.691522 0.978884
Si Si5 0.288886 0.989830 0.960326
Si Si6 0.125728 0.833447 0.773517
Si Si7 0.054744 0.059936 0.012327
O O1 0.384448 0.320720 0.688971
O O2 0.243394 0.382252 0.663315
O O3 0.314218 0.251478 0.366202
O O4 0.334406 0.501323 0.457504
O O5 0.577312 0.764472 0.354616
O O6 0.521769 0.952114 0.568651
O O7 0.649984 0.955084 0.486727
O O8 0.882519 0.829579 0.894001
O O9 0.823021 0.635542 0.970003
O O10 0.919516 0.646560 0.256994
O O11 0.936414 0.628135 0.757118
O O12 0.268632 0.994267 0.666547
O O13 0.342526 0.088971 0.041983
O O14 0.092105 0.932081 0.960730
#
# Coordination Sequence:
#
# PCOD9315461 Si02
#       7
#     4   4   4   4   4   4   4
#     4  11  24  45  72 108 148 192 251 309 384 447
#     4  11  27  46  75 102 147 205 243 315 376 444
#     4  11  25  44  72 109 147 192 250 310 382 454
#     4  11  27  46  73 109 147 194 243 315 368 448
#     4  11  23  42  72 107 143 187 239 302 378 438
#     4  10  26  45  73 108 146 197 250 311 374 455
#     4  11  28  50  73 109 148 197 262 300 384 450
#
# _framework density 23.669208000000001
#
# number of rings (size 3 to 8) (size 9 to 14) (size 15 to 20)
#    0.000    1.143    1.429    2.571   16.000    0.000 
#    0.000    0.000    0.000    0.000    0.000    0.000 
#    0.000    0.000    0.000    0.000    0.000    0.000 
#
# Total GULP energy -155986.732325 kJ/mol
# GULP energy per Si atom -5570.954726 kJ/mol
# Density = 2.361534 g / cm^3
# Si number density = 23.669208 Si / 1000 Ang^3
#
#
#
# Elastic Constant Matrix: (Units=GPa)
#
#
# Indices 1 2 3 4 5 6 
#
# 1 106.8994 48.9662 16.5667 0.0000 0.0000 0.0000
# 2 48.9662 102.5992 27.6500 0.0000 0.0000 0.0000
# 3 16.5667 27.6500 79.6398 0.0000 0.0000 0.0000
# 4 0.0000 0.0000 0.0000 31.1021 0.0000 0.0000
# 5 0.0000 0.0000 0.0000 0.0000 6.7346 0.0000
# 6 0.0000 0.0000 0.0000 0.0000 0.0000 29.1152
#
#
#
# Elastic Compliance Matrix: (Units=1/GPa)
#
#
# Indices 1 2 3 4 5 6 
#
# 1 0.011994 -0.005573 -0.000560 0.000000 0.000000 0.000000
# 2 -0.005573 0.013343 -0.003473 0.000000 0.000000 0.000000
# 3 -0.000560 -0.003473 0.013879 0.000000 0.000000 0.000000
# 4 0.000000 0.000000 0.000000 0.032152 0.000000 0.000000
# 5 0.000000 0.000000 0.000000 0.000000 0.148487 0.000000
# 6 0.000000 0.000000 0.000000 0.000000 0.000000 0.034346
#
#
# Mechanical properties :
#
#
# Convention : Reuss Voigt Hill
#
# Bulk Modulus (GPa) = 49.99305 52.83381 51.41343
# Shear Modulus (GPa) = 17.85194 26.45407 22.15301
#
# Velocity S-wave (km/s) = 2.74930 3.34677 3.06264
# Velocity P-wave (km/s) = 5.58978 6.10775 5.85450
#
# Compressibility (1/GPa) = 0.02000278
#
# Stress axis : x y z
#
# Youngs Moduli (GPa) = 83.37251 74.94791 72.05224
#
# Poissons Ratio (x) = 0.41772 0.04035
# Poissons Ratio (y) = 0.46467 0.25024
# Poissons Ratio (z) = 0.04669 0.26029
#
# Static dielectric constant tensor:
#      x y z
#    x 1.918760 0.000000 0.000000 
#    y 0.000000 1.948040 0.000000 
#    z 0.000000 0.000000 2.524980 
# 
# From -- ./inp_files/1934.got.cif
#   From: 2010.05.17/outbox.cif.g08.bks.cpg/sg19_1_cif.got.tgz:1934.got - 2010.06.03 22:46:19.
