data_PCOD9315933
_publ_section_title
;
Structure prediction by ZEFSAII (Michael W. Deem and Ramdas Pophale) SiO2 
 PCOD9315933
Probable space group: P 21 21 21
;
_chemical_formula_sum "Si O2"
_cell_formula_units_Z 24
_cell_length_a 9.164832
_cell_length_b 11.444192
_cell_length_c 9.140901
_cell_angle_alpha 90.000000
_cell_angle_beta 90.000000
_cell_angle_gamma 90.000000
_cell_volume 958.735148
_symmetry_space_group_name_H-M "P 21 21 21"
_symmetry_group_IT_number 19
_symmetry_cell_setting 'orthorhombic'
loop_
_space_group_symop_operation_xyz
x,y,z
1/2-x,-y,1/2+z
1/2+x,1/2-y,-z
-x,1/2+y,1/2-z
loop_
_atom_site_type_symbol
_atom_site_label
_atom_site_fract_x
_atom_site_fract_y
_atom_site_fract_z
Si Si1 0.928249 0.996315 0.970300
Si Si2 0.056623 0.763370 0.452597
Si Si3 0.445863 0.021450 0.165091
Si Si4 0.838057 0.151393 0.512466
Si Si5 0.609218 0.303491 0.681556
Si Si6 0.355375 0.061848 0.721183
O O1 0.900453 0.133957 0.996520
O O2 0.039061 0.973663 0.839106
O O3 0.781692 0.927157 0.930096
O O4 0.001475 0.945547 0.118132
O O5 0.040055 0.853794 0.585614
O O6 0.158253 0.832667 0.336312
O O7 0.914861 0.742122 0.348069
O O8 0.575341 0.937871 0.114259
O O9 0.292883 0.957523 0.132360
O O10 0.744537 0.242311 0.605376
O O11 0.958139 0.208868 0.408688
O O12 0.628607 0.441820 0.689714
#
# Coordination Sequence:
#
# PCOD9315933 Si02
#       6
#     4   4   4   4   4   4
#     4  11  29  50  82 122 162 217 282 335 423 500
#     4  11  26  54  83 114 165 212 271 350 409 496
#     4  12  29  47  83 117 163 214 280 331 425 497
#     4  12  29  50  82 119 162 221 278 344 411 503
#     4  11  28  50  82 116 170 214 277 345 421 487
#     4  11  25  55  76 118 162 216 274 351 417 497
#
# _framework density 25.032979999999998
#
# number of rings (size 3 to 8) (size 9 to 14) (size 15 to 20)
#    0.000    0.667    3.333    1.000   14.000    2.667 
#    0.000    0.000    0.000    0.000    0.000    0.000 
#    0.000    0.000    0.000    0.000    0.000    0.000 
#
# Total GULP energy -134454.965651 kJ/mol
# GULP energy per Si atom -5602.290235 kJ/mol
# Density = 2.497600 g / cm^3
# Si number density = 25.032980 Si / 1000 Ang^3
#
#
#
# Elastic Constant Matrix: (Units=GPa)
#
#
# Indices 1 2 3 4 5 6 
#
# 1 108.8714 30.1416 4.6225 0.0000 0.0000 0.0000
# 2 30.1416 168.5389 48.5721 0.0000 0.0000 0.0000
# 3 4.6225 48.5721 87.2808 0.0000 0.0000 0.0000
# 4 0.0000 0.0000 0.0000 24.0772 0.0000 0.0000
# 5 0.0000 0.0000 0.0000 0.0000 35.7578 0.0000
# 6 0.0000 0.0000 0.0000 0.0000 0.0000 38.0856
#
#
#
# Elastic Compliance Matrix: (Units=1/GPa)
#
#
# Indices 1 2 3 4 5 6 
#
# 1 0.009685 -0.001887 0.000537 0.000000 0.000000 0.000000
# 2 -0.001887 0.007434 -0.004037 0.000000 0.000000 0.000000
# 3 0.000537 -0.004037 0.013676 0.000000 0.000000 0.000000
# 4 0.000000 0.000000 0.000000 0.041533 0.000000 0.000000
# 5 0.000000 0.000000 0.000000 0.000000 0.027966 0.000000
# 6 0.000000 0.000000 0.000000 0.000000 0.000000 0.026257
#
#
# Mechanical properties :
#
#
# Convention : Reuss Voigt Hill
#
# Bulk Modulus (GPa) = 49.94849 59.04039 54.49444
# Shear Modulus (GPa) = 34.72275 38.34112 36.53193
#
# Velocity S-wave (km/s) = 3.72839 3.91784 3.82429
# Velocity P-wave (km/s) = 6.20733 6.64095 6.42780
#
# Compressibility (1/GPa) = 0.02002062
#
# Stress axis : x y z
#
# Youngs Moduli (GPa) = 103.25543 134.51133 73.12294
#
# Poissons Ratio (x) = 0.25380 -0.03927
# Poissons Ratio (y) = 0.19482 0.29522
# Poissons Ratio (z) = -0.05546 0.54306
#
# Static dielectric constant tensor:
#      x y z
#    x 2.127410 0.000000 0.000000 
#    y 0.000000 2.001290 0.000000 
#    z 0.000000 0.000000 2.006670 
# 
# From -- ./inp_files/2681.got.cif
#   From: 2010.05.17/outbox.cif.g08.bks.cpg/sg19_2_cif.got.tgz:2681.got - 2010.06.03 22:46:19.
