data_PCOD9315210
_publ_section_title
;
Structure prediction by ZEFSAII (Michael W. Deem and Ramdas Pophale) SiO2 
 PCOD9315210
Probable space group: P 21 21 21
;
_chemical_formula_sum "Si O2"
_cell_formula_units_Z 16
_cell_length_a 10.594829
_cell_length_b 5.044649
_cell_length_c 12.038869
_cell_angle_alpha 90.000000
_cell_angle_beta 90.000000
_cell_angle_gamma 90.000000
_cell_volume 643.443761
_symmetry_space_group_name_H-M "P 21 21 21"
_symmetry_group_IT_number 19
_symmetry_cell_setting 'orthorhombic'
loop_
_space_group_symop_operation_xyz
x,y,z
1/2-x,-y,1/2+z
1/2+x,1/2-y,-z
-x,1/2+y,1/2-z
loop_
_atom_site_type_symbol
_atom_site_label
_atom_site_fract_x
_atom_site_fract_y
_atom_site_fract_z
Si Si1 0.909816 0.591593 0.001581
Si Si2 0.050426 0.341983 0.801561
Si Si3 0.708944 0.657903 0.811505
Si Si4 0.460397 0.401272 0.848048
O O1 0.937163 0.853488 0.070493
O O2 0.906779 0.350033 0.086353
O O3 0.786512 0.649741 0.926481
O O4 0.018069 0.491852 0.915181
O O5 0.178568 0.182618 0.778544
O O6 0.047099 0.595563 0.716881
O O7 0.608755 0.421561 0.821366
O O8 0.615772 0.888387 0.767798
#
# Coordination Sequence:
#
# PCOD9315210 Si02
#       4
#     4   4   4   4
#     4  11  27  48  79 116 158 216 270 326 412 495
#     4  10  23  46  77 109 155 212 266 335 400 479
#     4  11  28  51  78 117 169 201 281 340 404 490
#     4  12  28  47  80 118 158 217 261 339 414 470
#
# _framework density 24.866198000000001
#
# number of rings (size 3 to 8) (size 9 to 14) (size 15 to 20)
#    0.000    1.000    0.000    4.500    7.000   16.000 
#    0.000    0.000    0.000    0.000    0.000    0.000 
#    0.000    0.000    0.000    0.000    0.000    0.000 
#
# Total GULP energy -89222.199876 kJ/mol
# GULP energy per Si atom -5576.387492 kJ/mol
# Density = 2.480960 g / cm^3
# Si number density = 24.866198 Si / 1000 Ang^3
#
#
#
# Elastic Constant Matrix: (Units=GPa)
#
#
# Indices 1 2 3 4 5 6 
#
# 1 181.3849 75.9202 79.0463 0.0000 0.0000 0.0000
# 2 75.9202 218.2222 96.6727 0.0000 0.0000 0.0000
# 3 79.0463 96.6727 139.9309 0.0000 0.0000 0.0000
# 4 0.0000 0.0000 0.0000 67.8406 0.0000 0.0000
# 5 0.0000 0.0000 0.0000 0.0000 57.9084 0.0000
# 6 0.0000 0.0000 0.0000 0.0000 0.0000 27.2697
#
#
#
# Elastic Compliance Matrix: (Units=1/GPa)
#
#
# Indices 1 2 3 4 5 6 
#
# 1 0.007478 -0.001052 -0.003497 0.000000 0.000000 0.000000
# 2 -0.001052 0.006752 -0.004070 0.000000 0.000000 0.000000
# 3 -0.003497 -0.004070 0.011934 0.000000 0.000000 0.000000
# 4 0.000000 0.000000 0.000000 0.014740 0.000000 0.000000
# 5 0.000000 0.000000 0.000000 0.000000 0.017269 0.000000
# 6 0.000000 0.000000 0.000000 0.000000 0.000000 0.036671
#
#
# Mechanical properties :
#
#
# Convention : Reuss Voigt Hill
#
# Bulk Modulus (GPa) = 112.05530 115.86849 113.96190
# Shear Modulus (GPa) = 43.45709 49.79698 46.62703
#
# Velocity S-wave (km/s) = 4.18501 4.47989 4.33496
# Velocity P-wave (km/s) = 8.27729 8.57072 8.42528
#
# Compressibility (1/GPa) = 0.00892416
#
# Stress axis : x y z
#
# Youngs Moduli (GPa) = 133.73314 148.11366 83.79660
#
# Poissons Ratio (x) = 0.15585 0.29304
# Poissons Ratio (y) = 0.14072 0.34105
# Poissons Ratio (z) = 0.46768 0.60282
#
# Static dielectric constant tensor:
#      x y z
#    x 2.055970 0.000000 0.000000 
#    y 0.000000 1.954770 0.000000 
#    z 0.000000 0.000000 2.034210 
# 
# From -- ./inp_files/4868.got.cif
#   From: 2010.05.17/outbox.cif.g08.bks.cpg/sg19_3_cif.got.tgz:4868.got - 2010.06.03 22:46:19.
