data_PCOD9315416
_publ_section_title
;
Structure prediction by ZEFSAII (Michael W. Deem and Ramdas Pophale) SiO2 
 PCOD9315416
Probable space group: P 21 21 21
;
_chemical_formula_sum "Si O2"
_cell_formula_units_Z 24
_cell_length_a 5.417370
_cell_length_b 21.053828
_cell_length_c 9.473174
_cell_angle_alpha 90.000000
_cell_angle_beta 90.000000
_cell_angle_gamma 90.000000
_cell_volume 1080.475897
_symmetry_space_group_name_H-M "P 21 21 21"
_symmetry_group_IT_number 19
_symmetry_cell_setting 'orthorhombic'
loop_
_space_group_symop_operation_xyz
x,y,z
1/2-x,-y,1/2+z
1/2+x,1/2-y,-z
-x,1/2+y,1/2-z
loop_
_atom_site_type_symbol
_atom_site_label
_atom_site_fract_x
_atom_site_fract_y
_atom_site_fract_z
Si Si1 0.801927 0.669248 0.347828
Si Si2 0.196328 0.886770 0.931388
Si Si3 0.608593 0.390508 0.275490
Si Si4 0.685893 0.954056 0.991306
Si Si5 0.171514 0.691742 0.559674
Si Si6 0.962846 0.416681 0.052568
O O1 0.723333 0.666804 0.186081
O O2 0.584692 0.825853 0.599156
O O3 0.699542 0.734107 0.416155
O O4 0.694017 0.604760 0.416447
O O5 0.940233 0.925353 0.934267
O O6 0.443733 0.928946 0.907605
O O7 0.237848 0.864069 0.092012
O O8 0.382338 0.427995 0.350943
O O9 0.526780 0.335778 0.169684
O O10 0.780246 0.435205 0.179550
O O11 0.661334 0.029656 0.983519
O O12 0.404758 0.648571 0.595445
#
# Coordination Sequence:
#
# PCOD9315416 Si02
#       6
#     4   4   4   4   4   4
#     4  11  25  43  70 100 136 185 238 285 345 419
#     4  10  25  46  67 106 136 180 231 289 346 417
#     4   9  24  45  66 102 139 182 228 293 350 409
#     4  10  25  44  69 104 140 176 235 278 362 408
#     4  11  23  46  66 101 138 187 236 287 346 415
#     4  11  24  42  74  95 143 182 228 292 345 420
#
# _framework density 22.212436
#
# number of rings (size 3 to 8) (size 9 to 14) (size 15 to 20)
#    1.000    0.667    1.667    1.000    9.333    1.333 
#    6.000    0.000    0.000    0.000    0.000    0.000 
#    0.000    0.000    0.000    0.000    0.000    0.000 
#
# Total GULP energy -133742.946269 kJ/mol
# GULP energy per Si atom -5572.622761 kJ/mol
# Density = 2.216188 g / cm^3
# Si number density = 22.212436 Si / 1000 Ang^3
#
#
#
# Elastic Constant Matrix: (Units=GPa)
#
#
# Indices 1 2 3 4 5 6 
#
# 1 101.0750 20.0353 15.2731 0.0000 0.0000 0.0000
# 2 20.0353 68.5994 15.5019 0.0000 0.0000 0.0000
# 3 15.2731 15.5019 82.9340 0.0000 0.0000 0.0000
# 4 0.0000 0.0000 0.0000 18.8883 0.0000 0.0000
# 5 0.0000 0.0000 0.0000 0.0000 22.2380 0.0000
# 6 0.0000 0.0000 0.0000 0.0000 0.0000 29.3931
#
#
#
# Elastic Compliance Matrix: (Units=1/GPa)
#
#
# Indices 1 2 3 4 5 6 
#
# 1 0.010664 -0.002789 -0.001443 0.000000 0.000000 0.000000
# 2 -0.002789 0.015949 -0.002468 0.000000 0.000000 0.000000
# 3 -0.001443 -0.002468 0.012785 0.000000 0.000000 0.000000
# 4 0.000000 0.000000 0.000000 0.052943 0.000000 0.000000
# 5 0.000000 0.000000 0.000000 0.000000 0.044968 0.000000
# 6 0.000000 0.000000 0.000000 0.000000 0.000000 0.034022
#
#
# Mechanical properties :
#
#
# Convention : Reuss Voigt Hill
#
# Bulk Modulus (GPa) = 38.46077 39.35878 38.90977
# Shear Modulus (GPa) = 25.85367 27.55709 26.70538
#
# Velocity S-wave (km/s) = 3.41534 3.52606 3.47114
# Velocity P-wave (km/s) = 5.73631 5.85962 5.79830
#
# Compressibility (1/GPa) = 0.02600052
#
# Stress axis : x y z
#
# Youngs Moduli (GPa) = 93.76979 62.69793 78.21837
#
# Poissons Ratio (x) = 0.17484 0.11285
# Poissons Ratio (y) = 0.26149 0.19302
# Poissons Ratio (z) = 0.13528 0.15472
#
# Static dielectric constant tensor:
#      x y z
#    x 1.937850 0.000000 0.000000 
#    y 0.000000 1.804720 0.000000 
#    z 0.000000 0.000000 1.833220 
# 
# From -- ./inp_files/2402.got.cif
#   From: 2010.05.17/outbox.cif.g08.bks.cpg/sg19_2_cif.got.tgz:2402.got - 2010.06.03 22:46:19.
