data_PCOD9315040
_publ_section_title
;
Structure prediction by ZEFSAII (Michael W. Deem and Ramdas Pophale) SiO2 
 PCOD9315040
Probable space group: P 21 21 21
;
_chemical_formula_sum "Si O2"
_cell_formula_units_Z 32
_cell_length_a 5.233681
_cell_length_b 12.049855
_cell_length_c 19.383970
_cell_angle_alpha 90.000000
_cell_angle_beta 90.000000
_cell_angle_gamma 90.000000
_cell_volume 1222.451952
_symmetry_space_group_name_H-M "P 21 21 21"
_symmetry_group_IT_number 19
_symmetry_cell_setting 'orthorhombic'
loop_
_space_group_symop_operation_xyz
x,y,z
1/2-x,-y,1/2+z
1/2+x,1/2-y,-z
-x,1/2+y,1/2-z
loop_
_atom_site_type_symbol
_atom_site_label
_atom_site_fract_x
_atom_site_fract_y
_atom_site_fract_z
Si Si1 0.326821 0.459380 0.337114
Si Si2 0.650087 0.270472 0.321803
Si Si3 0.052512 0.964812 0.260834
Si Si4 0.698294 0.377598 0.104638
Si Si5 0.824948 0.192752 0.467875
Si Si6 0.332578 0.157347 0.198761
Si Si7 0.908066 0.158075 0.101415
Si Si8 0.204796 0.433157 0.034649
O O1 0.423894 0.341393 0.359178
O O2 0.540082 0.552799 0.339591
O O3 0.244034 0.449415 0.257032
O O4 0.106749 0.529000 0.374498
O O5 0.825834 0.366834 0.287474
O O6 0.786372 0.206845 0.384409
O O7 0.517908 0.208104 0.257329
O O8 0.157835 0.940821 0.334972
O O9 0.119807 0.092512 0.245610
O O10 0.688864 0.246768 0.122938
O O11 0.917009 0.388101 0.045324
O O12 0.420694 0.428234 0.093787
O O13 0.584146 0.249355 0.506217
O O14 0.828176 0.061786 0.484556
O O15 0.152931 0.211294 0.139485
O O16 0.855429 0.141479 0.021304
#
# Coordination Sequence:
#
# PCOD9315040 Si02
#       8
#     4   4   4   4   4   4   4   4
#     4  10  23  41  70 100 141 188 248 309 375 455
#     4  11  24  43  72 104 146 191 254 316 381 448
#     4  10  24  42  69 103 142 189 247 315 378 451
#     4  12  27  47  73 108 146 195 247 314 387 447
#     4  12  29  50  77 109 152 207 255 311 387 461
#     4  10  23  41  71 105 141 192 243 316 377 453
#     4  11  25  44  72 102 143 195 249 300 388 451
#     4  12  29  48  74 107 151 195 251 313 369 470
#
# _framework density 26.176894999999998
#
# number of rings (size 3 to 8) (size 9 to 14) (size 15 to 20)
#    0.000    1.000    0.000    4.500   17.500    1.000 
#    0.000    0.000    0.000    0.000    0.000    0.000 
#    0.000    0.000    0.000    0.000    0.000    0.000 
#
# Total GULP energy -178623.014820 kJ/mol
# GULP energy per Si atom -5581.969213 kJ/mol
# Density = 2.611731 g / cm^3
# Si number density = 26.176895 Si / 1000 Ang^3
#
#
#
# Elastic Constant Matrix: (Units=GPa)
#
#
# Indices 1 2 3 4 5 6 
#
# 1 102.5225 17.9482 10.0012 0.0000 0.0000 0.0000
# 2 17.9482 87.1558 1.1584 0.0000 0.0000 0.0000
# 3 10.0012 1.1584 72.4254 0.0000 0.0000 0.0000
# 4 0.0000 0.0000 0.0000 28.3743 0.0000 0.0000
# 5 0.0000 0.0000 0.0000 0.0000 17.1029 0.0000
# 6 0.0000 0.0000 0.0000 0.0000 0.0000 36.9861
#
#
#
# Elastic Compliance Matrix: (Units=1/GPa)
#
#
# Indices 1 2 3 4 5 6 
#
# 1 0.010255 -0.002094 -0.001383 0.000000 0.000000 0.000000
# 2 -0.002094 0.011904 0.000099 0.000000 0.000000 0.000000
# 3 -0.001383 0.000099 0.013997 0.000000 0.000000 0.000000
# 4 0.000000 0.000000 0.000000 0.035243 0.000000 0.000000
# 5 0.000000 0.000000 0.000000 0.000000 0.058469 0.000000
# 6 0.000000 0.000000 0.000000 0.000000 0.000000 0.027037
#
#
# Mechanical properties :
#
#
# Convention : Reuss Voigt Hill
#
# Bulk Modulus (GPa) = 34.01297 35.59102 34.80199
# Shear Modulus (GPa) = 28.82500 32.02572 30.42536
#
# Velocity S-wave (km/s) = 3.32198 3.50156 3.41295
# Velocity P-wave (km/s) = 5.26647 5.47483 5.37166
#
# Compressibility (1/GPa) = 0.02940055
#
# Stress axis : x y z
#
# Youngs Moduli (GPa) = 97.51017 84.00874 71.44559
#
# Poissons Ratio (x) = 0.17587 0.09879
# Poissons Ratio (y) = 0.20414 -0.00705
# Poissons Ratio (z) = 0.13482 -0.00829
#
# Static dielectric constant tensor:
#      x y z
#    x 2.124810 0.000000 0.000000 
#    y 0.000000 2.042840 0.000000 
#    z 0.000000 0.000000 2.262390 
# 
# From -- ./inp_files/6925.got.cif
#   From: 2010.05.17/outbox.cif.g08.bks.cpg/sg19_4_cif.got.tgz:6925.got - 2010.06.03 22:46:19.
