data_PCOD9315667
_publ_section_title
;
Structure prediction by ZEFSAII (Michael W. Deem and Ramdas Pophale) SiO2 
 PCOD9315667
Probable space group: P 21 21 21
;
_chemical_formula_sum "Si O2"
_cell_formula_units_Z 28
_cell_length_a 11.643682
_cell_length_b 4.998807
_cell_length_c 18.231991
_cell_angle_alpha 90.000000
_cell_angle_beta 90.000000
_cell_angle_gamma 90.000000
_cell_volume 1061.184268
_symmetry_space_group_name_H-M "P 21 21 21"
_symmetry_group_IT_number 19
_symmetry_cell_setting 'orthorhombic'
loop_
_space_group_symop_operation_xyz
x,y,z
1/2-x,-y,1/2+z
1/2+x,1/2-y,-z
-x,1/2+y,1/2-z
loop_
_atom_site_type_symbol
_atom_site_label
_atom_site_fract_x
_atom_site_fract_y
_atom_site_fract_z
Si Si1 0.696136 0.749014 0.954135
Si Si2 0.548191 0.271000 0.927541
Si Si3 0.090595 0.127174 0.830876
Si Si4 0.239196 0.238589 0.282954
Si Si5 0.143590 0.399474 0.674736
Si Si6 0.057215 0.915224 0.224669
Si Si7 0.296456 0.427754 0.912910
O O1 0.603288 0.979577 0.933781
O O2 0.789272 0.732539 0.887389
O O3 0.762802 0.869487 0.023236
O O4 0.127492 0.021444 0.025959
O O5 0.564478 0.426679 0.850644
O O6 0.409945 0.265596 0.938106
O O7 0.094291 0.247443 0.747420
O O8 0.182052 0.278311 0.882713
O O9 0.960721 0.081116 0.856491
O O10 0.142234 0.830414 0.821999
O O11 0.265426 0.397160 0.209996
O O12 0.179033 0.960191 0.263959
O O13 0.166094 0.398729 0.341845
O O14 0.977795 0.110106 0.274030
#
# Coordination Sequence:
#
# PCOD9315667 Si02
#       7
#     4   4   4   4   4   4   4
#     4  12  30  48  77 110 153 205 249 316 382 456
#     4  12  27  51  73 111 151 191 257 306 384 454
#     4  11  24  46  73 111 147 199 254 315 375 451
#     4  11  23  42  70 105 145 184 250 302 372 443
#     4  11  24  45  72 111 148 195 256 311 377 442
#     4  12  23  41  74 109 141 185 231 313 367 435
#     4  11  29  47  75 107 147 205 249 309 383 465
#
# _framework density 26.385612999999999
#
# number of rings (size 3 to 8) (size 9 to 14) (size 15 to 20)
#    0.000    0.571    4.286    2.571    8.000    0.000 
#    0.000    0.000    0.000    0.000    0.000    0.000 
#    0.000    0.000    0.000    0.000    0.000    0.000 
#
# Total GULP energy -156699.628216 kJ/mol
# GULP energy per Si atom -5596.415293 kJ/mol
# Density = 2.632556 g / cm^3
# Si number density = 26.385613 Si / 1000 Ang^3
#
#
#
# Elastic Constant Matrix: (Units=GPa)
#
#
# Indices 1 2 3 4 5 6 
#
# 1 150.7649 32.3198 22.7597 0.0000 0.0000 0.0000
# 2 32.3198 88.4809 15.1168 0.0000 0.0000 0.0000
# 3 22.7597 15.1168 95.2200 0.0000 0.0000 0.0000
# 4 0.0000 0.0000 0.0000 35.3343 0.0000 0.0000
# 5 0.0000 0.0000 0.0000 0.0000 28.1903 0.0000
# 6 0.0000 0.0000 0.0000 0.0000 0.0000 51.4784
#
#
#
# Elastic Compliance Matrix: (Units=1/GPa)
#
#
# Indices 1 2 3 4 5 6 
#
# 1 0.007366 -0.002457 -0.001371 0.000000 0.000000 0.000000
# 2 -0.002457 0.012436 -0.001387 0.000000 0.000000 0.000000
# 3 -0.001371 -0.001387 0.011050 0.000000 0.000000 0.000000
# 4 0.000000 0.000000 0.000000 0.028301 0.000000 0.000000
# 5 0.000000 0.000000 0.000000 0.000000 0.035473 0.000000
# 6 0.000000 0.000000 0.000000 0.000000 0.000000 0.019426
#
#
# Mechanical properties :
#
#
# Convention : Reuss Voigt Hill
#
# Bulk Modulus (GPa) = 48.96315 52.76204 50.86259
# Shear Modulus (GPa) = 38.08390 40.61857 39.35124
#
# Velocity S-wave (km/s) = 3.80328 3.92780 3.86604
# Velocity P-wave (km/s) = 6.15497 6.37261 6.26473
#
# Compressibility (1/GPa) = 0.02042352
#
# Stress axis : x y z
#
# Youngs Moduli (GPa) = 135.75169 80.41055 90.49897
#
# Poissons Ratio (x) = 0.19753 0.12405
# Poissons Ratio (y) = 0.33348 0.12554
# Poissons Ratio (z) = 0.18608 0.11154
#
# Static dielectric constant tensor:
#      x y z
#    x 2.176330 0.000000 0.000000 
#    y 0.000000 2.036710 0.000000 
#    z 0.000000 0.000000 2.127180 
# 
# From -- ./inp_files/7114.got.cif
#   From: 2010.05.17/outbox.cif.g08.bks.cpg/sg19_4_cif.got.tgz:7114.got - 2010.06.03 22:46:19.
