data_PCOD9315281
_publ_section_title
;
Structure prediction by ZEFSAII (Michael W. Deem and Ramdas Pophale) SiO2 
 PCOD9315281
Probable space group: P 21 21 21
;
_chemical_formula_sum "Si O2"
_cell_formula_units_Z 32
_cell_length_a 8.651374
_cell_length_b 19.935666
_cell_length_c 8.598561
_cell_angle_alpha 90.000000
_cell_angle_beta 90.000000
_cell_angle_gamma 90.000000
_cell_volume 1483.001576
_symmetry_space_group_name_H-M "P 21 21 21"
_symmetry_group_IT_number 19
_symmetry_cell_setting 'orthorhombic'
loop_
_space_group_symop_operation_xyz
x,y,z
1/2-x,-y,1/2+z
1/2+x,1/2-y,-z
-x,1/2+y,1/2-z
loop_
_atom_site_type_symbol
_atom_site_label
_atom_site_fract_x
_atom_site_fract_y
_atom_site_fract_z
Si Si1 0.339598 0.838741 0.169277
Si Si2 0.849076 0.694086 0.181257
Si Si3 0.415272 0.267575 0.142981
Si Si4 0.924706 0.546639 0.255644
Si Si5 0.735766 0.098193 0.823004
Si Si6 0.241099 0.494990 0.895940
Si Si7 0.532330 0.695071 0.672040
Si Si8 0.396359 0.992063 0.104895
O O1 0.468354 0.786077 0.220601
O O2 0.204283 0.825307 0.290093
O O3 0.389726 0.916517 0.175913
O O4 0.294649 0.822325 0.992532
O O5 0.709058 0.716072 0.290674
O O6 0.926781 0.626910 0.243900
O O7 0.965369 0.756683 0.193617
O O8 0.336645 0.340096 0.114167
O O9 0.484277 0.236409 0.987367
O O10 0.766971 0.525964 0.347368
O O11 0.092522 0.525688 0.322234
O O12 0.904660 0.517849 0.081171
O O13 0.565372 0.127570 0.833566
O O14 0.765719 0.074124 0.646506
O O15 0.757620 0.033454 0.930686
O O16 0.062605 0.473935 0.848920
#
# Coordination Sequence:
#
# PCOD9315281 Si02
#       8
#     4   4   4   4   4   4   4   4
#     4  11  22  43  67  95 136 175 232 292 349 423
#     4  10  24  43  64  99 135 180 229 284 357 422
#     4  11  23  43  69  98 136 178 231 292 349 420
#     4  11  26  44  68 103 140 182 239 289 353 423
#     4  11  25  44  68 100 136 186 232 289 358 418
#     4  12  24  46  68 101 142 186 230 293 353 423
#     4  11  24  44  68 101 134 182 234 289 352 425
#     4  11  26  43  70 103 135 189 231 292 351 418
#
# _framework density 21.577857999999999
#
# number of rings (size 3 to 8) (size 9 to 14) (size 15 to 20)
#    0.000    1.000    2.500    3.750    3.500    1.000 
#    0.000    2.500    0.000    0.000    0.000    0.000 
#    0.000    0.000    0.000    0.000    0.000    0.000 
#
# Total GULP energy -178480.840254 kJ/mol
# GULP energy per Si atom -5577.526258 kJ/mol
# Density = 2.152875 g / cm^3
# Si number density = 21.577858 Si / 1000 Ang^3
#
#
#
# Elastic Constant Matrix: (Units=GPa)
#
#
# Indices 1 2 3 4 5 6 
#
# 1 113.4542 18.5470 21.3236 0.0000 0.0000 0.0000
# 2 18.5470 71.6068 31.9545 0.0000 0.0000 0.0000
# 3 21.3236 31.9545 50.1442 0.0000 0.0000 0.0000
# 4 0.0000 0.0000 0.0000 20.5368 0.0000 0.0000
# 5 0.0000 0.0000 0.0000 0.0000 29.6108 0.0000
# 6 0.0000 0.0000 0.0000 0.0000 0.0000 11.2752
#
#
#
# Elastic Compliance Matrix: (Units=1/GPa)
#
#
# Indices 1 2 3 4 5 6 
#
# 1 0.009624 -0.000931 -0.003499 0.000000 0.000000 0.000000
# 2 -0.000931 0.019605 -0.012097 0.000000 0.000000 0.000000
# 3 -0.003499 -0.012097 0.029139 0.000000 0.000000 0.000000
# 4 0.000000 0.000000 0.000000 0.048693 0.000000 0.000000
# 5 0.000000 0.000000 0.000000 0.000000 0.033771 0.000000
# 6 0.000000 0.000000 0.000000 0.000000 0.000000 0.088690
#
#
# Mechanical properties :
#
#
# Convention : Reuss Voigt Hill
#
# Bulk Modulus (GPa) = 39.50526 42.09507 40.80017
# Shear Modulus (GPa) = 18.44913 23.17656 20.81285
#
# Velocity S-wave (km/s) = 2.92722 3.28089 3.10908
# Velocity P-wave (km/s) = 5.45644 5.82264 5.64251
#
# Compressibility (1/GPa) = 0.02531308
#
# Stress axis : x y z
#
# Youngs Moduli (GPa) = 103.90665 51.00820 34.31783
#
# Poissons Ratio (x) = 0.04750 0.12008
# Poissons Ratio (y) = 0.09676 0.41515
# Poissons Ratio (z) = 0.36358 0.61705
#
# Static dielectric constant tensor:
#      x y z
#    x 1.822660 0.000000 0.000000 
#    y 0.000000 1.780990 0.000000 
#    z 0.000000 0.000000 1.826520 
# 
# From -- ./inp_files/3164.got.cif
#   From: 2010.05.17/outbox.cif.g08.bks.cpg/sg19_2_cif.got.tgz:3164.got - 2010.06.03 22:46:19.
