data_PCOD9315914
_publ_section_title
;
Structure prediction by ZEFSAII (Michael W. Deem and Ramdas Pophale) SiO2 
 PCOD9315914
Probable space group: P 21 21 21
;
_chemical_formula_sum "Si O2"
_cell_formula_units_Z 24
_cell_length_a 18.337074
_cell_length_b 5.799060
_cell_length_c 9.559876
_cell_angle_alpha 90.000000
_cell_angle_beta 90.000000
_cell_angle_gamma 90.000000
_cell_volume 1016.576109
_symmetry_space_group_name_H-M "P 21 21 21"
_symmetry_group_IT_number 19
_symmetry_cell_setting 'orthorhombic'
loop_
_space_group_symop_operation_xyz
x,y,z
1/2-x,-y,1/2+z
1/2+x,1/2-y,-z
-x,1/2+y,1/2-z
loop_
_atom_site_type_symbol
_atom_site_label
_atom_site_fract_x
_atom_site_fract_y
_atom_site_fract_z
Si Si1 0.242738 0.764412 0.911021
Si Si2 0.580985 0.579042 0.068501
Si Si3 0.793582 0.007632 0.841605
Si Si4 0.039458 0.795335 0.243077
Si Si5 0.857322 0.391363 0.016679
Si Si6 0.936393 0.728930 0.801023
O O1 0.163692 0.871312 0.887863
O O2 0.244972 0.553988 0.803750
O O3 0.310961 0.930205 0.890122
O O4 0.251160 0.679454 0.068891
O O5 0.564907 0.329607 0.136268
O O6 0.517134 0.721163 0.145651
O O7 0.574120 0.631568 0.905482
O O8 0.877320 0.929230 0.824304
O O9 0.799217 0.238419 0.932896
O O10 0.091930 0.755748 0.375931
O O11 0.002176 0.541222 0.221101
O O12 0.904557 0.525685 0.899997
#
# Coordination Sequence:
#
# PCOD9315914 Si02
#       6
#     4   4   4   4   4   4
#     4  11  28  44  74 108 143 198 246 307 385 457
#     4  12  26  46  77 109 143 197 261 304 383 467
#     4  11  26  48  73 105 147 195 245 318 382 454
#     4  12  29  49  78 115 151 201 255 319 381 452
#     4  11  26  49  69 103 157 188 240 320 379 438
#     4  11  25  48  71 106 145 189 249 316 372 442
#
# _framework density 23.608661000000001
#
# number of rings (size 3 to 8) (size 9 to 14) (size 15 to 20)
#    0.000    0.667    3.333    2.000   11.667    1.333 
#    0.000    0.000    0.000    0.000    0.000    0.000 
#    0.000    0.000    0.000    0.000    0.000    0.000 
#
# Total GULP energy -134124.251958 kJ/mol
# GULP energy per Si atom -5588.510498 kJ/mol
# Density = 2.355493 g / cm^3
# Si number density = 23.608661 Si / 1000 Ang^3
#
#
#
# Elastic Constant Matrix: (Units=GPa)
#
#
# Indices 1 2 3 4 5 6 
#
# 1 82.4522 12.7822 6.4021 0.0000 0.0000 0.0000
# 2 12.7822 45.3578 0.0261 0.0000 0.0000 0.0000
# 3 6.4021 0.0261 64.2988 0.0000 0.0000 0.0000
# 4 0.0000 0.0000 0.0000 43.5781 0.0000 0.0000
# 5 0.0000 0.0000 0.0000 0.0000 32.1916 0.0000
# 6 0.0000 0.0000 0.0000 0.0000 0.0000 27.2774
#
#
#
# Elastic Compliance Matrix: (Units=1/GPa)
#
#
# Indices 1 2 3 4 5 6 
#
# 1 0.012785 -0.003602 -0.001272 0.000000 0.000000 0.000000
# 2 -0.003602 0.023062 0.000349 0.000000 0.000000 0.000000
# 3 -0.001272 0.000349 0.015679 0.000000 0.000000 0.000000
# 4 0.000000 0.000000 0.000000 0.022947 0.000000 0.000000
# 5 0.000000 0.000000 0.000000 0.000000 0.031064 0.000000
# 6 0.000000 0.000000 0.000000 0.000000 0.000000 0.036660
#
#
# Mechanical properties :
#
#
# Convention : Reuss Voigt Hill
#
# Bulk Modulus (GPa) = 23.54211 25.61440 24.57826
# Shear Modulus (GPa) = 30.22865 32.13599 31.18232
#
# Velocity S-wave (km/s) = 3.58216 3.69344 3.63822
# Velocity P-wave (km/s) = 5.20601 5.39090 5.29926
#
# Compressibility (1/GPa) = 0.04247708
#
# Stress axis : x y z
#
# Youngs Moduli (GPa) = 78.21404 43.36154 63.78020
#
# Poissons Ratio (x) = 0.15620 0.08110
# Poissons Ratio (y) = 0.28175 -0.02228
# Poissons Ratio (z) = 0.09945 -0.01515
#
# Static dielectric constant tensor:
#      x y z
#    x 1.846530 0.000000 0.000000 
#    y 0.000000 1.950450 0.000000 
#    z 0.000000 0.000000 1.854330 
# 
# From -- ./inp_files/407.got.cif
#   From: 2010.05.17/outbox.cif.g08.bks.cpg/sg19_1_cif.got.tgz:407.got - 2010.06.03 22:46:19.
