data_PCOD9315257
_publ_section_title
;
Structure prediction by ZEFSAII (Michael W. Deem and Ramdas Pophale) SiO2 
 PCOD9315257
Probable space group: P 21 21 21
;
_chemical_formula_sum "Si O2"
_cell_formula_units_Z 32
_cell_length_a 9.651842
_cell_length_b 13.636042
_cell_length_c 12.149927
_cell_angle_alpha 90.000000
_cell_angle_beta 90.000000
_cell_angle_gamma 90.000000
_cell_volume 1599.087405
_symmetry_space_group_name_H-M "P 21 21 21"
_symmetry_group_IT_number 19
_symmetry_cell_setting 'orthorhombic'
loop_
_space_group_symop_operation_xyz
x,y,z
1/2-x,-y,1/2+z
1/2+x,1/2-y,-z
-x,1/2+y,1/2-z
loop_
_atom_site_type_symbol
_atom_site_label
_atom_site_fract_x
_atom_site_fract_y
_atom_site_fract_z
Si Si1 0.406435 0.530149 0.166583
Si Si2 0.344047 0.938093 0.471189
Si Si3 0.679906 0.647059 0.939741
Si Si4 0.492341 0.201045 0.182782
Si Si5 0.239587 0.344697 0.242307
Si Si6 0.870896 0.817115 0.011136
Si Si7 0.468479 0.744973 0.568814
Si Si8 0.715848 0.693252 0.694227
O O1 0.519154 0.469915 0.096080
O O2 0.486057 0.598027 0.255494
O O3 0.306641 0.450819 0.221262
O O4 0.328387 0.602076 0.080310
O O5 0.385571 0.844799 0.544328
O O6 0.232423 0.900761 0.383783
O O7 0.297323 0.033121 0.536646
O O8 0.537374 0.681728 0.996301
O O9 0.659335 0.664562 0.811428
O O10 0.805106 0.713517 0.980757
O O11 0.359868 0.262171 0.225066
O O12 0.632201 0.261834 0.208967
O O13 0.494918 0.197421 0.049621
O O14 0.177349 0.341079 0.365096
O O15 0.124288 0.321332 0.149386
O O16 0.612253 0.765746 0.631371
#
# Coordination Sequence:
#
# PCOD9315257 Si02
#       8
#     4   4   4   4   4   4   4   4
#     4  11  24  43  67 100 130 184 226 279 339 412
#     4  10  24  41  71  93 137 175 226 277 337 410
#     4  11  24  47  67 100 138 179 227 280 343 404
#     4  11  23  43  72  90 139 179 225 280 343 404
#     4  12  24  44  67 100 135 180 229 282 345 406
#     4  11  25  45  68  98 140 177 228 288 337 406
#     4  11  24  44  67 101 136 176 226 286 339 400
#     4  11  22  45  63 102 133 176 223 282 339 398
#
# _framework density 20.011415
#
# number of rings (size 3 to 8) (size 9 to 14) (size 15 to 20)
#    0.000    1.000    5.000    3.000    1.750    4.000 
#    2.250    0.000    0.000    0.000    0.000    0.000 
#    0.000    0.000    0.000    0.000    0.000    0.000 
#
# Total GULP energy -178790.867679 kJ/mol
# GULP energy per Si atom -5587.214615 kJ/mol
# Density = 1.996587 g / cm^3
# Si number density = 20.011415 Si / 1000 Ang^3
#
#
#
# Elastic Constant Matrix: (Units=GPa)
#
#
# Indices 1 2 3 4 5 6 
#
# 1 43.8948 -9.2356 -6.1016 0.0000 0.0000 0.0000
# 2 -9.2356 50.1102 20.4876 0.0000 0.0000 0.0000
# 3 -6.1016 20.4876 89.7718 0.0000 0.0000 0.0000
# 4 0.0000 0.0000 0.0000 11.2321 0.0000 0.0000
# 5 0.0000 0.0000 0.0000 0.0000 25.8627 0.0000
# 6 0.0000 0.0000 0.0000 0.0000 0.0000 28.4935
#
#
#
# Elastic Compliance Matrix: (Units=1/GPa)
#
#
# Indices 1 2 3 4 5 6 
#
# 1 0.023738 0.004098 0.000678 0.000000 0.000000 0.000000
# 2 0.004098 0.022717 -0.004906 0.000000 0.000000 0.000000
# 3 0.000678 -0.004906 0.012305 0.000000 0.000000 0.000000
# 4 0.000000 0.000000 0.000000 0.089031 0.000000 0.000000
# 5 0.000000 0.000000 0.000000 0.000000 0.038666 0.000000
# 6 0.000000 0.000000 0.000000 0.000000 0.000000 0.035096
#
#
# Mechanical properties :
#
#
# Convention : Reuss Voigt Hill
#
# Bulk Modulus (GPa) = 17.09387 21.56419 19.32903
# Shear Modulus (GPa) = 20.72003 25.02609 22.87306
#
# Velocity S-wave (km/s) = 3.22127 3.54021 3.38450
# Velocity P-wave (km/s) = 4.73245 5.24500 4.99530
#
# Compressibility (1/GPa) = 0.05850050
#
# Stress axis : x y z
#
# Youngs Moduli (GPa) = 42.12615 44.01985 81.26729
#
# Poissons Ratio (x) = -0.18038 -0.05512
# Poissons Ratio (y) = -0.17262 0.39869
# Poissons Ratio (z) = -0.02857 0.21596
#
# Static dielectric constant tensor:
#      x y z
#    x 1.722280 0.000000 0.000000 
#    y 0.000000 1.697120 0.000000 
#    z 0.000000 0.000000 1.717830 
# 
# From -- ./inp_files/4700.got.cif
#   From: 2010.05.17/outbox.cif.g08.bks.cpg/sg19_3_cif.got.tgz:4700.got - 2010.06.03 22:46:19.
