data_PCOD9315543
_publ_section_title
;
Structure prediction by ZEFSAII (Michael W. Deem and Ramdas Pophale) SiO2 
 PCOD9315543
Probable space group: P 21 21 21
;
_chemical_formula_sum "Si O2"
_cell_formula_units_Z 32
_cell_length_a 8.988668
_cell_length_b 11.741194
_cell_length_c 13.472423
_cell_angle_alpha 90.000000
_cell_angle_beta 90.000000
_cell_angle_gamma 90.000000
_cell_volume 1421.848467
_symmetry_space_group_name_H-M "P 21 21 21"
_symmetry_group_IT_number 19
_symmetry_cell_setting 'orthorhombic'
loop_
_space_group_symop_operation_xyz
x,y,z
1/2-x,-y,1/2+z
1/2+x,1/2-y,-z
-x,1/2+y,1/2-z
loop_
_atom_site_type_symbol
_atom_site_label
_atom_site_fract_x
_atom_site_fract_y
_atom_site_fract_z
Si Si1 0.997743 0.201979 0.891167
Si Si2 0.108458 0.100101 0.225507
Si Si3 0.778994 0.357660 0.240714
Si Si4 0.953244 0.803237 0.403628
Si Si5 0.132979 0.323246 0.631756
Si Si6 0.675717 0.760736 0.191742
Si Si7 0.769780 0.024298 0.202296
Si Si8 0.215750 0.529220 0.523744
O O1 0.899449 0.248651 0.800952
O O2 0.933673 0.085087 0.935118
O O3 0.153246 0.171052 0.840474
O O4 0.990493 0.285658 0.984770
O O5 0.114550 0.181527 0.129014
O O6 0.181183 0.178766 0.311327
O O7 0.207934 0.987232 0.224881
O O8 0.937420 0.058578 0.235035
O O9 0.737557 0.280633 0.334902
O O10 0.928841 0.326008 0.182691
O O11 0.841556 0.909259 0.410841
O O12 0.156226 0.412505 0.723890
O O13 0.197046 0.394828 0.539754
O O14 0.963510 0.278308 0.623485
O O15 0.729889 0.891288 0.190933
O O16 0.759035 0.066380 0.088905
#
# Coordination Sequence:
#
# PCOD9315543 Si02
#       8
#     4   4   4   4   4   4   4   4
#     4  11  21  42  67  98 129 169 230 277 335 400
#     4  12  23  41  67  96 137 173 230 278 342 402
#     4  11  25  40  65 100 133 177 224 283 348 399
#     4  12  23  41  69 103 128 178 228 287 331 410
#     4  11  23  46  69  94 140 181 229 279 351 411
#     4  11  25  44  71  97 136 183 228 278 351 405
#     4  12  25  46  69 101 141 179 228 291 342 405
#     4  12  23  44  71  99 136 180 225 281 344 410
#
# _framework density 22.505915999999999
#
# number of rings (size 3 to 8) (size 9 to 14) (size 15 to 20)
#    0.000    0.500    5.000    4.500    1.750    0.000 
#    2.250    0.000    0.000    0.000    0.000    0.000 
#    0.000    0.000    0.000    0.000    0.000    0.000 
#
# Total GULP energy -178706.783377 kJ/mol
# GULP energy per Si atom -5584.586981 kJ/mol
# Density = 2.245469 g / cm^3
# Si number density = 22.505916 Si / 1000 Ang^3
#
#
#
# Elastic Constant Matrix: (Units=GPa)
#
#
# Indices 1 2 3 4 5 6 
#
# 1 115.4858 42.7775 4.2348 0.0000 0.0000 0.0000
# 2 42.7775 120.6095 -13.6797 0.0000 0.0000 0.0000
# 3 4.2348 -13.6797 37.8440 0.0000 0.0000 0.0000
# 4 0.0000 0.0000 0.0000 33.9101 0.0000 0.0000
# 5 0.0000 0.0000 0.0000 0.0000 15.4486 0.0000
# 6 0.0000 0.0000 0.0000 0.0000 0.0000 39.3314
#
#
#
# Elastic Compliance Matrix: (Units=1/GPa)
#
#
# Indices 1 2 3 4 5 6 
#
# 1 0.010200 -0.003907 -0.002554 0.000000 0.000000 0.000000
# 2 -0.003907 0.010143 0.004104 0.000000 0.000000 0.000000
# 3 -0.002554 0.004104 0.028193 0.000000 0.000000 0.000000
# 4 0.000000 0.000000 0.000000 0.029490 0.000000 0.000000
# 5 0.000000 0.000000 0.000000 0.000000 0.064731 0.000000
# 6 0.000000 0.000000 0.000000 0.000000 0.000000 0.025425
#
#
# Mechanical properties :
#
#
# Convention : Reuss Voigt Hill
#
# Bulk Modulus (GPa) = 22.82037 37.84495 30.33266
# Shear Modulus (GPa) = 26.66616 33.77847 30.22232
#
# Velocity S-wave (km/s) = 3.44590 3.87831 3.66848
# Velocity P-wave (km/s) = 5.09844 6.07512 5.60808
#
# Compressibility (1/GPa) = 0.04382050
#
# Stress axis : x y z
#
# Youngs Moduli (GPa) = 98.03855 98.59492 35.46937
#
# Poissons Ratio (x) = 0.38525 0.09058
# Poissons Ratio (y) = 0.38308 -0.14555
# Poissons Ratio (z) = 0.25037 -0.40458
#
# Static dielectric constant tensor:
#      x y z
#    x 1.889100 0.000000 0.000000 
#    y 0.000000 1.874150 0.000000 
#    z 0.000000 0.000000 1.838870 
# 
# From -- ./inp_files/5910.got.cif
#   From: 2010.05.17/outbox.cif.g08.bks.cpg/sg19_3_cif.got.tgz:5910.got - 2010.06.03 22:46:19.
