data_PCOD9315265
_publ_section_title
;
Structure prediction by ZEFSAII (Michael W. Deem and Ramdas Pophale) SiO2 
 PCOD9315265
Probable space group: P 21 21 21
;
_chemical_formula_sum "Si O2"
_cell_formula_units_Z 32
_cell_length_a 27.603873
_cell_length_b 8.979866
_cell_length_c 5.241992
_cell_angle_alpha 90.000000
_cell_angle_beta 90.000000
_cell_angle_gamma 90.000000
_cell_volume 1299.380158
_symmetry_space_group_name_H-M "P 21 21 21"
_symmetry_group_IT_number 19
_symmetry_cell_setting 'orthorhombic'
loop_
_space_group_symop_operation_xyz
x,y,z
1/2-x,-y,1/2+z
1/2+x,1/2-y,-z
-x,1/2+y,1/2-z
loop_
_atom_site_type_symbol
_atom_site_label
_atom_site_fract_x
_atom_site_fract_y
_atom_site_fract_z
Si Si1 0.440251 0.451951 0.968228
Si Si2 0.911706 0.807486 0.390439
Si Si3 0.226276 0.075397 0.648456
Si Si4 0.622931 0.457558 0.561710
Si Si5 0.136662 0.577499 0.819413
Si Si6 0.034865 0.065830 0.801810
Si Si7 0.759018 0.089545 0.465262
Si Si8 0.419825 0.189503 0.628922
O O1 0.383230 0.448911 0.037311
O O2 0.477098 0.444033 0.205452
O O3 0.444520 0.601921 0.808374
O O4 0.449024 0.305561 0.801329
O O5 0.945988 0.721249 0.587113
O O6 0.878971 0.927434 0.534872
O O7 0.879000 0.685242 0.246176
O O8 0.168082 0.051730 0.627925
O O9 0.235564 0.251712 0.605456
O O10 0.248572 0.014100 0.912809
O O11 0.569487 0.462591 0.435531
O O12 0.623714 0.609721 0.718738
O O13 0.190590 0.614619 0.888558
O O14 0.104688 0.715308 0.909707
O O15 0.049012 0.940731 0.007584
O O16 0.767360 0.003097 0.194907
#
# Coordination Sequence:
#
# PCOD9315265 Si02
#       8
#     4   4   4   4   4   4   4   4
#     4  11  24  42  68 101 140 185 235 290 359 433
#     4  10  24  42  67  97 142 180 234 289 362 421
#     4  12  29  49  79 111 152 198 255 314 385 448
#     4  11  25  43  71  97 140 181 239 295 359 434
#     4  11  25  43  71  97 140 181 239 295 359 434
#     4  11  24  42  68 101 140 185 235 290 359 433
#     4  12  29  49  79 111 152 198 255 314 385 448
#     4  10  24  42  67  97 142 180 234 289 362 421
#
# _framework density 24.627127000000002
#
# number of rings (size 3 to 8) (size 9 to 14) (size 15 to 20)
#    0.000    1.000    0.000    4.500   14.000    8.000 
#    0.000    0.000    0.000    0.000    0.000    0.000 
#    0.000    0.000    0.000    0.000    0.000    0.000 
#
# Total GULP energy -179114.694390 kJ/mol
# GULP energy per Si atom -5597.334200 kJ/mol
# Density = 2.457107 g / cm^3
# Si number density = 24.627127 Si / 1000 Ang^3
#
#
#
# Elastic Constant Matrix: (Units=GPa)
#
#
# Indices 1 2 3 4 5 6 
#
# 1 67.5406 7.1002 -14.3227 0.0000 0.0000 0.0000
# 2 7.1002 97.2571 31.1048 0.0000 0.0000 0.0000
# 3 -14.3227 31.1048 72.3758 0.0000 0.0000 0.0000
# 4 0.0000 0.0000 0.0000 -25.9243 0.0000 0.0000
# 5 0.0000 0.0000 0.0000 0.0000 29.6277 0.0000
# 6 0.0000 0.0000 0.0000 0.0000 0.0000 10.3759
#
#
#
# Elastic Compliance Matrix: (Units=1/GPa)
#
#
# Indices 1 2 3 4 5 6 
#
# 1 0.015971 -0.002524 0.004245 0.000000 0.000000 0.000000
# 2 -0.002524 0.012319 -0.005794 0.000000 0.000000 0.000000
# 3 0.004245 -0.005794 0.017147 0.000000 0.000000 0.000000
# 4 0.000000 0.000000 0.000000 -0.038574 0.000000 0.000000
# 5 0.000000 0.000000 0.000000 0.000000 0.033752 0.000000
# 6 0.000000 0.000000 0.000000 0.000000 0.000000 0.096377
#
#
# Mechanical properties :
#
#
# Convention : Reuss Voigt Hill
#
# Bulk Modulus (GPa) = 26.81466 31.65980 29.23723
# Shear Modulus (GPa) = 31.73215 17.03525 24.38370
#
# Velocity S-wave (km/s) = 3.59347 2.63292 3.15002
# Velocity P-wave (km/s) = 5.30370 4.70389 5.01278
#
# Compressibility (1/GPa) = 0.03729303
#
# Stress axis : x y z
#
# Youngs Moduli (GPa) = 62.61161 81.17369 58.31956
#
# Poissons Ratio (x) = 0.20486 -0.24758
# Poissons Ratio (y) = 0.15801 0.33790
# Poissons Ratio (z) = -0.26580 0.47031
#
# Static dielectric constant tensor:
#      x y z
#    x 1.971960 0.000000 0.000000 
#    y 0.000000 1.913540 0.000000 
#    z 0.000000 0.000000 1.958310 
# 
# From -- ./inp_files/2341.got.cif
#   From: 2010.05.17/outbox.cif.g08.bks.cpg/sg19_2_cif.got.tgz:2341.got - 2010.06.03 22:46:19.
