data_PCOD9315350
_publ_section_title
;
Structure prediction by ZEFSAII (Michael W. Deem and Ramdas Pophale) SiO2 
 PCOD9315350
Probable space group: P 21 21 21
;
_chemical_formula_sum "Si O2"
_cell_formula_units_Z 28
_cell_length_a 15.098183
_cell_length_b 5.291795
_cell_length_c 12.445552
_cell_angle_alpha 90.000000
_cell_angle_beta 90.000000
_cell_angle_gamma 90.000000
_cell_volume 994.355912
_symmetry_space_group_name_H-M "P 21 21 21"
_symmetry_group_IT_number 19
_symmetry_cell_setting 'orthorhombic'
loop_
_space_group_symop_operation_xyz
x,y,z
1/2-x,-y,1/2+z
1/2+x,1/2-y,-z
-x,1/2+y,1/2-z
loop_
_atom_site_type_symbol
_atom_site_label
_atom_site_fract_x
_atom_site_fract_y
_atom_site_fract_z
Si Si1 0.569253 0.954470 0.891717
Si Si2 0.819249 0.531121 0.365623
Si Si3 0.317772 0.319976 0.984408
Si Si4 0.716467 0.432417 0.178602
Si Si5 0.984475 0.057431 0.137294
Si Si6 0.413219 0.310080 0.378298
Si Si7 0.606871 0.126747 0.333302
O O1 0.656494 0.764680 0.873274
O O2 0.585003 0.312665 0.878939
O O3 0.495560 0.718501 0.910905
O O4 0.581001 0.004655 0.024420
O O5 0.740323 0.638299 0.438047
O O6 0.794501 0.575406 0.240814
O O7 0.960455 0.026262 0.260990
O O8 0.338839 0.550702 0.061844
O O9 0.256728 0.312727 0.879191
O O10 0.415299 0.273609 0.930044
O O11 0.662326 0.604806 0.097792
O O12 0.649911 0.361054 0.273150
O O13 0.391122 0.420833 0.261208
O O14 0.506238 0.173369 0.361775
#
# Coordination Sequence:
#
# PCOD9315350 Si02
#       7
#     4   4   4   4   4   4   4
#     4  10  24  45  75 105 155 197 255 319 392 461
#     4  10  25  47  72 109 152 198 267 321 386 480
#     4  12  26  50  73 115 158 207 272 331 412 471
#     4  12  27  48  74 115 151 209 268 330 408 485
#     4  10  25  49  75 108 152 210 246 325 389 472
#     4  12  24  42  73 114 148 203 260 337 404 479
#     4  12  27  43  76 110 160 200 270 335 407 474
#
# _framework density 28.158932
#
# number of rings (size 3 to 8) (size 9 to 14) (size 15 to 20)
#    0.857    0.000    5.714    0.000   10.000    0.000 
#    5.143    0.000    0.000    0.000    0.000    0.000 
#    0.000    0.000    0.000    0.000    0.000    0.000 
#
# Total GULP energy -156229.564519 kJ/mol
# GULP energy per Si atom -5579.627304 kJ/mol
# Density = 2.809484 g / cm^3
# Si number density = 28.158932 Si / 1000 Ang^3
#
#
#
# Elastic Constant Matrix: (Units=GPa)
#
#
# Indices 1 2 3 4 5 6 
#
# 1 155.8566 37.8345 67.1639 0.0000 0.0000 0.0000
# 2 37.8345 94.5718 47.9605 0.0000 0.0000 0.0000
# 3 67.1639 47.9605 157.0032 0.0000 0.0000 0.0000
# 4 0.0000 0.0000 0.0000 44.9565 0.0000 0.0000
# 5 0.0000 0.0000 0.0000 0.0000 39.9255 0.0000
# 6 0.0000 0.0000 0.0000 0.0000 0.0000 46.6044
#
#
#
# Elastic Compliance Matrix: (Units=1/GPa)
#
#
# Indices 1 2 3 4 5 6 
#
# 1 0.008106 -0.001756 -0.002931 0.000000 0.000000 0.000000
# 2 -0.001756 0.012893 -0.003187 0.000000 0.000000 0.000000
# 3 -0.002931 -0.003187 0.008597 0.000000 0.000000 0.000000
# 4 0.000000 0.000000 0.000000 0.022244 0.000000 0.000000
# 5 0.000000 0.000000 0.000000 0.000000 0.025047 0.000000
# 6 0.000000 0.000000 0.000000 0.000000 0.000000 0.021457
#
#
# Mechanical properties :
#
#
# Convention : Reuss Voigt Hill
#
# Bulk Modulus (GPa) = 72.22106 79.26104 75.74105
# Shear Modulus (GPa) = 42.12052 43.26211 42.69131
#
# Velocity S-wave (km/s) = 3.87177 3.92389 3.89792
# Velocity P-wave (km/s) = 6.75950 6.98126 6.87128
#
# Compressibility (1/GPa) = 0.01384638
#
# Stress axis : x y z
#
# Youngs Moduli (GPa) = 123.37230 77.56200 116.32383
#
# Poissons Ratio (x) = 0.13623 0.34094
# Poissons Ratio (y) = 0.21668 0.37074
# Poissons Ratio (z) = 0.36160 0.24720
#
# Static dielectric constant tensor:
#      x y z
#    x 2.318570 0.000000 0.000000 
#    y 0.000000 2.366210 0.000000 
#    z 0.000000 0.000000 2.155160 
# 
# From -- ./inp_files/5347.got.cif
#   From: 2010.05.17/outbox.cif.g08.bks.cpg/sg19_3_cif.got.tgz:5347.got - 2010.06.03 22:46:19.
