data_PCOD9315907
_publ_section_title
;
Structure prediction by ZEFSAII (Michael W. Deem and Ramdas Pophale) SiO2 
 PCOD9315907
Probable space group: P 21 21 21
;
_chemical_formula_sum "Si O2"
_cell_formula_units_Z 28
_cell_length_a 7.586669
_cell_length_b 11.536853
_cell_length_c 12.385683
_cell_angle_alpha 90.000000
_cell_angle_beta 90.000000
_cell_angle_gamma 90.000000
_cell_volume 1084.072820
_symmetry_space_group_name_H-M "P 21 21 21"
_symmetry_group_IT_number 19
_symmetry_cell_setting 'orthorhombic'
loop_
_space_group_symop_operation_xyz
x,y,z
1/2-x,-y,1/2+z
1/2+x,1/2-y,-z
-x,1/2+y,1/2-z
loop_
_atom_site_type_symbol
_atom_site_label
_atom_site_fract_x
_atom_site_fract_y
_atom_site_fract_z
Si Si1 0.557408 0.834531 0.056868
Si Si2 0.789422 0.187669 0.958722
Si Si3 0.561507 0.861722 0.693430
Si Si4 0.230940 0.973349 0.748097
Si Si5 0.405481 0.074024 0.960315
Si Si6 0.162957 0.546777 0.748236
Si Si7 0.201265 0.804766 0.141891
O O1 0.697817 0.877547 0.144035
O O2 0.406519 0.775152 0.127963
O O3 0.613388 0.750229 0.962370
O O4 0.474668 0.951731 0.007767
O O5 0.588789 0.144508 0.945215
O O6 0.873878 0.130084 0.852875
O O7 0.875096 0.136000 0.069315
O O8 0.802804 0.326663 0.971946
O O9 0.633500 0.745852 0.747184
O O10 0.358467 0.865335 0.731122
O O11 0.670647 0.961644 0.758455
O O12 0.283997 0.031466 0.861735
O O13 0.308944 0.058145 0.654877
O O14 0.019862 0.973625 0.736863
#
# Coordination Sequence:
#
# PCOD9315907 Si02
#       7
#     4   4   4   4   4   4   4
#     4  11  26  46  74 105 153 188 250 308 369 444
#     4  12  26  46  79 107 153 198 251 310 379 445
#     4  12  25  50  74 107 153 193 248 313 369 452
#     4  11  25  47  74 111 146 194 254 305 374 442
#     4  12  24  46  72 110 149 196 250 307 369 448
#     4  11  26  46  76 112 146 198 250 305 374 443
#     4  11  26  47  71 110 144 195 249 304 372 444
#
# _framework density 25.828522
#
# number of rings (size 3 to 8) (size 9 to 14) (size 15 to 20)
#    0.000    0.571    5.714    0.857    4.000    5.714 
#    0.000    1.429    0.000    0.000    0.000    0.000 
#    0.000    0.000    0.000    0.000    0.000    0.000 
#
# Total GULP energy -156629.797520 kJ/mol
# GULP energy per Si atom -5593.921340 kJ/mol
# Density = 2.576973 g / cm^3
# Si number density = 25.828522 Si / 1000 Ang^3
#
#
#
# Elastic Constant Matrix: (Units=GPa)
#
#
# Indices 1 2 3 4 5 6 
#
# 1 92.5917 -3.1260 5.6122 0.0000 0.0000 0.0000
# 2 -3.1260 68.5242 12.2664 0.0000 0.0000 0.0000
# 3 5.6122 12.2664 69.7530 0.0000 0.0000 0.0000
# 4 0.0000 0.0000 0.0000 27.3573 0.0000 0.0000
# 5 0.0000 0.0000 0.0000 0.0000 46.6613 0.0000
# 6 0.0000 0.0000 0.0000 0.0000 0.0000 41.2228
#
#
#
# Elastic Compliance Matrix: (Units=1/GPa)
#
#
# Indices 1 2 3 4 5 6 
#
# 1 0.010883 0.000674 -0.000994 0.000000 0.000000 0.000000
# 2 0.000674 0.015110 -0.002711 0.000000 0.000000 0.000000
# 3 -0.000994 -0.002711 0.014893 0.000000 0.000000 0.000000
# 4 0.000000 0.000000 0.000000 0.036553 0.000000 0.000000
# 5 0.000000 0.000000 0.000000 0.000000 0.021431 0.000000
# 6 0.000000 0.000000 0.000000 0.000000 0.000000 0.024258
#
#
# Mechanical properties :
#
#
# Convention : Reuss Voigt Hill
#
# Bulk Modulus (GPa) = 28.71624 28.93044 28.82334
# Shear Modulus (GPa) = 35.51173 37.45605 36.48389
#
# Velocity S-wave (km/s) = 3.71199 3.81226 3.76246
# Velocity P-wave (km/s) = 5.43268 5.53200 5.48256
#
# Compressibility (1/GPa) = 0.03482350
#
# Stress axis : x y z
#
# Youngs Moduli (GPa) = 91.88524 66.18347 67.14523
#
# Poissons Ratio (x) = -0.04464 0.06676
# Poissons Ratio (y) = -0.06197 0.18205
# Poissons Ratio (z) = 0.09136 0.17945
#
# Static dielectric constant tensor:
#      x y z
#    x 2.080510 0.000000 0.000000 
#    y 0.000000 2.092800 0.000000 
#    z 0.000000 0.000000 2.103120 
# 
# From -- ./inp_files/4617.got.cif
#   From: 2010.05.17/outbox.cif.g08.bks.cpg/sg19_3_cif.got.tgz:4617.got - 2010.06.03 22:46:19.
