data_PCOD9315314
_publ_section_title
;
Structure prediction by ZEFSAII (Michael W. Deem and Ramdas Pophale) SiO2 
 PCOD9315314
Probable space group: P 21 21 21
;
_chemical_formula_sum "Si O2"
_cell_formula_units_Z 28
_cell_length_a 7.330573
_cell_length_b 6.986559
_cell_length_c 21.900933
_cell_angle_alpha 90.000000
_cell_angle_beta 90.000000
_cell_angle_gamma 90.000000
_cell_volume 1121.666813
_symmetry_space_group_name_H-M "P 21 21 21"
_symmetry_group_IT_number 19
_symmetry_cell_setting 'orthorhombic'
loop_
_space_group_symop_operation_xyz
x,y,z
1/2-x,-y,1/2+z
1/2+x,1/2-y,-z
-x,1/2+y,1/2-z
loop_
_atom_site_type_symbol
_atom_site_label
_atom_site_fract_x
_atom_site_fract_y
_atom_site_fract_z
Si Si1 0.576911 0.262887 0.103196
Si Si2 0.837431 0.529596 0.814179
Si Si3 0.529488 0.978325 0.005100
Si Si4 0.605895 0.853831 0.876364
Si Si5 0.288472 0.144275 0.423132
Si Si6 0.849428 0.842896 0.269739
Si Si7 0.743498 0.787087 0.715443
O O1 0.460398 0.113523 0.143946
O O2 0.564079 0.492151 0.101664
O O3 0.762053 0.253626 0.143444
O O4 0.563515 0.182498 0.035458
O O5 0.720545 0.665042 0.859604
O O6 0.733757 0.362982 0.778229
O O7 0.890480 0.677863 0.758526
O O8 0.642822 0.933645 0.944083
O O9 0.322694 0.945416 0.981399
O O10 0.603922 0.828370 0.054634
O O11 0.384936 0.814555 0.878672
O O12 0.651507 0.025816 0.830422
O O13 0.057796 0.792833 0.255854
O O14 0.756251 0.986155 0.222798
#
# Coordination Sequence:
#
# PCOD9315314 Si02
#       7
#     4   4   4   4   4   4   4
#     4  12  27  44  71 109 143 192 247 306 373 441
#     4  11  26  43  70 101 145 189 251 305 370 433
#     4  10  24  44  72 101 146 185 236 307 361 445
#     4   9  23  45  69 102 137 188 245 296 366 442
#     4  10  24  44  71 102 145 189 240 297 373 440
#     4  11  22  44  74  97 141 190 245 293 366 439
#     4  11  24  42  69 106 139 191 238 304 365 442
#
# _framework density 24.962848000000001
#
# number of rings (size 3 to 8) (size 9 to 14) (size 15 to 20)
#    0.857    0.571    2.857    0.857    4.000    8.000 
#    0.000    0.000    0.000    0.000    0.000    0.000 
#    0.000    0.000    0.000    0.000    0.000    0.000 
#
# Total GULP energy -156115.709538 kJ/mol
# GULP energy per Si atom -5575.561055 kJ/mol
# Density = 2.490603 g / cm^3
# Si number density = 24.962848 Si / 1000 Ang^3
#
#
#
# Elastic Constant Matrix: (Units=GPa)
#
#
# Indices 1 2 3 4 5 6 
#
# 1 62.8879 14.4359 -11.0565 0.0000 0.0000 0.0000
# 2 14.4359 90.0815 -14.2136 0.0000 0.0000 0.0000
# 3 -11.0565 -14.2136 42.4915 0.0000 0.0000 0.0000
# 4 0.0000 0.0000 0.0000 39.2984 0.0000 0.0000
# 5 0.0000 0.0000 0.0000 0.0000 38.9774 0.0000
# 6 0.0000 0.0000 0.0000 0.0000 0.0000 23.5648
#
#
#
# Elastic Compliance Matrix: (Units=1/GPa)
#
#
# Indices 1 2 3 4 5 6 
#
# 1 0.017047 -0.002145 0.003718 0.000000 0.000000 0.000000
# 2 -0.002145 0.011990 0.003452 0.000000 0.000000 0.000000
# 3 0.003718 0.003452 0.025656 0.000000 0.000000 0.000000
# 4 0.000000 0.000000 0.000000 0.025446 0.000000 0.000000
# 5 0.000000 0.000000 0.000000 0.000000 0.025656 0.000000
# 6 0.000000 0.000000 0.000000 0.000000 0.000000 0.042436
#
#
# Mechanical properties :
#
#
# Convention : Reuss Voigt Hill
#
# Bulk Modulus (GPa) = 15.44537 19.31027 17.37782
# Shear Modulus (GPa) = 31.29642 34.12111 32.70877
#
# Velocity S-wave (km/s) = 3.54463 3.70114 3.62373
# Velocity P-wave (km/s) = 4.79096 5.10068 4.94825
#
# Compressibility (1/GPa) = 0.06474431
#
# Stress axis : x y z
#
# Youngs Moduli (GPa) = 58.65975 83.40580 38.97650
#
# Poissons Ratio (x) = 0.17892 -0.14492
# Poissons Ratio (y) = 0.12584 -0.13456
# Poissons Ratio (z) = -0.21811 -0.28795
#
# Static dielectric constant tensor:
#      x y z
#    x 2.088060 0.000000 0.000000 
#    y 0.000000 1.904840 0.000000 
#    z 0.000000 0.000000 2.040470 
# 
# From -- ./inp_files/7325.got.cif
#   From: 2010.05.17/outbox.cif.g08.bks.cpg/sg19_4_cif.got.tgz:7325.got - 2010.06.03 22:46:19.
