data_PCOD9315652
_publ_section_title
;
Structure prediction by ZEFSAII (Michael W. Deem and Ramdas Pophale) SiO2 
 PCOD9315652
Probable space group: P 21 21 21
;
_chemical_formula_sum "Si O2"
_cell_formula_units_Z 20
_cell_length_a 4.821896
_cell_length_b 15.972523
_cell_length_c 11.746281
_cell_angle_alpha 90.000000
_cell_angle_beta 90.000000
_cell_angle_gamma 90.000000
_cell_volume 904.673247
_symmetry_space_group_name_H-M "P 21 21 21"
_symmetry_group_IT_number 19
_symmetry_cell_setting 'orthorhombic'
loop_
_space_group_symop_operation_xyz
x,y,z
1/2-x,-y,1/2+z
1/2+x,1/2-y,-z
-x,1/2+y,1/2-z
loop_
_atom_site_type_symbol
_atom_site_label
_atom_site_fract_x
_atom_site_fract_y
_atom_site_fract_z
Si Si1 0.603647 0.686010 0.192411
Si Si2 0.265025 0.738338 0.573469
Si Si3 0.566317 0.869651 0.134421
Si Si4 0.559183 0.594048 0.717519
Si Si5 0.402264 0.415651 0.617621
O O1 0.612939 0.710098 0.325779
O O2 0.521925 0.770061 0.125060
O O3 0.408426 0.610824 0.151448
O O4 0.915709 0.659833 0.167076
O O5 0.509706 0.788039 0.507837
O O6 0.438818 0.661758 0.628366
O O7 0.374051 0.897828 0.240091
O O8 0.881722 0.885527 0.170158
O O9 0.529252 0.916250 0.016086
O O10 0.490366 0.502364 0.673212
#
# Coordination Sequence:
#
# PCOD9315652 Si02
#       5
#     4   4   4   4   4
#     4  11  23  41  65  96 124 166 222 257 310 393
#     4  11  23  42  67  92 130 175 213 259 316 382
#     4  11  23  44  65  90 131 168 208 269 320 372
#     4  11  25  42  62  97 131 163 214 268 316 376
#     4  12  24  41  67  95 126 168 213 267 322 371
#
# _framework density 22.107427000000001
#
# number of rings (size 3 to 8) (size 9 to 14) (size 15 to 20)
#    0.000    0.800    0.000    9.600    0.000    4.800 
#    0.000    2.000    0.000    0.000    0.000    0.000 
#    0.000    0.000    0.000    0.000    0.000    0.000 
#
# Total GULP energy -111773.655973 kJ/mol
# GULP energy per Si atom -5588.682799 kJ/mol
# Density = 2.205711 g / cm^3
# Si number density = 22.107427 Si / 1000 Ang^3
#
#
#
# Elastic Constant Matrix: (Units=GPa)
#
#
# Indices 1 2 3 4 5 6 
#
# 1 72.8767 -11.5402 2.8754 0.0000 0.0000 0.0000
# 2 -11.5402 66.3029 14.9577 0.0000 0.0000 0.0000
# 3 2.8754 14.9577 60.7022 0.0000 0.0000 0.0000
# 4 0.0000 0.0000 0.0000 9.3375 0.0000 0.0000
# 5 0.0000 0.0000 0.0000 0.0000 29.3900 0.0000
# 6 0.0000 0.0000 0.0000 0.0000 0.0000 34.5295
#
#
#
# Elastic Compliance Matrix: (Units=1/GPa)
#
#
# Indices 1 2 3 4 5 6 
#
# 1 0.014216 0.002781 -0.001359 0.000000 0.000000 0.000000
# 2 0.002781 0.016514 -0.004201 0.000000 0.000000 0.000000
# 3 -0.001359 -0.004201 0.017573 0.000000 0.000000 0.000000
# 4 0.000000 0.000000 0.000000 0.107095 0.000000 0.000000
# 5 0.000000 0.000000 0.000000 0.000000 0.034025 0.000000
# 6 0.000000 0.000000 0.000000 0.000000 0.000000 0.028961
#
#
# Mechanical properties :
#
#
# Convention : Reuss Voigt Hill
#
# Bulk Modulus (GPa) = 23.39421 23.60751 23.50086
# Shear Modulus (GPa) = 20.99160 27.55732 24.27446
#
# Velocity S-wave (km/s) = 3.08478 3.53444 3.31724
# Velocity P-wave (km/s) = 4.82627 5.23049 5.03244
#
# Compressibility (1/GPa) = 0.04274561
#
# Stress axis : x y z
#
# Youngs Moduli (GPa) = 70.34449 60.55459 56.90418
#
# Poissons Ratio (x) = -0.16839 0.07731
# Poissons Ratio (y) = -0.19561 0.23905
# Poissons Ratio (z) = 0.09557 0.25439
#
# Static dielectric constant tensor:
#      x y z
#    x 1.774610 0.000000 0.000000 
#    y 0.000000 1.779180 0.000000 
#    z 0.000000 0.000000 1.845650 
# 
# From -- ./inp_files/831.got.cif
#   From: 2010.05.17/outbox.cif.g08.bks.cpg/sg19_1_cif.got.tgz:831.got - 2010.06.03 22:46:19.
