data_PCOD9315995
_publ_section_title
;
Structure prediction by ZEFSAII (Michael W. Deem and Ramdas Pophale) SiO2 
 PCOD9315995
Probable space group: P 21 21 21
;
_chemical_formula_sum "Si O2"
_cell_formula_units_Z 32
_cell_length_a 13.902673
_cell_length_b 17.702437
_cell_length_c 5.875640
_cell_angle_alpha 90.000000
_cell_angle_beta 90.000000
_cell_angle_gamma 90.000000
_cell_volume 1446.060770
_symmetry_space_group_name_H-M "P 21 21 21"
_symmetry_group_IT_number 19
_symmetry_cell_setting 'orthorhombic'
loop_
_space_group_symop_operation_xyz
x,y,z
1/2-x,-y,1/2+z
1/2+x,1/2-y,-z
-x,1/2+y,1/2-z
loop_
_atom_site_type_symbol
_atom_site_label
_atom_site_fract_x
_atom_site_fract_y
_atom_site_fract_z
Si Si1 0.267295 0.038245 0.398206
Si Si2 0.647979 0.085363 0.161663
Si Si3 0.524446 0.783884 0.988137
Si Si4 0.445460 0.126110 0.281426
Si Si5 0.738562 0.180755 0.827762
Si Si6 0.807625 0.691977 0.968497
Si Si7 0.868285 0.289693 0.115124
Si Si8 0.828585 0.077010 0.496680
O O1 0.377027 0.066929 0.403527
O O2 0.206591 0.115990 0.386477
O O3 0.246033 0.002746 0.650551
O O4 0.554056 0.099445 0.309835
O O5 0.747836 0.082017 0.300700
O O6 0.655006 0.157932 0.998706
O O7 0.633739 0.007291 0.027094
O O8 0.539780 0.747993 0.737780
O O9 0.590298 0.858488 0.978371
O O10 0.562569 0.711357 0.126483
O O11 0.420245 0.803539 0.088132
O O12 0.404893 0.137952 0.025245
O O13 0.709516 0.233824 0.620184
O O14 0.775992 0.101812 0.729374
O O15 0.820481 0.224668 0.962452
O O16 0.723308 0.690500 0.778886
#
# Coordination Sequence:
#
# PCOD9315995 Si02
#       8
#     4   4   4   4   4   4   4   4
#     4  12  28  53  76 109 159 204 256 330 393 460
#     4  12  27  45  72 108 151 194 241 313 392 458
#     4  12  25  45  74 108 139 197 255 308 385 465
#     4  12  26  47  74 107 145 198 256 311 385 465
#     4  12  21  46  73  99 144 192 237 309 370 452
#     4  12  26  47  76 106 147 197 258 314 385 457
#     4  12  21  46  75 102 146 184 257 319 365 453
#     4  12  24  47  68 105 149 186 242 312 379 458
#
# _framework density 22.129083999999999
#
# number of rings (size 3 to 8) (size 9 to 14) (size 15 to 20)
#    0.000    0.000    7.500    3.000    1.750    0.000 
#    4.500    0.000    0.000    0.000    0.000    0.000 
#    0.000    0.000    0.000    0.000    0.000    0.000 
#
# Total GULP energy -178569.823469 kJ/mol
# GULP energy per Si atom -5580.306983 kJ/mol
# Density = 2.207872 g / cm^3
# Si number density = 22.129084 Si / 1000 Ang^3
#
#
#
# Elastic Constant Matrix: (Units=GPa)
#
#
# Indices 1 2 3 4 5 6 
#
# 1 68.2728 19.1464 6.0371 0.0000 0.0000 0.0000
# 2 19.1464 102.6255 18.7979 0.0000 0.0000 0.0000
# 3 6.0371 18.7979 50.0317 0.0000 0.0000 0.0000
# 4 0.0000 0.0000 0.0000 28.8726 0.0000 0.0000
# 5 0.0000 0.0000 0.0000 0.0000 22.9502 0.0000
# 6 0.0000 0.0000 0.0000 0.0000 0.0000 13.3742
#
#
#
# Elastic Compliance Matrix: (Units=1/GPa)
#
#
# Indices 1 2 3 4 5 6 
#
# 1 0.015489 -0.002736 -0.000841 0.000000 0.000000 0.000000
# 2 -0.002736 0.010947 -0.003783 0.000000 0.000000 0.000000
# 3 -0.000841 -0.003783 0.021510 0.000000 0.000000 0.000000
# 4 0.000000 0.000000 0.000000 0.034635 0.000000 0.000000
# 5 0.000000 0.000000 0.000000 0.000000 0.043573 0.000000
# 6 0.000000 0.000000 0.000000 0.000000 0.000000 0.074771
#
#
# Mechanical properties :
#
#
# Convention : Reuss Voigt Hill
#
# Bulk Modulus (GPa) = 30.09622 34.32141 32.20881
# Shear Modulus (GPa) = 22.05368 24.83600 23.44484
#
# Velocity S-wave (km/s) = 3.16031 3.35374 3.25846
# Velocity P-wave (km/s) = 5.19101 5.52631 5.36128
#
# Compressibility (1/GPa) = 0.03322676
#
# Stress axis : x y z
#
# Youngs Moduli (GPa) = 64.56330 91.34525 46.48953
#
# Poissons Ratio (x) = 0.24988 0.03910
# Poissons Ratio (y) = 0.17662 0.17587
# Poissons Ratio (z) = 0.05431 0.34557
#
# Static dielectric constant tensor:
#      x y z
#    x 1.840870 0.000000 0.000000 
#    y 0.000000 1.808460 0.000000 
#    z 0.000000 0.000000 1.956510 
# 
# From -- ./inp_files/1552.got.cif
#   From: 2010.05.17/outbox.cif.g08.bks.cpg/sg19_1_cif.got.tgz:1552.got - 2010.06.03 22:46:19.
