data_PCOD9315108
_publ_section_title
;
Structure prediction by ZEFSAII (Michael W. Deem and Ramdas Pophale) SiO2 
 PCOD9315108
Probable space group: P 21 21 21
;
_chemical_formula_sum "Si O2"
_cell_formula_units_Z 24
_cell_length_a 17.447130
_cell_length_b 5.124815
_cell_length_c 9.719721
_cell_angle_alpha 90.000000
_cell_angle_beta 90.000000
_cell_angle_gamma 90.000000
_cell_volume 869.072461
_symmetry_space_group_name_H-M "P 21 21 21"
_symmetry_group_IT_number 19
_symmetry_cell_setting 'orthorhombic'
loop_
_space_group_symop_operation_xyz
x,y,z
1/2-x,-y,1/2+z
1/2+x,1/2-y,-z
-x,1/2+y,1/2-z
loop_
_atom_site_type_symbol
_atom_site_label
_atom_site_fract_x
_atom_site_fract_y
_atom_site_fract_z
Si Si1 0.395076 0.691816 0.490774
Si Si2 0.686694 0.544251 0.238165
Si Si3 0.447184 0.840339 0.766348
Si Si4 0.028651 0.711539 0.685678
Si Si5 0.186935 0.405493 0.398551
Si Si6 0.210606 0.673793 0.116475
O O1 0.349343 0.826222 0.366102
O O2 0.389425 0.844558 0.634748
O O3 0.483991 0.702724 0.450139
O O4 0.364040 0.403969 0.526694
O O5 0.615218 0.707550 0.293789
O O6 0.746844 0.708533 0.150998
O O7 0.735010 0.419459 0.361043
O O8 0.507455 0.608776 0.736778
O O9 0.394106 0.745444 0.893543
O O10 0.014761 0.405008 0.706228
O O11 0.185162 0.610904 0.273313
O O12 0.224500 0.507833 0.539491
#
# Coordination Sequence:
#
# PCOD9315108 Si02
#       6
#     4   4   4   4   4   4
#     4  10  24  47  73 106 153 199 251 322 384 457
#     4  11  25  44  75 110 142 200 256 320 382 456
#     4  11  29  49  73 106 151 208 253 314 393 471
#     4  10  23  43  70 106 143 190 249 309 380 449
#     4  11  27  44  77 106 153 196 261 319 389 462
#     4  11  24  45  70 108 148 191 256 310 388 449
#
# _framework density 27.615646000000002
#
# number of rings (size 3 to 8) (size 9 to 14) (size 15 to 20)
#    0.000    1.333    1.667    1.000   14.000    4.000 
#    3.000    0.000    0.000    0.000    0.000    0.000 
#    0.000    0.000    0.000    0.000    0.000    0.000 
#
# Total GULP energy -134233.929982 kJ/mol
# GULP energy per Si atom -5593.080416 kJ/mol
# Density = 2.755279 g / cm^3
# Si number density = 27.615646 Si / 1000 Ang^3
#
#
#
# Elastic Constant Matrix: (Units=GPa)
#
#
# Indices 1 2 3 4 5 6 
#
# 1 131.3846 32.4599 21.0740 0.0000 0.0000 0.0000
# 2 32.4599 83.6169 -0.6386 0.0000 0.0000 0.0000
# 3 21.0740 -0.6386 55.1807 0.0000 0.0000 0.0000
# 4 0.0000 0.0000 0.0000 37.4041 0.0000 0.0000
# 5 0.0000 0.0000 0.0000 0.0000 47.0050 0.0000
# 6 0.0000 0.0000 0.0000 0.0000 0.0000 59.2052
#
#
#
# Elastic Compliance Matrix: (Units=1/GPa)
#
#
# Indices 1 2 3 4 5 6 
#
# 1 0.009046 -0.003538 -0.003496 0.000000 0.000000 0.000000
# 2 -0.003538 0.013344 0.001506 0.000000 0.000000 0.000000
# 3 -0.003496 0.001506 0.019475 0.000000 0.000000 0.000000
# 4 0.000000 0.000000 0.000000 0.026735 0.000000 0.000000
# 5 0.000000 0.000000 0.000000 0.000000 0.021274 0.000000
# 6 0.000000 0.000000 0.000000 0.000000 0.000000 0.016890
#
#
# Mechanical properties :
#
#
# Convention : Reuss Voigt Hill
#
# Bulk Modulus (GPa) = 32.45851 41.77475 37.11663
# Shear Modulus (GPa) = 39.03463 43.20864 41.12163
#
# Velocity S-wave (km/s) = 3.76373 3.95985 3.86303
# Velocity P-wave (km/s) = 5.53775 6.00560 5.77642
#
# Compressibility (1/GPa) = 0.03080856
#
# Stress axis : x y z
#
# Youngs Moduli (GPa) = 110.54425 74.93782 51.34853
#
# Poissons Ratio (x) = 0.26516 0.17950
# Poissons Ratio (y) = 0.39115 -0.07732
# Poissons Ratio (z) = 0.38643 -0.11284
#
# Static dielectric constant tensor:
#      x y z
#    x 2.127070 0.000000 0.000000 
#    y 0.000000 2.227670 0.000000 
#    z 0.000000 0.000000 2.337880 
# 
# From -- ./inp_files/5326.got.cif
#   From: 2010.05.17/outbox.cif.g08.bks.cpg/sg19_3_cif.got.tgz:5326.got - 2010.06.03 22:46:19.
