data_PCOD9315682
_publ_section_title
;
Structure prediction by ZEFSAII (Michael W. Deem and Ramdas Pophale) SiO2 
 PCOD9315682
Probable space group: P 21 21 21
;
_chemical_formula_sum "Si O2"
_cell_formula_units_Z 32
_cell_length_a 12.136042
_cell_length_b 7.885984
_cell_length_c 13.889215
_cell_angle_alpha 90.000000
_cell_angle_beta 90.000000
_cell_angle_gamma 90.000000
_cell_volume 1329.262225
_symmetry_space_group_name_H-M "P 21 21 21"
_symmetry_group_IT_number 19
_symmetry_cell_setting 'orthorhombic'
loop_
_space_group_symop_operation_xyz
x,y,z
1/2-x,-y,1/2+z
1/2+x,1/2-y,-z
-x,1/2+y,1/2-z
loop_
_atom_site_type_symbol
_atom_site_label
_atom_site_fract_x
_atom_site_fract_y
_atom_site_fract_z
Si Si1 0.451745 0.821140 0.819746
Si Si2 0.346875 0.466261 0.770798
Si Si3 0.271082 0.647768 0.581643
Si Si4 0.781724 0.500392 0.305247
Si Si5 0.959390 0.012337 0.898673
Si Si6 0.451807 0.841857 0.215552
Si Si7 0.855482 0.991500 0.595106
Si Si8 0.895576 0.290223 0.470454
O O1 0.398513 0.637305 0.813367
O O2 0.360990 0.955404 0.784583
O O3 0.506021 0.826048 0.925272
O O4 0.550919 0.839845 0.741677
O O5 0.309170 0.516858 0.663705
O O6 0.238374 0.428940 0.831670
O O7 0.267628 0.826594 0.634597
O O8 0.150237 0.582804 0.550971
O O9 0.353905 0.640515 0.492296
O O10 0.664292 0.433249 0.273434
O O11 0.831397 0.366163 0.380145
O O12 0.939421 0.840355 0.835268
O O13 0.995356 0.154252 0.821595
O O14 0.050523 0.946660 0.972702
O O15 0.534135 0.953585 0.149444
O O16 0.825597 0.171027 0.541415
#
# Coordination Sequence:
#
# PCOD9315682 Si02
#       8
#     4   4   4   4   4   4   4   4
#     4  11  23  44  70 100 141 181 244 293 358 421
#     4  11  23  44  70 102 139 187 235 300 357 426
#     4  11  23  43  70  99 143 181 238 302 355 437
#     4  11  26  44  68 106 144 184 246 299 361 437
#     4  11  24  45  74 100 148 188 244 299 367 439
#     4  11  25  45  69 104 140 191 238 299 367 435
#     4  11  24  45  74  98 142 190 239 298 371 426
#     4  11  24  46  71 107 137 194 246 296 362 443
#
# _framework density 24.073505000000001
#
# number of rings (size 3 to 8) (size 9 to 14) (size 15 to 20)
#    0.000    1.000    3.750    2.250    5.250    3.000 
#    2.250    0.000    0.000    0.000    0.000    0.000 
#    0.000    0.000    0.000    0.000    0.000    0.000 
#
# Total GULP energy -179064.870212 kJ/mol
# GULP energy per Si atom -5595.777194 kJ/mol
# Density = 2.401871 g / cm^3
# Si number density = 24.073505 Si / 1000 Ang^3
#
#
#
# Elastic Constant Matrix: (Units=GPa)
#
#
# Indices 1 2 3 4 5 6 
#
# 1 87.2858 16.3357 24.1044 0.0000 0.0000 0.0000
# 2 16.3357 79.1658 -2.1217 0.0000 0.0000 0.0000
# 3 24.1044 -2.1217 90.5479 0.0000 0.0000 0.0000
# 4 0.0000 0.0000 0.0000 36.4486 0.0000 0.0000
# 5 0.0000 0.0000 0.0000 0.0000 24.2754 0.0000
# 6 0.0000 0.0000 0.0000 0.0000 0.0000 26.7451
#
#
#
# Elastic Compliance Matrix: (Units=1/GPa)
#
#
# Indices 1 2 3 4 5 6 
#
# 1 0.012944 -0.002765 -0.003510 0.000000 0.000000 0.000000
# 2 -0.002765 0.013230 0.001046 0.000000 0.000000 0.000000
# 3 -0.003510 0.001046 0.012003 0.000000 0.000000 0.000000
# 4 0.000000 0.000000 0.000000 0.027436 0.000000 0.000000
# 5 0.000000 0.000000 0.000000 0.000000 0.041194 0.000000
# 6 0.000000 0.000000 0.000000 0.000000 0.000000 0.037390
#
#
# Mechanical properties :
#
#
# Convention : Reuss Voigt Hill
#
# Bulk Modulus (GPa) = 36.07758 37.07069 36.57413
# Shear Modulus (GPa) = 30.50741 32.07256 31.28999
#
# Velocity S-wave (km/s) = 3.56372 3.65400 3.60914
# Velocity P-wave (km/s) = 5.65265 5.76495 5.70908
#
# Compressibility (1/GPa) = 0.02771805
#
# Stress axis : x y z
#
# Youngs Moduli (GPa) = 77.25882 75.58412 83.31333
#
# Poissons Ratio (x) = 0.20899 0.29246
# Poissons Ratio (y) = 0.21362 -0.08715
# Poissons Ratio (z) = 0.27121 -0.07906
#
# Static dielectric constant tensor:
#      x y z
#    x 1.970710 0.000000 0.000000 
#    y 0.000000 1.940180 0.000000 
#    z 0.000000 0.000000 1.915260 
# 
# From -- ./inp_files/6155.got.cif
#   From: 2010.05.17/outbox.cif.g08.bks.cpg/sg19_4_cif.got.tgz:6155.got - 2010.06.03 22:46:19.
