data_PCOD9315722
_publ_section_title
;
Structure prediction by ZEFSAII (Michael W. Deem and Ramdas Pophale) SiO2 
 PCOD9315722
Probable space group: P 21 21 21
;
_chemical_formula_sum "Si O2"
_cell_formula_units_Z 24
_cell_length_a 8.514681
_cell_length_b 7.953257
_cell_length_c 14.679846
_cell_angle_alpha 90.000000
_cell_angle_beta 90.000000
_cell_angle_gamma 90.000000
_cell_volume 994.111042
_symmetry_space_group_name_H-M "P 21 21 21"
_symmetry_group_IT_number 19
_symmetry_cell_setting 'orthorhombic'
loop_
_space_group_symop_operation_xyz
x,y,z
1/2-x,-y,1/2+z
1/2+x,1/2-y,-z
-x,1/2+y,1/2-z
loop_
_atom_site_type_symbol
_atom_site_label
_atom_site_fract_x
_atom_site_fract_y
_atom_site_fract_z
Si Si1 0.919338 0.277400 0.578387
Si Si2 0.914722 0.450098 0.931163
Si Si3 0.096817 0.298415 0.769223
Si Si4 0.927161 0.418675 0.389230
Si Si5 0.087276 0.584394 0.232685
Si Si6 0.822954 0.445188 0.121124
O O1 0.945418 0.084372 0.547146
O O2 0.009717 0.276513 0.674139
O O3 0.985999 0.383132 0.492050
O O4 0.754272 0.370805 0.599248
O O5 0.756926 0.543181 0.899287
O O6 0.975702 0.342039 0.848071
O O7 0.858098 0.361812 0.023748
O O8 0.228127 0.440905 0.748725
O O9 0.199808 0.148255 0.813448
O O10 0.011669 0.564975 0.332800
O O11 0.935255 0.253335 0.326246
O O12 0.987512 0.458137 0.171747
#
# Coordination Sequence:
#
# PCOD9315722 Si02
#       6
#     4   4   4   4   4   4
#     4  11  23  46  74 101 142 198 249 297 372 446
#     4  11  25  48  71 102 146 196 247 296 374 447
#     4  12  26  45  73 107 147 194 244 309 366 438
#     4  11  25  45  71 103 145 192 244 310 366 455
#     4  12  23  44  70 105 146 184 245 303 372 437
#     4  11  26  46  71 110 148 190 251 307 370 443
#
# _framework density 24.142171999999999
#
# number of rings (size 3 to 8) (size 9 to 14) (size 15 to 20)
#    0.000    0.667    5.000    2.000    2.333    4.000 
#    3.000    0.000    0.000    0.000    0.000    0.000 
#    0.000    0.000    0.000    0.000    0.000    0.000 
#
# Total GULP energy -133986.997625 kJ/mol
# GULP energy per Si atom -5582.791568 kJ/mol
# Density = 2.408722 g / cm^3
# Si number density = 24.142172 Si / 1000 Ang^3
#
#
#
# Elastic Constant Matrix: (Units=GPa)
#
#
# Indices 1 2 3 4 5 6 
#
# 1 53.7277 3.3556 49.1231 0.0000 0.0000 0.0000
# 2 3.3556 33.4298 33.1181 0.0000 0.0000 0.0000
# 3 49.1231 33.1181 210.6931 0.0000 0.0000 0.0000
# 4 0.0000 0.0000 0.0000 36.3594 0.0000 0.0000
# 5 0.0000 0.0000 0.0000 0.0000 44.0680 0.0000
# 6 0.0000 0.0000 0.0000 0.0000 0.0000 28.0627
#
#
#
# Elastic Compliance Matrix: (Units=1/GPa)
#
#
# Indices 1 2 3 4 5 6 
#
# 1 0.024039 0.003718 -0.006189 0.000000 0.000000 0.000000
# 2 0.003718 0.036006 -0.006527 0.000000 0.000000 0.000000
# 3 -0.006189 -0.006527 0.007215 0.000000 0.000000 0.000000
# 4 0.000000 0.000000 0.000000 0.027503 0.000000 0.000000
# 5 0.000000 0.000000 0.000000 0.000000 0.022692 0.000000
# 6 0.000000 0.000000 0.000000 0.000000 0.000000 0.035635
#
#
# Mechanical properties :
#
#
# Convention : Reuss Voigt Hill
#
# Bulk Modulus (GPa) = 20.29824 52.11602 36.20713
# Shear Modulus (GPa) = 26.66577 35.84825 31.25701
#
# Velocity S-wave (km/s) = 3.32705 3.85760 3.60211
# Velocity P-wave (km/s) = 4.81509 6.44014 5.68597
#
# Compressibility (1/GPa) = 0.04926536
#
# Stress axis : x y z
#
# Youngs Moduli (GPa) = 41.59928 27.77321 138.59751
#
# Poissons Ratio (x) = -0.10327 0.85780
# Poissons Ratio (y) = -0.15469 0.90457
# Poissons Ratio (z) = 0.25746 0.18126
#
# Static dielectric constant tensor:
#      x y z
#    x 1.912490 0.000000 0.000000 
#    y 0.000000 2.031670 0.000000 
#    z 0.000000 0.000000 1.928480 
# 
# From -- ./inp_files/2783.got.cif
#   From: 2010.05.17/outbox.cif.g08.bks.cpg/sg19_2_cif.got.tgz:2783.got - 2010.06.03 22:46:19.
