data_PCOD9315706
_publ_section_title
;
Structure prediction by ZEFSAII (Michael W. Deem and Ramdas Pophale) SiO2 
 PCOD9315706
Probable space group: P 21 21 21
;
_chemical_formula_sum "Si O2"
_cell_formula_units_Z 32
_cell_length_a 9.321718
_cell_length_b 16.616672
_cell_length_c 8.527818
_cell_angle_alpha 90.000000
_cell_angle_beta 90.000000
_cell_angle_gamma 90.000000
_cell_volume 1320.924304
_symmetry_space_group_name_H-M "P 21 21 21"
_symmetry_group_IT_number 19
_symmetry_cell_setting 'orthorhombic'
loop_
_space_group_symop_operation_xyz
x,y,z
1/2-x,-y,1/2+z
1/2+x,1/2-y,-z
-x,1/2+y,1/2-z
loop_
_atom_site_type_symbol
_atom_site_label
_atom_site_fract_x
_atom_site_fract_y
_atom_site_fract_z
Si Si1 0.208398 0.045841 0.009411
Si Si2 0.363957 0.761080 0.043490
Si Si3 0.093027 0.078394 0.358708
Si Si4 0.643998 0.026650 0.970719
Si Si5 0.389515 0.708279 0.584213
Si Si6 0.847804 0.203318 0.676292
Si Si7 0.791955 0.288172 0.151464
Si Si8 0.931730 0.030045 0.805405
O O1 0.272561 0.128371 0.940371
O O2 0.080736 0.020987 0.892450
O O3 0.323442 0.975771 0.987522
O O4 0.154107 0.061214 0.185733
O O5 0.520090 0.742832 0.116088
O O6 0.252926 0.797609 0.169128
O O7 0.395597 0.830692 0.916362
O O8 0.272620 0.691812 0.958410
O O9 0.933348 0.044387 0.375910
O O10 0.598890 0.112450 0.898098
O O11 0.811629 0.020148 0.938179
O O12 0.602008 0.023593 0.153389
O O13 0.250941 0.736088 0.683961
O O14 0.545569 0.742760 0.625937
O O15 0.332819 0.729591 0.412790
O O16 0.917491 0.120844 0.736459
#
# Coordination Sequence:
#
# PCOD9315706 Si02
#       8
#     4   4   4   4   4   4   4   4
#     4  12  25  45  74 103 146 188 242 302 372 438
#     4  12  25  47  74 101 149 189 246 305 368 443
#     4  12  25  46  74 106 139 195 245 304 371 442
#     4  11  23  45  69 103 141 183 240 297 365 431
#     4  11  26  43  73 101 144 192 246 295 371 437
#     4  11  24  47  68 105 144 188 242 300 370 442
#     4  12  24  45  70 103 144 194 240 307 361 446
#     4  11  24  46  70 104 143 187 237 304 362 443
#
# _framework density 24.225460999999999
#
# number of rings (size 3 to 8) (size 9 to 14) (size 15 to 20)
#    0.000    0.500    3.750    4.500    1.750    1.000 
#    4.500    0.000    0.000    0.000    0.000    0.000 
#    0.000    0.000    0.000    0.000    0.000    0.000 
#
# Total GULP energy -179057.433068 kJ/mol
# GULP energy per Si atom -5595.544783 kJ/mol
# Density = 2.417032 g / cm^3
# Si number density = 24.225461 Si / 1000 Ang^3
#
#
#
# Elastic Constant Matrix: (Units=GPa)
#
#
# Indices 1 2 3 4 5 6 
#
# 1 143.0498 -8.0578 27.9196 0.0000 0.0000 0.0000
# 2 -8.0578 30.5344 -4.4436 0.0000 0.0000 0.0000
# 3 27.9196 -4.4436 105.8923 0.0000 0.0000 0.0000
# 4 0.0000 0.0000 0.0000 30.0742 0.0000 0.0000
# 5 0.0000 0.0000 0.0000 0.0000 49.9229 0.0000
# 6 0.0000 0.0000 0.0000 0.0000 0.0000 27.4489
#
#
#
# Elastic Compliance Matrix: (Units=1/GPa)
#
#
# Indices 1 2 3 4 5 6 
#
# 1 0.007456 0.001692 -0.001895 0.000000 0.000000 0.000000
# 2 0.001692 0.033335 0.000953 0.000000 0.000000 0.000000
# 3 -0.001895 0.000953 0.009983 0.000000 0.000000 0.000000
# 4 0.000000 0.000000 0.000000 0.033251 0.000000 0.000000
# 5 0.000000 0.000000 0.000000 0.000000 0.020031 0.000000
# 6 0.000000 0.000000 0.000000 0.000000 0.000000 0.036431
#
#
# Mechanical properties :
#
#
# Convention : Reuss Voigt Hill
#
# Bulk Modulus (GPa) = 19.13016 34.47921 26.80468
# Shear Modulus (GPa) = 31.96684 39.09309 35.52997
#
# Velocity S-wave (km/s) = 3.63651 4.02147 3.83382
# Velocity P-wave (km/s) = 5.05432 5.98552 5.53952
#
# Compressibility (1/GPa) = 0.05227347
#
# Stress axis : x y z
#
# Youngs Moduli (GPa) = 134.12594 29.99842 100.16908
#
# Poissons Ratio (x) = -0.05075 0.18980
# Poissons Ratio (y) = -0.22691 -0.09544
# Poissons Ratio (z) = 0.25414 -0.02858
#
# Static dielectric constant tensor:
#      x y z
#    x 1.904770 0.000000 0.000000 
#    y 0.000000 1.919830 0.000000 
#    z 0.000000 0.000000 1.980460 
# 
# From -- ./inp_files/3178.got.cif
#   From: 2010.05.17/outbox.cif.g08.bks.cpg/sg19_2_cif.got.tgz:3178.got - 2010.06.03 22:46:19.
