data_PCOD9315887
_publ_section_title
;
Structure prediction by ZEFSAII (Michael W. Deem and Ramdas Pophale) SiO2 
 PCOD9315887
Probable space group: P 21 21 21
;
_chemical_formula_sum "Si O2"
_cell_formula_units_Z 20
_cell_length_a 11.939936
_cell_length_b 8.392605
_cell_length_c 7.750418
_cell_angle_alpha 90.000000
_cell_angle_beta 90.000000
_cell_angle_gamma 90.000000
_cell_volume 776.647428
_symmetry_space_group_name_H-M "P 21 21 21"
_symmetry_group_IT_number 19
_symmetry_cell_setting 'orthorhombic'
loop_
_space_group_symop_operation_xyz
x,y,z
1/2-x,-y,1/2+z
1/2+x,1/2-y,-z
-x,1/2+y,1/2-z
loop_
_atom_site_type_symbol
_atom_site_label
_atom_site_fract_x
_atom_site_fract_y
_atom_site_fract_z
Si Si1 0.037363 0.122269 0.376770
Si Si2 0.085977 0.878607 0.913862
Si Si3 0.287779 0.972453 0.127152
Si Si4 0.143761 0.381352 0.770535
Si Si5 0.145108 0.408446 0.181931
O O1 0.125186 0.007183 0.469566
O O2 0.110928 0.256414 0.289929
O O3 0.952398 0.209643 0.511081
O O4 0.951069 0.031741 0.257820
O O5 0.969995 0.935551 0.826738
O O6 0.174214 0.891174 0.757874
O O7 0.160527 0.965819 0.060951
O O8 0.319237 0.796353 0.204689
O O9 0.238574 0.507790 0.721463
O O10 0.132188 0.374895 0.977616
#
# Coordination Sequence:
#
# PCOD9315887 Si02
#       5
#     4   4   4   4   4
#     4  11  27  48  75 112 150 206 260 318 392 458
#     4  11  25  47  74 110 159 194 261 319 388 462
#     4  11  25  45  73 114 151 203 256 322 384 462
#     4  11  25  49  76 110 159 208 257 323 394 466
#     4  12  26  51  78 114 157 207 264 320 392 476
#
# _framework density 25.751709999999999
#
# number of rings (size 3 to 8) (size 9 to 14) (size 15 to 20)
#    0.000    0.800    4.000    2.400    5.600    0.000 
#    3.600    0.000    0.000    0.000    0.000    0.000 
#    0.000    0.000    0.000    0.000    0.000    0.000 
#
# Total GULP energy -111984.932359 kJ/mol
# GULP energy per Si atom -5599.246618 kJ/mol
# Density = 2.569310 g / cm^3
# Si number density = 25.751710 Si / 1000 Ang^3
#
#
#
# Elastic Constant Matrix: (Units=GPa)
#
#
# Indices 1 2 3 4 5 6 
#
# 1 197.6105 44.8351 44.5910 0.0000 0.0000 0.0000
# 2 44.8351 72.4192 15.1838 0.0000 0.0000 0.0000
# 3 44.5910 15.1838 105.4432 0.0000 0.0000 0.0000
# 4 0.0000 0.0000 0.0000 38.8190 0.0000 0.0000
# 5 0.0000 0.0000 0.0000 0.0000 51.8323 0.0000
# 6 0.0000 0.0000 0.0000 0.0000 0.0000 38.8689
#
#
#
# Elastic Compliance Matrix: (Units=1/GPa)
#
#
# Indices 1 2 3 4 5 6 
#
# 1 0.006339 -0.003467 -0.002182 0.000000 0.000000 0.000000
# 2 -0.003467 0.016135 -0.000857 0.000000 0.000000 0.000000
# 3 -0.002182 -0.000857 0.010530 0.000000 0.000000 0.000000
# 4 0.000000 0.000000 0.000000 0.025761 0.000000 0.000000
# 5 0.000000 0.000000 0.000000 0.000000 0.019293 0.000000
# 6 0.000000 0.000000 0.000000 0.000000 0.000000 0.025728
#
#
# Mechanical properties :
#
#
# Convention : Reuss Voigt Hill
#
# Bulk Modulus (GPa) = 50.02012 64.96584 57.49298
# Shear Modulus (GPa) = 40.49851 43.96155 42.23003
#
# Velocity S-wave (km/s) = 3.96997 4.13623 4.05395
# Velocity P-wave (km/s) = 6.36242 6.93496 6.65485
#
# Compressibility (1/GPa) = 0.01999195
#
# Stress axis : x y z
#
# Youngs Moduli (GPa) = 157.74272 61.97757 94.96878
#
# Poissons Ratio (x) = 0.21490 0.20718
# Poissons Ratio (y) = 0.54695 0.08140
# Poissons Ratio (z) = 0.34413 0.05312
#
# Static dielectric constant tensor:
#      x y z
#    x 1.955510 0.000000 0.000000 
#    y 0.000000 1.997590 0.000000 
#    z 0.000000 0.000000 2.126650 
# 
# From -- ./inp_files/3304.got.cif
#   From: 2010.05.17/outbox.cif.g08.bks.cpg/sg19_2_cif.got.tgz:3304.got - 2010.06.03 22:46:19.
