data_PCOD9315992
_publ_section_title
;
Structure prediction by ZEFSAII (Michael W. Deem and Ramdas Pophale) SiO2 
 PCOD9315992
Probable space group: P 21 21 21
;
_chemical_formula_sum "Si O2"
_cell_formula_units_Z 32
_cell_length_a 19.380701
_cell_length_b 6.773000
_cell_length_c 12.311216
_cell_angle_alpha 90.000000
_cell_angle_beta 90.000000
_cell_angle_gamma 90.000000
_cell_volume 1616.037775
_symmetry_space_group_name_H-M "P 21 21 21"
_symmetry_group_IT_number 19
_symmetry_cell_setting 'orthorhombic'
loop_
_space_group_symop_operation_xyz
x,y,z
1/2-x,-y,1/2+z
1/2+x,1/2-y,-z
-x,1/2+y,1/2-z
loop_
_atom_site_type_symbol
_atom_site_label
_atom_site_fract_x
_atom_site_fract_y
_atom_site_fract_z
Si Si1 0.249999 0.076146 0.999999
Si Si2 0.695249 0.000002 0.250002
Si Si3 0.926183 0.500002 0.250000
Si Si4 0.190887 0.254922 0.345095
Si Si5 0.139778 0.416887 0.979463
Si Si6 0.690884 0.754923 0.845099
Si Si7 0.860220 0.083112 0.979467
Si Si8 0.000001 0.750003 0.427927
O O1 0.313449 0.221385 0.021611
O O2 0.223579 0.929048 0.092511
O O3 0.186549 0.221386 0.978387
O O4 0.276418 0.929047 0.907487
O O5 0.650675 0.996164 0.140921
O O6 0.750506 0.176680 0.261379
O O7 0.750503 0.823317 0.238625
O O8 0.650676 0.003843 0.359085
O O9 0.877339 0.680941 0.214748
O O10 0.877342 0.319058 0.285255
O O11 0.970281 0.421454 0.149866
O O12 0.970283 0.578556 0.350131
O O13 0.170108 0.428589 0.430774
O O14 0.170106 0.571413 0.069220
O O15 0.062490 0.348210 0.005638
O O16 0.937508 0.151790 0.005641
#
# Coordination Sequence:
#
# PCOD9315992 Si02
#       8
#     4   4   4   4   4   4   4   4
#     4  12  20  46  68 100 134 172 222 292 334 388
#     4  12  22  43  70 101 138 178 222 282 342 399
#     4  12  24  43  72  97 134 186 224 282 360 391
#     4  12  23  44  72 104 132 175 233 291 337 397
#     4  12  25  45  67 102 144 173 230 283 335 419
#     4  12  23  44  72 104 132 175 233 291 337 397
#     4  12  25  45  67 102 144 173 230 283 335 419
#     4  12  26  44  64 102 140 178 230 278 342 420
#
# _framework density 19.801518000000002
#
# number of rings (size 3 to 8) (size 9 to 14) (size 15 to 20)
#    0.000    0.000    7.500    4.500    0.000    0.000 
#    0.000    5.000    0.000    0.000    0.000    0.000 
#    0.000    0.000    0.000    0.000    0.000    0.000 
#
# Total GULP energy -178934.031738 kJ/mol
# GULP energy per Si atom -5591.688492 kJ/mol
# Density = 1.975645 g / cm^3
# Si number density = 19.801518 Si / 1000 Ang^3
#
#
#
# Elastic Constant Matrix: (Units=GPa)
#
#
# Indices 1 2 3 4 5 6 
#
# 1 158.8878 41.2222 66.3832 0.0000 0.0000 0.0000
# 2 41.2222 84.5435 28.0415 0.0000 0.0000 0.0000
# 3 66.3832 28.0415 100.9666 0.0000 0.0000 0.0000
# 4 0.0000 0.0000 0.0000 32.2680 0.0000 0.0000
# 5 0.0000 0.0000 0.0000 0.0000 37.5668 0.0000
# 6 0.0000 0.0000 0.0000 0.0000 0.0000 20.6571
#
#
#
# Elastic Compliance Matrix: (Units=1/GPa)
#
#
# Indices 1 2 3 4 5 6 
#
# 1 0.009218 -0.002737 -0.005301 0.000000 0.000000 0.000000
# 2 -0.002737 0.013841 -0.002045 0.000000 0.000000 0.000000
# 3 -0.005301 -0.002045 0.013957 0.000000 0.000000 0.000000
# 4 0.000000 0.000000 0.000000 0.030990 0.000000 0.000000
# 5 0.000000 0.000000 0.000000 0.000000 0.026619 0.000000
# 6 0.000000 0.000000 0.000000 0.000000 0.000000 0.048409
#
#
# Mechanical properties :
#
#
# Convention : Reuss Voigt Hill
#
# Bulk Modulus (GPa) = 59.33969 68.41017 63.87493
# Shear Modulus (GPa) = 29.61777 32.01511 30.81644
#
# Velocity S-wave (km/s) = 3.87167 4.02531 3.94923
# Velocity P-wave (km/s) = 7.07239 7.49847 7.28855
#
# Compressibility (1/GPa) = 0.01685213
#
# Stress axis : x y z
#
# Youngs Moduli (GPa) = 108.47835 72.25035 71.64679
#
# Poissons Ratio (x) = 0.19772 0.37979
# Poissons Ratio (y) = 0.29686 0.14650
# Poissons Ratio (z) = 0.57503 0.14774
#
# Static dielectric constant tensor:
#      x y z
#    x 1.683950 0.000000 0.000000 
#    y 0.000000 1.771720 0.000000 
#    z 0.000000 0.000000 1.733980 
# 
# From -- ./inp_files/5487.got.cif
#   From: 2010.05.17/outbox.cif.g08.bks.cpg/sg19_3_cif.got.tgz:5487.got - 2010.06.03 22:46:19.
