data_PCOD9315331
_publ_section_title
;
Structure prediction by ZEFSAII (Michael W. Deem and Ramdas Pophale) SiO2 
 PCOD9315331
Probable space group: P 21 21 21
;
_chemical_formula_sum "Si O2"
_cell_formula_units_Z 32
_cell_length_a 14.902071
_cell_length_b 8.139958
_cell_length_c 11.749138
_cell_angle_alpha 90.000000
_cell_angle_beta 90.000000
_cell_angle_gamma 90.000000
_cell_volume 1425.196664
_symmetry_space_group_name_H-M "P 21 21 21"
_symmetry_group_IT_number 19
_symmetry_cell_setting 'orthorhombic'
loop_
_space_group_symop_operation_xyz
x,y,z
1/2-x,-y,1/2+z
1/2+x,1/2-y,-z
-x,1/2+y,1/2-z
loop_
_atom_site_type_symbol
_atom_site_label
_atom_site_fract_x
_atom_site_fract_y
_atom_site_fract_z
Si Si1 0.842644 0.313941 0.234867
Si Si2 0.138668 0.405391 0.534272
Si Si3 0.334128 0.664157 0.286487
Si Si4 0.256184 0.136881 0.178459
Si Si5 0.593373 0.704462 0.486564
Si Si6 0.602934 0.300025 0.993140
Si Si7 0.460278 0.163584 0.564810
Si Si8 0.181840 0.670238 0.901330
O O1 0.773173 0.164861 0.229942
O O2 0.788265 0.462294 0.293048
O O3 0.869444 0.353645 0.107352
O O4 0.927980 0.276861 0.312338
O O5 0.125122 0.337081 0.661652
O O6 0.118855 0.601592 0.531983
O O7 0.237503 0.369584 0.488216
O O8 0.065040 0.317906 0.455739
O O9 0.358230 0.804748 0.378029
O O10 0.356398 0.496006 0.348602
O O11 0.277837 0.227960 0.295830
O O12 0.349920 0.115580 0.111317
O O13 0.185534 0.232438 0.094167
O O14 0.485999 0.688252 0.494771
O O15 0.562514 0.470996 0.949089
O O16 0.397531 0.244131 0.469789
#
# Coordination Sequence:
#
# PCOD9315331 Si02
#       8
#     4   4   4   4   4   4   4   4
#     4  11  23  43  70  92 135 182 219 281 335 399
#     4  11  24  43  69 100 135 178 225 279 344 407
#     4  12  23  43  70  93 136 180 221 280 344 398
#     4  11  24  42  67  98 131 176 225 274 337 403
#     4  11  23  46  69  98 136 180 221 280 346 401
#     4  10  24  45  67  96 135 175 226 279 338 402
#     4  10  25  44  64 101 136 175 233 280 333 408
#     4  12  24  42  66  98 134 176 222 281 335 406
#
# _framework density 22.453043000000001
#
# number of rings (size 3 to 8) (size 9 to 14) (size 15 to 20)
#    0.000    1.000    5.000    0.750    5.250    0.000 
#    4.500    0.000    0.000    0.000    0.000    0.000 
#    0.000    0.000    0.000    0.000    0.000    0.000 
#
# Total GULP energy -178860.737729 kJ/mol
# GULP energy per Si atom -5589.398054 kJ/mol
# Density = 2.240194 g / cm^3
# Si number density = 22.453043 Si / 1000 Ang^3
#
#
#
# Elastic Constant Matrix: (Units=GPa)
#
#
# Indices 1 2 3 4 5 6 
#
# 1 20.5579 4.2627 -23.8829 0.0000 0.0000 0.0000
# 2 4.2627 12.2391 1.8947 0.0000 0.0000 0.0000
# 3 -23.8829 1.8947 87.5606 0.0000 0.0000 0.0000
# 4 0.0000 0.0000 0.0000 84.4792 0.0000 0.0000
# 5 0.0000 0.0000 0.0000 0.0000 29.1914 0.0000
# 6 0.0000 0.0000 0.0000 0.0000 0.0000 20.0285
#
#
#
# Elastic Compliance Matrix: (Units=1/GPa)
#
#
# Indices 1 2 3 4 5 6 
#
# 1 0.082163 -0.032194 0.023107 0.000000 0.000000 0.000000
# 2 -0.032194 0.094594 -0.010828 0.000000 0.000000 0.000000
# 3 0.023107 -0.010828 0.017958 0.000000 0.000000 0.000000
# 4 0.000000 0.000000 0.000000 0.011837 0.000000 0.000000
# 5 0.000000 0.000000 0.000000 0.000000 0.034257 0.000000
# 6 0.000000 0.000000 0.000000 0.000000 0.000000 0.049929
#
#
# Mechanical properties :
#
#
# Convention : Reuss Voigt Hill
#
# Bulk Modulus (GPa) = 6.45633 9.43406 7.94519
# Shear Modulus (GPa) = 13.08232 35.94536 24.51384
#
# Velocity S-wave (km/s) = 2.41644 4.00548 3.30780
# Velocity P-wave (km/s) = 3.26608 5.05991 4.25852
#
# Compressibility (1/GPa) = 0.15488686
#
# Stress axis : x y z
#
# Youngs Moduli (GPa) = 12.17091 10.57144 55.68640
#
# Poissons Ratio (x) = 0.34033 -1.28677
# Poissons Ratio (y) = 0.39183 0.60297
# Poissons Ratio (z) = -0.28124 0.11447
#
# Static dielectric constant tensor:
#      x y z
#    x 1.819580 0.000000 0.000000 
#    y 0.000000 1.859820 0.000000 
#    z 0.000000 0.000000 1.829080 
# 
# From -- ./inp_files/3937.got.cif
#   From: 2010.05.17/outbox.cif.g08.bks.cpg/sg19_2_cif.got.tgz:3937.got - 2010.06.03 22:46:19.
