data_PCOD9315761
_publ_section_title
;
Structure prediction by ZEFSAII (Michael W. Deem and Ramdas Pophale) SiO2 
 PCOD9315761
Probable space group: P 21 21 21
;
_chemical_formula_sum "Si O2"
_cell_formula_units_Z 16
_cell_length_a 11.392040
_cell_length_b 11.182286
_cell_length_c 5.038530
_cell_angle_alpha 90.000000
_cell_angle_beta 90.000000
_cell_angle_gamma 90.000000
_cell_volume 641.853547
_symmetry_space_group_name_H-M "P 21 21 21"
_symmetry_group_IT_number 19
_symmetry_cell_setting 'orthorhombic'
loop_
_space_group_symop_operation_xyz
x,y,z
1/2-x,-y,1/2+z
1/2+x,1/2-y,-z
-x,1/2+y,1/2-z
loop_
_atom_site_type_symbol
_atom_site_label
_atom_site_fract_x
_atom_site_fract_y
_atom_site_fract_z
Si Si1 0.418987 0.830592 0.649001
Si Si2 0.733112 0.333106 0.340740
Si Si3 0.991918 0.422296 0.317532
Si Si4 0.292785 0.569424 0.169447
O O1 0.369854 0.869503 0.361975
O O2 0.466761 0.694403 0.650536
O O3 0.504158 0.936852 0.752281
O O4 0.313542 0.828957 0.860693
O O5 0.852348 0.405657 0.331037
O O6 0.757482 0.197510 0.252516
O O7 0.071622 0.412516 0.582065
O O8 0.270379 0.478803 0.405829
#
# Coordination Sequence:
#
# PCOD9315761 Si02
#       4
#     4   4   4   4
#     4  11  26  43  68 101 134 178 230 280 340 414
#     4  11  25  44  67 100 136 178 232 281 339 414
#     4  11  25  45  71  97 138 182 222 285 347 398
#     4  11  24  42  66 100 136 174 226 280 338 412
#
# _framework density 24.927804999999999
#
# number of rings (size 3 to 8) (size 9 to 14) (size 15 to 20)
#    0.000    1.000    0.000    6.000    0.000   16.000 
#    0.000    0.000    0.000    0.000    0.000    0.000 
#    0.000    0.000    0.000    0.000    0.000    0.000 
#
# Total GULP energy -89448.208224 kJ/mol
# GULP energy per Si atom -5590.513014 kJ/mol
# Density = 2.487107 g / cm^3
# Si number density = 24.927805 Si / 1000 Ang^3
#
#
#
# Elastic Constant Matrix: (Units=GPa)
#
#
# Indices 1 2 3 4 5 6 
#
# 1 62.9721 45.7915 9.5767 0.0000 0.0000 0.0000
# 2 45.7915 163.9519 8.9886 0.0000 0.0000 0.0000
# 3 9.5767 8.9886 83.2754 0.0000 0.0000 0.0000
# 4 0.0000 0.0000 0.0000 30.2020 0.0000 0.0000
# 5 0.0000 0.0000 0.0000 0.0000 27.8965 0.0000
# 6 0.0000 0.0000 0.0000 0.0000 0.0000 45.0718
#
#
#
# Elastic Compliance Matrix: (Units=1/GPa)
#
#
# Indices 1 2 3 4 5 6 
#
# 1 0.020170 -0.005539 -0.001722 0.000000 0.000000 0.000000
# 2 -0.005539 0.007657 -0.000189 0.000000 0.000000 0.000000
# 3 -0.001722 -0.000189 0.012227 0.000000 0.000000 0.000000
# 4 0.000000 0.000000 0.000000 0.033110 0.000000 0.000000
# 5 0.000000 0.000000 0.000000 0.000000 0.035847 0.000000
# 6 0.000000 0.000000 0.000000 0.000000 0.000000 0.022187
#
#
# Mechanical properties :
#
#
# Convention : Reuss Voigt Hill
#
# Bulk Modulus (GPa) = 39.75665 48.76810 44.26238
# Shear Modulus (GPa) = 32.36628 37.02355 34.69491
#
# Velocity S-wave (km/s) = 3.60724 3.85805 3.73475
# Velocity P-wave (km/s) = 5.77347 6.28110 6.03263
#
# Compressibility (1/GPa) = 0.02515302
#
# Stress axis : x y z
#
# Youngs Moduli (GPa) = 49.57950 130.60358 81.78760
#
# Poissons Ratio (x) = 0.72341 0.14081
# Poissons Ratio (y) = 0.27462 0.01550
# Poissons Ratio (z) = 0.08536 0.02475
#
# Static dielectric constant tensor:
#      x y z
#    x 2.013060 0.000000 0.000000 
#    y 0.000000 2.025860 0.000000 
#    z 0.000000 0.000000 1.921670 
# 
# From -- ./inp_files/765.got.cif
#   From: 2010.05.17/outbox.cif.g08.bks.cpg/sg19_1_cif.got.tgz:765.got - 2010.06.03 22:46:19.
