data_PCOD9315975
_publ_section_title
;
Structure prediction by ZEFSAII (Michael W. Deem and Ramdas Pophale) SiO2 
 PCOD9315975
Probable space group: P 21 21 21
;
_chemical_formula_sum "Si O2"
_cell_formula_units_Z 24
_cell_length_a 18.225905
_cell_length_b 5.555548
_cell_length_c 9.566049
_cell_angle_alpha 90.000000
_cell_angle_beta 90.000000
_cell_angle_gamma 90.000000
_cell_volume 968.609240
_symmetry_space_group_name_H-M "P 21 21 21"
_symmetry_group_IT_number 19
_symmetry_cell_setting 'orthorhombic'
loop_
_space_group_symop_operation_xyz
x,y,z
1/2-x,-y,1/2+z
1/2+x,1/2-y,-z
-x,1/2+y,1/2-z
loop_
_atom_site_type_symbol
_atom_site_label
_atom_site_fract_x
_atom_site_fract_y
_atom_site_fract_z
Si Si1 0.337551 0.951849 0.827289
Si Si2 0.633462 0.805651 0.008772
Si Si3 0.419435 0.453966 0.768120
Si Si4 0.519663 0.413211 0.022332
Si Si5 0.910226 0.891659 0.754953
Si Si6 0.224983 0.114148 0.619235
O O1 0.377797 0.201339 0.792415
O O2 0.270862 0.939321 0.718159
O O3 0.381306 0.700739 0.818683
O O4 0.308916 0.000004 0.982262
O O5 0.715192 0.802744 0.946050
O O6 0.581957 0.959013 0.901145
O O7 0.598163 0.541893 0.009639
O O8 0.625762 0.891922 0.167214
O O9 0.490755 0.406872 0.863059
O O10 0.532956 0.211316 0.140070
O O11 0.456299 0.562337 0.104790
O O12 0.841412 0.727662 0.794980
#
# Coordination Sequence:
#
# PCOD9315975 Si02
#       6
#     4   4   4   4   4   4
#     4  11  27  49  76 119 153 214 261 329 396 468
#     4  11  29  48  78 114 157 210 265 325 404 470
#     4  11  29  48  80 112 161 203 271 326 396 474
#     4  12  27  49  77 118 151 216 264 335 398 477
#     4  12  27  49  80 114 161 208 275 330 402 484
#     4  11  27  49  79 113 161 209 266 333 396 481
#
# _framework density 24.777792999999999
#
# number of rings (size 3 to 8) (size 9 to 14) (size 15 to 20)
#    0.000    0.667    3.333    1.000   18.667    2.667 
#    0.000    0.000    0.000    0.000    0.000    0.000 
#    0.000    0.000    0.000    0.000    0.000    0.000 
#
# Total GULP energy -134124.073638 kJ/mol
# GULP energy per Si atom -5588.503068 kJ/mol
# Density = 2.472140 g / cm^3
# Si number density = 24.777793 Si / 1000 Ang^3
#
#
#
# Elastic Constant Matrix: (Units=GPa)
#
#
# Indices 1 2 3 4 5 6 
#
# 1 86.4001 22.4891 26.9463 0.0000 0.0000 0.0000
# 2 22.4891 65.4165 1.3875 0.0000 0.0000 0.0000
# 3 26.9463 1.3875 119.9712 0.0000 0.0000 0.0000
# 4 0.0000 0.0000 0.0000 33.5086 0.0000 0.0000
# 5 0.0000 0.0000 0.0000 0.0000 46.1680 0.0000
# 6 0.0000 0.0000 0.0000 0.0000 0.0000 32.2244
#
#
#
# Elastic Compliance Matrix: (Units=1/GPa)
#
#
# Indices 1 2 3 4 5 6 
#
# 1 0.013731 -0.004656 -0.003030 0.000000 0.000000 0.000000
# 2 -0.004656 0.016869 0.000851 0.000000 0.000000 0.000000
# 3 -0.003030 0.000851 0.009006 0.000000 0.000000 0.000000
# 4 0.000000 0.000000 0.000000 0.029843 0.000000 0.000000
# 5 0.000000 0.000000 0.000000 0.000000 0.021660 0.000000
# 6 0.000000 0.000000 0.000000 0.000000 0.000000 0.031032
#
#
# Mechanical properties :
#
#
# Convention : Reuss Voigt Hill
#
# Bulk Modulus (GPa) = 38.55787 41.49262 40.02525
# Shear Modulus (GPa) = 34.61198 37.11120 35.86159
#
# Velocity S-wave (km/s) = 3.74156 3.87429 3.80850
# Velocity P-wave (km/s) = 5.85329 6.06595 5.96057
#
# Compressibility (1/GPa) = 0.02593504
#
# Stress axis : x y z
#
# Youngs Moduli (GPa) = 72.82731 59.27901 111.03578
#
# Poissons Ratio (x) = 0.27602 0.33647
# Poissons Ratio (y) = 0.33910 -0.09446
# Poissons Ratio (z) = 0.22068 -0.05043
#
# Static dielectric constant tensor:
#      x y z
#    x 2.011960 0.000000 0.000000 
#    y 0.000000 2.033000 0.000000 
#    z 0.000000 0.000000 2.014270 
# 
# From -- ./inp_files/4093.got.cif
#   From: 2010.05.17/outbox.cif.g08.bks.cpg/sg19_3_cif.got.tgz:4093.got - 2010.06.03 22:46:19.
