data_PCOD9315497
_publ_section_title
;
Structure prediction by ZEFSAII (Michael W. Deem and Ramdas Pophale) SiO2 
 PCOD9315497
Probable space group: P 21 21 21
;
_chemical_formula_sum "Si O2"
_cell_formula_units_Z 24
_cell_length_a 8.555258
_cell_length_b 7.554192
_cell_length_c 13.477343
_cell_angle_alpha 90.000000
_cell_angle_beta 90.000000
_cell_angle_gamma 90.000000
_cell_volume 871.014553
_symmetry_space_group_name_H-M "P 21 21 21"
_symmetry_group_IT_number 19
_symmetry_cell_setting 'orthorhombic'
loop_
_space_group_symop_operation_xyz
x,y,z
1/2-x,-y,1/2+z
1/2+x,1/2-y,-z
-x,1/2+y,1/2-z
loop_
_atom_site_type_symbol
_atom_site_label
_atom_site_fract_x
_atom_site_fract_y
_atom_site_fract_z
Si Si1 0.620893 0.586440 0.606350
Si Si2 0.176933 0.341801 0.206400
Si Si3 0.624455 0.171320 0.105338
Si Si4 0.123197 0.524954 0.551252
Si Si5 0.509213 0.696766 0.888891
Si Si6 0.674256 0.502709 0.374969
O O1 0.469320 0.700380 0.634243
O O2 0.759821 0.691578 0.661237
O O3 0.548045 0.395094 0.631487
O O4 0.676184 0.555982 0.492987
O O5 0.290698 0.484912 0.156399
O O6 0.101101 0.402082 0.308806
O O7 0.269857 0.157815 0.199961
O O8 0.501782 0.318589 0.064771
O O9 0.513872 0.011071 0.144668
O O10 0.738355 0.083399 0.023794
O O11 0.040077 0.359644 0.500014
O O12 0.688866 0.643733 0.873457
#
# Coordination Sequence:
#
# PCOD9315497 Si02
#       6
#     4   4   4   4   4   4
#     4  12  22  40  73 108 142 196 254 319 372 450
#     4  11  24  46  72 104 150 212 254 297 393 482
#     4  11  19  41  75  97 139 212 248 285 384 473
#     4  11  20  42  72  99 149 202 252 302 386 449
#     4  12  27  41  71 116 151 190 261 329 376 440
#     4  11  22  46  71 104 145 202 247 304 383 458
#
# _framework density 27.554072000000001
#
# number of rings (size 3 to 8) (size 9 to 14) (size 15 to 20)
#    0.000    0.667    6.667    2.000    2.333    0.000 
#    0.000   10.000    0.000    0.000    0.000    0.000 
#    0.000    0.000    0.000    0.000    0.000    0.000 
#
# Total GULP energy -133852.441566 kJ/mol
# GULP energy per Si atom -5577.185065 kJ/mol
# Density = 2.749136 g / cm^3
# Si number density = 27.554072 Si / 1000 Ang^3
#
#
#
# Elastic Constant Matrix: (Units=GPa)
#
#
# Indices 1 2 3 4 5 6 
#
# 1 175.6917 33.9498 24.2581 0.0000 0.0000 0.0000
# 2 33.9498 110.9595 -2.5644 0.0000 0.0000 0.0000
# 3 24.2581 -2.5644 79.0318 0.0000 0.0000 0.0000
# 4 0.0000 0.0000 0.0000 30.8784 0.0000 0.0000
# 5 0.0000 0.0000 0.0000 0.0000 42.0483 0.0000
# 6 0.0000 0.0000 0.0000 0.0000 0.0000 55.6085
#
#
#
# Elastic Compliance Matrix: (Units=1/GPa)
#
#
# Indices 1 2 3 4 5 6 
#
# 1 0.006355 -0.001991 -0.002015 0.000000 0.000000 0.000000
# 2 -0.001991 0.009643 0.000924 0.000000 0.000000 0.000000
# 3 -0.002015 0.000924 0.013302 0.000000 0.000000 0.000000
# 4 0.000000 0.000000 0.000000 0.032385 0.000000 0.000000
# 5 0.000000 0.000000 0.000000 0.000000 0.023782 0.000000
# 6 0.000000 0.000000 0.000000 0.000000 0.000000 0.017983
#
#
# Mechanical properties :
#
#
# Convention : Reuss Voigt Hill
#
# Bulk Modulus (GPa) = 43.22445 52.99668 48.11056
# Shear Modulus (GPa) = 42.61663 46.37635 44.49649
#
# Velocity S-wave (km/s) = 3.93702 4.10702 4.02292
# Velocity P-wave (km/s) = 6.03225 6.46263 6.25114
#
# Compressibility (1/GPa) = 0.02313505
#
# Stress axis : x y z
#
# Youngs Moduli (GPa) = 157.36309 103.70433 75.17873
#
# Poissons Ratio (x) = 0.20646 0.15149
# Poissons Ratio (y) = 0.31329 -0.06946
# Poissons Ratio (z) = 0.31711 -0.09582
#
# Static dielectric constant tensor:
#      x y z
#    x 2.151470 0.000000 0.000000 
#    y 0.000000 2.274630 0.000000 
#    z 0.000000 0.000000 2.299900 
# 
# From -- ./inp_files/5822.got.cif
#   From: 2010.05.17/outbox.cif.g08.bks.cpg/sg19_3_cif.got.tgz:5822.got - 2010.06.03 22:46:19.
