data_PCOD9315096
_publ_section_title
;
Structure prediction by ZEFSAII (Michael W. Deem and Ramdas Pophale) SiO2 
 PCOD9315096
Probable space group: P 21 21 21
;
_chemical_formula_sum "Si O2"
_cell_formula_units_Z 28
_cell_length_a 23.243051
_cell_length_b 9.014233
_cell_length_c 5.074000
_cell_angle_alpha 90.000000
_cell_angle_beta 90.000000
_cell_angle_gamma 90.000000
_cell_volume 1063.095739
_symmetry_space_group_name_H-M "P 21 21 21"
_symmetry_group_IT_number 19
_symmetry_cell_setting 'orthorhombic'
loop_
_space_group_symop_operation_xyz
x,y,z
1/2-x,-y,1/2+z
1/2+x,1/2-y,-z
-x,1/2+y,1/2-z
loop_
_atom_site_type_symbol
_atom_site_label
_atom_site_fract_x
_atom_site_fract_y
_atom_site_fract_z
Si Si1 0.047318 0.879101 0.248143
Si Si2 0.613054 0.337132 0.970619
Si Si3 0.763190 0.594850 0.713623
Si Si4 0.675221 0.098604 0.695890
Si Si5 0.798687 0.175424 0.892841
Si Si6 0.028124 0.390771 0.752071
Si Si7 0.110533 0.635420 0.955751
O O1 0.025679 0.893477 0.545462
O O2 0.085718 0.015409 0.147798
O O3 0.081044 0.728152 0.187227
O O4 0.993088 0.876725 0.046315
O O5 0.632589 0.234673 0.723942
O O6 0.671657 0.362662 0.136785
O O7 0.567806 0.243997 0.144536
O O8 0.743888 0.469860 0.502885
O O9 0.720431 0.731207 0.647191
O O10 0.739078 0.156907 0.741513
O O11 0.678949 0.990133 0.451381
O O12 0.652946 0.985524 0.917983
O O13 0.850689 0.242373 0.726217
O O14 0.062159 0.544166 0.799420
#
# Coordination Sequence:
#
# PCOD9315096 Si02
#       7
#     4   4   4   4   4   4   4
#     4  12  26  47  70 101 139 182 245 302 355 420
#     4  10  25  47  70 107 141 194 234 304 365 430
#     4  11  27  46  71 111 156 192 235 296 369 447
#     4  10  23  43  67 104 142 182 235 288 357 438
#     4  11  23  42  73 102 146 190 240 289 357 449
#     4  11  27  47  69 101 138 186 245 300 353 422
#     4  11  25  42  72 100 134 192 232 293 362 426
#
# _framework density 26.338176000000001
#
# number of rings (size 3 to 8) (size 9 to 14) (size 15 to 20)
#    0.000    1.143    1.429    2.571   10.000    2.286 
#    2.571    0.000    0.000    0.000    0.000    0.000 
#    0.000    0.000    0.000    0.000    0.000    0.000 
#
# Total GULP energy -157163.952974 kJ/mol
# GULP energy per Si atom -5612.998321 kJ/mol
# Density = 2.627823 g / cm^3
# Si number density = 26.338176 Si / 1000 Ang^3
#
#
#
# Elastic Constant Matrix: (Units=GPa)
#
#
# Indices 1 2 3 4 5 6 
#
# 1 116.5720 36.6448 26.2828 0.0000 0.0000 0.0000
# 2 36.6448 112.2575 19.3396 0.0000 0.0000 0.0000
# 3 26.2828 19.3396 76.0860 0.0000 0.0000 0.0000
# 4 0.0000 0.0000 0.0000 39.9044 0.0000 0.0000
# 5 0.0000 0.0000 0.0000 0.0000 39.4962 0.0000
# 6 0.0000 0.0000 0.0000 0.0000 0.0000 31.4079
#
#
#
# Elastic Compliance Matrix: (Units=1/GPa)
#
#
# Indices 1 2 3 4 5 6 
#
# 1 0.010088 -0.002816 -0.002769 0.000000 0.000000 0.000000
# 2 -0.002816 0.010102 -0.001595 0.000000 0.000000 0.000000
# 3 -0.002769 -0.001595 0.014505 0.000000 0.000000 0.000000
# 4 0.000000 0.000000 0.000000 0.025060 0.000000 0.000000
# 5 0.000000 0.000000 0.000000 0.000000 0.025319 0.000000
# 6 0.000000 0.000000 0.000000 0.000000 0.000000 0.031839
#
#
# Mechanical properties :
#
#
# Convention : Reuss Voigt Hill
#
# Bulk Modulus (GPa) = 49.17622 52.16108 50.66865
# Shear Modulus (GPa) = 36.21845 37.00492 36.61168
#
# Velocity S-wave (km/s) = 3.71230 3.75239 3.73240
# Velocity P-wave (km/s) = 6.08987 6.21460 6.15255
#
# Compressibility (1/GPa) = 0.02033503
#
# Stress axis : x y z
#
# Youngs Moduli (GPa) = 99.12850 98.98908 68.94204
#
# Poissons Ratio (x) = 0.27876 0.19090
# Poissons Ratio (y) = 0.27915 0.10996
# Poissons Ratio (z) = 0.27448 0.15789
#
# Static dielectric constant tensor:
#      x y z
#    x 2.049750 0.000000 0.000000 
#    y 0.000000 2.040450 0.000000 
#    z 0.000000 0.000000 2.039960 
# 
# From -- ./inp_files/2150.got.cif
#   From: 2010.05.17/outbox.cif.g08.bks.cpg/sg19_2_cif.got.tgz:2150.got - 2010.06.03 22:46:19.
