data_PCOD9315703
_publ_section_title
;
Structure prediction by ZEFSAII (Michael W. Deem and Ramdas Pophale) SiO2 
 PCOD9315703
Probable space group: P 21 21 21
;
_chemical_formula_sum "Si O2"
_cell_formula_units_Z 32
_cell_length_a 26.680612
_cell_length_b 8.888892
_cell_length_c 6.689924
_cell_angle_alpha 90.000000
_cell_angle_beta 90.000000
_cell_angle_gamma 90.000000
_cell_volume 1586.589591
_symmetry_space_group_name_H-M "P 21 21 21"
_symmetry_group_IT_number 19
_symmetry_cell_setting 'orthorhombic'
loop_
_space_group_symop_operation_xyz
x,y,z
1/2-x,-y,1/2+z
1/2+x,1/2-y,-z
-x,1/2+y,1/2-z
loop_
_atom_site_type_symbol
_atom_site_label
_atom_site_fract_x
_atom_site_fract_y
_atom_site_fract_z
Si Si1 0.478075 0.059751 0.994514
Si Si2 0.883870 0.632110 0.056863
Si Si3 0.456010 0.365852 0.208757
Si Si4 0.435800 0.561681 0.821219
Si Si5 0.267126 0.228971 0.521731
Si Si6 0.712442 0.395615 0.833380
Si Si7 0.823884 0.787609 0.716165
Si Si8 0.367280 0.412745 0.487450
O O1 0.504320 0.939951 0.141010
O O2 0.477651 0.219106 0.103860
O O3 0.421916 0.005403 0.955649
O O4 0.511491 0.067589 0.795283
O O5 0.835764 0.593637 0.189767
O O6 0.913351 0.772359 0.153610
O O7 0.863771 0.691049 0.843444
O O8 0.406692 0.332068 0.340271
O O9 0.442327 0.483765 0.034849
O O10 0.397617 0.467204 0.682483
O O11 0.252681 0.201196 0.290891
O O12 0.222543 0.317621 0.633466
O O13 0.319899 0.311014 0.540512
O O14 0.268640 0.061964 0.615961
O O15 0.696562 0.309915 0.032681
O O16 0.847826 0.938710 0.628484
#
# Coordination Sequence:
#
# PCOD9315703 Si02
#       8
#     4   4   4   4   4   4   4   4
#     4  11  26  42  69  96 128 178 213 273 326 389
#     4  11  24  43  69  93 131 174 215 266 334 380
#     4  11  25  45  65  95 135 166 222 267 323 388
#     4  11  23  45  65  97 129 169 220 270 320 395
#     4  11  26  43  67  99 131 170 223 267 323 392
#     4  11  24  44  66  97 132 173 216 271 326 387
#     4  11  24  44  66  93 134 174 211 268 325 384
#     4  11  26  42  67  98 130 172 218 268 325 391
#
# _framework density 20.169048
#
# number of rings (size 3 to 8) (size 9 to 14) (size 15 to 20)
#    0.000    1.000    3.750    1.500    7.000    3.000 
#    0.000    0.000    0.000    0.000    0.000    0.000 
#    0.000    0.000    0.000    0.000    0.000    0.000 
#
# Total GULP energy -179044.123171 kJ/mol
# GULP energy per Si atom -5595.128849 kJ/mol
# Density = 2.012314 g / cm^3
# Si number density = 20.169048 Si / 1000 Ang^3
#
#
#
# Elastic Constant Matrix: (Units=GPa)
#
#
# Indices 1 2 3 4 5 6 
#
# 1 32.4628 -8.1057 -14.8643 0.0000 0.0000 0.0000
# 2 -8.1057 15.6959 -12.5485 0.0000 0.0000 0.0000
# 3 -14.8643 -12.5485 58.9906 0.0000 0.0000 0.0000
# 4 0.0000 0.0000 0.0000 19.2904 0.0000 0.0000
# 5 0.0000 0.0000 0.0000 0.0000 21.9271 0.0000
# 6 0.0000 0.0000 0.0000 0.0000 0.0000 37.3525
#
#
#
# Elastic Compliance Matrix: (Units=1/GPa)
#
#
# Indices 1 2 3 4 5 6 
#
# 1 0.052712 0.045594 0.022981 0.000000 0.000000 0.000000
# 2 0.045594 0.116204 0.036208 0.000000 0.000000 0.000000
# 3 0.022981 0.036208 0.030445 0.000000 0.000000 0.000000
# 4 0.000000 0.000000 0.000000 0.051839 0.000000 0.000000
# 5 0.000000 0.000000 0.000000 0.000000 0.045606 0.000000
# 6 0.000000 0.000000 0.000000 0.000000 0.000000 0.026772
#
#
# Mechanical properties :
#
#
# Convention : Reuss Voigt Hill
#
# Bulk Modulus (GPa) = 2.44544 4.01248 3.22896
# Shear Modulus (GPa) = 19.97446 25.22521 22.59983
#
# Velocity S-wave (km/s) = 3.15040 3.54034 3.35105
# Velocity P-wave (km/s) = 3.80111 4.32502 4.07150
#
# Compressibility (1/GPa) = 0.40892486
#
# Stress axis : x y z
#
# Youngs Moduli (GPa) = 18.97113 8.60559 32.84655
#
# Poissons Ratio (x) = -0.39236 -0.75484
# Poissons Ratio (y) = -0.86497 -1.18929
# Poissons Ratio (z) = -0.43597 -0.31159
#
# Static dielectric constant tensor:
#      x y z
#    x 1.698580 0.000000 0.000000 
#    y 0.000000 1.677420 0.000000 
#    z 0.000000 0.000000 1.698620 
# 
# From -- ./inp_files/2262.got.cif
#   From: 2010.05.17/outbox.cif.g08.bks.cpg/sg19_2_cif.got.tgz:2262.got - 2010.06.03 22:46:19.
