data_PCOD9315669
_publ_section_title
;
Structure prediction by ZEFSAII (Michael W. Deem and Ramdas Pophale) SiO2 
 PCOD9315669
Probable space group: P 21 21 21
;
_chemical_formula_sum "Si O2"
_cell_formula_units_Z 32
_cell_length_a 5.282375
_cell_length_b 12.133814
_cell_length_c 20.889783
_cell_angle_alpha 90.000000
_cell_angle_beta 90.000000
_cell_angle_gamma 90.000000
_cell_volume 1338.938072
_symmetry_space_group_name_H-M "P 21 21 21"
_symmetry_group_IT_number 19
_symmetry_cell_setting 'orthorhombic'
loop_
_space_group_symop_operation_xyz
x,y,z
1/2-x,-y,1/2+z
1/2+x,1/2-y,-z
-x,1/2+y,1/2-z
loop_
_atom_site_type_symbol
_atom_site_label
_atom_site_fract_x
_atom_site_fract_y
_atom_site_fract_z
Si Si1 0.208697 0.241250 0.573294
Si Si2 0.498261 0.062913 0.496833
Si Si3 0.035722 0.181463 0.017314
Si Si4 0.765700 0.610802 0.354883
Si Si5 0.351935 0.483494 0.754722
Si Si6 0.374975 0.438876 0.387480
Si Si7 0.381163 0.311200 0.220128
Si Si8 0.628994 0.747384 0.790314
O O1 0.294023 0.157847 0.516863
O O2 0.168551 0.366287 0.552372
O O3 0.387574 0.228517 0.634435
O O4 0.958905 0.186110 0.602562
O O5 0.667898 0.042731 0.559380
O O6 0.422885 0.937351 0.481142
O O7 0.035584 0.161145 0.094577
O O8 0.774634 0.239525 0.997271
O O9 0.611345 0.521364 0.395830
O O10 0.598701 0.715234 0.332827
O O11 0.886414 0.548417 0.292951
O O12 0.205924 0.528756 0.816657
O O13 0.263360 0.574802 0.702775
O O14 0.272868 0.369141 0.724370
O O15 0.657085 0.324440 0.253135
O O16 0.152859 0.263933 0.264087
#
# Coordination Sequence:
#
# PCOD9315669 Si02
#       8
#     4   4   4   4   4   4   4   4
#     4  12  25  43  70 111 144 186 243 319 370 436
#     4  12  26  43  73 106 144 197 249 307 375 439
#     4  12  28  47  72 102 144 199 248 297 359 446
#     4  11  24  43  71 100 138 189 242 294 359 449
#     4  11  23  42  71 101 135 187 233 295 365 437
#     4  12  19  41  74  96 140 185 238 291 365 443
#     4  11  24  42  68 103 132 180 233 285 355 429
#     4  11  25  41  67 105 139 173 234 296 360 421
#
# _framework density 23.899536999999999
#
# number of rings (size 3 to 8) (size 9 to 14) (size 15 to 20)
#    0.000    0.500    6.250    2.250    0.000    1.000 
#    0.000    2.500    0.000    0.000    0.000    0.000 
#    0.000    0.000    0.000    0.000    0.000    0.000 
#
# Total GULP energy -178377.443565 kJ/mol
# GULP energy per Si atom -5574.295111 kJ/mol
# Density = 2.384514 g / cm^3
# Si number density = 23.899537 Si / 1000 Ang^3
#
#
#
# Elastic Constant Matrix: (Units=GPa)
#
#
# Indices 1 2 3 4 5 6 
#
# 1 79.9101 20.6628 12.7696 0.0000 0.0000 0.0000
# 2 20.6628 155.0230 11.8367 0.0000 0.0000 0.0000
# 3 12.7696 11.8367 20.4353 0.0000 0.0000 0.0000
# 4 0.0000 0.0000 0.0000 28.5092 0.0000 0.0000
# 5 0.0000 0.0000 0.0000 0.0000 25.1516 0.0000
# 6 0.0000 0.0000 0.0000 0.0000 0.0000 33.5135
#
#
#
# Elastic Compliance Matrix: (Units=1/GPa)
#
#
# Indices 1 2 3 4 5 6 
#
# 1 0.014136 -0.001266 -0.008100 0.000000 0.000000 0.000000
# 2 -0.001266 0.006862 -0.003184 0.000000 0.000000 0.000000
# 3 -0.008100 -0.003184 0.055841 0.000000 0.000000 0.000000
# 4 0.000000 0.000000 0.000000 0.035076 0.000000 0.000000
# 5 0.000000 0.000000 0.000000 0.000000 0.039759 0.000000
# 6 0.000000 0.000000 0.000000 0.000000 0.000000 0.029839
#
#
# Mechanical properties :
#
#
# Convention : Reuss Voigt Hill
#
# Bulk Modulus (GPa) = 19.32758 38.43407 28.88082
# Shear Modulus (GPa) = 22.33547 31.44147 26.88847
#
# Velocity S-wave (km/s) = 3.06037 3.63101 3.35783
# Velocity P-wave (km/s) = 4.53788 5.80477 5.20998
#
# Compressibility (1/GPa) = 0.05173953
#
# Stress axis : x y z
#
# Youngs Moduli (GPa) = 70.74271 145.72018 17.90803
#
# Poissons Ratio (x) = 0.18443 0.14506
# Poissons Ratio (y) = 0.08954 0.05702
# Poissons Ratio (z) = 0.57302 0.46398
#
# Static dielectric constant tensor:
#      x y z
#    x 2.019720 0.000000 0.000000 
#    y 0.000000 2.044980 0.000000 
#    z 0.000000 0.000000 1.988240 
# 
# From -- ./inp_files/6929.got.cif
#   From: 2010.05.17/outbox.cif.g08.bks.cpg/sg19_4_cif.got.tgz:6929.got - 2010.06.03 22:46:19.
