data_PCOD9315062
_publ_section_title
;
Structure prediction by ZEFSAII (Michael W. Deem and Ramdas Pophale) SiO2 
 PCOD9315062
Probable space group: P 21 21 21
;
_chemical_formula_sum "Si O2"
_cell_formula_units_Z 28
_cell_length_a 5.128768
_cell_length_b 26.184199
_cell_length_c 8.746148
_cell_angle_alpha 90.000000
_cell_angle_beta 90.000000
_cell_angle_gamma 90.000000
_cell_volume 1174.543672
_symmetry_space_group_name_H-M "P 21 21 21"
_symmetry_group_IT_number 19
_symmetry_cell_setting 'orthorhombic'
loop_
_space_group_symop_operation_xyz
x,y,z
1/2-x,-y,1/2+z
1/2+x,1/2-y,-z
-x,1/2+y,1/2-z
loop_
_atom_site_type_symbol
_atom_site_label
_atom_site_fract_x
_atom_site_fract_y
_atom_site_fract_z
Si Si1 0.271312 0.609073 0.626029
Si Si2 0.237966 0.156093 0.738827
Si Si3 0.270317 0.533567 0.858206
Si Si4 0.669946 0.135156 0.218570
Si Si5 0.924886 0.466007 0.653935
Si Si6 0.439682 0.744008 0.392105
Si Si7 0.055213 0.105654 0.446800
O O1 0.476212 0.650792 0.688921
O O2 0.386193 0.557268 0.702130
O O3 0.279825 0.610178 0.445097
O O4 0.971100 0.621011 0.668659
O O5 0.128597 0.212578 0.768197
O O6 0.238468 0.136245 0.564493
O O7 0.036902 0.498859 0.792673
O O8 0.462192 0.513866 0.990849
O O9 0.162602 0.585274 0.935178
O O10 0.510272 0.092546 0.309866
O O11 0.537712 0.189112 0.187906
O O12 0.934374 0.140427 0.315701
O O13 0.627219 0.450180 0.626762
O O14 0.695289 0.757206 0.490294
#
# Coordination Sequence:
#
# PCOD9315062 Si02
#       7
#     4   4   4   4   4   4   4
#     4  11  22  42  72  99 136 181 231 284 353 413
#     4  11  22  46  69  95 141 184 225 296 347 423
#     4  10  23  42  66 100 131 188 229 286 358 431
#     4  11  25  42  67 103 134 183 240 298 351 424
#     4  11  23  44  65  94 144 174 239 290 353 430
#     4  12  24  44  71 104 135 181 244 291 357 433
#     4  10  25  44  64  99 143 181 238 293 365 426
#
# _framework density 23.839043
#
# number of rings (size 3 to 8) (size 9 to 14) (size 15 to 20)
#    0.000    1.143    4.286    0.857    4.000    3.429 
#    5.143    0.000    0.000    0.000    0.000    0.000 
#    0.000    0.000    0.000    0.000    0.000    0.000 
#
# Total GULP energy -156173.369427 kJ/mol
# GULP energy per Si atom -5577.620337 kJ/mol
# Density = 2.378478 g / cm^3
# Si number density = 23.839043 Si / 1000 Ang^3
#
#
#
# Elastic Constant Matrix: (Units=GPa)
#
#
# Indices 1 2 3 4 5 6 
#
# 1 67.4133 0.7797 10.5633 0.0000 0.0000 0.0000
# 2 0.7797 88.3213 34.8935 0.0000 0.0000 0.0000
# 3 10.5633 34.8935 112.0803 0.0000 0.0000 0.0000
# 4 0.0000 0.0000 0.0000 43.0320 0.0000 0.0000
# 5 0.0000 0.0000 0.0000 0.0000 24.5743 0.0000
# 6 0.0000 0.0000 0.0000 0.0000 0.0000 28.6247
#
#
#
# Elastic Compliance Matrix: (Units=1/GPa)
#
#
# Indices 1 2 3 4 5 6 
#
# 1 0.015075 0.000488 -0.001573 0.000000 0.000000 0.000000
# 2 0.000488 0.012926 -0.004070 0.000000 0.000000 0.000000
# 3 -0.001573 -0.004070 0.010338 0.000000 0.000000 0.000000
# 4 0.000000 0.000000 0.000000 0.023239 0.000000 0.000000
# 5 0.000000 0.000000 0.000000 0.000000 0.040693 0.000000
# 6 0.000000 0.000000 0.000000 0.000000 0.000000 0.034935
#
#
# Mechanical properties :
#
#
# Convention : Reuss Voigt Hill
#
# Bulk Modulus (GPa) = 35.67753 40.03198 37.85476
# Shear Modulus (GPa) = 31.87618 34.01809 32.94713
#
# Velocity S-wave (km/s) = 3.66066 3.78165 3.72165
# Velocity P-wave (km/s) = 5.73287 5.99140 5.86356
#
# Compressibility (1/GPa) = 0.02802884
#
# Stress axis : x y z
#
# Youngs Moduli (GPa) = 66.33651 77.36320 96.73447
#
# Poissons Ratio (x) = -0.03778 0.15214
# Poissons Ratio (y) = -0.03239 0.39373
# Poissons Ratio (z) = 0.10433 0.31489
#
# Static dielectric constant tensor:
#      x y z
#    x 2.310670 0.000000 0.000000 
#    y 0.000000 1.946520 0.000000 
#    z 0.000000 0.000000 1.939230 
# 
# From -- ./inp_files/602.got.cif
#   From: 2010.05.17/outbox.cif.g08.bks.cpg/sg19_1_cif.got.tgz:602.got - 2010.06.03 22:46:19.
