data_PCOD9315143
_publ_section_title
;
Structure prediction by ZEFSAII (Michael W. Deem and Ramdas Pophale) SiO2 
 PCOD9315143
Probable space group: P 21 21 21
;
_chemical_formula_sum "Si O2"
_cell_formula_units_Z 20
_cell_length_a 13.819047
_cell_length_b 5.094178
_cell_length_c 12.391148
_cell_angle_alpha 90.000000
_cell_angle_beta 90.000000
_cell_angle_gamma 90.000000
_cell_volume 872.295745
_symmetry_space_group_name_H-M "P 21 21 21"
_symmetry_group_IT_number 19
_symmetry_cell_setting 'orthorhombic'
loop_
_space_group_symop_operation_xyz
x,y,z
1/2-x,-y,1/2+z
1/2+x,1/2-y,-z
-x,1/2+y,1/2-z
loop_
_atom_site_type_symbol
_atom_site_label
_atom_site_fract_x
_atom_site_fract_y
_atom_site_fract_z
Si Si1 0.693197 0.663002 0.463070
Si Si2 0.968990 0.416890 0.814951
Si Si3 0.439445 0.446135 0.723348
Si Si4 0.879574 0.939609 0.506448
Si Si5 0.806713 0.847285 0.093496
O O1 0.642969 0.591023 0.351041
O O2 0.809076 0.706801 0.463926
O O3 0.670699 0.441326 0.551609
O O4 0.655186 0.945399 0.503665
O O5 0.029152 0.358657 0.924038
O O6 0.999860 0.698000 0.770060
O O7 0.480871 0.176687 0.770168
O O8 0.409871 0.405401 0.599842
O O9 0.351708 0.560730 0.794790
O O10 0.808124 0.103501 0.584680
#
# Coordination Sequence:
#
# PCOD9315143 Si02
#       5
#     4   4   4   4   4
#     4  10  24  44  70  96 138 173 231 272 333 401
#     4  12  27  44  69 100 140 178 224 276 340 394
#     4  12  26  43  71 100 137 176 227 280 340 394
#     4  10  28  43  73  99 137 178 230 274 336 404
#     4  10  23  44  67  95 134 173 224 272 339 387
#
# _framework density 22.928003
#
# number of rings (size 3 to 8) (size 9 to 14) (size 15 to 20)
#    1.200    0.000    0.000    4.800    8.400    0.000 
#    0.000    0.000    0.000    0.000    0.000    0.000 
#    0.000    0.000    0.000    0.000    0.000    0.000 
#
# Total GULP energy -111728.200789 kJ/mol
# GULP energy per Si atom -5586.410039 kJ/mol
# Density = 2.287582 g / cm^3
# Si number density = 22.928003 Si / 1000 Ang^3
#
#
#
# Elastic Constant Matrix: (Units=GPa)
#
#
# Indices 1 2 3 4 5 6 
#
# 1 58.0620 2.3663 8.6433 0.0000 0.0000 0.0000
# 2 2.3663 69.5294 -26.8082 0.0000 0.0000 0.0000
# 3 8.6433 -26.8082 38.8160 0.0000 0.0000 0.0000
# 4 0.0000 0.0000 0.0000 30.8256 0.0000 0.0000
# 5 0.0000 0.0000 0.0000 0.0000 44.2683 0.0000
# 6 0.0000 0.0000 0.0000 0.0000 0.0000 12.8325
#
#
#
# Elastic Compliance Matrix: (Units=1/GPa)
#
#
# Indices 1 2 3 4 5 6 
#
# 1 0.018256 -0.002983 -0.006125 0.000000 0.000000 0.000000
# 2 -0.002983 0.020090 0.014539 0.000000 0.000000 0.000000
# 3 -0.006125 0.014539 0.037168 0.000000 0.000000 0.000000
# 4 0.000000 0.000000 0.000000 0.032441 0.000000 0.000000
# 5 0.000000 0.000000 0.000000 0.000000 0.022590 0.000000
# 6 0.000000 0.000000 0.000000 0.000000 0.000000 0.077927
#
#
# Mechanical properties :
#
#
# Convention : Reuss Voigt Hill
#
# Bulk Modulus (GPa) = 11.57737 14.97890 13.27813
# Shear Modulus (GPa) = 22.08465 29.73236 25.90851
#
# Velocity S-wave (km/s) = 3.10694 3.60498 3.36519
# Velocity P-wave (km/s) = 4.23452 4.88621 4.57199
#
# Compressibility (1/GPa) = 0.08637544
#
# Stress axis : x y z
#
# Youngs Moduli (GPa) = 54.77531 49.77666 26.90485
#
# Poissons Ratio (x) = 0.14849 0.16480
# Poissons Ratio (y) = 0.16340 -0.39117
# Poissons Ratio (z) = 0.33552 -0.72371
#
# Static dielectric constant tensor:
#      x y z
#    x 1.915320 0.000000 0.000000 
#    y 0.000000 1.802670 0.000000 
#    z 0.000000 0.000000 1.823130 
# 
# From -- ./inp_files/828.got.cif
#   From: 2010.05.17/outbox.cif.g08.bks.cpg/sg19_1_cif.got.tgz:828.got - 2010.06.03 22:46:19.
