data_PCOD9315301
_publ_section_title
;
Structure prediction by ZEFSAII (Michael W. Deem and Ramdas Pophale) SiO2 
 PCOD9315301
Probable space group: P 21 21 21
;
_chemical_formula_sum "Si O2"
_cell_formula_units_Z 32
_cell_length_a 7.967028
_cell_length_b 11.506172
_cell_length_c 15.540398
_cell_angle_alpha 90.000000
_cell_angle_beta 90.000000
_cell_angle_gamma 90.000000
_cell_volume 1424.588199
_symmetry_space_group_name_H-M "P 21 21 21"
_symmetry_group_IT_number 19
_symmetry_cell_setting 'orthorhombic'
loop_
_space_group_symop_operation_xyz
x,y,z
1/2-x,-y,1/2+z
1/2+x,1/2-y,-z
-x,1/2+y,1/2-z
loop_
_atom_site_type_symbol
_atom_site_label
_atom_site_fract_x
_atom_site_fract_y
_atom_site_fract_z
Si Si1 0.948213 0.071887 0.865471
Si Si2 0.091472 0.174448 0.515622
Si Si3 0.050507 0.799001 0.407326
Si Si4 0.018813 0.030961 0.677032
Si Si5 0.427096 0.465179 0.644687
Si Si6 0.647369 0.926308 0.667237
Si Si7 0.185634 0.818684 0.592449
Si Si8 0.466229 0.076946 0.523275
O O1 0.766772 0.005774 0.867731
O O2 0.913563 0.207688 0.872710
O O3 0.046239 0.055731 0.776972
O O4 0.037082 0.018947 0.948199
O O5 0.282021 0.131655 0.524398
O O6 0.081703 0.312076 0.499752
O O7 0.018250 0.135955 0.608385
O O8 0.997984 0.109918 0.435266
O O9 0.025907 0.912607 0.350399
O O10 0.874764 0.728548 0.412554
O O11 0.172968 0.699112 0.375575
O O12 0.109191 0.843385 0.499292
O O13 0.830152 0.981726 0.674227
O O14 0.149761 0.932812 0.647160
O O15 0.432367 0.407017 0.738445
O O16 0.536211 0.011987 0.607692
#
# Coordination Sequence:
#
# PCOD9315301 Si02
#       8
#     4   4   4   4   4   4   4   4
#     4  10  24  44  66  94 130 170 214 264 318 376
#     4  12  26  44  67  94 130 171 214 263 321 383
#     4  11  22  40  66  95 127 167 213 265 319 376
#     4  11  24  43  66  96 131 168 214 266 319 380
#     4  10  24  44  66  94 130 170 214 264 318 376
#     4  11  24  43  66  96 131 168 214 266 319 380
#     4  11  22  40  66  95 127 167 213 265 319 376
#     4  12  26  44  67  94 130 171 214 263 321 383
#
# _framework density 22.462630999999998
#
# number of rings (size 3 to 8) (size 9 to 14) (size 15 to 20)
#    0.000    1.000    2.500    3.750    3.500    3.000 
#    0.000    0.000    0.000    0.000    0.000    0.000 
#    0.000    0.000    0.000    0.000    0.000    0.000 
#
# Total GULP energy -179022.608160 kJ/mol
# GULP energy per Si atom -5594.456505 kJ/mol
# Density = 2.241150 g / cm^3
# Si number density = 22.462631 Si / 1000 Ang^3
#
#
#
# Elastic Constant Matrix: (Units=GPa)
#
#
# Indices 1 2 3 4 5 6 
#
# 1 60.0506 -10.4027 6.5645 0.0000 0.0000 0.0000
# 2 -10.4027 76.7688 -0.2688 0.0000 0.0000 0.0000
# 3 6.5645 -0.2688 76.2569 0.0000 0.0000 0.0000
# 4 0.0000 0.0000 0.0000 13.4513 0.0000 0.0000
# 5 0.0000 0.0000 0.0000 0.0000 26.1006 0.0000
# 6 0.0000 0.0000 0.0000 0.0000 0.0000 25.3158
#
#
#
# Elastic Compliance Matrix: (Units=1/GPa)
#
#
# Indices 1 2 3 4 5 6 
#
# 1 0.017217 0.002328 -0.001474 0.000000 0.000000 0.000000
# 2 0.002328 0.013341 -0.000153 0.000000 0.000000 0.000000
# 3 -0.001474 -0.000153 0.013240 0.000000 0.000000 0.000000
# 4 0.000000 0.000000 0.000000 0.074342 0.000000 0.000000
# 5 0.000000 0.000000 0.000000 0.000000 0.038313 0.000000
# 6 0.000000 0.000000 0.000000 0.000000 0.000000 0.039501
#
#
# Mechanical properties :
#
#
# Convention : Reuss Voigt Hill
#
# Bulk Modulus (GPa) = 22.12432 22.76248 22.44340
# Shear Modulus (GPa) = 23.85270 27.45242 25.65256
#
# Velocity S-wave (km/s) = 3.26219 3.49970 3.38303
# Velocity P-wave (km/s) = 4.90509 5.14646 5.02722
#
# Compressibility (1/GPa) = 0.04519913
#
# Stress axis : x y z
#
# Youngs Moduli (GPa) = 58.08208 74.95672 75.52928
#
# Poissons Ratio (x) = -0.17449 0.11132
# Poissons Ratio (y) = -0.13521 0.01158
# Poissons Ratio (z) = 0.08561 0.01150
#
# Static dielectric constant tensor:
#      x y z
#    x 1.868350 0.000000 0.000000 
#    y 0.000000 1.740490 0.000000 
#    z 0.000000 0.000000 1.823470 
# 
# From -- ./inp_files/5239.got.cif
#   From: 2010.05.17/outbox.cif.g08.bks.cpg/sg19_3_cif.got.tgz:5239.got - 2010.06.03 22:46:19.
