data_PCOD9315437
_publ_section_title
;
Structure prediction by ZEFSAII (Michael W. Deem and Ramdas Pophale) SiO2 
 PCOD9315437
Probable space group: P 21 21 21
;
_chemical_formula_sum "Si O2"
_cell_formula_units_Z 32
_cell_length_a 14.253939
_cell_length_b 15.685621
_cell_length_c 5.661686
_cell_angle_alpha 90.000000
_cell_angle_beta 90.000000
_cell_angle_gamma 90.000000
_cell_volume 1265.850428
_symmetry_space_group_name_H-M "P 21 21 21"
_symmetry_group_IT_number 19
_symmetry_cell_setting 'orthorhombic'
loop_
_space_group_symop_operation_xyz
x,y,z
1/2-x,-y,1/2+z
1/2+x,1/2-y,-z
-x,1/2+y,1/2-z
loop_
_atom_site_type_symbol
_atom_site_label
_atom_site_fract_x
_atom_site_fract_y
_atom_site_fract_z
Si Si1 0.865748 0.445790 0.922253
Si Si2 0.562431 0.268855 0.433899
Si Si3 0.700433 0.975744 0.059207
Si Si4 0.346779 0.347041 0.094779
Si Si5 0.047313 0.799185 0.321713
Si Si6 0.315775 0.892460 0.800813
Si Si7 0.528968 0.432400 0.092599
Si Si8 0.632468 0.143586 0.065791
O O1 0.909030 0.391870 0.137109
O O2 0.813523 0.529928 0.014961
O O3 0.785966 0.387111 0.809807
O O4 0.938542 0.482746 0.730037
O O5 0.466849 0.243736 0.569189
O O6 0.648969 0.307109 0.580125
O O7 0.540278 0.350126 0.265849
O O8 0.600988 0.184451 0.310098
O O9 0.673088 0.880706 0.137130
O O10 0.749213 0.011863 0.305401
O O11 0.616439 0.042897 0.037973
O O12 0.420950 0.421728 0.009563
O O13 0.399472 0.263191 0.002321
O O14 0.241935 0.341588 0.988008
O O15 0.938547 0.809721 0.391987
O O16 0.397085 0.916738 0.615165
#
# Coordination Sequence:
#
# PCOD9315437 Si02
#       8
#     4   4   4   4   4   4   4   4
#     4  11  26  43  78 107 152 191 250 312 380 461
#     4  11  25  46  73 103 158 187 253 319 383 471
#     4  10  25  47  74 107 145 206 265 317 387 470
#     4  11  25  48  76 101 154 200 248 322 395 458
#     4  12  27  46  70 118 146 196 258 321 390 468
#     4  11  23  47  72 110 147 199 243 311 384 456
#     4  11  23  50  69 107 146 198 250 307 386 464
#     4  11  26  49  70 109 148 201 259 319 389 472
#
# _framework density 25.279447000000001
#
# number of rings (size 3 to 8) (size 9 to 14) (size 15 to 20)
#    0.000    1.000    3.750    0.750    7.000    4.000 
#    6.750    0.000    0.000    0.000    0.000    0.000 
#    0.000    0.000    0.000    0.000    0.000    0.000 
#
# Total GULP energy -178682.852889 kJ/mol
# GULP energy per Si atom -5583.839153 kJ/mol
# Density = 2.522191 g / cm^3
# Si number density = 25.279447 Si / 1000 Ang^3
#
#
#
# Elastic Constant Matrix: (Units=GPa)
#
#
# Indices 1 2 3 4 5 6 
#
# 1 137.5641 10.1642 12.5972 0.0000 0.0000 0.0000
# 2 10.1642 77.8101 9.7558 0.0000 0.0000 0.0000
# 3 12.5972 9.7558 47.0739 0.0000 0.0000 0.0000
# 4 0.0000 0.0000 0.0000 31.1865 0.0000 0.0000
# 5 0.0000 0.0000 0.0000 0.0000 32.9566 0.0000
# 6 0.0000 0.0000 0.0000 0.0000 0.0000 42.7777
#
#
#
# Elastic Compliance Matrix: (Units=1/GPa)
#
#
# Indices 1 2 3 4 5 6 
#
# 1 0.007494 -0.000747 -0.001851 0.000000 0.000000 0.000000
# 2 -0.000747 0.013269 -0.002550 0.000000 0.000000 0.000000
# 3 -0.001851 -0.002550 0.022267 0.000000 0.000000 0.000000
# 4 0.000000 0.000000 0.000000 0.032065 0.000000 0.000000
# 5 0.000000 0.000000 0.000000 0.000000 0.030343 0.000000
# 6 0.000000 0.000000 0.000000 0.000000 0.000000 0.023377
#
#
# Mechanical properties :
#
#
# Convention : Reuss Voigt Hill
#
# Bulk Modulus (GPa) = 30.54856 36.38696 33.46776
# Shear Modulus (GPa) = 33.32856 36.71290 35.02073
#
# Velocity S-wave (km/s) = 3.63492 3.81502 3.72606
# Velocity P-wave (km/s) = 5.45229 5.81644 5.63731
#
# Compressibility (1/GPa) = 0.03273477
#
# Stress axis : x y z
#
# Youngs Moduli (GPa) = 133.44017 75.36309 44.90971
#
# Poissons Ratio (x) = 0.05629 0.08311
# Poissons Ratio (y) = 0.09967 0.11452
# Poissons Ratio (z) = 0.24695 0.19218
#
# Static dielectric constant tensor:
#      x y z
#    x 2.018070 0.000000 0.000000 
#    y 0.000000 1.989680 0.000000 
#    z 0.000000 0.000000 2.125600 
# 
# From -- ./inp_files/1581.got.cif
#   From: 2010.05.17/outbox.cif.g08.bks.cpg/sg19_1_cif.got.tgz:1581.got - 2010.06.03 22:46:19.
