data_PCOD9315471
_publ_section_title
;
Structure prediction by ZEFSAII (Michael W. Deem and Ramdas Pophale) SiO2 
 PCOD9315471
Probable space group: P 21 21 21
;
_chemical_formula_sum "Si O2"
_cell_formula_units_Z 24
_cell_length_a 14.128587
_cell_length_b 5.111678
_cell_length_c 11.880620
_cell_angle_alpha 90.000000
_cell_angle_beta 90.000000
_cell_angle_gamma 90.000000
_cell_volume 858.027730
_symmetry_space_group_name_H-M "P 21 21 21"
_symmetry_group_IT_number 19
_symmetry_cell_setting 'orthorhombic'
loop_
_space_group_symop_operation_xyz
x,y,z
1/2-x,-y,1/2+z
1/2+x,1/2-y,-z
-x,1/2+y,1/2-z
loop_
_atom_site_type_symbol
_atom_site_label
_atom_site_fract_x
_atom_site_fract_y
_atom_site_fract_z
Si Si1 0.474381 0.212728 0.887660
Si Si2 0.847924 0.139160 0.644426
Si Si3 0.327539 0.721971 0.548458
Si Si4 0.303139 0.355609 0.746072
Si Si5 0.481138 0.691757 0.024322
Si Si6 0.339716 0.032080 0.158240
O O1 0.582903 0.306550 0.875713
O O2 0.405400 0.272069 0.786348
O O3 0.442209 0.412578 0.986558
O O4 0.474838 0.911628 0.925805
O O5 0.879118 0.222758 0.770167
O O6 0.910130 0.332666 0.566982
O O7 0.866483 0.878279 0.570440
O O8 0.737201 0.081726 0.670643
O O9 0.298066 0.462930 0.619515
O O10 0.233493 0.894220 0.557724
O O11 0.229308 0.117626 0.746081
O O12 0.420580 0.836488 0.119837
#
# Coordination Sequence:
#
# PCOD9315471 Si02
#       6
#     4   4   4   4   4   4
#     4  11  28  47  76 111 149 201 246 314 375 454
#     4  10  26  47  72 109 148 199 246 316 376 450
#     4  10  26  47  74 109 153 198 252 317 382 454
#     4  11  27  44  77 108 150 196 258 313 376 462
#     4  11  28  47  78 108 154 195 253 308 380 452
#     4  11  27  44  79 107 152 201 255 318 377 462
#
# _framework density 27.971124
#
# number of rings (size 3 to 8) (size 9 to 14) (size 15 to 20)
#    0.000    1.333    0.000    1.000   25.667    0.000 
#    0.000    0.000    0.000    0.000    0.000    0.000 
#    0.000    0.000    0.000    0.000    0.000    0.000 
#
# Total GULP energy -134025.657057 kJ/mol
# GULP energy per Si atom -5584.402377 kJ/mol
# Density = 2.790746 g / cm^3
# Si number density = 27.971124 Si / 1000 Ang^3
#
#
#
# Elastic Constant Matrix: (Units=GPa)
#
#
# Indices 1 2 3 4 5 6 
#
# 1 99.5253 23.4794 19.6593 0.0000 0.0000 0.0000
# 2 23.4794 97.0782 38.0637 0.0000 0.0000 0.0000
# 3 19.6593 38.0637 62.8050 0.0000 0.0000 0.0000
# 4 0.0000 0.0000 0.0000 47.8120 0.0000 0.0000
# 5 0.0000 0.0000 0.0000 0.0000 48.3984 0.0000
# 6 0.0000 0.0000 0.0000 0.0000 0.0000 32.5195
#
#
#
# Elastic Compliance Matrix: (Units=1/GPa)
#
#
# Indices 1 2 3 4 5 6 
#
# 1 0.010921 -0.001707 -0.002384 0.000000 0.000000 0.000000
# 2 -0.001707 0.013779 -0.007816 0.000000 0.000000 0.000000
# 3 -0.002384 -0.007816 0.021406 0.000000 0.000000 0.000000
# 4 0.000000 0.000000 0.000000 0.020915 0.000000 0.000000
# 5 0.000000 0.000000 0.000000 0.000000 0.020662 0.000000
# 6 0.000000 0.000000 0.000000 0.000000 0.000000 0.030751
#
#
# Mechanical properties :
#
#
# Convention : Reuss Voigt Hill
#
# Bulk Modulus (GPa) = 44.86107 46.86816 45.86461
# Shear Modulus (GPa) = 33.40493 37.62638 35.51565
#
# Velocity S-wave (km/s) = 3.45956 3.67166 3.56719
# Velocity P-wave (km/s) = 5.65962 5.89636 5.77920
#
# Compressibility (1/GPa) = 0.02229104
#
# Stress axis : x y z
#
# Youngs Moduli (GPa) = 91.56445 72.57683 46.71610
#
# Poissons Ratio (x) = 0.12386 0.11139
# Poissons Ratio (y) = 0.15626 0.36515
# Poissons Ratio (z) = 0.21832 0.56729
#
# Static dielectric constant tensor:
#      x y z
#    x 2.142230 0.000000 0.000000 
#    y 0.000000 2.180150 0.000000 
#    z 0.000000 0.000000 2.255780 
# 
# From -- ./inp_files/5162.got.cif
#   From: 2010.05.17/outbox.cif.g08.bks.cpg/sg19_3_cif.got.tgz:5162.got - 2010.06.03 22:46:19.
