data_PCOD9315891
_publ_section_title
;
Structure prediction by ZEFSAII (Michael W. Deem and Ramdas Pophale) SiO2 
 PCOD9315891
Probable space group: P 21 21 21
;
_chemical_formula_sum "Si O2"
_cell_formula_units_Z 20
_cell_length_a 9.948830
_cell_length_b 17.339748
_cell_length_c 5.093010
_cell_angle_alpha 90.000000
_cell_angle_beta 90.000000
_cell_angle_gamma 90.000000
_cell_volume 878.596200
_symmetry_space_group_name_H-M "P 21 21 21"
_symmetry_group_IT_number 19
_symmetry_cell_setting 'orthorhombic'
loop_
_space_group_symop_operation_xyz
x,y,z
1/2-x,-y,1/2+z
1/2+x,1/2-y,-z
-x,1/2+y,1/2-z
loop_
_atom_site_type_symbol
_atom_site_label
_atom_site_fract_x
_atom_site_fract_y
_atom_site_fract_z
Si Si1 0.841265 0.390558 0.728029
Si Si2 0.322008 0.852983 0.269024
Si Si3 0.177693 0.427246 0.220497
Si Si4 0.529136 0.969990 0.428718
Si Si5 0.885466 0.824219 0.786591
O O1 0.722154 0.384092 0.516186
O O2 0.921885 0.469922 0.688760
O O3 0.953457 0.325444 0.671431
O O4 0.788669 0.379496 0.020359
O O5 0.459201 0.888258 0.386607
O O6 0.332173 0.761218 0.251510
O O7 0.067695 0.493355 0.288345
O O8 0.324216 0.464897 0.200853
O O9 0.174683 0.367951 0.463360
O O10 0.144788 0.376797 0.966363
#
# Coordination Sequence:
#
# PCOD9315891 Si02
#       5
#     4   4   4   4   4
#     4  11  25  46  67 105 141 181 242 293 348 425
#     4  12  27  42  75 101 148 185 234 292 363 414
#     4  11  25  47  74 103 144 187 244 284 352 425
#     4  11  25  47  74 105 138 193 234 297 343 428
#     4  11  26  46  70 106 147 188 234 298 354 428
#
# _framework density 22.763584000000002
#
# number of rings (size 3 to 8) (size 9 to 14) (size 15 to 20)
#    0.000    0.800    0.000    7.200    5.600    8.000 
#    0.000    0.000    0.000    0.000    0.000    0.000 
#    0.000    0.000    0.000    0.000    0.000    0.000 
#
# Total GULP energy -111933.305762 kJ/mol
# GULP energy per Si atom -5596.665288 kJ/mol
# Density = 2.271177 g / cm^3
# Si number density = 22.763584 Si / 1000 Ang^3
#
#
#
# Elastic Constant Matrix: (Units=GPa)
#
#
# Indices 1 2 3 4 5 6 
#
# 1 72.5224 31.1970 8.6227 0.0000 0.0000 0.0000
# 2 31.1970 98.5913 41.3826 0.0000 0.0000 0.0000
# 3 8.6227 41.3826 123.1181 0.0000 0.0000 0.0000
# 4 0.0000 0.0000 0.0000 21.2788 0.0000 0.0000
# 5 0.0000 0.0000 0.0000 0.0000 41.9484 0.0000
# 6 0.0000 0.0000 0.0000 0.0000 0.0000 15.9992
#
#
#
# Elastic Compliance Matrix: (Units=1/GPa)
#
#
# Indices 1 2 3 4 5 6 
#
# 1 0.016010 -0.005350 0.000677 0.000000 0.000000 0.000000
# 2 -0.005350 0.013597 -0.004195 0.000000 0.000000 0.000000
# 3 0.000677 -0.004195 0.009485 0.000000 0.000000 0.000000
# 4 0.000000 0.000000 0.000000 0.046995 0.000000 0.000000
# 5 0.000000 0.000000 0.000000 0.000000 0.023839 0.000000
# 6 0.000000 0.000000 0.000000 0.000000 0.000000 0.062503
#
#
# Mechanical properties :
#
#
# Convention : Reuss Voigt Hill
#
# Bulk Modulus (GPa) = 46.82842 50.73735 48.78288
# Shear Modulus (GPa) = 25.34416 30.04724 27.69570
#
# Velocity S-wave (km/s) = 3.34033 3.63708 3.49186
# Velocity P-wave (km/s) = 5.95763 6.32258 6.14282
#
# Compressibility (1/GPa) = 0.02135456
#
# Stress axis : x y z
#
# Youngs Moduli (GPa) = 62.46169 73.54668 105.42902
#
# Poissons Ratio (x) = 0.39348 -0.07138
# Poissons Ratio (y) = 0.33418 0.44232
# Poissons Ratio (z) = -0.04229 0.30856
#
# Static dielectric constant tensor:
#      x y z
#    x 1.860530 0.000000 0.000000 
#    y 0.000000 1.843430 0.000000 
#    z 0.000000 0.000000 1.859860 
# 
# From -- ./inp_files/373.got.cif
#   From: 2010.05.17/outbox.cif.g08.bks.cpg/sg19_1_cif.got.tgz:373.got - 2010.06.03 22:46:19.
