data_PCOD9315549
_publ_section_title
;
Structure prediction by ZEFSAII (Michael W. Deem and Ramdas Pophale) SiO2 
 PCOD9315549
Probable space group: P 21 21 21
;
_chemical_formula_sum "Si O2"
_cell_formula_units_Z 24
_cell_length_a 4.900287
_cell_length_b 15.228284
_cell_length_c 15.519505
_cell_angle_alpha 90.000000
_cell_angle_beta 90.000000
_cell_angle_gamma 90.000000
_cell_volume 1158.111434
_symmetry_space_group_name_H-M "P 21 21 21"
_symmetry_group_IT_number 19
_symmetry_cell_setting 'orthorhombic'
loop_
_space_group_symop_operation_xyz
x,y,z
1/2-x,-y,1/2+z
1/2+x,1/2-y,-z
-x,1/2+y,1/2-z
loop_
_atom_site_type_symbol
_atom_site_label
_atom_site_fract_x
_atom_site_fract_y
_atom_site_fract_z
Si Si1 0.500819 0.434669 0.854081
Si Si2 0.465848 0.309372 0.514697
Si Si3 0.275111 0.295009 0.246629
Si Si4 0.988242 0.054165 0.632112
Si Si5 0.251949 0.236108 0.057284
Si Si6 0.780354 0.184116 0.296557
O O1 0.252946 0.488393 0.895316
O O2 0.621582 0.355329 0.910579
O O3 0.375273 0.391156 0.768345
O O4 0.749728 0.500472 0.837507
O O5 0.723200 0.246067 0.529608
O O6 0.557271 0.384491 0.449236
O O7 0.342011 0.340118 0.605236
O O8 0.372814 0.382920 0.292877
O O9 0.289464 0.294186 0.143166
O O10 0.474283 0.215899 0.278141
O O11 0.970541 0.268250 0.274170
O O12 0.538618 0.223297 0.010055
#
# Coordination Sequence:
#
# PCOD9315549 Si02
#       6
#     4   4   4   4   4   4
#     4  11  25  42  65  92 135 167 209 279 329 361
#     4  12  22  40  69  98 127 170 219 261 323 403
#     4  11  22  40  72  89 125 174 217 260 323 402
#     4  12  23  42  64 100 132 161 214 279 330 373
#     4  11  23  45  69  91 125 178 231 259 311 398
#     4  11  21  43  65  92 126 176 212 252 328 403
#
# _framework density 20.723395
#
# number of rings (size 3 to 8) (size 9 to 14) (size 15 to 20)
#    0.000    0.667    3.333    7.000    0.000    0.000 
#    9.000    0.000    0.000    0.000    0.000    0.000 
#    0.000    0.000    0.000    0.000    0.000    0.000 
#
# Total GULP energy -134286.715109 kJ/mol
# GULP energy per Si atom -5595.279796 kJ/mol
# Density = 2.067623 g / cm^3
# Si number density = 20.723395 Si / 1000 Ang^3
#
#
#
# Elastic Constant Matrix: (Units=GPa)
#
#
# Indices 1 2 3 4 5 6 
#
# 1 66.1729 -4.8863 -17.5396 0.0000 0.0000 0.0000
# 2 -4.8863 61.6114 5.6834 0.0000 0.0000 0.0000
# 3 -17.5396 5.6834 90.5339 0.0000 0.0000 0.0000
# 4 0.0000 0.0000 0.0000 13.2037 0.0000 0.0000
# 5 0.0000 0.0000 0.0000 0.0000 34.9094 0.0000
# 6 0.0000 0.0000 0.0000 0.0000 0.0000 30.1589
#
#
#
# Elastic Compliance Matrix: (Units=1/GPa)
#
#
# Indices 1 2 3 4 5 6 
#
# 1 0.015990 0.000988 0.003036 0.000000 0.000000 0.000000
# 2 0.000988 0.016386 -0.000837 0.000000 0.000000 0.000000
# 3 0.003036 -0.000837 0.011686 0.000000 0.000000 0.000000
# 4 0.000000 0.000000 0.000000 0.075736 0.000000 0.000000
# 5 0.000000 0.000000 0.000000 0.000000 0.028646 0.000000
# 6 0.000000 0.000000 0.000000 0.000000 0.000000 0.033158
#
#
# Mechanical properties :
#
#
# Convention : Reuss Voigt Hill
#
# Bulk Modulus (GPa) = 19.82743 20.53703 20.18223
# Shear Modulus (GPa) = 26.03618 31.32511 28.68064
#
# Velocity S-wave (km/s) = 3.54837 3.89212 3.72422
# Velocity P-wave (km/s) = 5.13579 5.48906 5.31536
#
# Compressibility (1/GPa) = 0.05043517
#
# Stress axis : x y z
#
# Youngs Moduli (GPa) = 62.54101 61.02638 85.57048
#
# Poissons Ratio (x) = -0.06030 -0.25977
# Poissons Ratio (y) = -0.06180 0.07164
# Poissons Ratio (z) = -0.18986 0.05109
#
# Static dielectric constant tensor:
#      x y z
#    x 1.725490 0.000000 0.000000 
#    y 0.000000 1.744630 0.000000 
#    z 0.000000 0.000000 1.732340 
# 
# From -- ./inp_files/1450.got.cif
#   From: 2010.05.17/outbox.cif.g08.bks.cpg/sg19_1_cif.got.tgz:1450.got - 2010.06.03 22:46:19.
