data_PCOD9315500
_publ_section_title
;
Structure prediction by ZEFSAII (Michael W. Deem and Ramdas Pophale) SiO2 
 PCOD9315500
Probable space group: P 21 21 21
;
_chemical_formula_sum "Si O2"
_cell_formula_units_Z 32
_cell_length_a 22.304165
_cell_length_b 9.222359
_cell_length_c 6.717787
_cell_angle_alpha 90.000000
_cell_angle_beta 90.000000
_cell_angle_gamma 90.000000
_cell_volume 1381.828746
_symmetry_space_group_name_H-M "P 21 21 21"
_symmetry_group_IT_number 19
_symmetry_cell_setting 'orthorhombic'
loop_
_space_group_symop_operation_xyz
x,y,z
1/2-x,-y,1/2+z
1/2+x,1/2-y,-z
-x,1/2+y,1/2-z
loop_
_atom_site_type_symbol
_atom_site_label
_atom_site_fract_x
_atom_site_fract_y
_atom_site_fract_z
Si Si1 0.964007 0.743137 0.903866
Si Si2 0.061893 0.526216 0.857065
Si Si3 0.651661 0.727894 0.039087
Si Si4 0.617966 0.433807 0.149464
Si Si5 0.779343 0.152672 0.877513
Si Si6 0.263917 0.797173 0.234779
Si Si7 0.678700 0.089557 0.593114
Si Si8 0.434579 0.704499 0.671319
O O1 0.913228 0.624418 0.849412
O O2 0.020426 0.662893 0.801869
O O3 0.942656 0.899705 0.814543
O O4 0.974733 0.749170 0.141056
O O5 0.121070 0.611650 0.944640
O O6 0.039344 0.427326 0.041825
O O7 0.606226 0.595739 0.073205
O O8 0.693532 0.730063 0.233585
O O9 0.696306 0.690204 0.855169
O O10 0.688972 0.420112 0.197570
O O11 0.590667 0.325908 0.980983
O O12 0.733729 0.060676 0.743431
O O13 0.742772 0.216521 0.057165
O O14 0.831699 0.056058 0.970726
O O15 0.298184 0.705516 0.066500
O O16 0.624096 0.146146 0.716444
#
# Coordination Sequence:
#
# PCOD9315500 Si02
#       8
#     4   4   4   4   4   4   4   4
#     4  11  25  49  79  98 139 180 225 296 346 409
#     4  11  26  47  71 105 130 175 233 282 350 409
#     4  11  27  41  65 101 144 182 234 286 337 413
#     4  11  25  44  66 100 139 185 231 276 345 410
#     4  11  22  35  61  94 136 181 224 277 335 397
#     4  11  23  38  62  96 141 184 226 277 340 406
#     4  11  20  36  62  96 129 174 227 275 331 401
#     4  11  24  42  72  98 132 177 226 277 342 405
#
# _framework density 23.157719
#
# number of rings (size 3 to 8) (size 9 to 14) (size 15 to 20)
#    0.000    1.000    3.750    2.250    5.250    4.000 
#    0.000    1.250    0.000    0.000    0.000    0.000 
#    0.000    0.000    0.000    0.000    0.000    0.000 
#
# Total GULP energy -178289.187803 kJ/mol
# GULP energy per Si atom -5571.537119 kJ/mol
# Density = 2.310501 g / cm^3
# Si number density = 23.157719 Si / 1000 Ang^3
#
#
#
# Elastic Constant Matrix: (Units=GPa)
#
#
# Indices 1 2 3 4 5 6 
#
# 1 40.8533 19.2725 -6.2989 0.0000 0.0000 0.0000
# 2 19.2725 114.9287 30.3647 0.0000 0.0000 0.0000
# 3 -6.2989 30.3647 106.3385 0.0000 0.0000 0.0000
# 4 0.0000 0.0000 0.0000 9.3764 0.0000 0.0000
# 5 0.0000 0.0000 0.0000 0.0000 22.6990 0.0000
# 6 0.0000 0.0000 0.0000 0.0000 0.0000 32.6614
#
#
#
# Elastic Compliance Matrix: (Units=1/GPa)
#
#
# Indices 1 2 3 4 5 6 
#
# 1 0.027547 -0.005463 0.003192 0.000000 0.000000 0.000000
# 2 -0.005463 0.010494 -0.003320 0.000000 0.000000 0.000000
# 3 0.003192 -0.003320 0.010541 0.000000 0.000000 0.000000
# 4 0.000000 0.000000 0.000000 0.106650 0.000000 0.000000
# 5 0.000000 0.000000 0.000000 0.000000 0.044055 0.000000
# 6 0.000000 0.000000 0.000000 0.000000 0.000000 0.030617
#
#
# Mechanical properties :
#
#
# Convention : Reuss Voigt Hill
#
# Bulk Modulus (GPa) = 26.73814 38.75523 32.74668
# Shear Modulus (GPa) = 19.71970 27.53285 23.62628
#
# Velocity S-wave (km/s) = 2.92128 3.45182 3.19757
# Velocity P-wave (km/s) = 4.79058 5.71476 5.27296
#
# Compressibility (1/GPa) = 0.03739976
#
# Stress axis : x y z
#
# Youngs Moduli (GPa) = 36.30176 95.29003 94.86719
#
# Poissons Ratio (x) = 0.52053 -0.30277
# Poissons Ratio (y) = 0.19830 0.31498
# Poissons Ratio (z) = -0.11586 0.31638
#
# Static dielectric constant tensor:
#      x y z
#    x 1.973400 0.000000 0.000000 
#    y 0.000000 1.887750 0.000000 
#    z 0.000000 0.000000 1.890070 
# 
# From -- ./inp_files/2330.got.cif
#   From: 2010.05.17/outbox.cif.g08.bks.cpg/sg19_2_cif.got.tgz:2330.got - 2010.06.03 22:46:19.
