data_PCOD9315328
_publ_section_title
;
Structure prediction by ZEFSAII (Michael W. Deem and Ramdas Pophale) SiO2 
 PCOD9315328
Probable space group: P 21 21 21
;
_chemical_formula_sum "Si O2"
_cell_formula_units_Z 20
_cell_length_a 14.845566
_cell_length_b 5.227714
_cell_length_c 10.157950
_cell_angle_alpha 90.000000
_cell_angle_beta 90.000000
_cell_angle_gamma 90.000000
_cell_volume 788.341975
_symmetry_space_group_name_H-M "P 21 21 21"
_symmetry_group_IT_number 19
_symmetry_cell_setting 'orthorhombic'
loop_
_space_group_symop_operation_xyz
x,y,z
1/2-x,-y,1/2+z
1/2+x,1/2-y,-z
-x,1/2+y,1/2-z
loop_
_atom_site_type_symbol
_atom_site_label
_atom_site_fract_x
_atom_site_fract_y
_atom_site_fract_z
Si Si1 0.058303 0.198371 0.222106
Si Si2 0.763135 0.895477 0.217220
Si Si3 0.511568 0.147612 0.419798
Si Si4 0.150380 0.541580 0.038868
Si Si5 0.595332 0.646168 0.354082
O O1 0.147455 0.232574 0.310820
O O2 0.101209 0.276946 0.080378
O O3 0.992442 0.435524 0.255942
O O4 0.796995 0.103720 0.325416
O O5 0.691305 0.725522 0.297118
O O6 0.714552 0.991531 0.086340
O O7 0.427601 0.260428 0.501134
O O8 0.585670 0.371340 0.418277
O O9 0.470825 0.127869 0.272362
O O10 0.559643 0.877821 0.445174
#
# Coordination Sequence:
#
# PCOD9315328 Si02
#       5
#     4   4   4   4   4
#     4  10  24  45  66  93 134 178 217 268 335 395
#     4   9  21  41  66 100 131 176 223 281 327 401
#     4   9  18  34  58  91 122 167 205 267 318 383
#     4   9  21  41  67  97 135 174 223 271 339 394
#     4   9  18  35  59  87 128 161 216 259 319 379
#
# _framework density 25.369703000000001
#
# number of rings (size 3 to 8) (size 9 to 14) (size 15 to 20)
#    1.200    1.600    0.000    0.000    0.000    6.400 
#    0.000    6.000    0.000    0.000    0.000    0.000 
#    0.000    0.000    0.000    0.000    0.000    0.000 
#
# Total GULP energy -111752.384779 kJ/mol
# GULP energy per Si atom -5587.619239 kJ/mol
# Density = 2.531196 g / cm^3
# Si number density = 25.369703 Si / 1000 Ang^3
#
#
#
# Elastic Constant Matrix: (Units=GPa)
#
#
# Indices 1 2 3 4 5 6 
#
# 1 88.5109 8.4106 50.6179 0.0000 0.0000 0.0000
# 2 8.4106 58.7081 18.9681 0.0000 0.0000 0.0000
# 3 50.6179 18.9681 130.1150 0.0000 0.0000 0.0000
# 4 0.0000 0.0000 0.0000 27.3591 0.0000 0.0000
# 5 0.0000 0.0000 0.0000 0.0000 55.3184 0.0000
# 6 0.0000 0.0000 0.0000 0.0000 0.0000 -132.4739
#
#
#
# Elastic Compliance Matrix: (Units=1/GPa)
#
#
# Indices 1 2 3 4 5 6 
#
# 1 0.014535 -0.000268 -0.005615 0.000000 0.000000 0.000000
# 2 -0.000268 0.017880 -0.002502 0.000000 0.000000 0.000000
# 3 -0.005615 -0.002502 0.010235 0.000000 0.000000 0.000000
# 4 0.000000 0.000000 0.000000 0.036551 0.000000 0.000000
# 5 0.000000 0.000000 0.000000 0.000000 0.018077 0.000000
# 6 0.000000 0.000000 0.000000 0.000000 0.000000 -0.007549
#
#
# Mechanical properties :
#
#
# Convention : Reuss Voigt Hill
#
# Bulk Modulus (GPa) = 38.64196 48.14747 43.39472
# Shear Modulus (GPa) = 43.43036 3.32987 23.38012
#
# Velocity S-wave (km/s) = 4.14200 1.14690 3.03904
# Velocity P-wave (km/s) = 6.17572 4.55778 5.42738
#
# Compressibility (1/GPa) = 0.02587860
#
# Stress axis : x y z
#
# Youngs Moduli (GPa) = 68.80030 55.92749 97.70591
#
# Poissons Ratio (x) = 0.01499 0.54865
# Poissons Ratio (y) = 0.01844 0.24449
# Poissons Ratio (z) = 0.38634 0.13995
#
# Static dielectric constant tensor:
#      x y z
#    x 1.991710 0.000000 0.000000 
#    y 0.000000 2.001770 0.000000 
#    z 0.000000 0.000000 2.530250 
# 
# From -- ./inp_files/876.got.cif
#   From: 2010.05.17/outbox.cif.g08.bks.cpg/sg19_1_cif.got.tgz:876.got - 2010.06.03 22:46:19.
