data_PCOD9315468
_publ_section_title
;
Structure prediction by ZEFSAII (Michael W. Deem and Ramdas Pophale) SiO2 
 PCOD9315468
Probable space group: P 21 21 21
;
_chemical_formula_sum "Si O2"
_cell_formula_units_Z 20
_cell_length_a 4.701200
_cell_length_b 16.455757
_cell_length_c 9.620662
_cell_angle_alpha 90.000000
_cell_angle_beta 90.000000
_cell_angle_gamma 90.000000
_cell_volume 744.271776
_symmetry_space_group_name_H-M "P 21 21 21"
_symmetry_group_IT_number 19
_symmetry_cell_setting 'orthorhombic'
loop_
_space_group_symop_operation_xyz
x,y,z
1/2-x,-y,1/2+z
1/2+x,1/2-y,-z
-x,1/2+y,1/2-z
loop_
_atom_site_type_symbol
_atom_site_label
_atom_site_fract_x
_atom_site_fract_y
_atom_site_fract_z
Si Si1 0.176093 0.439197 0.923091
Si Si2 0.886975 0.640452 0.604354
Si Si3 0.830029 0.296408 0.543995
Si Si4 0.820165 0.454009 0.364250
Si Si5 0.042174 0.704484 0.311161
O O1 0.294292 0.396230 0.064501
O O2 0.853575 0.467254 0.919707
O O3 0.255337 0.374292 0.805580
O O4 0.355991 0.519080 0.886129
O O5 0.734909 0.715264 0.686151
O O6 0.773557 0.568851 0.708447
O O7 0.865304 0.687157 0.453462
O O8 0.660797 0.223519 0.466770
O O9 0.762284 0.379496 0.466086
O O10 0.693862 0.292876 0.694218
#
# Coordination Sequence:
#
# PCOD9315468 Si02
#       5
#     4   4   4   4   4
#     4  10  29  42  77 100 152 185 248 305 372 433
#     4  10  26  46  78 104 151 194 256 299 371 452
#     4  12  27  47  74 107 150 196 243 308 372 449
#     4  12  26  49  69 111 145 194 244 309 376 433
#     4  10  26  46  76 108 146 199 253 303 369 443
#
# _framework density 26.871908000000001
#
# number of rings (size 3 to 8) (size 9 to 14) (size 15 to 20)
#    1.200    0.000    2.000    1.200   11.200    1.600 
#    0.000    0.000    0.000    0.000    0.000    0.000 
#    0.000    0.000    0.000    0.000    0.000    0.000 
#
# Total GULP energy -111593.880102 kJ/mol
# GULP energy per Si atom -5579.694005 kJ/mol
# Density = 2.681075 g / cm^3
# Si number density = 26.871908 Si / 1000 Ang^3
#
#
#
# Elastic Constant Matrix: (Units=GPa)
#
#
# Indices 1 2 3 4 5 6 
#
# 1 86.2143 11.7410 22.7527 0.0000 0.0000 0.0000
# 2 11.7410 103.5600 15.7790 0.0000 0.0000 0.0000
# 3 22.7527 15.7790 134.9611 0.0000 0.0000 0.0000
# 4 0.0000 0.0000 0.0000 45.3767 0.0000 0.0000
# 5 0.0000 0.0000 0.0000 0.0000 37.6502 0.0000
# 6 0.0000 0.0000 0.0000 0.0000 0.0000 58.6350
#
#
#
# Elastic Compliance Matrix: (Units=1/GPa)
#
#
# Indices 1 2 3 4 5 6 
#
# 1 0.012260 -0.001095 -0.001939 0.000000 0.000000 0.000000
# 2 -0.001095 0.009929 -0.000976 0.000000 0.000000 0.000000
# 3 -0.001939 -0.000976 0.007851 0.000000 0.000000 0.000000
# 4 0.000000 0.000000 0.000000 0.022038 0.000000 0.000000
# 5 0.000000 0.000000 0.000000 0.000000 0.026560 0.000000
# 6 0.000000 0.000000 0.000000 0.000000 0.000000 0.017055
#
#
# Mechanical properties :
#
#
# Convention : Reuss Voigt Hill
#
# Bulk Modulus (GPa) = 45.41338 47.25341 46.33339
# Shear Modulus (GPa) = 45.02415 46.62990 45.82703
#
# Velocity S-wave (km/s) = 4.09774 4.17017 4.13411
# Velocity P-wave (km/s) = 6.27099 6.38827 6.32990
#
# Compressibility (1/GPa) = 0.02201994
#
# Stress axis : x y z
#
# Youngs Moduli (GPa) = 81.56774 100.71421 127.37942
#
# Poissons Ratio (x) = 0.11023 0.24697
# Poissons Ratio (y) = 0.08928 0.12437
# Poissons Ratio (z) = 0.15815 0.09833
#
# Static dielectric constant tensor:
#      x y z
#    x 2.107130 0.000000 0.000000 
#    y 0.000000 2.105690 0.000000 
#    z 0.000000 0.000000 2.220380 
# 
# From -- ./inp_files/2374.got.cif
#   From: 2010.05.17/outbox.cif.g08.bks.cpg/sg19_2_cif.got.tgz:2374.got - 2010.06.03 22:46:19.
