data_PCOD9315607
_publ_section_title
;
Structure prediction by ZEFSAII (Michael W. Deem and Ramdas Pophale) SiO2 
 PCOD9315607
Probable space group: P 21 21 21
;
_chemical_formula_sum "Si O2"
_cell_formula_units_Z 28
_cell_length_a 6.756771
_cell_length_b 12.349249
_cell_length_c 16.331738
_cell_angle_alpha 90.000000
_cell_angle_beta 90.000000
_cell_angle_gamma 90.000000
_cell_volume 1362.737326
_symmetry_space_group_name_H-M "P 21 21 21"
_symmetry_group_IT_number 19
_symmetry_cell_setting 'orthorhombic'
loop_
_space_group_symop_operation_xyz
x,y,z
1/2-x,-y,1/2+z
1/2+x,1/2-y,-z
-x,1/2+y,1/2-z
loop_
_atom_site_type_symbol
_atom_site_label
_atom_site_fract_x
_atom_site_fract_y
_atom_site_fract_z
Si Si1 0.226654 0.590808 0.538757
Si Si2 0.292265 0.082019 0.662834
Si Si3 0.034706 0.759522 0.874095
Si Si4 0.628940 0.126866 0.535177
Si Si5 0.979908 0.842212 0.321507
Si Si6 0.337447 0.157498 0.205252
Si Si7 0.367099 0.775736 0.419181
O O1 0.243104 0.484309 0.484717
O O2 0.335090 0.581136 0.625829
O O3 0.320271 0.694388 0.493129
O O4 0.997967 0.622758 0.551935
O O5 0.428367 0.098907 0.583349
O O6 0.434361 0.106016 0.739764
O O7 0.111683 0.166706 0.660035
O O8 0.211337 0.961270 0.673187
O O9 0.231669 0.704063 0.910878
O O10 0.089619 0.837944 0.798987
O O11 0.926105 0.818961 0.948837
O O12 0.854435 0.734816 0.301296
O O13 0.165477 0.812881 0.378018
O O14 0.501798 0.212004 0.147316
#
# Coordination Sequence:
#
# PCOD9315607 Si02
#       7
#     4   4   4   4   4   4   4
#     4  11  25  41  71 101 138 181 231 288 354 416
#     4  12  26  46  74  99 143 190 233 293 359 422
#     4  12  26  48  70 102 142 184 237 293 346 437
#     4  12  27  47  70 103 141 189 235 287 363 417
#     4  11  24  44  67 102 142 177 235 293 343 421
#     4  11  26  44  71 102 136 185 234 287 354 416
#     4  11  22  44  67 101 140 172 227 293 343 415
#
# _framework density 20.546879000000001
#
# number of rings (size 3 to 8) (size 9 to 14) (size 15 to 20)
#    0.000    0.571    5.714    1.714    4.000    3.429 
#    2.571    0.000    0.000    0.000    0.000    0.000 
#    0.000    0.000    0.000    0.000    0.000    0.000 
#
# Total GULP energy -156708.624016 kJ/mol
# GULP energy per Si atom -5596.736572 kJ/mol
# Density = 2.050011 g / cm^3
# Si number density = 20.546879 Si / 1000 Ang^3
#
#
#
# Elastic Constant Matrix: (Units=GPa)
#
#
# Indices 1 2 3 4 5 6 
#
# 1 67.6971 -6.9532 -0.5793 0.0000 0.0000 0.0000
# 2 -6.9532 24.8169 -17.8698 0.0000 0.0000 0.0000
# 3 -0.5793 -17.8698 64.6803 0.0000 0.0000 0.0000
# 4 0.0000 0.0000 0.0000 28.4157 0.0000 0.0000
# 5 0.0000 0.0000 0.0000 0.0000 50.1226 0.0000
# 6 0.0000 0.0000 0.0000 0.0000 0.0000 15.2789
#
#
#
# Elastic Compliance Matrix: (Units=1/GPa)
#
#
# Indices 1 2 3 4 5 6 
#
# 1 0.015350 0.005492 0.001655 0.000000 0.000000 0.000000
# 2 0.005492 0.052267 0.014490 0.000000 0.000000 0.000000
# 3 0.001655 0.014490 0.019479 0.000000 0.000000 0.000000
# 4 0.000000 0.000000 0.000000 0.035192 0.000000 0.000000
# 5 0.000000 0.000000 0.000000 0.000000 0.019951 0.000000
# 6 0.000000 0.000000 0.000000 0.000000 0.000000 0.065450
#
#
# Mechanical properties :
#
#
# Convention : Reuss Voigt Hill
#
# Bulk Modulus (GPa) = 7.67050 11.82109 9.74580
# Shear Modulus (GPa) = 24.05331 30.93655 27.49493
#
# Velocity S-wave (km/s) = 3.42520 3.88449 3.66205
# Velocity P-wave (km/s) = 4.40271 5.08770 4.75755
#
# Compressibility (1/GPa) = 0.13036958
#
# Stress axis : x y z
#
# Youngs Moduli (GPa) = 65.14672 19.13241 51.33837
#
# Poissons Ratio (x) = -0.10508 -0.08496
# Poissons Ratio (y) = -0.35781 -0.74387
# Poissons Ratio (z) = -0.10781 -0.27722
#
# Static dielectric constant tensor:
#      x y z
#    x 1.716850 0.000000 0.000000 
#    y 0.000000 1.685610 0.000000 
#    z 0.000000 0.000000 1.730560 
# 
# From -- ./inp_files/6435.got.cif
#   From: 2010.05.17/outbox.cif.g08.bks.cpg/sg19_4_cif.got.tgz:6435.got - 2010.06.03 22:46:19.
