data_PCOD9315712
_publ_section_title
;
Structure prediction by ZEFSAII (Michael W. Deem and Ramdas Pophale) SiO2 
 PCOD9315712
Probable space group: P 21 21 21
;
_chemical_formula_sum "Si O2"
_cell_formula_units_Z 32
_cell_length_a 19.879139
_cell_length_b 11.539608
_cell_length_c 5.999195
_cell_angle_alpha 90.000000
_cell_angle_beta 90.000000
_cell_angle_gamma 90.000000
_cell_volume 1376.200164
_symmetry_space_group_name_H-M "P 21 21 21"
_symmetry_group_IT_number 19
_symmetry_cell_setting 'orthorhombic'
loop_
_space_group_symop_operation_xyz
x,y,z
1/2-x,-y,1/2+z
1/2+x,1/2-y,-z
-x,1/2+y,1/2-z
loop_
_atom_site_type_symbol
_atom_site_label
_atom_site_fract_x
_atom_site_fract_y
_atom_site_fract_z
Si Si1 0.405813 0.068780 0.280754
Si Si2 0.718543 0.989172 0.521219
Si Si3 0.685995 0.728193 0.523844
Si Si4 0.454961 0.507831 0.420956
Si Si5 0.543941 0.230558 0.802318
Si Si6 0.413129 0.268360 0.618185
Si Si7 0.833445 0.653474 0.571429
Si Si8 0.123800 0.327788 0.584552
O O1 0.367765 0.148934 0.102652
O O2 0.469944 0.001105 0.179658
O O3 0.430805 0.157767 0.468381
O O4 0.352924 0.977394 0.377950
O O5 0.688789 0.863493 0.461384
O O6 0.753129 0.973878 0.770169
O O7 0.668020 0.093662 0.576951
O O8 0.658939 0.738138 0.777449
O O9 0.759311 0.674127 0.476792
O O10 0.460239 0.596447 0.627937
O O11 0.420088 0.387731 0.484323
O O12 0.409387 0.580650 0.251078
O O13 0.469194 0.281523 0.814107
O O14 0.602937 0.294350 0.936074
O O15 0.566693 0.238903 0.548285
O O16 0.832981 0.731764 0.792647
#
# Coordination Sequence:
#
# PCOD9315712 Si02
#       8
#     4   4   4   4   4   4   4   4
#     4  12  28  48  73 111 157 201 263 329 407 496
#     4  12  27  48  79 115 158 207 270 334 406 480
#     4  12  28  50  73 115 158 208 262 333 407 496
#     4  11  25  45  72 114 143 196 260 331 397 477
#     4  11  24  46  75 108 143 203 255 326 403 478
#     4  12  27  45  78 111 152 202 265 330 410 484
#     4  11  28  47  75 108 157 202 262 317 409 488
#     4  11  23  45  77 104 148 197 253 332 395 473
#
# _framework density 23.252431000000001
#
# number of rings (size 3 to 8) (size 9 to 14) (size 15 to 20)
#    0.000    0.500    3.750    3.000   10.500    3.000 
#    0.000    0.000    0.000    0.000    0.000    0.000 
#    0.000    0.000    0.000    0.000    0.000    0.000 
#
# Total GULP energy -178671.345764 kJ/mol
# GULP energy per Si atom -5583.479555 kJ/mol
# Density = 2.319951 g / cm^3
# Si number density = 23.252431 Si / 1000 Ang^3
#
#
#
# Elastic Constant Matrix: (Units=GPa)
#
#
# Indices 1 2 3 4 5 6 
#
# 1 77.2894 9.1367 16.7940 0.0000 0.0000 0.0000
# 2 9.1367 114.7187 27.4162 0.0000 0.0000 0.0000
# 3 16.7940 27.4162 50.9961 0.0000 0.0000 0.0000
# 4 0.0000 0.0000 0.0000 29.9529 0.0000 0.0000
# 5 0.0000 0.0000 0.0000 0.0000 30.7432 0.0000
# 6 0.0000 0.0000 0.0000 0.0000 0.0000 29.0911
#
#
#
# Elastic Compliance Matrix: (Units=1/GPa)
#
#
# Indices 1 2 3 4 5 6 
#
# 1 0.013936 -0.000015 -0.004581 0.000000 0.000000 0.000000
# 2 -0.000015 0.010002 -0.005372 0.000000 0.000000 0.000000
# 3 -0.004581 -0.005372 0.024006 0.000000 0.000000 0.000000
# 4 0.000000 0.000000 0.000000 0.033386 0.000000 0.000000
# 5 0.000000 0.000000 0.000000 0.000000 0.032528 0.000000
# 6 0.000000 0.000000 0.000000 0.000000 0.000000 0.034375
#
#
# Mechanical properties :
#
#
# Convention : Reuss Voigt Hill
#
# Bulk Modulus (GPa) = 35.70553 38.85533 37.28043
# Shear Modulus (GPa) = 28.16829 30.60127 29.38478
#
# Velocity S-wave (km/s) = 3.48431 3.63167 3.55875
# Velocity P-wave (km/s) = 5.61927 5.85934 5.74056
#
# Compressibility (1/GPa) = 0.02800687
#
# Stress axis : x y z
#
# Youngs Moduli (GPa) = 71.75867 99.97919 41.65581
#
# Poissons Ratio (x) = 0.00150 0.19083
# Poissons Ratio (y) = 0.00108 0.22379
# Poissons Ratio (z) = 0.32874 0.53712
#
# Static dielectric constant tensor:
#      x y z
#    x 1.976780 0.000000 0.000000 
#    y 0.000000 1.805100 0.000000 
#    z 0.000000 0.000000 1.939510 
# 
# From -- ./inp_files/1967.got.cif
#   From: 2010.05.17/outbox.cif.g08.bks.cpg/sg19_1_cif.got.tgz:1967.got - 2010.06.03 22:46:19.
