data_PCOD9315453
_publ_section_title
;
Structure prediction by ZEFSAII (Michael W. Deem and Ramdas Pophale) SiO2 
 PCOD9315453
Probable space group: P 21 21 21
;
_chemical_formula_sum "Si O2"
_cell_formula_units_Z 24
_cell_length_a 9.248790
_cell_length_b 10.045775
_cell_length_c 9.544657
_cell_angle_alpha 90.000000
_cell_angle_beta 90.000000
_cell_angle_gamma 90.000000
_cell_volume 886.806140
_symmetry_space_group_name_H-M "P 21 21 21"
_symmetry_group_IT_number 19
_symmetry_cell_setting 'orthorhombic'
loop_
_space_group_symop_operation_xyz
x,y,z
1/2-x,-y,1/2+z
1/2+x,1/2-y,-z
-x,1/2+y,1/2-z
loop_
_atom_site_type_symbol
_atom_site_label
_atom_site_fract_x
_atom_site_fract_y
_atom_site_fract_z
Si Si1 0.760019 0.495752 0.639679
Si Si2 0.372130 0.258195 0.460553
Si Si3 0.502083 0.141832 0.207427
Si Si4 0.245521 0.500329 0.626993
Si Si5 0.992796 0.659009 0.476502
Si Si6 0.003236 0.335887 0.262575
O O1 0.743127 0.348749 0.571105
O O2 0.626497 0.575485 0.699137
O O3 0.874817 0.463109 0.764067
O O4 0.849916 0.584368 0.528942
O O5 0.150434 0.414086 0.734458
O O6 0.327627 0.396815 0.526282
O O7 0.471398 0.182196 0.574341
O O8 0.455844 0.261695 0.313292
O O9 0.511284 0.198230 0.053841
O O10 0.133021 0.584058 0.533470
O O11 0.348843 0.595061 0.716916
O O12 0.999832 0.692385 0.313836
#
# Coordination Sequence:
#
# PCOD9315453 Si02
#       6
#     4   4   4   4   4   4
#     4   9  24  44  66  95 146 173 236 290 355 418
#     4  10  26  43  68 101 142 179 236 293 357 416
#     4   9  24  44  67  98 140 185 228 278 362 425
#     4  11  26  45  78 102 145 186 244 288 361 423
#     4  11  24  46  70 102 139 190 232 288 358 432
#     4  12  26  40  75 104 138 183 242 301 351 416
#
# _framework density 27.063413000000001
#
# number of rings (size 3 to 8) (size 9 to 14) (size 15 to 20)
#    1.000    0.667    0.000    2.000    7.000    8.000 
#    0.000    0.000    0.000    0.000    0.000    0.000 
#    0.000    0.000    0.000    0.000    0.000    0.000 
#
# Total GULP energy -134775.801918 kJ/mol
# GULP energy per Si atom -5615.658413 kJ/mol
# Density = 2.700182 g / cm^3
# Si number density = 27.063413 Si / 1000 Ang^3
#
#
#
# Elastic Constant Matrix: (Units=GPa)
#
#
# Indices 1 2 3 4 5 6 
#
# 1 120.1330 30.6260 16.4527 0.0000 0.0000 0.0000
# 2 30.6260 95.8492 14.9717 0.0000 0.0000 0.0000
# 3 16.4527 14.9717 106.5787 0.0000 0.0000 0.0000
# 4 0.0000 0.0000 0.0000 55.5701 0.0000 0.0000
# 5 0.0000 0.0000 0.0000 0.0000 32.3200 0.0000
# 6 0.0000 0.0000 0.0000 0.0000 0.0000 41.5443
#
#
#
# Elastic Compliance Matrix: (Units=1/GPa)
#
#
# Indices 1 2 3 4 5 6 
#
# 1 0.009171 -0.002770 -0.001027 0.000000 0.000000 0.000000
# 2 -0.002770 0.011504 -0.001188 0.000000 0.000000 0.000000
# 3 -0.001027 -0.001188 0.009708 0.000000 0.000000 0.000000
# 4 0.000000 0.000000 0.000000 0.017995 0.000000 0.000000
# 5 0.000000 0.000000 0.000000 0.000000 0.030941 0.000000
# 6 0.000000 0.000000 0.000000 0.000000 0.000000 0.024071
#
#
# Mechanical properties :
#
#
# Convention : Reuss Voigt Hill
#
# Bulk Modulus (GPa) = 48.98870 49.62907 49.30889
# Shear Modulus (GPa) = 41.60995 43.25423 42.43209
#
# Velocity S-wave (km/s) = 3.92535 4.00215 3.96394
# Velocity P-wave (km/s) = 6.21974 6.30351 6.26177
#
# Compressibility (1/GPa) = 0.02041287
#
# Stress axis : x y z
#
# Youngs Moduli (GPa) = 109.04108 86.92826 103.00616
#
# Poissons Ratio (x) = 0.24079 0.10575
# Poissons Ratio (y) = 0.30204 0.12241
# Poissons Ratio (z) = 0.11194 0.10330
#
# Static dielectric constant tensor:
#      x y z
#    x 2.063630 0.000000 0.000000 
#    y 0.000000 2.110180 0.000000 
#    z 0.000000 0.000000 2.056560 
# 
# From -- ./inp_files/3368.got.cif
#   From: 2010.05.17/outbox.cif.g08.bks.cpg/sg19_2_cif.got.tgz:3368.got - 2010.06.03 22:46:19.
