data_PCOD9315927
_publ_section_title
;
Structure prediction by ZEFSAII (Michael W. Deem and Ramdas Pophale) SiO2 
 PCOD9315927
Probable space group: P 21 21 21
;
_chemical_formula_sum "Si O2"
_cell_formula_units_Z 28
_cell_length_a 8.881752
_cell_length_b 4.990410
_cell_length_c 25.607321
_cell_angle_alpha 90.000000
_cell_angle_beta 90.000000
_cell_angle_gamma 90.000000
_cell_volume 1135.008243
_symmetry_space_group_name_H-M "P 21 21 21"
_symmetry_group_IT_number 19
_symmetry_cell_setting 'orthorhombic'
loop_
_space_group_symop_operation_xyz
x,y,z
1/2-x,-y,1/2+z
1/2+x,1/2-y,-z
-x,1/2+y,1/2-z
loop_
_atom_site_type_symbol
_atom_site_label
_atom_site_fract_x
_atom_site_fract_y
_atom_site_fract_z
Si Si1 0.908793 0.155178 0.976579
Si Si2 0.082472 0.547699 0.730233
Si Si3 0.402675 0.513656 0.403074
Si Si4 0.674925 0.906816 0.690596
Si Si5 0.995919 0.583953 0.153508
Si Si6 0.328064 0.624110 0.123756
Si Si7 0.848122 0.662952 0.044125
O O1 0.051831 0.258466 0.943947
O O2 0.806808 0.024780 0.931264
O O3 0.842256 0.420593 0.003291
O O4 0.932746 0.918281 0.018020
O O5 0.230397 0.418800 0.756529
O O6 0.098253 0.562616 0.668256
O O7 0.047481 0.833940 0.755446
O O8 0.299265 0.620190 0.355937
O O9 0.555160 0.366510 0.384213
O O10 0.305010 0.294461 0.434516
O O11 0.544783 0.687851 0.683707
O O12 0.600563 0.191749 0.681724
O O13 0.934160 0.554147 0.094647
O O14 0.165080 0.685437 0.146491
#
# Coordination Sequence:
#
# PCOD9315927 Si02
#       7
#     4   4   4   4   4   4   4
#     4  12  27  44  72 107 146 190 253 305 362 434
#     4  12  26  47  81 113 142 192 251 307 374 446
#     4  11  26  48  74 106 144 197 254 302 366 454
#     4  11  25  50  76 104 153 193 242 305 386 441
#     4  11  28  48  71 109 152 193 241 313 376 444
#     4  12  29  46  77 110 151 186 259 311 365 452
#     4  11  27  45  71 101 150 199 244 299 385 437
#
# _framework density 24.669423999999999
#
# number of rings (size 3 to 8) (size 9 to 14) (size 15 to 20)
#    0.000    0.571    2.857    3.429   12.000    2.286 
#    2.571    0.000    0.000    0.000    0.000    0.000 
#    0.000    0.000    0.000    0.000    0.000    0.000 
#
# Total GULP energy -156923.544063 kJ/mol
# GULP energy per Si atom -5604.412288 kJ/mol
# Density = 2.461328 g / cm^3
# Si number density = 24.669424 Si / 1000 Ang^3
#
#
#
# Elastic Constant Matrix: (Units=GPa)
#
#
# Indices 1 2 3 4 5 6 
#
# 1 57.7577 2.7928 -2.6396 0.0000 0.0000 0.0000
# 2 2.7928 82.1629 22.0419 0.0000 0.0000 0.0000
# 3 -2.6396 22.0419 87.4381 0.0000 0.0000 0.0000
# 4 0.0000 0.0000 0.0000 18.8784 0.0000 0.0000
# 5 0.0000 0.0000 0.0000 0.0000 27.3294 0.0000
# 6 0.0000 0.0000 0.0000 0.0000 0.0000 20.6807
#
#
#
# Elastic Compliance Matrix: (Units=1/GPa)
#
#
# Indices 1 2 3 4 5 6 
#
# 1 0.017385 -0.000785 0.000723 0.000000 0.000000 0.000000
# 2 -0.000785 0.013089 -0.003323 0.000000 0.000000 0.000000
# 3 0.000723 -0.003323 0.012296 0.000000 0.000000 0.000000
# 4 0.000000 0.000000 0.000000 0.052971 0.000000 0.000000
# 5 0.000000 0.000000 0.000000 0.000000 0.036591 0.000000
# 6 0.000000 0.000000 0.000000 0.000000 0.000000 0.048354
#
#
# Mechanical properties :
#
#
# Convention : Reuss Voigt Hill
#
# Bulk Modulus (GPa) = 27.77837 30.19431 28.98634
# Shear Modulus (GPa) = 25.06818 27.05528 26.06173
#
# Velocity S-wave (km/s) = 3.19119 3.31526 3.25382
# Velocity P-wave (km/s) = 4.98628 5.18852 5.08840
#
# Compressibility (1/GPa) = 0.03599924
#
# Stress axis : x y z
#
# Youngs Moduli (GPa) = 57.52189 76.39912 81.32569
#
# Poissons Ratio (x) = 0.05996 -0.05877
# Poissons Ratio (y) = 0.04514 0.27027
# Poissons Ratio (z) = -0.04157 0.25390
#
# Static dielectric constant tensor:
#      x y z
#    x 1.982010 0.000000 0.000000 
#    y 0.000000 1.902190 0.000000 
#    z 0.000000 0.000000 1.965250 
# 
# From -- ./inp_files/7489.got.cif
#   From: 2010.05.17/outbox.cif.g08.bks.cpg/sg19_4_cif.got.tgz:7489.got - 2010.06.03 22:46:19.
