data_PCOD9315158
_publ_section_title
;
Structure prediction by ZEFSAII (Michael W. Deem and Ramdas Pophale) SiO2 
 PCOD9315158
Probable space group: P 21 21 21
;
_chemical_formula_sum "Si O2"
_cell_formula_units_Z 24
_cell_length_a 12.009570
_cell_length_b 13.660113
_cell_length_c 5.562805
_cell_angle_alpha 90.000000
_cell_angle_beta 90.000000
_cell_angle_gamma 90.000000
_cell_volume 912.589749
_symmetry_space_group_name_H-M "P 21 21 21"
_symmetry_group_IT_number 19
_symmetry_cell_setting 'orthorhombic'
loop_
_space_group_symop_operation_xyz
x,y,z
1/2-x,-y,1/2+z
1/2+x,1/2-y,-z
-x,1/2+y,1/2-z
loop_
_atom_site_type_symbol
_atom_site_label
_atom_site_fract_x
_atom_site_fract_y
_atom_site_fract_z
Si Si1 0.269309 0.559821 0.141813
Si Si2 0.328195 0.128667 0.424096
Si Si3 0.541263 0.883401 0.867877
Si Si4 0.040021 0.394350 0.314468
Si Si5 0.838978 0.728901 0.379209
Si Si6 0.379225 0.925501 0.218816
O O1 0.233970 0.503468 0.888688
O O2 0.384196 0.607812 0.056189
O O3 0.169594 0.637450 0.178192
O O4 0.419507 0.151116 0.626366
O O5 0.277375 0.215002 0.262277
O O6 0.215183 0.077394 0.515777
O O7 0.386212 0.038321 0.288619
O O8 0.446327 0.816352 0.758238
O O9 0.523413 0.993011 0.760538
O O10 0.501836 0.890927 0.142845
O O11 0.116610 0.339376 0.116427
O O12 0.833067 0.656801 0.602739
#
# Coordination Sequence:
#
# PCOD9315158 Si02
#       6
#     4   4   4   4   4   4
#     4  10  23  45  71 100 140 193 239 289 363 432
#     4  11  21  41  69  95 132 174 226 290 359 421
#     4  10  23  44  69  99 139 188 229 294 367 432
#     4  11  24  45  68 105 140 188 236 299 360 431
#     4  11  25  42  67 106 134 179 245 290 358 436
#     4  11  20  43  70  95 131 180 229 292 357 428
#
# _framework density 26.298784999999999
#
# number of rings (size 3 to 8) (size 9 to 14) (size 15 to 20)
#    0.000    1.333    3.333    2.000    4.667    0.000 
#   21.000    0.000    0.000    0.000    0.000    0.000 
#    0.000    0.000    0.000    0.000    0.000    0.000 
#
# Total GULP energy -134007.527354 kJ/mol
# GULP energy per Si atom -5583.646973 kJ/mol
# Density = 2.623893 g / cm^3
# Si number density = 26.298785 Si / 1000 Ang^3
#
#
#
# Elastic Constant Matrix: (Units=GPa)
#
#
# Indices 1 2 3 4 5 6 
#
# 1 126.5227 16.1046 -4.1184 0.0000 0.0000 0.0000
# 2 16.1046 71.0443 1.7780 0.0000 0.0000 0.0000
# 3 -4.1184 1.7780 36.4354 0.0000 0.0000 0.0000
# 4 0.0000 0.0000 0.0000 611.6756 0.0000 0.0000
# 5 0.0000 0.0000 0.0000 0.0000 28.1053 0.0000
# 6 0.0000 0.0000 0.0000 0.0000 0.0000 1.0668
#
#
#
# Elastic Compliance Matrix: (Units=1/GPa)
#
#
# Indices 1 2 3 4 5 6 
#
# 1 0.008176 -0.001879 0.001016 0.000000 0.000000 0.000000
# 2 -0.001879 0.014525 -0.000921 0.000000 0.000000 0.000000
# 3 0.001016 -0.000921 0.027606 0.000000 0.000000 0.000000
# 4 0.000000 0.000000 0.000000 0.001635 0.000000 0.000000
# 5 0.000000 0.000000 0.000000 0.000000 0.035580 0.000000
# 6 0.000000 0.000000 0.000000 0.000000 0.000000 0.937374
#
#
# Mechanical properties :
#
#
# Convention : Reuss Voigt Hill
#
# Bulk Modulus (GPa) = 21.39586 29.05896 25.22741
# Shear Modulus (GPa) = 4.78908 142.85209 73.82058
#
# Velocity S-wave (km/s) = 1.35092 7.37813 5.30386
# Velocity P-wave (km/s) = 3.25371 9.14636 6.86450
#
# Compressibility (1/GPa) = 0.04673802
#
# Stress axis : x y z
#
# Youngs Moduli (GPa) = 122.31026 68.84838 36.22457
#
# Poissons Ratio (x) = 0.12935 -0.03680
# Poissons Ratio (y) = 0.22979 0.03337
# Poissons Ratio (z) = -0.12425 0.06342
#
# Static dielectric constant tensor:
#      x y z
#    x 1.235570 0.000000 0.000000 
#    y 0.000000 2.202450 0.000000 
#    z 0.000000 0.000000 2.201170 
# 
# From -- ./inp_files/892.got.cif
#   From: 2010.05.17/outbox.cif.g08.bks.cpg/sg19_1_cif.got.tgz:892.got - 2010.06.03 22:46:19.
