data_PCOD9315894
_publ_section_title
;
Structure prediction by ZEFSAII (Michael W. Deem and Ramdas Pophale) SiO2 
 PCOD9315894
Probable space group: P 21 21 21
;
_chemical_formula_sum "Si O2"
_cell_formula_units_Z 28
_cell_length_a 8.613109
_cell_length_b 12.321181
_cell_length_c 11.531488
_cell_angle_alpha 90.000000
_cell_angle_beta 90.000000
_cell_angle_gamma 90.000000
_cell_volume 1223.763884
_symmetry_space_group_name_H-M "P 21 21 21"
_symmetry_group_IT_number 19
_symmetry_cell_setting 'orthorhombic'
loop_
_space_group_symop_operation_xyz
x,y,z
1/2-x,-y,1/2+z
1/2+x,1/2-y,-z
-x,1/2+y,1/2-z
loop_
_atom_site_type_symbol
_atom_site_label
_atom_site_fract_x
_atom_site_fract_y
_atom_site_fract_z
Si Si1 0.794308 0.295534 0.010174
Si Si2 0.216507 0.910234 0.718195
Si Si3 0.007295 0.250462 0.231856
Si Si4 0.998399 0.277944 0.623960
Si Si5 0.581066 0.385796 0.191962
Si Si6 0.269212 0.587560 0.643530
Si Si7 0.824960 0.148200 0.438891
O O1 0.650852 0.360703 0.066392
O O2 0.909500 0.275058 0.116395
O O3 0.856321 0.366647 0.902261
O O4 0.747172 0.180078 0.955397
O O5 0.385922 0.856769 0.717296
O O6 0.129237 0.862317 0.831343
O O7 0.195760 0.037203 0.735562
O O8 0.126466 0.351804 0.240087
O O9 0.898600 0.225360 0.339910
O O10 0.065921 0.226771 0.741072
O O11 0.141547 0.327462 0.553881
O O12 0.915697 0.182451 0.553388
O O13 0.406957 0.433351 0.185532
O O14 0.341993 0.476713 0.598116
#
# Coordination Sequence:
#
# PCOD9315894 Si02
#       7
#     4   4   4   4   4   4   4
#     4  11  25  49  75 111 147 198 255 319 372 465
#     4  11  26  46  74 110 149 193 252 312 382 445
#     4  11  25  46  71 108 148 187 262 309 372 456
#     4  12  26  48  70 108 153 193 253 311 374 455
#     4  12  25  49  77 109 147 202 251 314 379 457
#     4  11  25  47  77 104 147 201 251 308 382 450
#     4  12  28  47  72 106 153 202 244 315 387 442
#
# _framework density 22.880227999999999
#
# number of rings (size 3 to 8) (size 9 to 14) (size 15 to 20)
#    0.000    0.571    5.714    2.571    4.000    2.286 
#    2.571    0.000    0.000    0.000    0.000    0.000 
#    0.000    0.000    0.000    0.000    0.000    0.000 
#
# Total GULP energy -156599.869112 kJ/mol
# GULP energy per Si atom -5592.852468 kJ/mol
# Density = 2.282815 g / cm^3
# Si number density = 22.880228 Si / 1000 Ang^3
#
#
#
# Elastic Constant Matrix: (Units=GPa)
#
#
# Indices 1 2 3 4 5 6 
#
# 1 81.3230 3.6485 28.7927 0.0000 0.0000 0.0000
# 2 3.6485 78.0215 13.6546 0.0000 0.0000 0.0000
# 3 28.7927 13.6546 82.9383 0.0000 0.0000 0.0000
# 4 0.0000 0.0000 0.0000 31.5562 0.0000 0.0000
# 5 0.0000 0.0000 0.0000 0.0000 39.8645 0.0000
# 6 0.0000 0.0000 0.0000 0.0000 0.0000 26.7585
#
#
#
# Elastic Compliance Matrix: (Units=1/GPa)
#
#
# Indices 1 2 3 4 5 6 
#
# 1 0.014023 0.000202 -0.004901 0.000000 0.000000 0.000000
# 2 0.000202 0.013200 -0.002243 0.000000 0.000000 0.000000
# 3 -0.004901 -0.002243 0.014128 0.000000 0.000000 0.000000
# 4 0.000000 0.000000 0.000000 0.031689 0.000000 0.000000
# 5 0.000000 0.000000 0.000000 0.000000 0.025085 0.000000
# 6 0.000000 0.000000 0.000000 0.000000 0.000000 0.037371
#
#
# Mechanical properties :
#
#
# Convention : Reuss Voigt Hill
#
# Bulk Modulus (GPa) = 36.40912 37.16385 36.78649
# Shear Modulus (GPa) = 31.53826 32.71498 32.12662
#
# Velocity S-wave (km/s) = 3.71672 3.78542 3.75123
# Velocity P-wave (km/s) = 5.86226 5.94844 5.90551
#
# Compressibility (1/GPa) = 0.02746564
#
# Stress axis : x y z
#
# Youngs Moduli (GPa) = 71.31169 75.75679 70.78113
#
# Poissons Ratio (x) = -0.01531 0.34693
# Poissons Ratio (y) = -0.01441 0.15879
# Poissons Ratio (z) = 0.34953 0.16995
#
# Static dielectric constant tensor:
#      x y z
#    x 1.918390 0.000000 0.000000 
#    y 0.000000 1.814730 0.000000 
#    z 0.000000 0.000000 1.818520 
# 
# From -- ./inp_files/4597.got.cif
#   From: 2010.05.17/outbox.cif.g08.bks.cpg/sg19_3_cif.got.tgz:4597.got - 2010.06.03 22:46:19.
