data_PCOD9315808
_publ_section_title
;
Structure prediction by ZEFSAII (Michael W. Deem and Ramdas Pophale) SiO2 
 PCOD9315808
Probable space group: P 21 21 21
;
_chemical_formula_sum "Si O2"
_cell_formula_units_Z 28
_cell_length_a 15.031829
_cell_length_b 5.269527
_cell_length_c 14.470828
_cell_angle_alpha 90.000000
_cell_angle_beta 90.000000
_cell_angle_gamma 90.000000
_cell_volume 1146.243385
_symmetry_space_group_name_H-M "P 21 21 21"
_symmetry_group_IT_number 19
_symmetry_cell_setting 'orthorhombic'
loop_
_space_group_symop_operation_xyz
x,y,z
1/2-x,-y,1/2+z
1/2+x,1/2-y,-z
-x,1/2+y,1/2-z
loop_
_atom_site_type_symbol
_atom_site_label
_atom_site_fract_x
_atom_site_fract_y
_atom_site_fract_z
Si Si1 0.154569 0.244705 0.918754
Si Si2 0.527973 0.760129 0.507319
Si Si3 0.058623 0.396715 0.751721
Si Si4 0.840183 0.559505 0.888887
Si Si5 0.543977 0.596106 0.708719
Si Si6 0.263974 0.905452 0.782088
Si Si7 0.691656 0.096438 0.549532
O O1 0.113579 0.445025 0.844944
O O2 0.235755 0.379976 0.969666
O O3 0.192871 0.031035 0.851381
O O4 0.071656 0.163421 0.980753
O O5 0.577111 0.598580 0.428216
O O6 0.528238 0.590259 0.599101
O O7 0.593432 0.992142 0.530072
O O8 0.002192 0.646465 0.731578
O O9 0.123410 0.299728 0.670416
O O10 0.782071 0.392893 0.817624
O O11 0.791718 0.672823 0.978931
O O12 0.498507 0.354086 0.754705
O O13 0.649342 0.582762 0.727242
O O14 0.299808 0.671131 0.842726
#
# Coordination Sequence:
#
# PCOD9315808 Si02
#       7
#     4   4   4   4   4   4   4
#     4  11  26  44  80 109 158 207 267 343 415 476
#     4  12  26  51  76 118 155 212 273 341 411 500
#     4  11  24  45  73 117 153 199 263 330 418 488
#     4  11  26  44  80 110 160 204 271 339 415 483
#     4  12  28  51  80 110 161 213 270 332 403 497
#     4  11  27  51  74 118 157 213 273 342 416 494
#     4  12  25  48  77 114 170 202 275 351 404 514
#
# _framework density 24.427624000000002
#
# number of rings (size 3 to 8) (size 9 to 14) (size 15 to 20)
#    0.000    0.571    4.286    1.714    6.000    4.571 
#    0.000    0.000    0.000    0.000    0.000    0.000 
#    0.000    0.000    0.000    0.000    0.000    0.000 
#
# Total GULP energy -156883.331159 kJ/mol
# GULP energy per Si atom -5602.976113 kJ/mol
# Density = 2.437203 g / cm^3
# Si number density = 24.427624 Si / 1000 Ang^3
#
#
#
# Elastic Constant Matrix: (Units=GPa)
#
#
# Indices 1 2 3 4 5 6 
#
# 1 107.6171 32.4401 51.2409 0.0000 0.0000 0.0000
# 2 32.4401 106.1227 40.5029 0.0000 0.0000 0.0000
# 3 51.2409 40.5029 122.7270 0.0000 0.0000 0.0000
# 4 0.0000 0.0000 0.0000 37.7529 0.0000 0.0000
# 5 0.0000 0.0000 0.0000 0.0000 49.9641 0.0000
# 6 0.0000 0.0000 0.0000 0.0000 0.0000 41.0777
#
#
#
# Elastic Compliance Matrix: (Units=1/GPa)
#
#
# Indices 1 2 3 4 5 6 
#
# 1 0.011958 -0.002002 -0.004332 0.000000 0.000000 0.000000
# 2 -0.002002 0.011116 -0.002833 0.000000 0.000000 0.000000
# 3 -0.004332 -0.002833 0.010892 0.000000 0.000000 0.000000
# 4 0.000000 0.000000 0.000000 0.026488 0.000000 0.000000
# 5 0.000000 0.000000 0.000000 0.000000 0.020014 0.000000
# 6 0.000000 0.000000 0.000000 0.000000 0.000000 0.024344
#
#
# Mechanical properties :
#
#
# Convention : Reuss Voigt Hill
#
# Bulk Modulus (GPa) = 63.96918 64.98163 64.47540
# Shear Modulus (GPa) = 38.95368 39.91114 39.43241
#
# Velocity S-wave (km/s) = 3.99765 4.04648 4.02214
# Velocity P-wave (km/s) = 6.89582 6.96358 6.92978
#
# Compressibility (1/GPa) = 0.01563253
#
# Stress axis : x y z
#
# Youngs Moduli (GPa) = 83.62312 89.95877 91.81246
#
# Poissons Ratio (x) = 0.18011 0.39774
# Poissons Ratio (y) = 0.16742 0.26008
# Poissons Ratio (z) = 0.36227 0.25483
#
# Static dielectric constant tensor:
#      x y z
#    x 1.960210 0.000000 0.000000 
#    y 0.000000 1.961750 0.000000 
#    z 0.000000 0.000000 1.961560 
# 
# From -- ./inp_files/6236.got.cif
#   From: 2010.05.17/outbox.cif.g08.bks.cpg/sg19_4_cif.got.tgz:6236.got - 2010.06.03 22:46:19.
