data_PCOD9315672
_publ_section_title
;
Structure prediction by ZEFSAII (Michael W. Deem and Ramdas Pophale) SiO2 
 PCOD9315672
Probable space group: P 21 21 21
;
_chemical_formula_sum "Si O2"
_cell_formula_units_Z 20
_cell_length_a 9.750046
_cell_length_b 12.178604
_cell_length_c 6.239883
_cell_angle_alpha 90.000000
_cell_angle_beta 90.000000
_cell_angle_gamma 90.000000
_cell_volume 740.935870
_symmetry_space_group_name_H-M "P 21 21 21"
_symmetry_group_IT_number 19
_symmetry_cell_setting 'orthorhombic'
loop_
_space_group_symop_operation_xyz
x,y,z
1/2-x,-y,1/2+z
1/2+x,1/2-y,-z
-x,1/2+y,1/2-z
loop_
_atom_site_type_symbol
_atom_site_label
_atom_site_fract_x
_atom_site_fract_y
_atom_site_fract_z
Si Si1 0.655629 0.242675 0.226363
Si Si2 0.605085 0.792660 0.040907
Si Si3 0.053901 0.044481 0.043428
Si Si4 0.168464 0.890780 0.692491
Si Si5 0.425561 0.540310 0.558417
O O1 0.806071 0.246179 0.335451
O O2 0.552072 0.250971 0.433188
O O3 0.585708 0.341143 0.085503
O O4 0.653403 0.135957 0.071804
O O5 0.676546 0.735416 0.244318
O O6 0.604744 0.923685 0.054398
O O7 0.185942 0.054394 0.194686
O O8 0.929808 0.002478 0.193774
O O9 0.080625 0.950392 0.873965
O O10 0.078938 0.913128 0.485350
#
# Coordination Sequence:
#
# PCOD9315672 Si02
#       5
#     4   4   4   4   4
#     4  11  27  49  81 120 159 218 269 334 413 482
#     4  11  25  51  76 114 161 212 269 331 403 483
#     4  12  23  46  77 112 151 211 267 328 390 491
#     4  11  23  42  76 109 151 206 270 318 387 483
#     4  11  26  46  74 113 160 203 267 337 405 469
#
# _framework density 26.992891
#
# number of rings (size 3 to 8) (size 9 to 14) (size 15 to 20)
#    0.000    0.800    4.000    2.400    2.800    3.200 
#    7.200    0.000    0.000    0.000    0.000    0.000 
#    0.000    0.000    0.000    0.000    0.000    0.000 
#
# Total GULP energy -111447.977329 kJ/mol
# GULP energy per Si atom -5572.398866 kJ/mol
# Density = 2.693145 g / cm^3
# Si number density = 26.992891 Si / 1000 Ang^3
#
#
#
# Elastic Constant Matrix: (Units=GPa)
#
#
# Indices 1 2 3 4 5 6 
#
# 1 75.8233 48.4878 73.3683 0.0000 0.0000 0.0000
# 2 48.4878 197.3220 100.3261 0.0000 0.0000 0.0000
# 3 73.3683 100.3261 111.3413 0.0000 0.0000 0.0000
# 4 0.0000 0.0000 0.0000 56.1323 0.0000 0.0000
# 5 0.0000 0.0000 0.0000 0.0000 24.5998 0.0000
# 6 0.0000 0.0000 0.0000 0.0000 0.0000 23.9105
#
#
#
# Elastic Compliance Matrix: (Units=1/GPa)
#
#
# Indices 1 2 3 4 5 6 
#
# 1 0.040695 0.006707 -0.032860 0.000000 0.000000 0.000000
# 2 0.006707 0.010458 -0.013843 0.000000 0.000000 0.000000
# 3 -0.032860 -0.013843 0.043108 0.000000 0.000000 0.000000
# 4 0.000000 0.000000 0.000000 0.017815 0.000000 0.000000
# 5 0.000000 0.000000 0.000000 0.000000 0.040651 0.000000
# 6 0.000000 0.000000 0.000000 0.000000 0.000000 0.041823
#
#
# Mechanical properties :
#
#
# Convention : Reuss Voigt Hill
#
# Bulk Modulus (GPa) = 70.07789 92.09458 81.08624
# Shear Modulus (GPa) = 17.90202 31.74881 24.82542
#
# Velocity S-wave (km/s) = 2.57809 3.43329 3.03595
# Velocity P-wave (km/s) = 5.90593 7.06461 6.51110
#
# Compressibility (1/GPa) = 0.01426984
#
# Stress axis : x y z
#
# Youngs Moduli (GPa) = 24.57284 95.61956 23.19755
#
# Poissons Ratio (x) = -0.64133 0.76227
# Poissons Ratio (y) = -0.16481 0.32113
# Poissons Ratio (z) = 0.80746 1.32368
#
# Static dielectric constant tensor:
#      x y z
#    x 2.152760 0.000000 0.000000 
#    y 0.000000 2.096400 0.000000 
#    z 0.000000 0.000000 2.243380 
# 
# From -- ./inp_files/814.got.cif
#   From: 2010.05.17/outbox.cif.g08.bks.cpg/sg19_1_cif.got.tgz:814.got - 2010.06.03 22:46:19.
