data_PCOD9315732
_publ_section_title
;
Structure prediction by ZEFSAII (Michael W. Deem and Ramdas Pophale) SiO2 
 PCOD9315732
Probable space group: P 21 21 21
;
_chemical_formula_sum "Si O2"
_cell_formula_units_Z 28
_cell_length_a 11.431031
_cell_length_b 11.565974
_cell_length_c 8.588357
_cell_angle_alpha 90.000000
_cell_angle_beta 90.000000
_cell_angle_gamma 90.000000
_cell_volume 1135.475330
_symmetry_space_group_name_H-M "P 21 21 21"
_symmetry_group_IT_number 19
_symmetry_cell_setting 'orthorhombic'
loop_
_space_group_symop_operation_xyz
x,y,z
1/2-x,-y,1/2+z
1/2+x,1/2-y,-z
-x,1/2+y,1/2-z
loop_
_atom_site_type_symbol
_atom_site_label
_atom_site_fract_x
_atom_site_fract_y
_atom_site_fract_z
Si Si1 0.180644 0.827298 0.178703
Si Si2 0.090427 0.456901 0.036931
Si Si3 0.246541 0.356612 0.434715
Si Si4 0.860776 0.471911 0.842983
Si Si5 0.066483 0.626583 0.321325
Si Si6 0.825363 0.723990 0.356920
Si Si7 0.502798 0.057005 0.471849
O O1 0.147860 0.739691 0.316929
O O2 0.293737 0.907591 0.190570
O O3 0.187119 0.737165 0.037248
O O4 0.075299 0.908864 0.122073
O O5 0.104737 0.524134 0.203137
O O6 0.118295 0.320660 0.030805
O O7 0.184659 0.523573 0.932569
O O8 0.960696 0.480057 0.973087
O O9 0.239846 0.304588 0.265269
O O10 0.120676 0.369451 0.517658
O O11 0.761487 0.380427 0.896426
O O12 0.926956 0.435403 0.683701
O O13 0.938220 0.669809 0.270656
O O14 0.046601 0.572885 0.491348
#
# Coordination Sequence:
#
# PCOD9315732 Si02
#       7
#     4   4   4   4   4   4   4
#     4  11  24  46  79 109 150 201 254 314 390 465
#     4  11  28  49  76 109 155 199 257 317 381 467
#     4  11  25  49  75 101 149 206 245 303 393 462
#     4  12  29  48  78 121 150 195 265 331 377 459
#     4  11  23  47  77 106 146 207 240 306 386 465
#     4  12  24  48  77 108 154 196 256 309 385 469
#     4  12  25  47  76 110 150 198 253 314 388 463
#
# _framework density 24.659275999999998
#
# number of rings (size 3 to 8) (size 9 to 14) (size 15 to 20)
#    0.000    0.571    5.714    0.857    4.000    1.143 
#    5.143    0.000    0.000    0.000    0.000    0.000 
#    0.000    0.000    0.000    0.000    0.000    0.000 
#
# Total GULP energy -156644.639363 kJ/mol
# GULP energy per Si atom -5594.451406 kJ/mol
# Density = 2.460315 g / cm^3
# Si number density = 24.659276 Si / 1000 Ang^3
#
#
#
# Elastic Constant Matrix: (Units=GPa)
#
#
# Indices 1 2 3 4 5 6 
#
# 1 101.4794 47.9825 3.4532 0.0000 0.0000 0.0000
# 2 47.9825 129.7740 24.2099 0.0000 0.0000 0.0000
# 3 3.4532 24.2099 29.1424 0.0000 0.0000 0.0000
# 4 0.0000 0.0000 0.0000 25.9876 0.0000 0.0000
# 5 0.0000 0.0000 0.0000 0.0000 34.6782 0.0000
# 6 0.0000 0.0000 0.0000 0.0000 0.0000 38.1941
#
#
#
# Elastic Compliance Matrix: (Units=1/GPa)
#
#
# Indices 1 2 3 4 5 6 
#
# 1 0.012120 -0.004986 0.002706 0.000000 0.000000 0.000000
# 2 -0.004986 0.011170 -0.008689 0.000000 0.000000 0.000000
# 3 0.002706 -0.008689 0.041212 0.000000 0.000000 0.000000
# 4 0.000000 0.000000 0.000000 0.038480 0.000000 0.000000
# 5 0.000000 0.000000 0.000000 0.000000 0.028837 0.000000
# 6 0.000000 0.000000 0.000000 0.000000 0.000000 0.026182
#
#
# Mechanical properties :
#
#
# Convention : Reuss Voigt Hill
#
# Bulk Modulus (GPa) = 23.49404 45.74300 34.61852
# Shear Modulus (GPa) = 25.75658 32.08867 28.92263
#
# Velocity S-wave (km/s) = 3.23538 3.61124 3.42846
# Velocity P-wave (km/s) = 4.84820 5.99820 5.45360
#
# Compressibility (1/GPa) = 0.04256400
#
# Stress axis : x y z
#
# Youngs Moduli (GPa) = 82.51090 89.52484 24.26499
#
# Poissons Ratio (x) = 0.44636 -0.06566
# Poissons Ratio (y) = 0.41139 0.21083
# Poissons Ratio (z) = -0.22326 0.77785
#
# Static dielectric constant tensor:
#      x y z
#    x 1.968790 0.000000 0.000000 
#    y 0.000000 2.011230 0.000000 
#    z 0.000000 0.000000 2.090150 
# 
# From -- ./inp_files/3428.got.cif
#   From: 2010.05.17/outbox.cif.g08.bks.cpg/sg19_2_cif.got.tgz:3428.got - 2010.06.03 22:46:19.
