data_PCOD9315853
_publ_section_title
;
Structure prediction by ZEFSAII (Michael W. Deem and Ramdas Pophale) SiO2 
 PCOD9315853
Probable space group: P 21 21 21
;
_chemical_formula_sum "Si O2"
_cell_formula_units_Z 28
_cell_length_a 5.203905
_cell_length_b 18.609270
_cell_length_c 11.145870
_cell_angle_alpha 90.000000
_cell_angle_beta 90.000000
_cell_angle_gamma 90.000000
_cell_volume 1079.375783
_symmetry_space_group_name_H-M "P 21 21 21"
_symmetry_group_IT_number 19
_symmetry_cell_setting 'orthorhombic'
loop_
_space_group_symop_operation_xyz
x,y,z
1/2-x,-y,1/2+z
1/2+x,1/2-y,-z
-x,1/2+y,1/2-z
loop_
_atom_site_type_symbol
_atom_site_label
_atom_site_fract_x
_atom_site_fract_y
_atom_site_fract_z
Si Si1 0.420698 0.040075 0.424707
Si Si2 0.472056 0.293261 0.540538
Si Si3 0.760965 0.081005 0.622084
Si Si4 0.813222 0.103307 0.881323
Si Si5 0.772374 0.342688 0.759208
Si Si6 0.092364 0.238779 0.925497
Si Si7 0.935058 0.445257 0.946542
O O1 0.494174 0.065015 0.557424
O O2 0.410860 0.107649 0.339806
O O3 0.625420 0.980838 0.387339
O O4 0.173330 0.990804 0.442128
O O5 0.721741 0.255341 0.482369
O O6 0.413499 0.366379 0.467881
O O7 0.541995 0.309335 0.680223
O O8 0.709156 0.116935 0.749116
O O9 0.914134 0.005495 0.629737
O O10 0.057151 0.154991 0.892055
O O11 0.627982 0.112329 0.995157
O O12 0.960301 0.283978 0.817910
O O13 0.730274 0.401597 0.865665
O O14 0.884793 0.247207 0.035501
#
# Coordination Sequence:
#
# PCOD9315853 Si02
#       7
#     4   4   4   4   4   4   4
#     4  11  25  45  75 115 154 207 272 336 410 488
#     4  12  28  52  79 123 163 218 275 333 421 502
#     4  11  25  44  76 115 154 207 268 337 407 494
#     4  11  25  46  74 109 158 205 268 342 401 489
#     4  12  25  50  82 110 165 213 269 343 408 494
#     4  12  28  51  75 112 157 209 269 324 406 485
#     4  11  24  48  73 114 151 209 277 329 413 476
#
# _framework density 25.940918
#
# number of rings (size 3 to 8) (size 9 to 14) (size 15 to 20)
#    0.000    0.571    4.286    2.571    2.000    3.429 
#    5.143    0.000    0.000    0.000    0.000    0.000 
#    0.000    0.000    0.000    0.000    0.000    0.000 
#
# Total GULP energy -156658.463409 kJ/mol
# GULP energy per Si atom -5594.945122 kJ/mol
# Density = 2.588188 g / cm^3
# Si number density = 25.940918 Si / 1000 Ang^3
#
#
#
# Elastic Constant Matrix: (Units=GPa)
#
#
# Indices 1 2 3 4 5 6 
#
# 1 85.6413 19.6029 -5.2177 0.0000 0.0000 0.0000
# 2 19.6029 106.5172 6.9041 0.0000 0.0000 0.0000
# 3 -5.2177 6.9041 91.3007 0.0000 0.0000 0.0000
# 4 0.0000 0.0000 0.0000 53.3511 0.0000 0.0000
# 5 0.0000 0.0000 0.0000 0.0000 29.7983 0.0000
# 6 0.0000 0.0000 0.0000 0.0000 0.0000 43.9102
#
#
#
# Elastic Compliance Matrix: (Units=1/GPa)
#
#
# Indices 1 2 3 4 5 6 
#
# 1 0.012259 -0.002313 0.000875 0.000000 0.000000 0.000000
# 2 -0.002313 0.009871 -0.000879 0.000000 0.000000 0.000000
# 3 0.000875 -0.000879 0.011069 0.000000 0.000000 0.000000
# 4 0.000000 0.000000 0.000000 0.018744 0.000000 0.000000
# 5 0.000000 0.000000 0.000000 0.000000 0.033559 0.000000
# 6 0.000000 0.000000 0.000000 0.000000 0.000000 0.022774
#
#
# Mechanical properties :
#
#
# Convention : Reuss Voigt Hill
#
# Bulk Modulus (GPa) = 35.00492 36.22643 35.61567
# Shear Modulus (GPa) = 40.83954 42.88991 41.86473
#
# Velocity S-wave (km/s) = 3.97209 4.07058 4.02163
# Velocity P-wave (km/s) = 5.87878 6.00733 5.94340
#
# Compressibility (1/GPa) = 0.02856741
#
# Stress axis : x y z
#
# Youngs Moduli (GPa) = 81.57034 101.30935 90.34004
#
# Poissons Ratio (x) = 0.23432 -0.07909
# Poissons Ratio (y) = 0.18866 0.07937
# Poissons Ratio (z) = -0.07141 0.08901
#
# Static dielectric constant tensor:
#      x y z
#    x 2.034280 0.000000 0.000000 
#    y 0.000000 2.045150 0.000000 
#    z 0.000000 0.000000 2.062670 
# 
# From -- ./inp_files/4496.got.cif
#   From: 2010.05.17/outbox.cif.g08.bks.cpg/sg19_3_cif.got.tgz:4496.got - 2010.06.03 22:46:19.
