data_PCOD9315396
_publ_section_title
;
Structure prediction by ZEFSAII (Michael W. Deem and Ramdas Pophale) SiO2 
 PCOD9315396
Probable space group: P 21 21 21
;
_chemical_formula_sum "Si O2"
_cell_formula_units_Z 24
_cell_length_a 11.820260
_cell_length_b 7.433553
_cell_length_c 11.591838
_cell_angle_alpha 90.000000
_cell_angle_beta 90.000000
_cell_angle_gamma 90.000000
_cell_volume 1018.534572
_symmetry_space_group_name_H-M "P 21 21 21"
_symmetry_group_IT_number 19
_symmetry_cell_setting 'orthorhombic'
loop_
_space_group_symop_operation_xyz
x,y,z
1/2-x,-y,1/2+z
1/2+x,1/2-y,-z
-x,1/2+y,1/2-z
loop_
_atom_site_type_symbol
_atom_site_label
_atom_site_fract_x
_atom_site_fract_y
_atom_site_fract_z
Si Si1 0.746090 0.266369 0.990552
Si Si2 0.432047 0.022332 0.142878
Si Si3 0.609071 0.733300 0.124028
Si Si4 0.755117 0.723522 0.752999
Si Si5 0.192014 0.452044 0.367030
Si Si6 0.427869 0.018859 0.610410
O O1 0.862847 0.356120 0.946945
O O2 0.642595 0.333460 0.910993
O O3 0.719958 0.332855 0.120983
O O4 0.770715 0.057743 0.015995
O O5 0.435284 0.137182 0.260507
O O6 0.550823 0.931383 0.113441
O O7 0.351489 0.850674 0.165235
O O8 0.744371 0.763909 0.133033
O O9 0.580413 0.624373 0.010343
O O10 0.741784 0.935984 0.741212
O O11 0.641016 0.631004 0.795314
O O12 0.058844 0.479281 0.358854
#
# Coordination Sequence:
#
# PCOD9315396 Si02
#       6
#     4   4   4   4   4   4
#     4   9  23  45  64  96 134 178 219 274 338 389
#     4  11  24  41  71  91 141 173 223 285 323 410
#     4  12  26  40  68 102 130 178 228 273 346 394
#     4   9  22  46  65  94 134 174 226 270 336 397
#     4  10  25  42  67  96 137 173 225 272 336 404
#     4  11  24  42  71  99 136 176 227 280 327 412
#
# _framework density 23.563265999999999
#
# number of rings (size 3 to 8) (size 9 to 14) (size 15 to 20)
#    1.000    0.667    1.667    1.000    9.333    5.333 
#    0.000    0.000    0.000    0.000    0.000    0.000 
#    0.000    0.000    0.000    0.000    0.000    0.000 
#
# Total GULP energy -134030.240921 kJ/mol
# GULP energy per Si atom -5584.593372 kJ/mol
# Density = 2.350963 g / cm^3
# Si number density = 23.563266 Si / 1000 Ang^3
#
#
#
# Elastic Constant Matrix: (Units=GPa)
#
#
# Indices 1 2 3 4 5 6 
#
# 1 112.2365 6.7559 -17.3644 0.0000 0.0000 0.0000
# 2 6.7559 28.5307 -14.7353 0.0000 0.0000 0.0000
# 3 -17.3644 -14.7353 33.7336 0.0000 0.0000 0.0000
# 4 0.0000 0.0000 0.0000 29.5907 0.0000 0.0000
# 5 0.0000 0.0000 0.0000 0.0000 10.4112 0.0000
# 6 0.0000 0.0000 0.0000 0.0000 0.0000 28.6486
#
#
#
# Elastic Compliance Matrix: (Units=1/GPa)
#
#
# Indices 1 2 3 4 5 6 
#
# 1 0.009684 0.000363 0.005143 0.000000 0.000000 0.000000
# 2 0.000363 0.045274 0.019963 0.000000 0.000000 0.000000
# 3 0.005143 0.019963 0.041012 0.000000 0.000000 0.000000
# 4 0.000000 0.000000 0.000000 0.033794 0.000000 0.000000
# 5 0.000000 0.000000 0.000000 0.000000 0.096050 0.000000
# 6 0.000000 0.000000 0.000000 0.000000 0.000000 0.034906
#
#
# Mechanical properties :
#
#
# Convention : Reuss Voigt Hill
#
# Bulk Modulus (GPa) = 6.80688 13.75705 10.28196
# Shear Modulus (GPa) = 19.32367 27.05307 23.18837
#
# Velocity S-wave (km/s) = 2.86680 3.39204 3.14042
# Velocity P-wave (km/s) = 3.72198 4.60351 4.18601
#
# Compressibility (1/GPa) = 0.14691028
#
# Stress axis : x y z
#
# Youngs Moduli (GPa) = 103.26714 22.08754 24.38320
#
# Poissons Ratio (x) = -0.00803 -0.12541
# Poissons Ratio (y) = -0.03752 -0.48677
# Poissons Ratio (z) = -0.53114 -0.44094
#
# Static dielectric constant tensor:
#      x y z
#    x 1.945320 0.000000 0.000000 
#    y 0.000000 1.948120 0.000000 
#    z 0.000000 0.000000 1.876640 
# 
# From -- ./inp_files/5840.got.cif
#   From: 2010.05.17/outbox.cif.g08.bks.cpg/sg19_3_cif.got.tgz:5840.got - 2010.06.03 22:46:19.
