data_PCOD9315202
_publ_section_title
;
Structure prediction by ZEFSAII (Michael W. Deem and Ramdas Pophale) SiO2 
 PCOD9315202
Probable space group: P 21 21 21
;
_chemical_formula_sum "Si O2"
_cell_formula_units_Z 28
_cell_length_a 9.003626
_cell_length_b 5.397788
_cell_length_c 22.759601
_cell_angle_alpha 90.000000
_cell_angle_beta 90.000000
_cell_angle_gamma 90.000000
_cell_volume 1106.108970
_symmetry_space_group_name_H-M "P 21 21 21"
_symmetry_group_IT_number 19
_symmetry_cell_setting 'orthorhombic'
loop_
_space_group_symop_operation_xyz
x,y,z
1/2-x,-y,1/2+z
1/2+x,1/2-y,-z
-x,1/2+y,1/2-z
loop_
_atom_site_type_symbol
_atom_site_label
_atom_site_fract_x
_atom_site_fract_y
_atom_site_fract_z
Si Si1 0.417994 0.236316 0.620603
Si Si2 0.583480 0.808546 0.749876
Si Si3 0.792496 0.449785 0.146848
Si Si4 0.409441 0.734428 0.092931
Si Si5 0.070492 0.534910 0.475980
Si Si6 0.605402 0.144306 0.058397
Si Si7 0.466807 0.129768 0.286127
O O1 0.361789 0.204841 0.687428
O O2 0.554694 0.430145 0.624259
O O3 0.266921 0.282327 0.586269
O O4 0.491052 0.010026 0.585737
O O5 0.458330 0.594091 0.739736
O O6 0.678675 0.778549 0.691229
O O7 0.686120 0.366170 0.094334
O O8 0.702047 0.634747 0.189344
O O9 0.441403 0.592303 0.153466
O O10 0.497290 0.991986 0.101177
O O11 0.468159 0.651803 0.028965
O O12 0.245345 0.515975 0.464695
O O13 0.002762 0.780146 0.505178
O O14 0.508440 0.384592 0.253471
#
# Coordination Sequence:
#
# PCOD9315202 Si02
#       7
#     4   4   4   4   4   4   4
#     4  11  26  46  77 110 152 207 266 336 404 497
#     4  10  23  46  71 111 151 198 261 326 402 480
#     4  11  25  49  78 114 158 213 267 345 415 496
#     4  12  27  49  72 112 157 204 272 333 409 493
#     4  12  27  46  77 109 154 209 271 336 414 493
#     4  12  27  49  77 111 160 211 275 342 422 500
#     4  12  27  49  80 115 160 214 270 338 418 495
#
# _framework density 25.313960999999999
#
# number of rings (size 3 to 8) (size 9 to 14) (size 15 to 20)
#    0.000    0.571    1.429    5.143    6.000    8.000 
#    7.714    0.000    0.000    0.000    0.000    0.000 
#    0.000    0.000    0.000    0.000    0.000    0.000 
#
# Total GULP energy -156274.647249 kJ/mol
# GULP energy per Si atom -5581.237402 kJ/mol
# Density = 2.525634 g / cm^3
# Si number density = 25.313961 Si / 1000 Ang^3
#
#
#
# Elastic Constant Matrix: (Units=GPa)
#
#
# Indices 1 2 3 4 5 6 
#
# 1 140.9313 38.3809 34.4047 0.0000 0.0000 0.0000
# 2 38.3809 83.0250 32.0253 0.0000 0.0000 0.0000
# 3 34.4047 32.0253 117.5098 0.0000 0.0000 0.0000
# 4 0.0000 0.0000 0.0000 50.9552 0.0000 0.0000
# 5 0.0000 0.0000 0.0000 0.0000 43.3010 0.0000
# 6 0.0000 0.0000 0.0000 0.0000 0.0000 35.7563
#
#
#
# Elastic Compliance Matrix: (Units=1/GPa)
#
#
# Indices 1 2 3 4 5 6 
#
# 1 0.008366 -0.003266 -0.001559 0.000000 0.000000 0.000000
# 2 -0.003266 0.014734 -0.003059 0.000000 0.000000 0.000000
# 3 -0.001559 -0.003059 0.009800 0.000000 0.000000 0.000000
# 4 0.000000 0.000000 0.000000 0.019625 0.000000 0.000000
# 5 0.000000 0.000000 0.000000 0.000000 0.023094 0.000000
# 6 0.000000 0.000000 0.000000 0.000000 0.000000 0.027967
#
#
# Mechanical properties :
#
#
# Convention : Reuss Voigt Hill
#
# Bulk Modulus (GPa) = 58.37279 61.23198 59.80238
# Shear Modulus (GPa) = 39.97879 41.77952 40.87916
#
# Velocity S-wave (km/s) = 3.97837 4.06698 4.02292
# Velocity P-wave (km/s) = 6.64928 6.80407 6.72712
#
# Compressibility (1/GPa) = 0.01713127
#
# Stress axis : x y z
#
# Youngs Moduli (GPa) = 119.53527 67.86820 102.03817
#
# Poissons Ratio (x) = 0.22165 0.15911
# Poissons Ratio (y) = 0.39039 0.31218
# Poissons Ratio (z) = 0.18639 0.20764
#
# Static dielectric constant tensor:
#      x y z
#    x 2.063140 0.000000 0.000000 
#    y 0.000000 2.141570 0.000000 
#    z 0.000000 0.000000 2.003250 
# 
# From -- ./inp_files/7340.got.cif
#   From: 2010.05.17/outbox.cif.g08.bks.cpg/sg19_4_cif.got.tgz:7340.got - 2010.06.03 22:46:19.
