data_PCOD9315942
_publ_section_title
;
Structure prediction by ZEFSAII (Michael W. Deem and Ramdas Pophale) SiO2 
 PCOD9315942
Probable space group: P 21 21 21
;
_chemical_formula_sum "Si O2"
_cell_formula_units_Z 28
_cell_length_a 25.533566
_cell_length_b 5.116367
_cell_length_c 8.477570
_cell_angle_alpha 90.000000
_cell_angle_beta 90.000000
_cell_angle_gamma 90.000000
_cell_volume 1107.502068
_symmetry_space_group_name_H-M "P 21 21 21"
_symmetry_group_IT_number 19
_symmetry_cell_setting 'orthorhombic'
loop_
_space_group_symop_operation_xyz
x,y,z
1/2-x,-y,1/2+z
1/2+x,1/2-y,-z
-x,1/2+y,1/2-z
loop_
_atom_site_type_symbol
_atom_site_label
_atom_site_fract_x
_atom_site_fract_y
_atom_site_fract_z
Si Si1 0.479110 0.758263 0.325782
Si Si2 0.741564 0.222696 0.174561
Si Si3 0.845449 0.318612 0.022667
Si Si4 0.632419 0.524611 0.183565
Si Si5 0.129329 0.319563 0.271291
Si Si6 0.188842 0.631180 0.032905
Si Si7 0.017295 0.118013 0.174851
O O1 0.509052 0.956311 0.208005
O O2 0.418035 0.838991 0.320005
O O3 0.499882 0.834896 0.497289
O O4 0.782605 0.288395 0.035797
O O5 0.687203 0.370793 0.188944
O O6 0.774234 0.254220 0.334348
O O7 0.722865 0.934137 0.121691
O O8 0.856049 0.592662 0.107601
O O9 0.869334 0.086563 0.128359
O O10 0.868309 0.315979 0.847486
O O11 0.639253 0.706462 0.029460
O O12 0.074326 0.239070 0.200225
O O13 0.168064 0.374760 0.125003
O O14 0.983363 0.313327 0.283425
#
# Coordination Sequence:
#
# PCOD9315942 Si02
#       7
#     4   4   4   4   4   4   4
#     4  12  32  54  79 117 155 204 269 329 391 461
#     4  11  26  45  76 113 156 203 262 313 394 473
#     4  11  28  46  78 112 157 200 255 311 389 478
#     4  12  29  48  80 107 161 208 257 329 396 461
#     4  11  28  50  73 113 153 203 258 318 388 470
#     4  11  27  46  76 112 160 206 259 316 394 473
#     4  12  28  51  84 110 152 204 264 332 392 456
#
# _framework density 25.282122000000001
#
# number of rings (size 3 to 8) (size 9 to 14) (size 15 to 20)
#    0.000    0.571    0.000    4.286   32.000    0.000 
#    0.000    0.000    0.000    0.000    0.000    0.000 
#    0.000    0.000    0.000    0.000    0.000    0.000 
#
# Total GULP energy -156900.680267 kJ/mol
# GULP energy per Si atom -5603.595724 kJ/mol
# Density = 2.522458 g / cm^3
# Si number density = 25.282122 Si / 1000 Ang^3
#
#
#
# Elastic Constant Matrix: (Units=GPa)
#
#
# Indices 1 2 3 4 5 6 
#
# 1 80.7141 12.0897 13.1813 0.0000 0.0000 0.0000
# 2 12.0897 62.3695 4.1043 0.0000 0.0000 0.0000
# 3 13.1813 4.1043 90.7522 0.0000 0.0000 0.0000
# 4 0.0000 0.0000 0.0000 41.7957 0.0000 0.0000
# 5 0.0000 0.0000 0.0000 0.0000 26.7684 0.0000
# 6 0.0000 0.0000 0.0000 0.0000 0.0000 18.3812
#
#
#
# Elastic Compliance Matrix: (Units=1/GPa)
#
#
# Indices 1 2 3 4 5 6 
#
# 1 0.013042 -0.002411 -0.001785 0.000000 0.000000 0.000000
# 2 -0.002411 0.016527 -0.000397 0.000000 0.000000 0.000000
# 3 -0.001785 -0.000397 0.011296 0.000000 0.000000 0.000000
# 4 0.000000 0.000000 0.000000 0.023926 0.000000 0.000000
# 5 0.000000 0.000000 0.000000 0.000000 0.037357 0.000000
# 6 0.000000 0.000000 0.000000 0.000000 0.000000 0.054403
#
#
# Mechanical properties :
#
#
# Convention : Reuss Voigt Hill
#
# Bulk Modulus (GPa) = 31.56677 32.50960 32.03818
# Shear Modulus (GPa) = 28.36109 31.01977 29.69043
#
# Velocity S-wave (km/s) = 3.35294 3.50658 3.43062
# Velocity P-wave (km/s) = 5.24428 5.41123 5.32841
#
# Compressibility (1/GPa) = 0.03167888
#
# Stress axis : x y z
#
# Youngs Moduli (GPa) = 76.67519 60.50746 88.52467
#
# Poissons Ratio (x) = 0.14586 0.15804
# Poissons Ratio (y) = 0.18483 0.03517
# Poissons Ratio (z) = 0.13689 0.02404
#
# Static dielectric constant tensor:
#      x y z
#    x 2.015310 0.000000 0.000000 
#    y 0.000000 2.036520 0.000000 
#    z 0.000000 0.000000 1.998230 
# 
# From -- ./inp_files/4349.got.cif
#   From: 2010.05.17/outbox.cif.g08.bks.cpg/sg19_3_cif.got.tgz:4349.got - 2010.06.03 22:46:19.
