data_PCOD9315123
_publ_section_title
;
Structure prediction by ZEFSAII (Michael W. Deem and Ramdas Pophale) SiO2 
 PCOD9315123
Probable space group: P 21 21 21
;
_chemical_formula_sum "Si O2"
_cell_formula_units_Z 32
_cell_length_a 5.068757
_cell_length_b 13.880683
_cell_length_c 17.185792
_cell_angle_alpha 90.000000
_cell_angle_beta 90.000000
_cell_angle_gamma 90.000000
_cell_volume 1209.154673
_symmetry_space_group_name_H-M "P 21 21 21"
_symmetry_group_IT_number 19
_symmetry_cell_setting 'orthorhombic'
loop_
_space_group_symop_operation_xyz
x,y,z
1/2-x,-y,1/2+z
1/2+x,1/2-y,-z
-x,1/2+y,1/2-z
loop_
_atom_site_type_symbol
_atom_site_label
_atom_site_fract_x
_atom_site_fract_y
_atom_site_fract_z
Si Si1 0.348614 0.482898 0.561440
Si Si2 0.336462 0.778894 0.331138
Si Si3 0.284030 0.038501 0.563717
Si Si4 0.586112 0.985046 0.193915
Si Si5 0.671439 0.216411 0.727436
Si Si6 0.844108 0.492514 0.651862
Si Si7 0.166171 0.620187 0.437919
Si Si8 0.605219 0.219767 0.549092
O O1 0.560975 0.440313 0.499902
O O2 0.537105 0.476903 0.636331
O O3 0.294044 0.585887 0.519097
O O4 0.058724 0.452256 0.590631
O O5 0.605775 0.747775 0.288025
O O6 0.368762 0.891521 0.349811
O O7 0.239797 0.725638 0.409595
O O8 0.107141 0.765045 0.267358
O O9 0.373181 0.926747 0.558494
O O10 0.149570 0.063665 0.644972
O O11 0.538840 0.106098 0.556706
O O12 0.717120 0.058180 0.134376
O O13 0.772536 0.898812 0.221642
O O14 0.448934 0.037991 0.264969
O O15 0.676296 0.252553 0.637205
O O16 0.832671 0.240474 0.486817
#
# Coordination Sequence:
#
# PCOD9315123 Si02
#       8
#     4   4   4   4   4   4   4   4
#     4  11  25  44  70 102 143 178 234 286 354 416
#     4  11  26  43  73 102 141 179 248 290 348 421
#     4  11  24  48  74 103 141 195 240 283 351 454
#     4  10  23  43  79  94 135 194 239 277 356 430
#     4  11  23  47  68 104 139 183 238 300 343 431
#     4  11  23  44  69 103 137 181 228 302 351 406
#     4  11  25  46  72 101 141 194 232 286 354 436
#     4  12  25  43  73 103 141 192 235 290 369 424
#
# _framework density 26.464770000000001
#
# number of rings (size 3 to 8) (size 9 to 14) (size 15 to 20)
#    0.000    1.000    2.500    4.500    7.000    1.000 
#    6.750    0.000    0.000    0.000    0.000    0.000 
#    0.000    0.000    0.000    0.000    0.000    0.000 
#
# Total GULP energy -179023.578269 kJ/mol
# GULP energy per Si atom -5594.486821 kJ/mol
# Density = 2.640454 g / cm^3
# Si number density = 26.464770 Si / 1000 Ang^3
#
#
#
# Elastic Constant Matrix: (Units=GPa)
#
#
# Indices 1 2 3 4 5 6 
#
# 1 157.1459 -2.6287 25.6150 0.0000 0.0000 0.0000
# 2 -2.6287 56.6786 -29.0806 0.0000 0.0000 0.0000
# 3 25.6150 -29.0806 71.0466 0.0000 0.0000 0.0000
# 4 0.0000 0.0000 0.0000 33.1063 0.0000 0.0000
# 5 0.0000 0.0000 0.0000 0.0000 46.1634 0.0000
# 6 0.0000 0.0000 0.0000 0.0000 0.0000 31.9774
#
#
#
# Elastic Compliance Matrix: (Units=1/GPa)
#
#
# Indices 1 2 3 4 5 6 
#
# 1 0.006824 -0.001197 -0.002951 0.000000 0.000000 0.000000
# 2 -0.001197 0.022544 0.009659 0.000000 0.000000 0.000000
# 3 -0.002951 0.009659 0.019093 0.000000 0.000000 0.000000
# 4 0.000000 0.000000 0.000000 0.030206 0.000000 0.000000
# 5 0.000000 0.000000 0.000000 0.000000 0.021662 0.000000
# 6 0.000000 0.000000 0.000000 0.000000 0.000000 0.031272
#
#
# Mechanical properties :
#
#
# Convention : Reuss Voigt Hill
#
# Bulk Modulus (GPa) = 16.81134 30.29804 23.55469
# Shear Modulus (GPa) = 35.61096 41.64711 38.62903
#
# Velocity S-wave (km/s) = 3.67222 3.97127 3.82467
# Velocity P-wave (km/s) = 4.93421 5.70099 5.33140
#
# Compressibility (1/GPa) = 0.05948365
#
# Stress axis : x y z
#
# Youngs Moduli (GPa) = 146.53231 44.35811 52.37583
#
# Poissons Ratio (x) = 0.05311 0.15454
# Poissons Ratio (y) = 0.17545 -0.50591
# Poissons Ratio (z) = 0.43235 -0.42847
#
# Static dielectric constant tensor:
#      x y z
#    x 2.029000 0.000000 0.000000 
#    y 0.000000 2.224930 0.000000 
#    z 0.000000 0.000000 2.140060 
# 
# From -- ./inp_files/6508.got.cif
#   From: 2010.05.17/outbox.cif.g08.bks.cpg/sg19_4_cif.got.tgz:6508.got - 2010.06.03 22:46:19.
