data_PCOD9315768
_publ_section_title
;
Structure prediction by ZEFSAII (Michael W. Deem and Ramdas Pophale) SiO2 
 PCOD9315768
Probable space group: P 21 21 21
;
_chemical_formula_sum "Si O2"
_cell_formula_units_Z 24
_cell_length_a 5.654515
_cell_length_b 29.017692
_cell_length_c 5.359589
_cell_angle_alpha 90.000000
_cell_angle_beta 90.000000
_cell_angle_gamma 90.000000
_cell_volume 879.406587
_symmetry_space_group_name_H-M "P 21 21 21"
_symmetry_group_IT_number 19
_symmetry_cell_setting 'orthorhombic'
loop_
_space_group_symop_operation_xyz
x,y,z
1/2-x,-y,1/2+z
1/2+x,1/2-y,-z
-x,1/2+y,1/2-z
loop_
_atom_site_type_symbol
_atom_site_label
_atom_site_fract_x
_atom_site_fract_y
_atom_site_fract_z
Si Si1 0.495318 0.775286 0.204035
Si Si2 0.470509 0.942667 0.275557
Si Si3 0.525239 0.025374 0.549451
Si Si4 0.987673 0.393592 0.767200
Si Si5 0.232596 0.192188 0.202717
Si Si6 0.742773 0.139434 0.735457
O O1 0.323381 0.792414 0.422358
O O2 0.532679 0.721160 0.229684
O O3 0.725424 0.806306 0.263894
O O4 0.435863 0.789486 0.922247
O O5 0.709126 0.961919 0.135768
O O6 0.205812 0.955904 0.194211
O O7 0.508984 0.888283 0.252122
O O8 0.502543 0.970395 0.533048
O O9 0.484389 0.052233 0.286474
O O10 0.124233 0.373661 0.525279
O O11 0.752471 0.362626 0.771540
O O12 0.106551 0.381041 0.027755
#
# Coordination Sequence:
#
# PCOD9315768 Si02
#       6
#     4   4   4   4   4   4
#     4  12  24  41  65  95 133 178 230 288 351 418
#     4  11  24  43  69 103 142 187 237 292 354 420
#     4  11  24  43  69 103 142 187 237 292 354 420
#     4  11  24  44  68  98 135 177 229 288 351 418
#     4  12  24  41  65  95 133 178 230 288 351 418
#     4  11  24  44  68  98 135 177 229 288 351 418
#
# _framework density 27.291132000000001
#
# number of rings (size 3 to 8) (size 9 to 14) (size 15 to 20)
#    0.000    0.667    0.000    8.000    0.000    6.667 
#    0.000    0.000    0.000    0.000    0.000    0.000 
#    0.000    0.000    0.000    0.000    0.000    0.000 
#
# Total GULP energy -134251.742486 kJ/mol
# GULP energy per Si atom -5593.822604 kJ/mol
# Density = 2.722902 g / cm^3
# Si number density = 27.291132 Si / 1000 Ang^3
#
#
#
# Elastic Constant Matrix: (Units=GPa)
#
#
# Indices 1 2 3 4 5 6 
#
# 1 109.7739 18.5591 52.7623 0.0000 0.0000 0.0000
# 2 18.5591 87.3081 19.2964 0.0000 0.0000 0.0000
# 3 52.7623 19.2964 109.3312 0.0000 0.0000 0.0000
# 4 0.0000 0.0000 0.0000 41.2433 0.0000 0.0000
# 5 0.0000 0.0000 0.0000 0.0000 67.3345 0.0000
# 6 0.0000 0.0000 0.0000 0.0000 0.0000 44.5594
#
#
#
# Elastic Compliance Matrix: (Units=1/GPa)
#
#
# Indices 1 2 3 4 5 6 
#
# 1 0.012006 -0.001323 -0.005560 0.000000 0.000000 0.000000
# 2 -0.001323 0.012064 -0.001491 0.000000 0.000000 0.000000
# 3 -0.005560 -0.001491 0.012093 0.000000 0.000000 0.000000
# 4 0.000000 0.000000 0.000000 0.024246 0.000000 0.000000
# 5 0.000000 0.000000 0.000000 0.000000 0.014851 0.000000
# 6 0.000000 0.000000 0.000000 0.000000 0.000000 0.022442
#
#
# Mechanical properties :
#
#
# Convention : Reuss Voigt Hill
#
# Bulk Modulus (GPa) = 51.50736 54.18320 52.84528
# Shear Modulus (GPa) = 41.34855 45.01381 43.18118
#
# Velocity S-wave (km/s) = 3.89664 4.06568 3.98206
# Velocity P-wave (km/s) = 6.25774 6.47584 6.36773
#
# Compressibility (1/GPa) = 0.01941470
#
# Stress axis : x y z
#
# Youngs Moduli (GPa) = 83.29220 82.88828 82.69214
#
# Poissons Ratio (x) = 0.10967 0.45980
# Poissons Ratio (y) = 0.11021 0.12327
# Poissons Ratio (z) = 0.46314 0.12357
#
# Static dielectric constant tensor:
#      x y z
#    x 2.198790 0.000000 0.000000 
#    y 0.000000 2.129640 0.000000 
#    z 0.000000 0.000000 2.151820 
# 
# From -- ./inp_files/239.got.cif
#   From: 2010.05.17/outbox.cif.g08.bks.cpg/sg19_1_cif.got.tgz:239.got - 2010.06.03 22:46:19.
