data_PCOD9315091
_publ_section_title
;
Structure prediction by ZEFSAII (Michael W. Deem and Ramdas Pophale) SiO2 
 PCOD9315091
Probable space group: P 21 21 21
;
_chemical_formula_sum "Si O2"
_cell_formula_units_Z 24
_cell_length_a 8.535359
_cell_length_b 21.757794
_cell_length_c 5.408077
_cell_angle_alpha 90.000000
_cell_angle_beta 90.000000
_cell_angle_gamma 90.000000
_cell_volume 1004.337132
_symmetry_space_group_name_H-M "P 21 21 21"
_symmetry_group_IT_number 19
_symmetry_cell_setting 'orthorhombic'
loop_
_space_group_symop_operation_xyz
x,y,z
1/2-x,-y,1/2+z
1/2+x,1/2-y,-z
-x,1/2+y,1/2-z
loop_
_atom_site_type_symbol
_atom_site_label
_atom_site_fract_x
_atom_site_fract_y
_atom_site_fract_z
Si Si1 0.915298 0.211846 0.809289
Si Si2 0.844263 0.105069 0.426197
Si Si3 0.928200 0.600381 0.458724
Si Si4 0.064061 0.478832 0.596184
Si Si5 0.375049 0.686083 0.420921
Si Si6 0.429350 0.079427 0.899605
O O1 0.867076 0.162076 0.607288
O O2 0.013603 0.272451 0.749172
O O3 0.752803 0.227775 0.941665
O O4 0.025391 0.169971 0.983283
O O5 0.738282 0.044941 0.473069
O O6 0.732923 0.137287 0.219936
O O7 0.016580 0.089556 0.322694
O O8 0.753609 0.586588 0.540216
O O9 0.042531 0.552081 0.597421
O O10 0.000302 0.454163 0.857495
O O11 0.961730 0.453025 0.363233
O O12 0.485078 0.646062 0.601196
#
# Coordination Sequence:
#
# PCOD9315091 Si02
#       6
#     4   4   4   4   4   4
#     4  11  23  44  66  99 135 183 238 290 365 421
#     4  10  25  42  65 102 133 190 232 295 360 419
#     4  11  26  40  70 104 136 188 239 290 357 427
#     4  11  25  45  72  98 152 181 242 288 358 421
#     4  10  23  43  65  94 137 175 237 293 354 426
#     4  11  24  46  68 105 137 193 234 296 354 418
#
# _framework density 23.896359
#
# number of rings (size 3 to 8) (size 9 to 14) (size 15 to 20)
#    0.000    1.333    1.667    2.000    7.000    4.000 
#    3.000    0.000    0.000    0.000    0.000    0.000 
#    0.000    0.000    0.000    0.000    0.000    0.000 
#
# Total GULP energy -134020.645898 kJ/mol
# GULP energy per Si atom -5584.193579 kJ/mol
# Density = 2.384197 g / cm^3
# Si number density = 23.896359 Si / 1000 Ang^3
#
#
#
# Elastic Constant Matrix: (Units=GPa)
#
#
# Indices 1 2 3 4 5 6 
#
# 1 136.5490 40.7770 30.6816 0.0000 0.0000 0.0000
# 2 40.7770 75.1178 -0.6328 0.0000 0.0000 0.0000
# 3 30.6816 -0.6328 58.6848 0.0000 0.0000 0.0000
# 4 0.0000 0.0000 0.0000 21.4262 0.0000 0.0000
# 5 0.0000 0.0000 0.0000 0.0000 24.4411 0.0000
# 6 0.0000 0.0000 0.0000 0.0000 0.0000 43.4372
#
#
#
# Elastic Compliance Matrix: (Units=1/GPa)
#
#
# Indices 1 2 3 4 5 6 
#
# 1 0.010203 -0.005584 -0.005395 0.000000 0.000000 0.000000
# 2 -0.005584 0.016370 0.003096 0.000000 0.000000 0.000000
# 3 -0.005395 0.003096 0.019894 0.000000 0.000000 0.000000
# 4 0.000000 0.000000 0.000000 0.046672 0.000000 0.000000
# 5 0.000000 0.000000 0.000000 0.000000 0.040915 0.000000
# 6 0.000000 0.000000 0.000000 0.000000 0.000000 0.023022
#
#
# Mechanical properties :
#
#
# Convention : Reuss Voigt Hill
#
# Bulk Modulus (GPa) = 32.57176 45.77815 39.17496
# Shear Modulus (GPa) = 27.31133 31.16262 29.23697
#
# Velocity S-wave (km/s) = 3.38436 3.61511 3.50164
# Velocity P-wave (km/s) = 5.37884 6.05177 5.72520
#
# Compressibility (1/GPa) = 0.03070144
#
# Stress axis : x y z
#
# Youngs Moduli (GPa) = 98.00981 61.08818 50.26652
#
# Poissons Ratio (x) = 0.34112 0.27117
# Poissons Ratio (y) = 0.54730 -0.15562
# Poissons Ratio (z) = 0.52872 -0.18913
#
# Static dielectric constant tensor:
#      x y z
#    x 1.878230 0.000000 0.000000 
#    y 0.000000 1.939630 0.000000 
#    z 0.000000 0.000000 2.032920 
# 
# From -- ./inp_files/483.got.cif
#   From: 2010.05.17/outbox.cif.g08.bks.cpg/sg19_1_cif.got.tgz:483.got - 2010.06.03 22:46:19.
