data_PCOD9315670
_publ_section_title
;
Structure prediction by ZEFSAII (Michael W. Deem and Ramdas Pophale) SiO2 
 PCOD9315670
Probable space group: P 21 21 21
;
_chemical_formula_sum "Si O2"
_cell_formula_units_Z 32
_cell_length_a 8.979790
_cell_length_b 12.175530
_cell_length_c 12.494420
_cell_angle_alpha 90.000000
_cell_angle_beta 90.000000
_cell_angle_gamma 90.000000
_cell_volume 1366.061200
_symmetry_space_group_name_H-M "P 21 21 21"
_symmetry_group_IT_number 19
_symmetry_cell_setting 'orthorhombic'
loop_
_space_group_symop_operation_xyz
x,y,z
1/2-x,-y,1/2+z
1/2+x,1/2-y,-z
-x,1/2+y,1/2-z
loop_
_atom_site_type_symbol
_atom_site_label
_atom_site_fract_x
_atom_site_fract_y
_atom_site_fract_z
Si Si1 0.053315 0.841840 0.132784
Si Si2 0.563599 0.602690 0.521095
Si Si3 0.926390 0.926592 0.928898
Si Si4 0.368439 0.725178 0.670077
Si Si5 0.393354 0.392216 0.535808
Si Si6 0.560017 0.783185 0.194881
Si Si7 0.349563 0.907803 0.352979
Si Si8 0.757094 0.547237 0.332321
O O1 0.103010 0.721807 0.098503
O O2 0.983759 0.833609 0.249487
O O3 0.179444 0.933928 0.119229
O O4 0.930322 0.875544 0.047107
O O5 0.423043 0.676470 0.556035
O O6 0.524716 0.478237 0.554603
O O7 0.715465 0.641024 0.578617
O O8 0.614211 0.591651 0.397736
O O9 0.753222 0.949749 0.915501
O O10 0.000021 0.832509 0.853791
O O11 0.020961 0.037127 0.922286
O O12 0.206498 0.713984 0.728270
O O13 0.379655 0.857242 0.666006
O O14 0.404871 0.358334 0.409912
O O15 0.425873 0.829639 0.266629
O O16 0.283505 0.009734 0.285723
#
# Coordination Sequence:
#
# PCOD9315670 Si02
#       8
#     4   4   4   4   4   4   4   4
#     4  11  24  42  75 109 138 188 248 308 359 428
#     4  12  27  46  74 106 146 196 240 302 371 449
#     4  11  23  42  73 105 136 185 239 309 356 425
#     4  12  26  47  71 107 151 196 241 298 375 456
#     4  11  24  42  72 109 140 179 250 309 358 425
#     4  11  24  42  71 105 144 182 241 302 363 429
#     4  12  23  45  72 100 145 187 238 302 376 425
#     4  12  25  48  70 105 152 193 243 300 372 443
#
# _framework density 23.425011000000001
#
# number of rings (size 3 to 8) (size 9 to 14) (size 15 to 20)
#    0.000    0.500    6.250    2.250    1.750    1.000 
#    2.250    0.000    0.000    0.000    0.000    0.000 
#    0.000    0.000    0.000    0.000    0.000    0.000 
#
# Total GULP energy -178654.240507 kJ/mol
# GULP energy per Si atom -5582.945016 kJ/mol
# Density = 2.337170 g / cm^3
# Si number density = 23.425011 Si / 1000 Ang^3
#
#
#
# Elastic Constant Matrix: (Units=GPa)
#
#
# Indices 1 2 3 4 5 6 
#
# 1 74.8160 7.9966 22.8192 0.0000 0.0000 0.0000
# 2 7.9966 71.9022 6.0752 0.0000 0.0000 0.0000
# 3 22.8192 6.0752 46.7478 0.0000 0.0000 0.0000
# 4 0.0000 0.0000 0.0000 28.9038 0.0000 0.0000
# 5 0.0000 0.0000 0.0000 0.0000 48.5058 0.0000
# 6 0.0000 0.0000 0.0000 0.0000 0.0000 34.3037
#
#
#
# Elastic Compliance Matrix: (Units=1/GPa)
#
#
# Indices 1 2 3 4 5 6 
#
# 1 0.015792 -0.001117 -0.007564 0.000000 0.000000 0.000000
# 2 -0.001117 0.014141 -0.001292 0.000000 0.000000 0.000000
# 3 -0.007564 -0.001292 0.025251 0.000000 0.000000 0.000000
# 4 0.000000 0.000000 0.000000 0.034598 0.000000 0.000000
# 5 0.000000 0.000000 0.000000 0.000000 0.020616 0.000000
# 6 0.000000 0.000000 0.000000 0.000000 0.000000 0.029151
#
#
# Mechanical properties :
#
#
# Convention : Reuss Voigt Hill
#
# Bulk Modulus (GPa) = 28.37804 29.69423 29.03613
# Shear Modulus (GPa) = 29.19828 32.78098 30.98963
#
# Velocity S-wave (km/s) = 3.53435 3.74491 3.64116
# Velocity P-wave (km/s) = 5.36621 5.60384 5.48631
#
# Compressibility (1/GPa) = 0.03523852
#
# Stress axis : x y z
#
# Youngs Moduli (GPa) = 63.32129 70.71520 39.60176
#
# Poissons Ratio (x) = 0.07901 0.29953
# Poissons Ratio (y) = 0.07075 0.05118
# Poissons Ratio (z) = 0.47894 0.09139
#
# Static dielectric constant tensor:
#      x y z
#    x 1.920100 0.000000 0.000000 
#    y 0.000000 1.873920 0.000000 
#    z 0.000000 0.000000 1.930120 
# 
# From -- ./inp_files/5945.got.cif
#   From: 2010.05.17/outbox.cif.g08.bks.cpg/sg19_3_cif.got.tgz:5945.got - 2010.06.03 22:46:19.
