data_PCOD9315689
_publ_section_title
;
Structure prediction by ZEFSAII (Michael W. Deem and Ramdas Pophale) SiO2 
 PCOD9315689
Probable space group: P 21 21 21
;
_chemical_formula_sum "Si O2"
_cell_formula_units_Z 32
_cell_length_a 5.864295
_cell_length_b 13.066386
_cell_length_c 17.484736
_cell_angle_alpha 90.000000
_cell_angle_beta 90.000000
_cell_angle_gamma 90.000000
_cell_volume 1339.770380
_symmetry_space_group_name_H-M "P 21 21 21"
_symmetry_group_IT_number 19
_symmetry_cell_setting 'orthorhombic'
loop_
_space_group_symop_operation_xyz
x,y,z
1/2-x,-y,1/2+z
1/2+x,1/2-y,-z
-x,1/2+y,1/2-z
loop_
_atom_site_type_symbol
_atom_site_label
_atom_site_fract_x
_atom_site_fract_y
_atom_site_fract_z
Si Si1 0.980915 0.324263 0.197884
Si Si2 0.402802 0.499350 0.786286
Si Si3 0.841086 0.007961 0.032030
Si Si4 0.683400 0.191936 0.301640
Si Si5 0.811923 0.611830 0.562213
Si Si6 0.211841 0.864514 0.718641
Si Si7 0.504042 0.174777 0.070741
Si Si8 0.824898 0.201640 0.476343
O O1 0.773867 0.286343 0.251375
O O2 0.887980 0.387122 0.125216
O O3 0.148620 0.393332 0.247741
O O4 0.109753 0.217144 0.182267
O O5 0.404238 0.505073 0.878417
O O6 0.271348 0.411893 0.739139
O O7 0.662492 0.469084 0.764797
O O8 0.717951 0.118343 0.032242
O O9 0.040743 0.016247 0.967702
O O10 0.679212 0.914398 0.008675
O O11 0.411799 0.182037 0.292184
O O12 0.784561 0.200427 0.385404
O O13 0.964560 0.706974 0.589618
O O14 0.703676 0.653812 0.484281
O O15 0.037217 0.881804 0.650119
O O16 0.578604 0.250394 0.506571
#
# Coordination Sequence:
#
# PCOD9315689 Si02
#       8
#     4   4   4   4   4   4   4   4
#     4  11  26  42  73 105 144 193 250 303 392 458
#     4  11  25  45  69 106 143 193 244 316 378 458
#     4  12  27  45  73 106 149 199 250 308 393 461
#     4  11  26  48  74 105 150 193 252 321 377 449
#     4  12  24  40  67 110 149 186 234 311 390 479
#     4  11  23  44  69 104 146 185 245 315 378 459
#     4  12  22  42  67 105 148 186 230 310 393 466
#     4  12  33  56  80 109 155 215 273 322 371 452
#
# _framework density 23.884689000000002
#
# number of rings (size 3 to 8) (size 9 to 14) (size 15 to 20)
#    0.000    0.500    5.000    2.250   10.500    2.000 
#    0.000    0.000    0.000    0.000    0.000    0.000 
#    0.000    0.000    0.000    0.000    0.000    0.000 
#
# Total GULP energy -178553.077339 kJ/mol
# GULP energy per Si atom -5579.783667 kJ/mol
# Density = 2.383033 g / cm^3
# Si number density = 23.884689 Si / 1000 Ang^3
#
#
#
# Elastic Constant Matrix: (Units=GPa)
#
#
# Indices 1 2 3 4 5 6 
#
# 1 48.4253 -5.9761 9.3448 0.0000 0.0000 0.0000
# 2 -5.9761 67.2295 13.2532 0.0000 0.0000 0.0000
# 3 9.3448 13.2532 100.4888 0.0000 0.0000 0.0000
# 4 0.0000 0.0000 0.0000 27.3780 0.0000 0.0000
# 5 0.0000 0.0000 0.0000 0.0000 29.0095 0.0000
# 6 0.0000 0.0000 0.0000 0.0000 0.0000 20.7680
#
#
#
# Elastic Compliance Matrix: (Units=1/GPa)
#
#
# Indices 1 2 3 4 5 6 
#
# 1 0.021385 0.002354 -0.002299 0.000000 0.000000 0.000000
# 2 0.002354 0.015531 -0.002267 0.000000 0.000000 0.000000
# 3 -0.002299 -0.002267 0.010464 0.000000 0.000000 0.000000
# 4 0.000000 0.000000 0.000000 0.036526 0.000000 0.000000
# 5 0.000000 0.000000 0.000000 0.000000 0.034471 0.000000
# 6 0.000000 0.000000 0.000000 0.000000 0.000000 0.048151
#
#
# Mechanical properties :
#
#
# Convention : Reuss Voigt Hill
#
# Bulk Modulus (GPa) = 23.28020 27.70971 25.49496
# Shear Modulus (GPa) = 26.98763 28.73256 27.86009
#
# Velocity S-wave (km/s) = 3.36506 3.47215 3.41903
# Velocity P-wave (km/s) = 4.98661 5.26318 5.12676
#
# Compressibility (1/GPa) = 0.04295496
#
# Stress axis : x y z
#
# Youngs Moduli (GPa) = 46.76274 64.38897 95.56421
#
# Poissons Ratio (x) = -0.15158 0.21971
# Poissons Ratio (y) = -0.11008 0.21666
# Poissons Ratio (z) = 0.10751 0.14598
#
# Static dielectric constant tensor:
#      x y z
#    x 2.082120 0.000000 0.000000 
#    y 0.000000 1.988940 0.000000 
#    z 0.000000 0.000000 1.886240 
# 
# From -- ./inp_files/6474.got.cif
#   From: 2010.05.17/outbox.cif.g08.bks.cpg/sg19_4_cif.got.tgz:6474.got - 2010.06.03 22:46:19.
