data_PCOD9315355
_publ_section_title
;
Structure prediction by ZEFSAII (Michael W. Deem and Ramdas Pophale) SiO2 
 PCOD9315355
Probable space group: P 21 21 21
;
_chemical_formula_sum "Si O2"
_cell_formula_units_Z 20
_cell_length_a 7.500010
_cell_length_b 8.026565
_cell_length_c 12.203579
_cell_angle_alpha 90.000000
_cell_angle_beta 90.000000
_cell_angle_gamma 90.000000
_cell_volume 734.647130
_symmetry_space_group_name_H-M "P 21 21 21"
_symmetry_group_IT_number 19
_symmetry_cell_setting 'orthorhombic'
loop_
_space_group_symop_operation_xyz
x,y,z
1/2-x,-y,1/2+z
1/2+x,1/2-y,-z
-x,1/2+y,1/2-z
loop_
_atom_site_type_symbol
_atom_site_label
_atom_site_fract_x
_atom_site_fract_y
_atom_site_fract_z
Si Si1 0.663068 0.357832 0.170072
Si Si2 0.973678 0.910171 0.410239
Si Si3 0.569211 0.434976 0.799593
Si Si4 0.738353 0.112382 0.563796
Si Si5 0.957169 0.840376 0.854312
O O1 0.752316 0.464268 0.270811
O O2 0.616743 0.191252 0.233415
O O3 0.496769 0.463871 0.130616
O O4 0.816864 0.363429 0.078944
O O5 0.901329 0.745763 0.349712
O O6 0.868069 0.970240 0.514422
O O7 0.976960 0.060898 0.321312
O O8 0.431371 0.536168 0.874851
O O9 0.663519 0.209024 0.457159
O O10 0.859457 0.237378 0.633619
#
# Coordination Sequence:
#
# PCOD9315355 Si02
#       5
#     4   4   4   4   4
#     4  10  26  42  74  96 144 172 236 270 360 392
#     4  10  24  46  71  98 141 179 228 287 338 407
#     4  10  24  46  71  98 141 179 228 287 338 407
#     4  12  26  42  76 102 140 174 242 274 344 404
#     4  12  26  44  72 104 136 188 222 288 338 416
#
# _framework density 27.223956999999999
#
# number of rings (size 3 to 8) (size 9 to 14) (size 15 to 20)
#    1.200    0.000    0.000    4.800   11.200    3.200 
#    0.000    0.000    0.000    0.000    0.000    0.000 
#    0.000    0.000    0.000    0.000    0.000    0.000 
#
# Total GULP energy -112027.142526 kJ/mol
# GULP energy per Si atom -5601.357126 kJ/mol
# Density = 2.716199 g / cm^3
# Si number density = 27.223957 Si / 1000 Ang^3
#
#
#
# Elastic Constant Matrix: (Units=GPa)
#
#
# Indices 1 2 3 4 5 6 
#
# 1 72.9947 22.5203 39.8250 0.0000 0.0000 0.0000
# 2 22.5203 50.9578 22.4005 0.0000 0.0000 0.0000
# 3 39.8250 22.4005 121.7655 0.0000 0.0000 0.0000
# 4 0.0000 0.0000 0.0000 40.3199 0.0000 0.0000
# 5 0.0000 0.0000 0.0000 0.0000 53.0422 0.0000
# 6 0.0000 0.0000 0.0000 0.0000 0.0000 52.6162
#
#
#
# Elastic Compliance Matrix: (Units=1/GPa)
#
#
# Indices 1 2 3 4 5 6 
#
# 1 0.018168 -0.005894 -0.004858 0.000000 0.000000 0.000000
# 2 -0.005894 0.023263 -0.002352 0.000000 0.000000 0.000000
# 3 -0.004858 -0.002352 0.010234 0.000000 0.000000 0.000000
# 4 0.000000 0.000000 0.000000 0.024802 0.000000 0.000000
# 5 0.000000 0.000000 0.000000 0.000000 0.018853 0.000000
# 6 0.000000 0.000000 0.000000 0.000000 0.000000 0.019006
#
#
# Mechanical properties :
#
#
# Convention : Reuss Voigt Hill
#
# Bulk Modulus (GPa) = 39.28067 46.13439 42.70753
# Shear Modulus (GPa) = 33.55288 39.92714 36.74001
#
# Velocity S-wave (km/s) = 3.51447 3.83380 3.67760
# Velocity P-wave (km/s) = 5.56136 6.04817 5.80987
#
# Compressibility (1/GPa) = 0.02545781
#
# Stress axis : x y z
#
# Youngs Moduli (GPa) = 55.04048 42.98734 97.71321
#
# Poissons Ratio (x) = 0.25336 0.47469
# Poissons Ratio (y) = 0.32440 0.22981
# Poissons Ratio (z) = 0.26739 0.10110
#
# Static dielectric constant tensor:
#      x y z
#    x 2.143240 0.000000 0.000000 
#    y 0.000000 2.159870 0.000000 
#    z 0.000000 0.000000 2.045940 
# 
# From -- ./inp_files/5800.got.cif
#   From: 2010.05.17/outbox.cif.g08.bks.cpg/sg19_3_cif.got.tgz:5800.got - 2010.06.03 22:46:19.
