data_PCOD9315169
_publ_section_title
;
Structure prediction by ZEFSAII (Michael W. Deem and Ramdas Pophale) SiO2 
 PCOD9315169
Probable space group: P 21 21 21
;
_chemical_formula_sum "Si O2"
_cell_formula_units_Z 32
_cell_length_a 12.581216
_cell_length_b 20.410675
_cell_length_c 5.423194
_cell_angle_alpha 90.000000
_cell_angle_beta 90.000000
_cell_angle_gamma 90.000000
_cell_volume 1392.628012
_symmetry_space_group_name_H-M "P 21 21 21"
_symmetry_group_IT_number 19
_symmetry_cell_setting 'orthorhombic'
loop_
_space_group_symop_operation_xyz
x,y,z
1/2-x,-y,1/2+z
1/2+x,1/2-y,-z
-x,1/2+y,1/2-z
loop_
_atom_site_type_symbol
_atom_site_label
_atom_site_fract_x
_atom_site_fract_y
_atom_site_fract_z
Si Si1 0.091754 0.794445 0.263420
Si Si2 0.366110 0.948677 0.803926
Si Si3 0.845560 0.149421 0.747982
Si Si4 0.241812 0.087549 0.802260
Si Si5 0.796876 0.927259 0.860290
Si Si6 0.510397 0.245469 0.282380
Si Si7 0.274823 0.707436 0.363912
Si Si8 0.596487 0.967985 0.608023
O O1 0.171467 0.855265 0.280248
O O2 0.034078 0.785212 0.526351
O O3 0.167794 0.730552 0.229158
O O4 0.014459 0.796862 0.027287
O O5 0.323346 0.910898 0.559773
O O6 0.492059 0.960566 0.770797
O O7 0.307167 0.019032 0.803053
O O8 0.333069 0.914904 0.060333
O O9 0.772172 0.108960 0.567554
O O10 0.951719 0.186199 0.671514
O O11 0.766182 0.205115 0.857343
O O12 0.885338 0.098448 0.956029
O O13 0.818750 0.865839 0.682481
O O14 0.708291 0.976035 0.750164
O O15 0.900471 0.967752 0.935955
O O16 0.633544 0.254382 0.226237
#
# Coordination Sequence:
#
# PCOD9315169 Si02
#       8
#     4   4   4   4   4   4   4   4
#     4  11  24  44  66  99 129 170 222 269 330 396
#     4  10  24  42  67  95 129 173 217 267 329 382
#     4  10  23  45  60  97 135 165 228 272 319 407
#     4  10  23  46  64  97 132 163 221 277 314 392
#     4  11  22  43  61  97 137 167 226 274 333 392
#     4  11  25  42  69  97 129 179 218 266 338 391
#     4  10  25  42  66  94 135 175 216 281 328 393
#     4  11  24  38  67  94 128 182 212 274 335 395
#
# _framework density 22.97814
#
# number of rings (size 3 to 8) (size 9 to 14) (size 15 to 20)
#    0.000    1.500    2.500    0.750    7.000    0.000 
#    0.000    0.000    0.000    0.000    0.000    0.000 
#    0.000    0.000    0.000    0.000    0.000    0.000 
#
# Total GULP energy -178648.219600 kJ/mol
# GULP energy per Si atom -5582.756862 kJ/mol
# Density = 2.292584 g / cm^3
# Si number density = 22.978140 Si / 1000 Ang^3
#
#
#
# Elastic Constant Matrix: (Units=GPa)
#
#
# Indices 1 2 3 4 5 6 
#
# 1 50.8926 -3.4950 17.4020 0.0000 0.0000 0.0000
# 2 -3.4950 34.8273 12.3889 0.0000 0.0000 0.0000
# 3 17.4020 12.3889 95.4119 0.0000 0.0000 0.0000
# 4 0.0000 0.0000 0.0000 23.3363 0.0000 0.0000
# 5 0.0000 0.0000 0.0000 0.0000 17.5800 0.0000
# 6 0.0000 0.0000 0.0000 0.0000 0.0000 24.2812
#
#
#
# Elastic Compliance Matrix: (Units=1/GPa)
#
#
# Indices 1 2 3 4 5 6 
#
# 1 0.021403 0.003708 -0.004385 0.000000 0.000000 0.000000
# 2 0.003708 0.030746 -0.004669 0.000000 0.000000 0.000000
# 3 -0.004385 -0.004669 0.011887 0.000000 0.000000 0.000000
# 4 0.000000 0.000000 0.000000 0.042852 0.000000 0.000000
# 5 0.000000 0.000000 0.000000 0.000000 0.056883 0.000000
# 6 0.000000 0.000000 0.000000 0.000000 0.000000 0.041184
#
#
# Mechanical properties :
#
#
# Convention : Reuss Voigt Hill
#
# Bulk Modulus (GPa) = 18.74612 25.96927 22.35770
# Shear Modulus (GPa) = 21.41990 23.36190 22.39090
#
# Velocity S-wave (km/s) = 3.05648 3.19203 3.12499
# Velocity P-wave (km/s) = 4.54225 4.99116 4.77199
#
# Compressibility (1/GPa) = 0.05334437
#
# Stress axis : x y z
#
# Youngs Moduli (GPa) = 46.72174 32.52463 84.12646
#
# Poissons Ratio (x) = -0.12059 0.36891
# Poissons Ratio (y) = -0.17323 0.39275
# Poissons Ratio (z) = 0.20488 0.15184
#
# Static dielectric constant tensor:
#      x y z
#    x 1.837650 0.000000 0.000000 
#    y 0.000000 1.905460 0.000000 
#    z 0.000000 0.000000 1.994280 
# 
# From -- ./inp_files/1254.got.cif
#   From: 2010.05.17/outbox.cif.g08.bks.cpg/sg19_1_cif.got.tgz:1254.got - 2010.06.03 22:46:19.
