data_PCOD9315750
_publ_section_title
;
Structure prediction by ZEFSAII (Michael W. Deem and Ramdas Pophale) SiO2 
 PCOD9315750
Probable space group: P 21 21 21
;
_chemical_formula_sum "Si O2"
_cell_formula_units_Z 24
_cell_length_a 5.168006
_cell_length_b 6.956723
_cell_length_c 24.769699
_cell_angle_alpha 90.000000
_cell_angle_beta 90.000000
_cell_angle_gamma 90.000000
_cell_volume 890.529785
_symmetry_space_group_name_H-M "P 21 21 21"
_symmetry_group_IT_number 19
_symmetry_cell_setting 'orthorhombic'
loop_
_space_group_symop_operation_xyz
x,y,z
1/2-x,-y,1/2+z
1/2+x,1/2-y,-z
-x,1/2+y,1/2-z
loop_
_atom_site_type_symbol
_atom_site_label
_atom_site_fract_x
_atom_site_fract_y
_atom_site_fract_z
Si Si1 0.036434 0.856781 0.517650
Si Si2 0.167509 0.122496 0.600081
Si Si3 0.855187 0.654782 0.071544
Si Si4 0.357849 0.110124 0.828774
Si Si5 0.860194 0.013566 0.218259
Si Si6 0.508498 0.181803 0.302342
O O1 0.748751 0.796642 0.501505
O O2 0.071440 0.915162 0.580208
O O3 0.113155 0.047072 0.484575
O O4 0.932999 0.266596 0.582180
O O5 0.194124 0.180320 0.662975
O O6 0.442381 0.172717 0.574888
O O7 0.944423 0.499407 0.117116
O O8 0.473029 0.031958 0.771530
O O9 0.063282 0.026792 0.826111
O O10 0.436533 0.333654 0.827464
O O11 0.621221 0.135589 0.244362
O O12 0.744949 0.814805 0.197981
#
# Coordination Sequence:
#
# PCOD9315750 Si02
#       6
#     4   4   4   4   4   4
#     4  12  26  46  70 106 136 168 224 286 346 404
#     4  11  24  46  72  97 134 181 226 273 342 410
#     4  11  24  46  72  97 134 181 226 273 342 410
#     4  11  24  40  66  97 135 178 229 276 340 398
#     4  12  22  42  62  98 134 180 222 286 326 404
#     4  11  24  40  66  97 135 178 229 276 340 398
#
# _framework density 26.950247000000001
#
# number of rings (size 3 to 8) (size 9 to 14) (size 15 to 20)
#    0.000    0.667    5.000    3.000    2.333    0.000 
#    6.000    0.000    0.000    0.000    0.000    0.000 
#    0.000    0.000    0.000    0.000    0.000    0.000 
#
# Total GULP energy -134239.226228 kJ/mol
# GULP energy per Si atom -5593.301093 kJ/mol
# Density = 2.688891 g / cm^3
# Si number density = 26.950247 Si / 1000 Ang^3
#
#
#
# Elastic Constant Matrix: (Units=GPa)
#
#
# Indices 1 2 3 4 5 6 
#
# 1 72.7160 0.6982 -8.8023 0.0000 0.0000 0.0000
# 2 0.6982 87.8420 -4.1468 0.0000 0.0000 0.0000
# 3 -8.8023 -4.1468 63.8010 0.0000 0.0000 0.0000
# 4 0.0000 0.0000 0.0000 44.5242 0.0000 0.0000
# 5 0.0000 0.0000 0.0000 0.0000 34.9302 0.0000
# 6 0.0000 0.0000 0.0000 0.0000 0.0000 43.6467
#
#
#
# Elastic Compliance Matrix: (Units=1/GPa)
#
#
# Indices 1 2 3 4 5 6 
#
# 1 0.013986 -0.000020 0.001928 0.000000 0.000000 0.000000
# 2 -0.000020 0.011419 0.000739 0.000000 0.000000 0.000000
# 3 0.001928 0.000739 0.015988 0.000000 0.000000 0.000000
# 4 0.000000 0.000000 0.000000 0.022460 0.000000 0.000000
# 5 0.000000 0.000000 0.000000 0.000000 0.028629 0.000000
# 6 0.000000 0.000000 0.000000 0.000000 0.000000 0.022911
#
#
# Mechanical properties :
#
#
# Convention : Reuss Voigt Hill
#
# Bulk Modulus (GPa) = 21.41890 22.20635 21.81262
# Shear Modulus (GPa) = 39.78999 40.39421 40.09210
#
# Velocity S-wave (km/s) = 3.84659 3.87569 3.86117
# Velocity P-wave (km/s) = 5.26243 5.31842 5.29050
#
# Compressibility (1/GPa) = 0.04668774
#
# Stress axis : x y z
#
# Youngs Moduli (GPa) = 71.50140 87.57221 62.54758
#
# Poissons Ratio (x) = 0.00176 -0.12061
# Poissons Ratio (y) = 0.00144 -0.04625
# Poissons Ratio (z) = -0.13787 -0.06475
#
# Static dielectric constant tensor:
#      x y z
#    x 2.129810 0.000000 0.000000 
#    y 0.000000 2.117180 0.000000 
#    z 0.000000 0.000000 2.225380 
# 
# From -- ./inp_files/186.got.cif
#   From: 2010.05.17/outbox.cif.g08.bks.cpg/sg19_1_cif.got.tgz:186.got - 2010.06.03 22:46:19.
