data_PCOD9315417
_publ_section_title
;
Structure prediction by ZEFSAII (Michael W. Deem and Ramdas Pophale) SiO2 
 PCOD9315417
Probable space group: P 21 21 21
;
_chemical_formula_sum "Si O2"
_cell_formula_units_Z 32
_cell_length_a 13.246470
_cell_length_b 5.798535
_cell_length_c 17.732588
_cell_angle_alpha 90.000000
_cell_angle_beta 90.000000
_cell_angle_gamma 90.000000
_cell_volume 1362.042211
_symmetry_space_group_name_H-M "P 21 21 21"
_symmetry_group_IT_number 19
_symmetry_cell_setting 'orthorhombic'
loop_
_space_group_symop_operation_xyz
x,y,z
1/2-x,-y,1/2+z
1/2+x,1/2-y,-z
-x,1/2+y,1/2-z
loop_
_atom_site_type_symbol
_atom_site_label
_atom_site_fract_x
_atom_site_fract_y
_atom_site_fract_z
Si Si1 0.972105 0.417855 0.396798
Si Si2 0.908175 0.026561 0.492345
Si Si3 0.392610 0.805973 0.793408
Si Si4 0.298460 0.782402 0.628533
Si Si5 0.406305 0.062435 0.073540
Si Si6 0.714500 0.941732 0.124510
Si Si7 0.636813 0.683977 0.591419
Si Si8 0.511970 0.854802 0.208967
O O1 0.004640 0.327671 0.314006
O O2 0.047765 0.624255 0.417306
O O3 0.982365 0.210966 0.455160
O O4 0.854820 0.484521 0.398260
O O5 0.829241 0.147908 0.546441
O O6 0.847914 0.904535 0.426229
O O7 0.978562 0.869384 0.547635
O O8 0.345970 0.764265 0.711834
O O9 0.311175 0.691699 0.848776
O O10 0.396765 0.054252 0.832485
O O11 0.178178 0.791151 0.619195
O O12 0.437294 0.865739 0.135116
O O13 0.355540 0.058055 0.989836
O O14 0.755788 0.198217 0.108962
O O15 0.626144 0.906575 0.183549
O O16 0.488641 0.094573 0.255926
#
# Coordination Sequence:
#
# PCOD9315417 Si02
#       8
#     4   4   4   4   4   4   4   4
#     4  11  25  40  71  99 139 186 234 306 371 434
#     4  11  24  46  69 106 140 186 251 301 378 446
#     4  11  26  45  69 102 147 187 247 302 379 445
#     4  12  26  43  71 104 141 190 244 309 373 450
#     4  11  24  47  73 107 143 196 255 308 373 460
#     4  10  25  44  76 102 142 199 242 312 374 450
#     4  11  23  46  69 102 144 187 247 301 374 452
#     4  11  27  51  76 112 156 199 252 319 388 453
#
# _framework density 23.494129999999998
#
# number of rings (size 3 to 8) (size 9 to 14) (size 15 to 20)
#    0.000    1.000    3.750    0.750    8.750    3.000 
#    2.250    0.000    0.000    0.000    0.000    0.000 
#    0.000    0.000    0.000    0.000    0.000    0.000 
#
# Total GULP energy -178135.141295 kJ/mol
# GULP energy per Si atom -5566.723165 kJ/mol
# Density = 2.344066 g / cm^3
# Si number density = 23.494130 Si / 1000 Ang^3
#
#
#
# Elastic Constant Matrix: (Units=GPa)
#
#
# Indices 1 2 3 4 5 6 
#
# 1 79.2103 16.5186 19.9004 0.0000 0.0000 0.0000
# 2 16.5186 40.4277 25.7055 0.0000 0.0000 0.0000
# 3 19.9004 25.7055 114.2316 0.0000 0.0000 0.0000
# 4 0.0000 0.0000 0.0000 10.4052 0.0000 0.0000
# 5 0.0000 0.0000 0.0000 0.0000 45.4520 0.0000
# 6 0.0000 0.0000 0.0000 0.0000 0.0000 10.1568
#
#
#
# Elastic Compliance Matrix: (Units=1/GPa)
#
#
# Indices 1 2 3 4 5 6 
#
# 1 0.013975 -0.004857 -0.001342 0.000000 0.000000 0.000000
# 2 -0.004857 0.030554 -0.006029 0.000000 0.000000 0.000000
# 3 -0.001342 -0.006029 0.010345 0.000000 0.000000 0.000000
# 4 0.000000 0.000000 0.000000 0.096106 0.000000 0.000000
# 5 0.000000 0.000000 0.000000 0.000000 0.022001 0.000000
# 6 0.000000 0.000000 0.000000 0.000000 0.000000 0.098456
#
#
# Mechanical properties :
#
#
# Convention : Reuss Voigt Hill
#
# Bulk Modulus (GPa) = 32.87612 39.79096 36.33354
# Shear Modulus (GPa) = 16.33819 24.65246 20.49533
#
# Velocity S-wave (km/s) = 2.63993 3.24281 2.95678
# Velocity P-wave (km/s) = 4.82867 5.56726 5.21107
#
# Compressibility (1/GPa) = 0.03041721
#
# Stress axis : x y z
#
# Youngs Moduli (GPa) = 71.55877 32.72924 96.66828
#
# Poissons Ratio (x) = 0.15896 0.12969
# Poissons Ratio (y) = 0.34755 0.58285
# Poissons Ratio (z) = 0.09600 0.19734
#
# Static dielectric constant tensor:
#      x y z
#    x 1.894470 0.000000 0.000000 
#    y 0.000000 2.022140 0.000000 
#    z 0.000000 0.000000 1.966250 
# 
# From -- ./inp_files/6813.got.cif
#   From: 2010.05.17/outbox.cif.g08.bks.cpg/sg19_4_cif.got.tgz:6813.got - 2010.06.03 22:46:19.
