data_PCOD9315412
_publ_section_title
;
Structure prediction by ZEFSAII (Michael W. Deem and Ramdas Pophale) SiO2 
 PCOD9315412
Probable space group: P 21 21 21
;
_chemical_formula_sum "Si O2"
_cell_formula_units_Z 28
_cell_length_a 9.365841
_cell_length_b 25.136893
_cell_length_c 5.733561
_cell_angle_alpha 90.000000
_cell_angle_beta 90.000000
_cell_angle_gamma 90.000000
_cell_volume 1349.841619
_symmetry_space_group_name_H-M "P 21 21 21"
_symmetry_group_IT_number 19
_symmetry_cell_setting 'orthorhombic'
loop_
_space_group_symop_operation_xyz
x,y,z
1/2-x,-y,1/2+z
1/2+x,1/2-y,-z
-x,1/2+y,1/2-z
loop_
_atom_site_type_symbol
_atom_site_label
_atom_site_fract_x
_atom_site_fract_y
_atom_site_fract_z
Si Si1 0.163272 0.917587 0.946447
Si Si2 0.605538 0.793079 0.140066
Si Si3 0.814463 0.694862 0.093616
Si Si4 0.402083 0.548037 0.791347
Si Si5 0.127203 0.553295 0.554728
Si Si6 0.074208 0.660695 0.352590
Si Si7 0.906116 0.502955 0.906551
O O1 0.243573 0.862128 0.954526
O O2 0.130270 0.944866 0.698376
O O3 0.264235 0.963180 0.055733
O O4 0.011397 0.914464 0.074688
O O5 0.693383 0.738589 0.126472
O O6 0.629615 0.817864 0.397363
O O7 0.433599 0.788844 0.099462
O O8 0.646717 0.824912 0.898347
O O9 0.916259 0.685343 0.317521
O O10 0.273789 0.575858 0.659761
O O11 0.501274 0.510984 0.630541
O O12 0.330102 0.504652 0.959483
O O13 0.070429 0.597045 0.376142
O O14 0.003546 0.538538 0.735920
#
# Coordination Sequence:
#
# PCOD9315412 Si02
#       7
#     4   4   4   4   4   4   4
#     4  11  23  40  65 100 133 181 224 278 347 409
#     4  10  25  46  73  97 134 171 235 293 343 406
#     4  10  25  46  71 102 134 181 230 292 350 413
#     4  11  23  39  62  98 139 176 228 281 325 424
#     4  11  23  41  66  93 138 184 227 275 349 399
#     4  10  25  43  74  99 132 184 224 288 349 409
#     4  11  22  39  63  95 138 175 222 279 331 420
#
# _framework density 20.743175000000001
#
# number of rings (size 3 to 8) (size 9 to 14) (size 15 to 20)
#    0.857    0.571    2.857    1.714    6.000    2.286 
#    2.571    0.000    0.000    0.000    0.000    0.000 
#    0.000    0.000    0.000    0.000    0.000    0.000 
#
# Total GULP energy -155981.973072 kJ/mol
# GULP energy per Si atom -5570.784753 kJ/mol
# Density = 2.069596 g / cm^3
# Si number density = 20.743175 Si / 1000 Ang^3
#
#
#
# Elastic Constant Matrix: (Units=GPa)
#
#
# Indices 1 2 3 4 5 6 
#
# 1 57.3773 14.9634 10.8876 0.0000 0.0000 0.0000
# 2 14.9634 54.4606 15.6815 0.0000 0.0000 0.0000
# 3 10.8876 15.6815 75.5890 0.0000 0.0000 0.0000
# 4 0.0000 0.0000 0.0000 17.2669 0.0000 0.0000
# 5 0.0000 0.0000 0.0000 0.0000 26.2527 0.0000
# 6 0.0000 0.0000 0.0000 0.0000 0.0000 28.2342
#
#
#
# Elastic Compliance Matrix: (Units=1/GPa)
#
#
# Indices 1 2 3 4 5 6 
#
# 1 0.018991 -0.004712 -0.001758 0.000000 0.000000 0.000000
# 2 -0.004712 0.020697 -0.003615 0.000000 0.000000 0.000000
# 3 -0.001758 -0.003615 0.014233 0.000000 0.000000 0.000000
# 4 0.000000 0.000000 0.000000 0.057914 0.000000 0.000000
# 5 0.000000 0.000000 0.000000 0.000000 0.038091 0.000000
# 6 0.000000 0.000000 0.000000 0.000000 0.000000 0.035418
#
#
# Mechanical properties :
#
#
# Convention : Reuss Voigt Hill
#
# Bulk Modulus (GPa) = 29.62845 30.05467 29.84156
# Shear Modulus (GPa) = 23.06652 24.07706 23.57179
#
# Velocity S-wave (km/s) = 3.33829 3.41063 3.37466
# Velocity P-wave (km/s) = 5.40124 5.47999 5.44076
#
# Compressibility (1/GPa) = 0.03375135
#
# Stress axis : x y z
#
# Youngs Moduli (GPa) = 52.65705 48.31525 70.26110
#
# Poissons Ratio (x) = 0.22765 0.12351
# Poissons Ratio (y) = 0.24810 0.25401
# Poissons Ratio (z) = 0.09257 0.17467
#
# Static dielectric constant tensor:
#      x y z
#    x 1.767250 0.000000 0.000000 
#    y 0.000000 1.694780 0.000000 
#    z 0.000000 0.000000 1.857130 
# 
# From -- ./inp_files/636.got.cif
#   From: 2010.05.17/outbox.cif.g08.bks.cpg/sg19_1_cif.got.tgz:636.got - 2010.06.03 22:46:19.
