data_PCOD9315496
_publ_section_title
;
Structure prediction by ZEFSAII (Michael W. Deem and Ramdas Pophale) SiO2 
 PCOD9315496
Probable space group: P 21 21 21
;
_chemical_formula_sum "Si O2"
_cell_formula_units_Z 32
_cell_length_a 17.183600
_cell_length_b 7.145912
_cell_length_c 12.440564
_cell_angle_alpha 90.000000
_cell_angle_beta 90.000000
_cell_angle_gamma 90.000000
_cell_volume 1527.607873
_symmetry_space_group_name_H-M "P 21 21 21"
_symmetry_group_IT_number 19
_symmetry_cell_setting 'orthorhombic'
loop_
_space_group_symop_operation_xyz
x,y,z
1/2-x,-y,1/2+z
1/2+x,1/2-y,-z
-x,1/2+y,1/2-z
loop_
_atom_site_type_symbol
_atom_site_label
_atom_site_fract_x
_atom_site_fract_y
_atom_site_fract_z
Si Si1 0.118939 0.283404 0.681344
Si Si2 0.763320 0.681487 0.308719
Si Si3 0.105885 0.953990 0.811071
Si Si4 0.023848 0.950693 0.603392
Si Si5 0.799161 0.274578 0.323795
Si Si6 0.705960 0.011308 0.642175
Si Si7 0.363101 0.369119 0.060434
Si Si8 0.130716 0.628575 0.966320
O O1 0.068002 0.150975 0.604749
O O2 0.109424 0.502666 0.660801
O O3 0.964347 0.396703 0.769606
O O4 0.109157 0.178926 0.797186
O O5 0.686245 0.608458 0.245970
O O6 0.812829 0.496586 0.330804
O O7 0.805453 0.829223 0.232054
O O8 0.721545 0.781438 0.409863
O O9 0.106044 0.832439 0.917403
O O10 0.074898 0.794779 0.544036
O O11 0.939893 0.989873 0.557260
O O12 0.802697 0.184371 0.205740
O O13 0.708648 0.245574 0.353645
O O14 0.849649 0.162485 0.409747
O O15 0.647808 0.999130 0.542615
O O16 0.792087 0.054175 0.594986
#
# Coordination Sequence:
#
# PCOD9315496 Si02
#       8
#     4   4   4   4   4   4   4   4
#     4   9  18  39  58  85 129 172 210 272 326 407
#     4   9  19  36  53  93 129 160 222 269 317 403
#     4   7  18  36  57  86 127 171 198 260 338 386
#     4   9  22  40  60  93 136 168 218 268 335 413
#     4  11  21  38  63  93 136 164 230 284 317 407
#     4  11  22  35  65  95 127 178 219 280 344 387
#     4  11  19  39  65  89 132 185 211 271 346 393
#     4  11  21  41  67 100 134 172 230 284 337 388
#
# _framework density 20.947783999999999
#
# number of rings (size 3 to 8) (size 9 to 14) (size 15 to 20)
#    0.750    1.500    3.750    0.000    0.000    5.000 
#    0.000    3.750    2.750    0.000    0.000    0.000 
#    0.000    0.000    0.000    0.000    0.000    0.000 
#
# Total GULP energy -178285.471769 kJ/mol
# GULP energy per Si atom -5571.420993 kJ/mol
# Density = 2.090011 g / cm^3
# Si number density = 20.947784 Si / 1000 Ang^3
#
#
#
# Elastic Constant Matrix: (Units=GPa)
#
#
# Indices 1 2 3 4 5 6 
#
# 1 47.7800 25.3324 24.8342 0.0000 0.0000 0.0000
# 2 25.3324 124.7296 28.3966 0.0000 0.0000 0.0000
# 3 24.8342 28.3966 66.9176 0.0000 0.0000 0.0000
# 4 0.0000 0.0000 0.0000 26.5745 0.0000 0.0000
# 5 0.0000 0.0000 0.0000 0.0000 18.2888 0.0000
# 6 0.0000 0.0000 0.0000 0.0000 0.0000 29.1981
#
#
#
# Elastic Compliance Matrix: (Units=1/GPa)
#
#
# Indices 1 2 3 4 5 6 
#
# 1 0.027307 -0.003585 -0.008613 0.000000 0.000000 0.000000
# 2 -0.003585 0.009345 -0.002635 0.000000 0.000000 0.000000
# 3 -0.008613 -0.002635 0.019258 0.000000 0.000000 0.000000
# 4 0.000000 0.000000 0.000000 0.037630 0.000000 0.000000
# 5 0.000000 0.000000 0.000000 0.000000 0.054678 0.000000
# 6 0.000000 0.000000 0.000000 0.000000 0.000000 0.034249
#
#
# Mechanical properties :
#
#
# Convention : Reuss Voigt Hill
#
# Bulk Modulus (GPa) = 38.10337 44.06150 41.08244
# Shear Modulus (GPa) = 22.63658 25.53654 24.08656
#
# Velocity S-wave (km/s) = 3.29084 3.49529 3.39461
# Velocity P-wave (km/s) = 5.71566 6.11302 5.91767
#
# Compressibility (1/GPa) = 0.02624439
#
# Stress axis : x y z
#
# Youngs Moduli (GPa) = 36.62126 107.00417 51.92569
#
# Poissons Ratio (x) = 0.38362 0.44721
# Poissons Ratio (y) = 0.13129 0.13684
# Poissons Ratio (z) = 0.31540 0.28198
#
# Static dielectric constant tensor:
#      x y z
#    x 1.776180 0.000000 0.000000 
#    y 0.000000 1.834140 0.000000 
#    z 0.000000 0.000000 1.758380 
# 
# From -- ./inp_files/5532.got.cif
#   From: 2010.05.17/outbox.cif.g08.bks.cpg/sg19_3_cif.got.tgz:5532.got - 2010.06.03 22:46:19.
