data_PCOD9315911
_publ_section_title
;
Structure prediction by ZEFSAII (Michael W. Deem and Ramdas Pophale) SiO2 
 PCOD9315911
Probable space group: P 21 21 21
;
_chemical_formula_sum "Si O2"
_cell_formula_units_Z 24
_cell_length_a 5.176587
_cell_length_b 9.275134
_cell_length_c 20.536781
_cell_angle_alpha 90.000000
_cell_angle_beta 90.000000
_cell_angle_gamma 90.000000
_cell_volume 986.043517
_symmetry_space_group_name_H-M "P 21 21 21"
_symmetry_group_IT_number 19
_symmetry_cell_setting 'orthorhombic'
loop_
_space_group_symop_operation_xyz
x,y,z
1/2-x,-y,1/2+z
1/2+x,1/2-y,-z
-x,1/2+y,1/2-z
loop_
_atom_site_type_symbol
_atom_site_label
_atom_site_fract_x
_atom_site_fract_y
_atom_site_fract_z
Si Si1 0.356299 0.340013 0.521081
Si Si2 0.427789 0.221301 0.845693
Si Si3 0.930323 0.837774 0.485750
Si Si4 0.569612 0.725234 0.273228
Si Si5 0.065782 0.003950 0.203327
Si Si6 0.321603 0.317606 0.674425
O O1 0.605260 0.244116 0.504169
O O2 0.384373 0.500073 0.490639
O O3 0.333079 0.358725 0.599563
O O4 0.446694 0.149703 0.914127
O O5 0.680767 0.196227 0.802036
O O6 0.434464 0.395557 0.851695
O O7 0.167233 0.193827 0.807508
O O8 0.156208 0.746440 0.521544
O O9 0.636956 0.561487 0.295751
O O10 0.472357 0.706169 0.199837
O O11 0.049709 0.839751 0.183729
O O12 0.954045 0.076318 0.271208
#
# Coordination Sequence:
#
# PCOD9315911 Si02
#       6
#     4   4   4   4   4   4
#     4  12  32  52  75 113 165 213 256 321 399 464
#     4   9  21  42  68 108 140 180 246 319 375 436
#     4  12  27  49  82 107 148 211 279 312 371 472
#     4   9  21  40  69 106 141 179 238 308 392 430
#     4   9  24  42  73 111 140 192 237 321 386 446
#     4  11  25  47  77 107 160 189 260 307 399 460
#
# _framework density 24.339699
#
# number of rings (size 3 to 8) (size 9 to 14) (size 15 to 20)
#    1.000    0.667    0.000    2.000   11.667    4.000 
#    0.000    0.000    0.000    0.000    0.000    0.000 
#    0.000    0.000    0.000    0.000    0.000    0.000 
#
# Total GULP energy -133783.860726 kJ/mol
# GULP energy per Si atom -5574.327530 kJ/mol
# Density = 2.428430 g / cm^3
# Si number density = 24.339699 Si / 1000 Ang^3
#
#
#
# Elastic Constant Matrix: (Units=GPa)
#
#
# Indices 1 2 3 4 5 6 
#
# 1 145.4302 19.4000 15.6079 0.0000 0.0000 0.0000
# 2 19.4000 144.9260 -3.7159 0.0000 0.0000 0.0000
# 3 15.6079 -3.7159 75.0250 0.0000 0.0000 0.0000
# 4 0.0000 0.0000 0.0000 20.9140 0.0000 0.0000
# 5 0.0000 0.0000 0.0000 0.0000 29.9378 0.0000
# 6 0.0000 0.0000 0.0000 0.0000 0.0000 24.1364
#
#
#
# Elastic Compliance Matrix: (Units=1/GPa)
#
#
# Indices 1 2 3 4 5 6 
#
# 1 0.007175 -0.001000 -0.001542 0.000000 0.000000 0.000000
# 2 -0.001000 0.007048 0.000557 0.000000 0.000000 0.000000
# 3 -0.001542 0.000557 0.013677 0.000000 0.000000 0.000000
# 4 0.000000 0.000000 0.000000 0.047815 0.000000 0.000000
# 5 0.000000 0.000000 0.000000 0.000000 0.033403 0.000000
# 6 0.000000 0.000000 0.000000 0.000000 0.000000 0.041431
#
#
# Mechanical properties :
#
#
# Convention : Reuss Voigt Hill
#
# Bulk Modulus (GPa) = 41.78777 47.55168 44.66972
# Shear Modulus (GPa) = 30.76992 37.27024 34.02008
#
# Velocity S-wave (km/s) = 3.55940 3.91737 3.74266
# Velocity P-wave (km/s) = 5.83937 6.32773 6.08845
#
# Compressibility (1/GPa) = 0.02393045
#
# Stress axis : x y z
#
# Youngs Moduli (GPa) = 139.37170 141.87979 73.11373
#
# Poissons Ratio (x) = 0.14188 0.11276
# Poissons Ratio (y) = 0.13937 -0.04073
# Poissons Ratio (z) = 0.21494 -0.07904
#
# Static dielectric constant tensor:
#      x y z
#    x 2.025110 0.000000 0.000000 
#    y 0.000000 2.168850 0.000000 
#    z 0.000000 0.000000 1.955490 
# 
# From -- ./inp_files/7248.got.cif
#   From: 2010.05.17/outbox.cif.g08.bks.cpg/sg19_4_cif.got.tgz:7248.got - 2010.06.03 22:46:19.
