data_PCOD9315409
_publ_section_title
;
Structure prediction by ZEFSAII (Michael W. Deem and Ramdas Pophale) SiO2 
 PCOD9315409
Probable space group: P 21 21 21
;
_chemical_formula_sum "Si O2"
_cell_formula_units_Z 28
_cell_length_a 9.203651
_cell_length_b 11.231815
_cell_length_c 11.733620
_cell_angle_alpha 90.000000
_cell_angle_beta 90.000000
_cell_angle_gamma 90.000000
_cell_volume 1212.947777
_symmetry_space_group_name_H-M "P 21 21 21"
_symmetry_group_IT_number 19
_symmetry_cell_setting 'orthorhombic'
loop_
_space_group_symop_operation_xyz
x,y,z
1/2-x,-y,1/2+z
1/2+x,1/2-y,-z
-x,1/2+y,1/2-z
loop_
_atom_site_type_symbol
_atom_site_label
_atom_site_fract_x
_atom_site_fract_y
_atom_site_fract_z
Si Si1 0.433836 0.596042 0.532900
Si Si2 0.170698 0.470256 0.453448
Si Si3 0.754391 0.294368 0.557990
Si Si4 0.501561 0.054481 0.340265
Si Si5 0.182383 0.996320 0.620587
Si Si6 0.666189 0.935554 0.772648
Si Si7 0.587526 0.310913 0.796547
O O1 0.295432 0.569388 0.454683
O O2 0.578958 0.587093 0.458887
O O3 0.421253 0.484267 0.618781
O O4 0.399693 0.709072 0.609648
O O5 0.235100 0.340474 0.484311
O O6 0.047032 0.510678 0.541864
O O7 0.130901 0.464896 0.322327
O O8 0.713631 0.386733 0.456540
O O9 0.656414 0.298872 0.671308
O O10 0.911122 0.333134 0.610262
O O11 0.407065 0.990974 0.241079
O O12 0.662969 0.076567 0.292042
O O13 0.328113 0.926065 0.653379
O O14 0.583908 0.821867 0.726186
#
# Coordination Sequence:
#
# PCOD9315409 Si02
#       7
#     4   4   4   4   4   4   4
#     4  11  24  44  70 102 146 188 241 304 367 441
#     4  11  24  43  73 104 143 192 246 303 368 444
#     4  11  24  47  72 105 145 190 251 306 359 445
#     4  10  25  43  72 109 141 190 243 298 367 435
#     4  11  24  47  68 109 148 188 246 307 370 436
#     4  11  22  46  69 105 141 191 249 297 377 432
#     4  11  25  44  70 104 146 189 242 307 366 441
#
# _framework density 23.084258999999999
#
# number of rings (size 3 to 8) (size 9 to 14) (size 15 to 20)
#    0.000    1.143    4.286    0.857    4.000    0.000 
#    7.714    2.857    0.000    0.000    0.000    0.000 
#    0.000    0.000    0.000    0.000    0.000    0.000 
#
# Total GULP energy -156057.806070 kJ/mol
# GULP energy per Si atom -5573.493074 kJ/mol
# Density = 2.303172 g / cm^3
# Si number density = 23.084259 Si / 1000 Ang^3
#
#
#
# Elastic Constant Matrix: (Units=GPa)
#
#
# Indices 1 2 3 4 5 6 
#
# 1 120.8934 17.0305 37.8942 0.0000 0.0000 0.0000
# 2 17.0305 40.6189 23.0450 0.0000 0.0000 0.0000
# 3 37.8942 23.0450 151.5957 0.0000 0.0000 0.0000
# 4 0.0000 0.0000 0.0000 36.1096 0.0000 0.0000
# 5 0.0000 0.0000 0.0000 0.0000 42.6050 0.0000
# 6 0.0000 0.0000 0.0000 0.0000 0.0000 14.0892
#
#
#
# Elastic Compliance Matrix: (Units=1/GPa)
#
#
# Indices 1 2 3 4 5 6 
#
# 1 0.009259 -0.002812 -0.001887 0.000000 0.000000 0.000000
# 2 -0.002812 0.027796 -0.003523 0.000000 0.000000 0.000000
# 3 -0.001887 -0.003523 0.007604 0.000000 0.000000 0.000000
# 4 0.000000 0.000000 0.000000 0.027693 0.000000 0.000000
# 5 0.000000 0.000000 0.000000 0.000000 0.023471 0.000000
# 6 0.000000 0.000000 0.000000 0.000000 0.000000 0.070976
#
#
# Mechanical properties :
#
#
# Convention : Reuss Voigt Hill
#
# Bulk Modulus (GPa) = 35.43995 52.11638 43.77817
# Shear Modulus (GPa) = 25.95393 34.23666 30.09529
#
# Velocity S-wave (km/s) = 3.35672 3.85530 3.61462
# Velocity P-wave (km/s) = 5.51445 6.51486 6.03542
#
# Compressibility (1/GPa) = 0.02821674
#
# Stress axis : x y z
#
# Youngs Moduli (GPa) = 107.99903 35.97576 131.51435
#
# Poissons Ratio (x) = 0.10115 0.24819
# Poissons Ratio (y) = 0.30364 0.46329
# Poissons Ratio (z) = 0.20381 0.12673
#
# Static dielectric constant tensor:
#      x y z
#    x 1.902260 0.000000 0.000000 
#    y 0.000000 1.872990 0.000000 
#    z 0.000000 0.000000 1.928530 
# 
# From -- ./inp_files/4579.got.cif
#   From: 2010.05.17/outbox.cif.g08.bks.cpg/sg19_3_cif.got.tgz:4579.got - 2010.06.03 22:46:19.
