data_PCOD9315835
_publ_section_title
;
Structure prediction by ZEFSAII (Michael W. Deem and Ramdas Pophale) SiO2 
 PCOD9315835
Probable space group: P 21 21 21
;
_chemical_formula_sum "Si O2"
_cell_formula_units_Z 24
_cell_length_a 7.757203
_cell_length_b 9.508095
_cell_length_c 13.598209
_cell_angle_alpha 90.000000
_cell_angle_beta 90.000000
_cell_angle_gamma 90.000000
_cell_volume 1002.952536
_symmetry_space_group_name_H-M "P 21 21 21"
_symmetry_group_IT_number 19
_symmetry_cell_setting 'orthorhombic'
loop_
_space_group_symop_operation_xyz
x,y,z
1/2-x,-y,1/2+z
1/2+x,1/2-y,-z
-x,1/2+y,1/2-z
loop_
_atom_site_type_symbol
_atom_site_label
_atom_site_fract_x
_atom_site_fract_y
_atom_site_fract_z
Si Si1 0.039554 0.507320 0.751835
Si Si2 0.114248 0.145111 0.060319
Si Si3 0.273520 0.352614 0.604546
Si Si4 0.511401 0.562910 0.479474
Si Si5 0.947183 0.861903 0.078429
Si Si6 0.208417 0.780843 0.762253
O O1 0.200992 0.430443 0.699983
O O2 0.056155 0.672607 0.732855
O O3 0.871587 0.429996 0.709093
O O4 0.029035 0.480127 0.867793
O O5 0.053736 0.279646 0.000387
O O6 0.173421 0.197532 0.167613
O O7 0.281379 0.070847 0.011758
O O8 0.967461 0.028988 0.075148
O O9 0.410163 0.456805 0.551024
O O10 0.375192 0.207470 0.614724
O O11 0.113936 0.323681 0.531244
O O12 0.807551 0.797681 0.151674
#
# Coordination Sequence:
#
# PCOD9315835 Si02
#       6
#     4   4   4   4   4   4
#     4  11  26  47  70 105 143 186 239 293 365 422
#     4  11  26  46  74 105 141 187 243 295 361 430
#     4  12  25  46  70 103 145 187 239 294 361 421
#     4  11  24  47  69 103 140 190 238 298 356 429
#     4  12  27  45  71 107 143 186 242 294 361 433
#     4  11  26  47  72 105 144 190 237 300 356 431
#
# _framework density 23.929348000000001
#
# number of rings (size 3 to 8) (size 9 to 14) (size 15 to 20)
#    0.000    0.667    3.333    3.000    9.333    0.000 
#    0.000    1.667    0.000    0.000    0.000    0.000 
#    0.000    0.000    0.000    0.000    0.000    0.000 
#
# Total GULP energy -134474.421975 kJ/mol
# GULP energy per Si atom -5603.100916 kJ/mol
# Density = 2.387488 g / cm^3
# Si number density = 23.929348 Si / 1000 Ang^3
#
#
#
# Elastic Constant Matrix: (Units=GPa)
#
#
# Indices 1 2 3 4 5 6 
#
# 1 45.6252 0.6888 14.4923 0.0000 0.0000 0.0000
# 2 0.6888 73.7247 7.4754 0.0000 0.0000 0.0000
# 3 14.4923 7.4754 40.1169 0.0000 0.0000 0.0000
# 4 0.0000 0.0000 0.0000 33.3547 0.0000 0.0000
# 5 0.0000 0.0000 0.0000 0.0000 38.4875 0.0000
# 6 0.0000 0.0000 0.0000 0.0000 0.0000 67.8850
#
#
#
# Elastic Compliance Matrix: (Units=1/GPa)
#
#
# Indices 1 2 3 4 5 6 
#
# 1 0.024793 0.000690 -0.009085 0.000000 0.000000 0.000000
# 2 0.000690 0.013844 -0.002829 0.000000 0.000000 0.000000
# 3 -0.009085 -0.002829 0.028736 0.000000 0.000000 0.000000
# 4 0.000000 0.000000 0.000000 0.029981 0.000000 0.000000
# 5 0.000000 0.000000 0.000000 0.000000 0.025982 0.000000
# 6 0.000000 0.000000 0.000000 0.000000 0.000000 0.014731
#
#
# Mechanical properties :
#
#
# Convention : Reuss Voigt Hill
#
# Bulk Modulus (GPa) = 22.25932 22.75331 22.50632
# Shear Modulus (GPa) = 28.49142 37.06613 32.77878
#
# Velocity S-wave (km/s) = 3.45432 3.93998 3.70512
# Velocity P-wave (km/s) = 5.02315 5.49792 5.26589
#
# Compressibility (1/GPa) = 0.04492500
#
# Stress axis : x y z
#
# Youngs Moduli (GPa) = 40.33385 72.23150 34.79926
#
# Poissons Ratio (x) = -0.04981 0.31615
# Poissons Ratio (y) = -0.02781 0.09844
# Poissons Ratio (z) = 0.36643 0.20433
#
# Static dielectric constant tensor:
#      x y z
#    x 1.953120 0.000000 0.000000 
#    y 0.000000 1.885670 0.000000 
#    z 0.000000 0.000000 1.863200 
# 
# From -- ./inp_files/4548.got.cif
#   From: 2010.05.17/outbox.cif.g08.bks.cpg/sg19_3_cif.got.tgz:4548.got - 2010.06.03 22:46:19.
