data_PCOD9315018
_publ_section_title
;
Structure prediction by ZEFSAII (Michael W. Deem and Ramdas Pophale) SiO2 
 PCOD9315018
Probable space group: P 21 21 21
;
_chemical_formula_sum "Si O2"
_cell_formula_units_Z 32
_cell_length_a 8.351989
_cell_length_b 8.164921
_cell_length_c 19.706322
_cell_angle_alpha 90.000000
_cell_angle_beta 90.000000
_cell_angle_gamma 90.000000
_cell_volume 1343.839727
_symmetry_space_group_name_H-M "P 21 21 21"
_symmetry_group_IT_number 19
_symmetry_cell_setting 'orthorhombic'
loop_
_space_group_symop_operation_xyz
x,y,z
1/2-x,-y,1/2+z
1/2+x,1/2-y,-z
-x,1/2+y,1/2-z
loop_
_atom_site_type_symbol
_atom_site_label
_atom_site_fract_x
_atom_site_fract_y
_atom_site_fract_z
Si Si1 0.484396 0.849541 0.794711
Si Si2 0.871056 0.259264 0.923677
Si Si3 0.978621 0.633126 0.453382
Si Si4 0.126487 0.791177 0.331574
Si Si5 0.652465 0.820509 0.172545
Si Si6 0.010851 0.118948 0.538301
Si Si7 0.354397 0.223450 0.583731
Si Si8 0.459469 0.685611 0.288693
O O1 0.529963 0.834940 0.716365
O O2 0.329645 0.738581 0.810259
O O3 0.629679 0.776911 0.838846
O O4 0.449559 0.032282 0.819077
O O5 0.684479 0.264758 0.941592
O O6 0.949077 0.429518 0.949676
O O7 0.904884 0.263282 0.843612
O O8 0.962637 0.126324 0.969089
O O9 0.112427 0.721679 0.407377
O O10 0.935777 0.453242 0.427100
O O11 0.307873 0.797931 0.305971
O O12 0.621122 0.821593 0.092318
O O13 0.531240 0.705755 0.214434
O O14 0.604889 0.002702 0.197429
O O15 0.174363 0.210848 0.557584
O O16 0.952987 0.152793 0.463104
#
# Coordination Sequence:
#
# PCOD9315018 Si02
#       8
#     4   4   4   4   4   4   4   4
#     4  12  25  42  64  91 124 161 206 257 312 371
#     4  10  23  41  61  89 124 162 204 251 304 366
#     4  11  23  40  63  91 123 160 205 254 306 367
#     4  12  25  42  64  91 124 161 206 257 312 371
#     4  11  23  41  65  93 127 165 207 254 307 366
#     4  10  23  41  61  89 124 162 204 251 304 366
#     4  11  23  40  63  91 123 160 205 254 306 367
#     4  11  23  41  65  93 127 165 207 254 307 366
#
# _framework density 23.812366000000001
#
# number of rings (size 3 to 8) (size 9 to 14) (size 15 to 20)
#    0.000    1.000    0.000    6.750    0.000   10.000 
#    0.000    0.000    0.000    0.000    0.000    0.000 
#    0.000    0.000    0.000    0.000    0.000    0.000 
#
# Total GULP energy -179326.595954 kJ/mol
# GULP energy per Si atom -5603.956124 kJ/mol
# Density = 2.375817 g / cm^3
# Si number density = 23.812366 Si / 1000 Ang^3
#
#
#
# Elastic Constant Matrix: (Units=GPa)
#
#
# Indices 1 2 3 4 5 6 
#
# 1 43.0311 -8.9333 -1.9872 0.0000 0.0000 0.0000
# 2 -8.9333 56.5229 5.0584 0.0000 0.0000 0.0000
# 3 -1.9872 5.0584 73.1864 0.0000 0.0000 0.0000
# 4 0.0000 0.0000 0.0000 31.3012 0.0000 0.0000
# 5 0.0000 0.0000 0.0000 0.0000 31.6413 0.0000
# 6 0.0000 0.0000 0.0000 0.0000 0.0000 24.1311
#
#
#
# Elastic Compliance Matrix: (Units=1/GPa)
#
#
# Indices 1 2 3 4 5 6 
#
# 1 0.024039 0.003764 0.000393 0.000000 0.000000 0.000000
# 2 0.003764 0.018391 -0.001169 0.000000 0.000000 0.000000
# 3 0.000393 -0.001169 0.013755 0.000000 0.000000 0.000000
# 4 0.000000 0.000000 0.000000 0.031948 0.000000 0.000000
# 5 0.000000 0.000000 0.000000 0.000000 0.031604 0.000000
# 6 0.000000 0.000000 0.000000 0.000000 0.000000 0.041440
#
#
# Mechanical properties :
#
#
# Convention : Reuss Voigt Hill
#
# Bulk Modulus (GPa) = 16.08735 17.89070 16.98903
# Shear Modulus (GPa) = 28.42163 29.32154 28.87159
#
# Velocity S-wave (km/s) = 3.45855 3.51288 3.48582
# Velocity P-wave (km/s) = 4.76648 4.89727 4.83232
#
# Compressibility (1/GPa) = 0.06216062
#
# Stress axis : x y z
#
# Youngs Moduli (GPa) = 41.59978 54.37307 72.69984
#
# Poissons Ratio (x) = -0.20467 -0.02854
# Poissons Ratio (y) = -0.15659 0.08498
# Poissons Ratio (z) = -0.01633 0.06356
#
# Static dielectric constant tensor:
#      x y z
#    x 1.875140 0.000000 0.000000 
#    y 0.000000 1.907990 0.000000 
#    z 0.000000 0.000000 1.843690 
# 
# From -- ./inp_files/7071.got.cif
#   From: 2010.05.17/outbox.cif.g08.bks.cpg/sg19_4_cif.got.tgz:7071.got - 2010.06.03 22:46:19.
