data_PCOD9315135
_publ_section_title
;
Structure prediction by ZEFSAII (Michael W. Deem and Ramdas Pophale) SiO2 
 PCOD9315135
Probable space group: P 21 21 21
;
_chemical_formula_sum "Si O2"
_cell_formula_units_Z 32
_cell_length_a 18.836069
_cell_length_b 14.886358
_cell_length_c 5.160828
_cell_angle_alpha 90.000000
_cell_angle_beta 90.000000
_cell_angle_gamma 90.000000
_cell_volume 1447.098578
_symmetry_space_group_name_H-M "P 21 21 21"
_symmetry_group_IT_number 19
_symmetry_cell_setting 'orthorhombic'
loop_
_space_group_symop_operation_xyz
x,y,z
1/2-x,-y,1/2+z
1/2+x,1/2-y,-z
-x,1/2+y,1/2-z
loop_
_atom_site_type_symbol
_atom_site_label
_atom_site_fract_x
_atom_site_fract_y
_atom_site_fract_z
Si Si1 0.148152 0.310008 0.049567
Si Si2 0.002955 0.246177 0.974353
Si Si3 0.325926 0.800246 0.028498
Si Si4 0.089227 0.900417 0.669731
Si Si5 0.535364 0.402800 0.380407
Si Si6 0.174663 0.853166 0.144160
Si Si7 0.293859 0.500813 0.714274
Si Si8 0.392772 0.333712 0.641042
O O1 0.064797 0.300074 0.117294
O O2 0.190021 0.249984 0.258891
O O3 0.170137 0.411843 0.090329
O O4 0.159097 0.272414 0.758480
O O5 0.937181 0.212345 0.134271
O O6 0.039704 0.154278 0.883295
O O7 0.967151 0.318969 0.782356
O O8 0.396352 0.859754 0.977225
O O9 0.259512 0.858511 0.128237
O O10 0.139016 0.877872 0.420400
O O11 0.045837 0.991658 0.625275
O O12 0.137204 0.911536 0.922903
O O13 0.456286 0.373839 0.466957
O O14 0.156729 0.749481 0.057347
O O15 0.234018 0.477689 0.500852
O O16 0.345054 0.415871 0.729860
#
# Coordination Sequence:
#
# PCOD9315135 Si02
#       8
#     4   4   4   4   4   4   4   4
#     4  11  22  43  66  98 136 178 231 281 344 406
#     4  10  23  44  66 100 134 180 229 285 345 400
#     4  11  24  43  71  94 138 180 224 280 341 407
#     4  11  25  41  67  96 133 173 226 277 341 401
#     4  11  24  43  69  99 134 179 232 282 338 404
#     4  11  24  43  65  96 134 176 219 276 342 406
#     4  12  27  43  68 106 141 183 234 288 352 421
#     4  11  23  44  68  95 138 179 229 281 343 409
#
# _framework density 22.113215
#
# number of rings (size 3 to 8) (size 9 to 14) (size 15 to 20)
#    0.000    1.000    2.500    3.750    3.500    2.000 
#    4.500    0.000    0.000    0.000    0.000    0.000 
#    0.000    0.000    0.000    0.000    0.000    0.000 
#
# Total GULP energy -178554.596541 kJ/mol
# GULP energy per Si atom -5579.831142 kJ/mol
# Density = 2.206288 g / cm^3
# Si number density = 22.113215 Si / 1000 Ang^3
#
#
#
# Elastic Constant Matrix: (Units=GPa)
#
#
# Indices 1 2 3 4 5 6 
#
# 1 97.2102 81.2938 19.7280 0.0000 0.0000 0.0000
# 2 81.2938 387.2842 58.7138 0.0000 0.0000 0.0000
# 3 19.7280 58.7138 71.9319 0.0000 0.0000 0.0000
# 4 0.0000 0.0000 0.0000 19.1650 0.0000 0.0000
# 5 0.0000 0.0000 0.0000 0.0000 46.2854 0.0000
# 6 0.0000 0.0000 0.0000 0.0000 0.0000 -50.3212
#
#
#
# Elastic Compliance Matrix: (Units=1/GPa)
#
#
# Indices 1 2 3 4 5 6 
#
# 1 0.012614 -0.002423 -0.001482 0.000000 0.000000 0.000000
# 2 -0.002423 0.003412 -0.002121 0.000000 0.000000 0.000000
# 3 -0.001482 -0.002121 0.016039 0.000000 0.000000 0.000000
# 4 0.000000 0.000000 0.000000 0.052179 0.000000 0.000000
# 5 0.000000 0.000000 0.000000 0.000000 0.021605 0.000000
# 6 0.000000 0.000000 0.000000 0.000000 0.000000 -0.019872
#
#
# Mechanical properties :
#
#
# Convention : Reuss Voigt Hill
#
# Bulk Modulus (GPa) = 49.96306 97.32194 73.64250
# Shear Modulus (GPa) = 47.75579 29.47189 38.61384
#
# Velocity S-wave (km/s) = 4.65220 3.65468 4.18328
# Velocity P-wave (km/s) = 7.17638 7.86862 7.53046
#
# Compressibility (1/GPa) = 0.02001479
#
# Stress axis : x y z
#
# Youngs Moduli (GPa) = 79.27637 293.06449 62.34679
#
# Poissons Ratio (x) = 0.71015 0.09238
# Poissons Ratio (y) = 0.19210 0.13221
# Poissons Ratio (z) = 0.11746 0.62148
#
# Static dielectric constant tensor:
#      x y z
#    x 1.869640 0.000000 0.000000 
#    y 0.000000 1.782350 0.000000 
#    z 0.000000 0.000000 1.867510 
# 
# From -- ./inp_files/1811.got.cif
#   From: 2010.05.17/outbox.cif.g08.bks.cpg/sg19_1_cif.got.tgz:1811.got - 2010.06.03 22:46:19.
