data_PCOD9315704
_publ_section_title
;
Structure prediction by ZEFSAII (Michael W. Deem and Ramdas Pophale) SiO2 
 PCOD9315704
Probable space group: P 21 21 21
;
_chemical_formula_sum "Si O2"
_cell_formula_units_Z 32
_cell_length_a 14.712954
_cell_length_b 12.568910
_cell_length_c 8.047920
_cell_angle_alpha 90.000000
_cell_angle_beta 90.000000
_cell_angle_gamma 90.000000
_cell_volume 1488.268001
_symmetry_space_group_name_H-M "P 21 21 21"
_symmetry_group_IT_number 19
_symmetry_cell_setting 'orthorhombic'
loop_
_space_group_symop_operation_xyz
x,y,z
1/2-x,-y,1/2+z
1/2+x,1/2-y,-z
-x,1/2+y,1/2-z
loop_
_atom_site_type_symbol
_atom_site_label
_atom_site_fract_x
_atom_site_fract_y
_atom_site_fract_z
Si Si1 0.843620 0.532608 0.669355
Si Si2 0.574872 0.833171 0.854417
Si Si3 0.027887 0.018021 0.118408
Si Si4 0.943264 0.712643 0.858452
Si Si5 0.126692 0.797129 0.701357
Si Si6 0.365821 0.575184 0.077772
Si Si7 0.854229 0.365976 0.177248
Si Si8 0.802570 0.088137 0.643232
O O1 0.885569 0.556283 0.487742
O O2 0.904465 0.601041 0.796763
O O3 0.852437 0.407456 0.704901
O O4 0.741156 0.573081 0.686536
O O5 0.635683 0.732885 0.802803
O O6 0.536396 0.891986 0.693846
O O7 0.487581 0.797037 0.960389
O O8 0.632579 0.905320 0.981126
O O9 0.065789 0.946035 0.267692
O O10 0.965721 0.952986 0.989215
O O11 0.867268 0.803441 0.860892
O O12 0.025813 0.753598 0.742902
O O13 0.135201 0.821350 0.507662
O O14 0.191259 0.702995 0.767813
O O15 0.338034 0.497763 0.226264
O O16 0.296498 0.562866 0.925806
#
# Coordination Sequence:
#
# PCOD9315704 Si02
#       8
#     4   4   4   4   4   4   4   4
#     4  12  25  46  69 105 142 192 237 303 371 432
#     4  11  23  45  67 103 140 184 242 295 358 434
#     4  12  24  44  70 103 144 185 246 298 360 441
#     4  11  24  43  72  96 144 186 234 296 360 440
#     4  11  25  46  71 102 145 186 241 296 364 432
#     4  12  24  46  70 106 144 191 243 290 375 433
#     4  12  25  43  69 105 139 187 242 305 362 441
#     4  11  26  45  72 102 146 191 231 309 352 445
#
# _framework density 21.501505000000002
#
# number of rings (size 3 to 8) (size 9 to 14) (size 15 to 20)
#    0.000    0.500    2.500    6.750    1.750    4.000 
#    2.250    0.000    0.000    0.000    0.000    0.000 
#    0.000    0.000    0.000    0.000    0.000    0.000 
#
# Total GULP energy -179126.918796 kJ/mol
# GULP energy per Si atom -5597.716212 kJ/mol
# Density = 2.145257 g / cm^3
# Si number density = 21.501505 Si / 1000 Ang^3
#
#
#
# Elastic Constant Matrix: (Units=GPa)
#
#
# Indices 1 2 3 4 5 6 
#
# 1 65.0102 18.0549 2.0915 0.0000 0.0000 0.0000
# 2 18.0549 74.0195 7.5089 0.0000 0.0000 0.0000
# 3 2.0915 7.5089 61.7442 0.0000 0.0000 0.0000
# 4 0.0000 0.0000 0.0000 42.3379 0.0000 0.0000
# 5 0.0000 0.0000 0.0000 0.0000 27.4597 0.0000
# 6 0.0000 0.0000 0.0000 0.0000 0.0000 28.6133
#
#
#
# Elastic Compliance Matrix: (Units=1/GPa)
#
#
# Indices 1 2 3 4 5 6 
#
# 1 0.016500 -0.004018 -0.000070 0.000000 0.000000 0.000000
# 2 -0.004018 0.014657 -0.001646 0.000000 0.000000 0.000000
# 3 -0.000070 -0.001646 0.016398 0.000000 0.000000 0.000000
# 4 0.000000 0.000000 0.000000 0.023620 0.000000 0.000000
# 5 0.000000 0.000000 0.000000 0.000000 0.036417 0.000000
# 6 0.000000 0.000000 0.000000 0.000000 0.000000 0.034949
#
#
# Mechanical properties :
#
#
# Convention : Reuss Voigt Hill
#
# Bulk Modulus (GPa) = 27.71080 28.45382 28.08231
# Shear Modulus (GPa) = 30.11347 31.22341 30.66844
#
# Velocity S-wave (km/s) = 3.74642 3.81484 3.78079
# Velocity P-wave (km/s) = 5.62406 5.71543 5.66993
#
# Compressibility (1/GPa) = 0.03608701
#
# Stress axis : x y z
#
# Youngs Moduli (GPa) = 60.60510 68.22700 60.98136
#
# Poissons Ratio (x) = 0.27411 0.00429
# Poissons Ratio (y) = 0.24349 0.10040
# Poissons Ratio (z) = 0.00426 0.11233
#
# Static dielectric constant tensor:
#      x y z
#    x 1.776540 0.000000 0.000000 
#    y 0.000000 1.785830 0.000000 
#    z 0.000000 0.000000 1.770720 
# 
# From -- ./inp_files/3926.got.cif
#   From: 2010.05.17/outbox.cif.g08.bks.cpg/sg19_2_cif.got.tgz:3926.got - 2010.06.03 22:46:19.
