data_PCOD9315218
_publ_section_title
;
Structure prediction by ZEFSAII (Michael W. Deem and Ramdas Pophale) SiO2 
 PCOD9315218
Probable space group: P 21 21 21
;
_chemical_formula_sum "Si O2"
_cell_formula_units_Z 24
_cell_length_a 15.442635
_cell_length_b 7.951557
_cell_length_c 7.650232
_cell_angle_alpha 90.000000
_cell_angle_beta 90.000000
_cell_angle_gamma 90.000000
_cell_volume 939.394880
_symmetry_space_group_name_H-M "P 21 21 21"
_symmetry_group_IT_number 19
_symmetry_cell_setting 'orthorhombic'
loop_
_space_group_symop_operation_xyz
x,y,z
1/2-x,-y,1/2+z
1/2+x,1/2-y,-z
-x,1/2+y,1/2-z
loop_
_atom_site_type_symbol
_atom_site_label
_atom_site_fract_x
_atom_site_fract_y
_atom_site_fract_z
Si Si1 0.538580 0.033735 0.186933
Si Si2 0.677565 0.827366 0.369539
Si Si3 0.956995 0.993180 0.074285
Si Si4 0.576977 0.384797 0.612629
Si Si5 0.831810 0.726015 0.567497
Si Si6 0.239545 0.997825 0.209468
O O1 0.630901 0.940015 0.223909
O O2 0.503002 0.050090 0.383102
O O3 0.572739 0.205601 0.099771
O O4 0.473932 0.939412 0.060412
O O5 0.612983 0.861956 0.531103
O O6 0.773525 0.852534 0.449112
O O7 0.686518 0.640337 0.296643
O O8 0.017459 0.051588 0.228856
O O9 0.913121 0.815899 0.124253
O O10 0.670686 0.467273 0.635103
O O11 0.783874 0.680123 0.750139
O O12 0.819393 0.553382 0.456593
#
# Coordination Sequence:
#
# PCOD9315218 Si02
#       6
#     4   4   4   4   4   4
#     4  10  25  49  78 108 163 203 259 322 407 465
#     4   8  24  48  69 110 147 209 259 312 397 467
#     4  10  27  46  75 109 158 205 258 323 399 466
#     4  12  26  47  78 117 156 206 263 333 392 471
#     4  10  23  47  73 109 151 203 263 321 392 471
#     4  10  25  43  75 109 149 198 270 319 383 464
#
# _framework density 25.548362999999998
#
# number of rings (size 3 to 8) (size 9 to 14) (size 15 to 20)
#    2.000    0.000    0.000    1.000    7.000    5.333 
#    0.000    0.000    0.000    0.000    0.000    0.000 
#    0.000    0.000    0.000    0.000    0.000    0.000 
#
# Total GULP energy -133930.872957 kJ/mol
# GULP energy per Si atom -5580.453040 kJ/mol
# Density = 2.549021 g / cm^3
# Si number density = 25.548363 Si / 1000 Ang^3
#
#
#
# Elastic Constant Matrix: (Units=GPa)
#
#
# Indices 1 2 3 4 5 6 
#
# 1 89.0017 50.3918 26.0185 0.0000 0.0000 0.0000
# 2 50.3918 89.2426 19.4256 0.0000 0.0000 0.0000
# 3 26.0185 19.4256 103.1302 0.0000 0.0000 0.0000
# 4 0.0000 0.0000 0.0000 41.7860 0.0000 0.0000
# 5 0.0000 0.0000 0.0000 0.0000 49.2774 0.0000
# 6 0.0000 0.0000 0.0000 0.0000 0.0000 47.1243
#
#
#
# Elastic Compliance Matrix: (Units=1/GPa)
#
#
# Indices 1 2 3 4 5 6 
#
# 1 0.017165 -0.009124 -0.002612 0.000000 0.000000 0.000000
# 2 -0.009124 0.016534 -0.000813 0.000000 0.000000 0.000000
# 3 -0.002612 -0.000813 0.010509 0.000000 0.000000 0.000000
# 4 0.000000 0.000000 0.000000 0.023931 0.000000 0.000000
# 5 0.000000 0.000000 0.000000 0.000000 0.020293 0.000000
# 6 0.000000 0.000000 0.000000 0.000000 0.000000 0.021220
#
#
# Mechanical properties :
#
#
# Convention : Reuss Voigt Hill
#
# Bulk Modulus (GPa) = 52.32590 52.56068 52.44329
# Shear Modulus (GPa) = 35.43073 40.00678 37.71876
#
# Velocity S-wave (km/s) = 3.72803 3.96147 3.84652
# Velocity P-wave (km/s) = 6.24952 6.44531 6.34817
#
# Compressibility (1/GPa) = 0.01911100
#
# Stress axis : x y z
#
# Youngs Moduli (GPa) = 58.25733 60.48065 95.16104
#
# Poissons Ratio (x) = 0.55182 0.24856
# Poissons Ratio (y) = 0.53154 0.07732
# Poissons Ratio (z) = 0.15217 0.04914
#
# Static dielectric constant tensor:
#      x y z
#    x 1.983960 0.000000 0.000000 
#    y 0.000000 2.009650 0.000000 
#    z 0.000000 0.000000 2.131720 
# 
# From -- ./inp_files/4121.got.cif
#   From: 2010.05.17/outbox.cif.g08.bks.cpg/sg19_3_cif.got.tgz:4121.got - 2010.06.03 22:46:19.
