data_PCOD9315226
_publ_section_title
;
Structure prediction by ZEFSAII (Michael W. Deem and Ramdas Pophale) SiO2 
 PCOD9315226
Probable space group: P 21 21 21
;
_chemical_formula_sum "Si O2"
_cell_formula_units_Z 24
_cell_length_a 10.609836
_cell_length_b 8.537277
_cell_length_c 11.061777
_cell_angle_alpha 90.000000
_cell_angle_beta 90.000000
_cell_angle_gamma 90.000000
_cell_volume 1001.965903
_symmetry_space_group_name_H-M "P 21 21 21"
_symmetry_group_IT_number 19
_symmetry_cell_setting 'orthorhombic'
loop_
_space_group_symop_operation_xyz
x,y,z
1/2-x,-y,1/2+z
1/2+x,1/2-y,-z
-x,1/2+y,1/2-z
loop_
_atom_site_type_symbol
_atom_site_label
_atom_site_fract_x
_atom_site_fract_y
_atom_site_fract_z
Si Si1 0.117108 0.986783 0.610909
Si Si2 0.389820 0.021568 0.517491
Si Si3 0.014018 0.658074 0.698939
Si Si4 0.977091 0.789074 0.211553
Si Si5 0.087044 0.506233 0.091525
Si Si6 0.708707 0.837535 0.104795
O O1 0.254255 0.955057 0.557157
O O2 0.056035 0.834424 0.672449
O O3 0.104258 0.124369 0.710922
O O4 0.027197 0.031302 0.501125
O O5 0.474148 0.920465 0.426790
O O6 0.454791 0.068851 0.642331
O O7 0.363551 0.185755 0.447584
O O8 0.133385 0.596573 0.778612
O O9 0.069069 0.642671 0.190680
O O10 0.843739 0.776939 0.144159
O O11 0.938092 0.841329 0.345417
O O12 0.206589 0.537624 0.005381
#
# Coordination Sequence:
#
# PCOD9315226 Si02
#       6
#     4   4   4   4   4   4
#     4  11  25  48  75 103 148 188 251 302 364 437
#     4  11  25  46  76 105 145 192 241 310 365 433
#     4  11  25  46  77 103 142 198 240 298 380 431
#     4  11  25  45  72 102 145 189 240 301 362 430
#     4  10  25  45  69 108 137 185 243 295 364 430
#     4  10  23  48  71  99 151 184 243 304 363 433
#
# _framework density 23.952909999999999
#
# number of rings (size 3 to 8) (size 9 to 14) (size 15 to 20)
#    0.000    1.333    3.333    0.000    9.333    0.000 
#   12.000    0.000    0.000    0.000    0.000    0.000 
#    0.000    0.000    0.000    0.000    0.000    0.000 
#
# Total GULP energy -134073.749157 kJ/mol
# GULP energy per Si atom -5586.406215 kJ/mol
# Density = 2.389839 g / cm^3
# Si number density = 23.952910 Si / 1000 Ang^3
#
#
#
# Elastic Constant Matrix: (Units=GPa)
#
#
# Indices 1 2 3 4 5 6 
#
# 1 51.6573 4.2224 -8.5470 0.0000 0.0000 0.0000
# 2 4.2224 48.9779 25.6007 0.0000 0.0000 0.0000
# 3 -8.5470 25.6007 37.4213 0.0000 0.0000 0.0000
# 4 0.0000 0.0000 0.0000 50.1138 0.0000 0.0000
# 5 0.0000 0.0000 0.0000 0.0000 19.3017 0.0000
# 6 0.0000 0.0000 0.0000 0.0000 0.0000 19.0423
#
#
#
# Elastic Compliance Matrix: (Units=1/GPa)
#
#
# Indices 1 2 3 4 5 6 
#
# 1 0.021513 -0.006885 0.009624 0.000000 0.000000 0.000000
# 2 -0.006885 0.033986 -0.024823 0.000000 0.000000 0.000000
# 3 0.009624 -0.024823 0.045903 0.000000 0.000000 0.000000
# 4 0.000000 0.000000 0.000000 0.019955 0.000000 0.000000
# 5 0.000000 0.000000 0.000000 0.000000 0.051809 0.000000
# 6 0.000000 0.000000 0.000000 0.000000 0.000000 0.052515
#
#
# Mechanical properties :
#
#
# Convention : Reuss Voigt Hill
#
# Bulk Modulus (GPa) = 17.47222 20.06764 18.76993
# Shear Modulus (GPa) = 17.30541 25.47692 21.39116
#
# Velocity S-wave (km/s) = 2.69081 3.26486 2.99164
# Velocity P-wave (km/s) = 4.11876 4.75485 4.44819
#
# Compressibility (1/GPa) = 0.05723370
#
# Stress axis : x y z
#
# Youngs Moduli (GPa) = 46.48254 29.42390 21.78513
#
# Poissons Ratio (x) = 0.20259 -0.20966
# Poissons Ratio (y) = 0.32004 0.54077
# Poissons Ratio (z) = -0.44734 0.73039
#
# Static dielectric constant tensor:
#      x y z
#    x 1.919030 0.000000 0.000000 
#    y 0.000000 1.979830 0.000000 
#    z 0.000000 0.000000 1.958130 
# 
# From -- ./inp_files/4912.got.cif
#   From: 2010.05.17/outbox.cif.g08.bks.cpg/sg19_3_cif.got.tgz:4912.got - 2010.06.03 22:46:19.
