data_PCOD9315721
_publ_section_title
;
Structure prediction by ZEFSAII (Michael W. Deem and Ramdas Pophale) SiO2 
 PCOD9315721
Probable space group: P 21 21 21
;
_chemical_formula_sum "Si O2"
_cell_formula_units_Z 32
_cell_length_a 9.195768
_cell_length_b 7.415599
_cell_length_c 19.204492
_cell_angle_alpha 90.000000
_cell_angle_beta 90.000000
_cell_angle_gamma 90.000000
_cell_volume 1309.595176
_symmetry_space_group_name_H-M "P 21 21 21"
_symmetry_group_IT_number 19
_symmetry_cell_setting 'orthorhombic'
loop_
_space_group_symop_operation_xyz
x,y,z
1/2-x,-y,1/2+z
1/2+x,1/2-y,-z
-x,1/2+y,1/2-z
loop_
_atom_site_type_symbol
_atom_site_label
_atom_site_fract_x
_atom_site_fract_y
_atom_site_fract_z
Si Si1 0.790755 0.629328 0.323836
Si Si2 0.373865 0.234897 0.048568
Si Si3 0.127793 0.195172 0.844020
Si Si4 0.723867 0.890828 0.939101
Si Si5 0.169953 0.771116 0.817889
Si Si6 0.064797 0.699066 0.402419
Si Si7 0.858990 0.725462 0.807969
Si Si8 0.088558 0.288682 0.435216
O O1 0.712228 0.609031 0.398648
O O2 0.718656 0.747293 0.262625
O O3 0.767597 0.424767 0.297850
O O4 0.943081 0.719056 0.343572
O O5 0.513613 0.282098 0.094437
O O6 0.263174 0.404314 0.040553
O O7 0.424635 0.180713 0.972117
O O8 0.280147 0.273865 0.868252
O O9 0.100307 0.289285 0.769572
O O10 0.131779 0.981319 0.830088
O O11 0.794154 0.862581 0.863247
O O12 0.556863 0.830050 0.936459
O O13 0.812217 0.772345 0.995871
O O14 0.304909 0.735721 0.869105
O O15 0.020066 0.665927 0.835052
O O16 0.038306 0.496842 0.430369
#
# Coordination Sequence:
#
# PCOD9315721 Si02
#       8
#     4   4   4   4   4   4   4   4
#     4  11  25  44  69 102 139 184 231 288 353 417
#     4  11  24  45  68 101 135 185 229 284 353 414
#     4  11  25  43  69 102 139 178 230 286 353 418
#     4  11  24  45  70  98 140 183 237 282 348 418
#     4  11  25  43  71 102 135 185 232 288 353 412
#     4  11  26  43  66 103 142 180 230 287 352 425
#     4  11  23  46  71  96 136 187 232 288 346 423
#     4  11  26  45  68 102 138 186 231 287 348 423
#
# _framework density 24.435032
#
# number of rings (size 3 to 8) (size 9 to 14) (size 15 to 20)
#    0.000    1.000    3.750    1.500    7.000    2.000 
#    0.000    0.000    0.000    0.000    0.000    0.000 
#    0.000    0.000    0.000    0.000    0.000    0.000 
#
# Total GULP energy -178830.439184 kJ/mol
# GULP energy per Si atom -5588.451224 kJ/mol
# Density = 2.437942 g / cm^3
# Si number density = 24.435032 Si / 1000 Ang^3
#
#
#
# Elastic Constant Matrix: (Units=GPa)
#
#
# Indices 1 2 3 4 5 6 
#
# 1 169.0987 10.5850 76.0936 0.0000 0.0000 0.0000
# 2 10.5850 38.5168 2.1353 0.0000 0.0000 0.0000
# 3 76.0936 2.1353 100.9483 0.0000 0.0000 0.0000
# 4 0.0000 0.0000 0.0000 29.7308 0.0000 0.0000
# 5 0.0000 0.0000 0.0000 0.0000 44.8098 0.0000
# 6 0.0000 0.0000 0.0000 0.0000 0.0000 35.6845
#
#
#
# Elastic Compliance Matrix: (Units=1/GPa)
#
#
# Indices 1 2 3 4 5 6 
#
# 1 0.009120 -0.002128 -0.006830 0.000000 0.000000 0.000000
# 2 -0.002128 0.026490 0.001044 0.000000 0.000000 0.000000
# 3 -0.006830 0.001044 0.015032 0.000000 0.000000 0.000000
# 4 0.000000 0.000000 0.000000 0.033635 0.000000 0.000000
# 5 0.000000 0.000000 0.000000 0.000000 0.022317 0.000000
# 6 0.000000 0.000000 0.000000 0.000000 0.000000 0.028023
#
#
# Mechanical properties :
#
#
# Convention : Reuss Voigt Hill
#
# Bulk Modulus (GPa) = 28.72394 54.02129 41.37262
# Shear Modulus (GPa) = 30.85473 36.69500 33.77486
#
# Velocity S-wave (km/s) = 3.55734 3.87943 3.72187
# Velocity P-wave (km/s) = 5.35291 6.49790 5.95300
#
# Compressibility (1/GPa) = 0.03481416
#
# Stress axis : x y z
#
# Youngs Moduli (GPa) = 109.64619 37.75064 66.52402
#
# Poissons Ratio (x) = 0.08032 0.45434
# Poissons Ratio (y) = 0.23330 -0.06942
# Poissons Ratio (z) = 0.74885 -0.03939
#
# Static dielectric constant tensor:
#      x y z
#    x 1.953960 0.000000 0.000000 
#    y 0.000000 1.983820 0.000000 
#    z 0.000000 0.000000 1.948950 
# 
# From -- ./inp_files/7040.got.cif
#   From: 2010.05.17/outbox.cif.g08.bks.cpg/sg19_4_cif.got.tgz:7040.got - 2010.06.03 22:46:19.
