data_PCOD9315848
_publ_section_title
;
Structure prediction by ZEFSAII (Michael W. Deem and Ramdas Pophale) SiO2 
 PCOD9315848
Probable space group: P 21 21 21
;
_chemical_formula_sum "Si O2"
_cell_formula_units_Z 28
_cell_length_a 12.393469
_cell_length_b 5.293655
_cell_length_c 15.143983
_cell_angle_alpha 90.000000
_cell_angle_beta 90.000000
_cell_angle_gamma 90.000000
_cell_volume 993.547494
_symmetry_space_group_name_H-M "P 21 21 21"
_symmetry_group_IT_number 19
_symmetry_cell_setting 'orthorhombic'
loop_
_space_group_symop_operation_xyz
x,y,z
1/2-x,-y,1/2+z
1/2+x,1/2-y,-z
-x,1/2+y,1/2-z
loop_
_atom_site_type_symbol
_atom_site_label
_atom_site_fract_x
_atom_site_fract_y
_atom_site_fract_z
Si Si1 0.864757 0.397936 0.997906
Si Si2 0.121863 0.888479 0.016144
Si Si3 0.144442 0.230758 0.739521
Si Si4 0.010816 0.293665 0.140419
Si Si5 0.334147 0.892386 0.768351
Si Si6 0.760692 0.027414 0.591492
Si Si7 0.969734 0.096260 0.862215
O O1 0.745154 0.503053 0.981504
O O2 0.965362 0.475789 0.062014
O O3 0.833942 0.136380 0.048527
O O4 0.923780 0.344996 0.906642
O O5 0.055232 0.978480 0.929998
O O6 0.158008 0.605075 0.986440
O O7 0.053332 0.027847 0.094426
O O8 0.230777 0.015842 0.725189
O O9 0.183454 0.377891 0.828397
O O10 0.129515 0.411189 0.656751
O O11 0.029109 0.127312 0.769739
O O12 0.916045 0.376753 0.209883
O O13 0.112470 0.320014 0.206683
O O14 0.291974 0.765978 0.858670
#
# Coordination Sequence:
#
# PCOD9315848 Si02
#       7
#     4   4   4   4   4   4   4
#     4  11  24  48  68 106 142 186 238 306 357 442
#     4  11  24  48  68 106 142 186 238 306 357 442
#     4  12  26  48  70 109 145 189 245 308 351 448
#     4  11  25  46  72 101 146 189 238 293 375 423
#     4  12  26  48  70 109 145 189 245 308 351 448
#     4  12  22  48  72  96 148 180 236 308 360 412
#     4  11  25  46  72 101 146 189 238 293 375 423
#
# _framework density 28.181844999999999
#
# number of rings (size 3 to 8) (size 9 to 14) (size 15 to 20)
#    0.000    0.571    5.714    1.714    4.000    0.000 
#   10.286    0.000    0.000    0.000    0.000    0.000 
#    0.000    0.000    0.000    0.000    0.000    0.000 
#
# Total GULP energy -156344.191417 kJ/mol
# GULP energy per Si atom -5583.721122 kJ/mol
# Density = 2.811770 g / cm^3
# Si number density = 28.181845 Si / 1000 Ang^3
#
#
#
# Elastic Constant Matrix: (Units=GPa)
#
#
# Indices 1 2 3 4 5 6 
#
# 1 156.5324 31.8715 41.9449 0.0000 0.0000 0.0000
# 2 31.8715 53.3576 6.8069 0.0000 0.0000 0.0000
# 3 41.9449 6.8069 113.9093 0.0000 0.0000 0.0000
# 4 0.0000 0.0000 0.0000 31.8764 0.0000 0.0000
# 5 0.0000 0.0000 0.0000 0.0000 58.5989 0.0000
# 6 0.0000 0.0000 0.0000 0.0000 0.0000 54.0236
#
#
#
# Elastic Compliance Matrix: (Units=1/GPa)
#
#
# Indices 1 2 3 4 5 6 
#
# 1 0.008013 -0.004444 -0.002685 0.000000 0.000000 0.000000
# 2 -0.004444 0.021350 0.000360 0.000000 0.000000 0.000000
# 3 -0.002685 0.000360 0.009746 0.000000 0.000000 0.000000
# 4 0.000000 0.000000 0.000000 0.031371 0.000000 0.000000
# 5 0.000000 0.000000 0.000000 0.000000 0.017065 0.000000
# 6 0.000000 0.000000 0.000000 0.000000 0.000000 0.018510
#
#
# Mechanical properties :
#
#
# Convention : Reuss Voigt Hill
#
# Bulk Modulus (GPa) = 39.10489 53.89397 46.49943
# Shear Modulus (GPa) = 39.02729 45.11154 42.06941
#
# Velocity S-wave (km/s) = 3.72538 4.00525 3.86785
# Velocity P-wave (km/s) = 5.69303 6.36825 6.04008
#
# Compressibility (1/GPa) = 0.02557225
#
# Stress axis : x y z
#
# Youngs Moduli (GPa) = 124.80211 46.83905 102.60551
#
# Poissons Ratio (x) = 0.20813 0.27549
# Poissons Ratio (y) = 0.55457 -0.03699
# Poissons Ratio (z) = 0.33509 -0.01688
#
# Static dielectric constant tensor:
#      x y z
#    x 2.182300 0.000000 0.000000 
#    y 0.000000 2.334100 0.000000 
#    z 0.000000 0.000000 2.156100 
# 
# From -- ./inp_files/1755.got.cif
#   From: 2010.05.17/outbox.cif.g08.bks.cpg/sg19_1_cif.got.tgz:1755.got - 2010.06.03 22:46:19.
