data_PCOD9315967
_publ_section_title
;
Structure prediction by ZEFSAII (Michael W. Deem and Ramdas Pophale) SiO2 
 PCOD9315967
Probable space group: P 21 21 21
;
_chemical_formula_sum "Si O2"
_cell_formula_units_Z 28
_cell_length_a 9.057458
_cell_length_b 24.455689
_cell_length_c 5.135446
_cell_angle_alpha 90.000000
_cell_angle_beta 90.000000
_cell_angle_gamma 90.000000
_cell_volume 1137.534032
_symmetry_space_group_name_H-M "P 21 21 21"
_symmetry_group_IT_number 19
_symmetry_cell_setting 'orthorhombic'
loop_
_space_group_symop_operation_xyz
x,y,z
1/2-x,-y,1/2+z
1/2+x,1/2-y,-z
-x,1/2+y,1/2-z
loop_
_atom_site_type_symbol
_atom_site_label
_atom_site_fract_x
_atom_site_fract_y
_atom_site_fract_z
Si Si1 0.017101 0.821846 0.977721
Si Si2 0.602060 0.103611 0.114841
Si Si3 0.786165 0.035473 0.497571
Si Si4 0.597344 0.558957 0.795823
Si Si5 0.436218 0.953067 0.343903
Si Si6 0.398584 0.352067 0.002403
Si Si7 0.682158 0.786993 0.018610
O O1 0.984515 0.841092 0.680596
O O2 0.857340 0.797420 0.063059
O O3 0.069019 0.879543 0.099380
O O4 0.140852 0.776318 0.006681
O O5 0.683903 0.083293 0.379830
O O6 0.490954 0.061900 0.978763
O O7 0.744187 0.116053 0.941277
O O8 0.780079 0.996635 0.243862
O O9 0.947467 0.050897 0.603660
O O10 0.769844 0.551246 0.749095
O O11 0.553676 0.509085 0.988586
O O12 0.480015 0.899461 0.512431
O O13 0.412574 0.311098 0.241927
O O14 0.370530 0.318632 0.740139
#
# Coordination Sequence:
#
# PCOD9315967 Si02
#       7
#     4   4   4   4   4   4   4
#     4  11  27  52  83 122 168 221 282 356 432 502
#     4  11  27  53  82 116 168 217 283 355 418 512
#     4  12  29  48  86 118 164 231 293 335 411 522
#     4  12  31  55  79 130 181 228 280 361 448 503
#     4  12  31  52  84 123 183 228 281 359 435 532
#     4  11  26  52  81 118 158 217 292 334 427 508
#     4  11  27  50  87 121 160 216 287 358 415 509
#
# _framework density 24.614647000000001
#
# number of rings (size 3 to 8) (size 9 to 14) (size 15 to 20)
#    0.000    0.571    1.429    3.429   16.000    3.429 
#    0.000    0.000    0.000    0.000    0.000    0.000 
#    0.000    0.000    0.000    0.000    0.000    0.000 
#
# Total GULP energy -156669.152924 kJ/mol
# GULP energy per Si atom -5595.326890 kJ/mol
# Density = 2.455862 g / cm^3
# Si number density = 24.614647 Si / 1000 Ang^3
#
#
#
# Elastic Constant Matrix: (Units=GPa)
#
#
# Indices 1 2 3 4 5 6 
#
# 1 138.3415 44.7035 54.2264 0.0000 0.0000 0.0000
# 2 44.7035 156.3930 42.6465 0.0000 0.0000 0.0000
# 3 54.2264 42.6465 134.7881 0.0000 0.0000 0.0000
# 4 0.0000 0.0000 0.0000 32.8703 0.0000 0.0000
# 5 0.0000 0.0000 0.0000 0.0000 33.7742 0.0000
# 6 0.0000 0.0000 0.0000 0.0000 0.0000 46.8366
#
#
#
# Elastic Compliance Matrix: (Units=1/GPa)
#
#
# Indices 1 2 3 4 5 6 
#
# 1 0.008992 -0.001733 -0.003069 0.000000 0.000000 0.000000
# 2 -0.001733 0.007332 -0.001623 0.000000 0.000000 0.000000
# 3 -0.003069 -0.001623 0.009167 0.000000 0.000000 0.000000
# 4 0.000000 0.000000 0.000000 0.030423 0.000000 0.000000
# 5 0.000000 0.000000 0.000000 0.000000 0.029608 0.000000
# 6 0.000000 0.000000 0.000000 0.000000 0.000000 0.021351
#
#
# Mechanical properties :
#
#
# Convention : Reuss Voigt Hill
#
# Bulk Modulus (GPa) = 79.10687 79.18614 79.14651
# Shear Modulus (GPa) = 40.34350 41.89264 41.11807
#
# Velocity S-wave (km/s) = 4.05285 4.12993 4.09157
# Velocity P-wave (km/s) = 7.35586 7.41498 7.38548
#
# Compressibility (1/GPa) = 0.01264113
#
# Stress axis : x y z
#
# Youngs Moduli (GPa) = 111.21571 136.38789 109.08592
#
# Poissons Ratio (x) = 0.23640 0.33478
# Poissons Ratio (y) = 0.19277 0.17699
# Poissons Ratio (z) = 0.34132 0.22129
#
# Static dielectric constant tensor:
#      x y z
#    x 1.970340 0.000000 0.000000 
#    y 0.000000 2.028490 0.000000 
#    z 0.000000 0.000000 2.071310 
# 
# From -- ./inp_files/557.got.cif
#   From: 2010.05.17/outbox.cif.g08.bks.cpg/sg19_1_cif.got.tgz:557.got - 2010.06.03 22:46:19.
