data_PCOD9315613
_publ_section_title
;
Structure prediction by ZEFSAII (Michael W. Deem and Ramdas Pophale) SiO2 
 PCOD9315613
Probable space group: P 21 21 21
;
_chemical_formula_sum "Si O2"
_cell_formula_units_Z 28
_cell_length_a 10.320169
_cell_length_b 9.116192
_cell_length_c 11.923492
_cell_angle_alpha 90.000000
_cell_angle_beta 90.000000
_cell_angle_gamma 90.000000
_cell_volume 1121.769783
_symmetry_space_group_name_H-M "P 21 21 21"
_symmetry_group_IT_number 19
_symmetry_cell_setting 'orthorhombic'
loop_
_space_group_symop_operation_xyz
x,y,z
1/2-x,-y,1/2+z
1/2+x,1/2-y,-z
-x,1/2+y,1/2-z
loop_
_atom_site_type_symbol
_atom_site_label
_atom_site_fract_x
_atom_site_fract_y
_atom_site_fract_z
Si Si1 0.564568 0.946586 0.285935
Si Si2 0.229762 0.222240 0.111412
Si Si3 0.455597 0.421744 0.606083
Si Si4 0.167689 0.397325 0.527936
Si Si5 0.749018 0.867434 0.630301
Si Si6 0.524421 0.683189 0.743521
Si Si7 0.869000 0.574753 0.902411
O O1 0.653499 0.808302 0.323061
O O2 0.439498 0.898683 0.216380
O O3 0.548554 0.037198 0.400915
O O4 0.638013 0.063700 0.205505
O O5 0.097913 0.255887 0.174662
O O6 0.264648 0.051362 0.110426
O O7 0.218607 0.278868 0.983199
O O8 0.302818 0.445835 0.590563
O O9 0.516356 0.514425 0.707999
O O10 0.481884 0.250330 0.631826
O O11 0.523476 0.475589 0.493088
O O12 0.176139 0.484176 0.412111
O O13 0.178027 0.224538 0.541524
O O14 0.654758 0.760087 0.698079
#
# Coordination Sequence:
#
# PCOD9315613 Si02
#       7
#     4   4   4   4   4   4   4
#     4  11  22  47  69  93 140 180 226 281 346 412
#     4  11  25  43  67 103 136 181 230 286 342 408
#     4  12  26  44  72  98 140 181 231 285 339 420
#     4  11  25  44  67 101 137 187 224 280 355 401
#     4  11  22  44  72  94 133 186 223 279 348 404
#     4  12  24  45  70 101 135 182 233 286 342 413
#     4  12  26  43  69 106 139 177 233 287 344 418
#
# _framework density 24.960557000000001
#
# number of rings (size 3 to 8) (size 9 to 14) (size 15 to 20)
#    0.000    0.571    7.143    0.857    6.000    0.000 
#    0.000    0.000    0.000    0.000    0.000    0.000 
#    0.000    0.000    0.000    0.000    0.000    0.000 
#
# Total GULP energy -156645.999059 kJ/mol
# GULP energy per Si atom -5594.499966 kJ/mol
# Density = 2.490375 g / cm^3
# Si number density = 24.960557 Si / 1000 Ang^3
#
#
#
# Elastic Constant Matrix: (Units=GPa)
#
#
# Indices 1 2 3 4 5 6 
#
# 1 34.4715 3.1889 0.7988 0.0000 0.0000 0.0000
# 2 3.1889 112.1951 -13.1299 0.0000 0.0000 0.0000
# 3 0.7988 -13.1299 58.1223 0.0000 0.0000 0.0000
# 4 0.0000 0.0000 0.0000 27.0365 0.0000 0.0000
# 5 0.0000 0.0000 0.0000 0.0000 29.3602 0.0000
# 6 0.0000 0.0000 0.0000 0.0000 0.0000 32.1332
#
#
#
# Elastic Compliance Matrix: (Units=1/GPa)
#
#
# Indices 1 2 3 4 5 6 
#
# 1 0.029107 -0.000898 -0.000603 0.000000 0.000000 0.000000
# 2 -0.000898 0.009183 0.002087 0.000000 0.000000 0.000000
# 3 -0.000603 0.002087 0.017685 0.000000 0.000000 0.000000
# 4 0.000000 0.000000 0.000000 0.036987 0.000000 0.000000
# 5 0.000000 0.000000 0.000000 0.000000 0.034060 0.000000
# 6 0.000000 0.000000 0.000000 0.000000 0.000000 0.031120
#
#
# Mechanical properties :
#
#
# Convention : Reuss Voigt Hill
#
# Bulk Modulus (GPa) = 17.49899 20.72272 19.11085
# Shear Modulus (GPa) = 28.40621 31.96806 30.18714
#
# Velocity S-wave (km/s) = 3.37715 3.58263 3.48141
# Velocity P-wave (km/s) = 4.71516 5.04320 4.88194
#
# Compressibility (1/GPa) = 0.05714616
#
# Stress axis : x y z
#
# Youngs Moduli (GPa) = 34.35659 108.89959 56.54576
#
# Poissons Ratio (x) = 0.09777 0.03409
# Poissons Ratio (y) = 0.03085 -0.11800
# Poissons Ratio (z) = 0.02071 -0.22725
#
# Static dielectric constant tensor:
#      x y z
#    x 1.977380 0.000000 0.000000 
#    y 0.000000 2.032360 0.000000 
#    z 0.000000 0.000000 1.996710 
# 
# From -- ./inp_files/3429.got.cif
#   From: 2010.05.17/outbox.cif.g08.bks.cpg/sg19_2_cif.got.tgz:3429.got - 2010.06.03 22:46:19.
