data_PCOD9315602
_publ_section_title
;
Structure prediction by ZEFSAII (Michael W. Deem and Ramdas Pophale) SiO2 
 PCOD9315602
Probable space group: P 21 21 21
;
_chemical_formula_sum "Si O2"
_cell_formula_units_Z 28
_cell_length_a 8.157036
_cell_length_b 24.314589
_cell_length_c 6.572339
_cell_angle_alpha 90.000000
_cell_angle_beta 90.000000
_cell_angle_gamma 90.000000
_cell_volume 1303.524710
_symmetry_space_group_name_H-M "P 21 21 21"
_symmetry_group_IT_number 19
_symmetry_cell_setting 'orthorhombic'
loop_
_space_group_symop_operation_xyz
x,y,z
1/2-x,-y,1/2+z
1/2+x,1/2-y,-z
-x,1/2+y,1/2-z
loop_
_atom_site_type_symbol
_atom_site_label
_atom_site_fract_x
_atom_site_fract_y
_atom_site_fract_z
Si Si1 0.061033 0.735730 0.308016
Si Si2 0.918953 0.631920 0.486862
Si Si3 0.118635 0.622471 0.858434
Si Si4 0.072324 0.542641 0.238908
Si Si5 0.653820 0.217712 0.465160
Si Si6 0.640828 0.064837 0.962754
Si Si7 0.941531 0.331601 0.871876
O O1 0.054485 0.674306 0.396454
O O2 0.237240 0.746490 0.207433
O O3 0.024563 0.779632 0.482294
O O4 0.926670 0.743560 0.132005
O O5 0.954474 0.633169 0.727448
O O6 0.949040 0.571102 0.397688
O O7 0.748225 0.654490 0.404910
O O8 0.237636 0.590009 0.705128
O O9 0.085495 0.585330 0.053604
O O10 0.217755 0.676505 0.926726
O O11 0.037082 0.483130 0.145154
O O12 0.245695 0.539840 0.358449
O O13 0.508855 0.184678 0.350231
O O14 0.537827 0.114787 0.052652
#
# Coordination Sequence:
#
# PCOD9315602 Si02
#       7
#     4   4   4   4   4   4   4
#     4  12  26  41  71 100 136 181 230 289 344 425
#     4  11  27  42  64 101 142 177 230 281 352 410
#     4  11  22  44  68  96 128 174 228 281 332 410
#     4  11  22  43  71  96 130 178 230 288 338 417
#     4  12  25  43  71  99 135 182 231 279 353 408
#     4  11  22  43  71  98 127 177 235 282 344 410
#     4  12  26  44  64 102 140 181 226 292 345 418
#
# _framework density 21.480221
#
# number of rings (size 3 to 8) (size 9 to 14) (size 15 to 20)
#    0.000    0.571    5.714    2.571    6.000    1.143 
#    2.571    0.000    0.000    0.000    0.000    0.000 
#    0.000    0.000    0.000    0.000    0.000    0.000 
#
# Total GULP energy -156624.098755 kJ/mol
# GULP energy per Si atom -5593.717813 kJ/mol
# Density = 2.143133 g / cm^3
# Si number density = 21.480221 Si / 1000 Ang^3
#
#
#
# Elastic Constant Matrix: (Units=GPa)
#
#
# Indices 1 2 3 4 5 6 
#
# 1 44.6188 -16.8518 0.6602 0.0000 0.0000 0.0000
# 2 -16.8518 71.0722 4.9967 0.0000 0.0000 0.0000
# 3 0.6602 4.9967 67.0246 0.0000 0.0000 0.0000
# 4 0.0000 0.0000 0.0000 33.2844 0.0000 0.0000
# 5 0.0000 0.0000 0.0000 0.0000 25.6153 0.0000
# 6 0.0000 0.0000 0.0000 0.0000 0.0000 27.3026
#
#
#
# Elastic Compliance Matrix: (Units=1/GPa)
#
#
# Indices 1 2 3 4 5 6 
#
# 1 0.024648 0.005892 -0.000682 0.000000 0.000000 0.000000
# 2 0.005892 0.015553 -0.001218 0.000000 0.000000 0.000000
# 3 -0.000682 -0.001218 0.015017 0.000000 0.000000 0.000000
# 4 0.000000 0.000000 0.000000 0.030044 0.000000 0.000000
# 5 0.000000 0.000000 0.000000 0.000000 0.039039 0.000000
# 6 0.000000 0.000000 0.000000 0.000000 0.000000 0.036627
#
#
# Mechanical properties :
#
#
# Convention : Reuss Voigt Hill
#
# Bulk Modulus (GPa) = 15.82207 17.81398 16.81802
# Shear Modulus (GPa) = 28.73396 30.16783 29.45089
#
# Velocity S-wave (km/s) = 3.66142 3.75166 3.70681
# Velocity P-wave (km/s) = 5.02558 5.20363 5.11538
#
# Compressibility (1/GPa) = 0.06320287
#
# Stress axis : x y z
#
# Youngs Moduli (GPa) = 40.57198 64.29683 66.58955
#
# Poissons Ratio (x) = -0.37884 0.04542
# Poissons Ratio (y) = -0.23905 0.08107
# Poissons Ratio (z) = 0.02767 0.07828
#
# Static dielectric constant tensor:
#      x y z
#    x 1.794380 0.000000 0.000000 
#    y 0.000000 1.753230 0.000000 
#    z 0.000000 0.000000 1.784040 
# 
# From -- ./inp_files/545.got.cif
#   From: 2010.05.17/outbox.cif.g08.bks.cpg/sg19_1_cif.got.tgz:545.got - 2010.06.03 22:46:19.
