data_PCOD9315876
_publ_section_title
;
Structure prediction by ZEFSAII (Michael W. Deem and Ramdas Pophale) SiO2 
 PCOD9315876
Probable space group: P 21 21 21
;
_chemical_formula_sum "Si O2"
_cell_formula_units_Z 32
_cell_length_a 21.353383
_cell_length_b 5.170793
_cell_length_c 11.672762
_cell_angle_alpha 90.000000
_cell_angle_beta 90.000000
_cell_angle_gamma 90.000000
_cell_volume 1288.835449
_symmetry_space_group_name_H-M "P 21 21 21"
_symmetry_group_IT_number 19
_symmetry_cell_setting 'orthorhombic'
loop_
_space_group_symop_operation_xyz
x,y,z
1/2-x,-y,1/2+z
1/2+x,1/2-y,-z
-x,1/2+y,1/2-z
loop_
_atom_site_type_symbol
_atom_site_label
_atom_site_fract_x
_atom_site_fract_y
_atom_site_fract_z
Si Si1 0.461655 0.578835 0.252094
Si Si2 0.210806 0.869040 0.791362
Si Si3 0.352063 0.946294 0.509786
Si Si4 0.273938 0.250600 0.667481
Si Si5 0.157751 0.421105 0.329484
Si Si6 0.964856 0.783477 0.281093
Si Si7 0.582664 0.935388 0.998861
Si Si8 0.844617 0.043910 0.909393
O O1 0.484827 0.869348 0.281627
O O2 0.442784 0.455032 0.373570
O O3 0.404752 0.576649 0.158931
O O4 0.273606 0.713296 0.824548
O O5 0.174269 0.780233 0.676543
O O6 0.234228 0.160062 0.775585
O O7 0.165460 0.894393 0.896650
O O8 0.297530 0.001515 0.599866
O O9 0.408616 0.140426 0.542898
O O10 0.359461 0.642448 0.495921
O O11 0.333824 0.385475 0.722053
O O12 0.221979 0.394217 0.594343
O O13 0.101305 0.240010 0.285512
O O14 0.143348 0.550948 0.453259
O O15 0.958068 0.906818 0.407129
O O16 0.003484 0.522810 0.284054
#
# Coordination Sequence:
#
# PCOD9315876 Si02
#       8
#     4   4   4   4   4   4   4   4
#     4  12  29  50  75 106 144 198 253 307 364 432
#     4  11  25  43  72 110 146 191 235 303 378 445
#     4  12  24  46  76 107 147 192 236 297 368 462
#     4  11  25  43  72 110 146 191 235 303 378 445
#     4  11  26  46  71 107 147 190 246 306 369 444
#     4  12  29  50  75 106 144 198 253 307 364 432
#     4  12  26  50  74 103 149 196 246 299 368 440
#     4  11  26  46  71 107 147 190 246 306 369 444
#
# _framework density 24.828617000000001
#
# number of rings (size 3 to 8) (size 9 to 14) (size 15 to 20)
#    0.000    0.500    3.750    3.000   12.250    0.000 
#    0.000    0.000    0.000    0.000    0.000    0.000 
#    0.000    0.000    0.000    0.000    0.000    0.000 
#
# Total GULP energy -178467.911681 kJ/mol
# GULP energy per Si atom -5577.122240 kJ/mol
# Density = 2.477211 g / cm^3
# Si number density = 24.828617 Si / 1000 Ang^3
#
#
#
# Elastic Constant Matrix: (Units=GPa)
#
#
# Indices 1 2 3 4 5 6 
#
# 1 55.0796 16.2595 21.5092 0.0000 0.0000 0.0000
# 2 16.2595 80.5281 -1.4016 0.0000 0.0000 0.0000
# 3 21.5092 -1.4016 110.1261 0.0000 0.0000 0.0000
# 4 0.0000 0.0000 0.0000 28.6401 0.0000 0.0000
# 5 0.0000 0.0000 0.0000 0.0000 43.0815 0.0000
# 6 0.0000 0.0000 0.0000 0.0000 0.0000 32.3272
#
#
#
# Elastic Compliance Matrix: (Units=1/GPa)
#
#
# Indices 1 2 3 4 5 6 
#
# 1 0.021060 -0.004325 -0.004168 0.000000 0.000000 0.000000
# 2 -0.004325 0.013309 0.001014 0.000000 0.000000 0.000000
# 3 -0.004168 0.001014 0.009908 0.000000 0.000000 0.000000
# 4 0.000000 0.000000 0.000000 0.034916 0.000000 0.000000
# 5 0.000000 0.000000 0.000000 0.000000 0.023212 0.000000
# 6 0.000000 0.000000 0.000000 0.000000 0.000000 0.030934
#
#
# Mechanical properties :
#
#
# Convention : Reuss Voigt Hill
#
# Bulk Modulus (GPa) = 34.10840 35.38534 34.74687
# Shear Modulus (GPa) = 31.63174 34.76753 33.19963
#
# Velocity S-wave (km/s) = 3.57319 3.74612 3.66068
# Velocity P-wave (km/s) = 5.54896 5.74404 5.64734
#
# Compressibility (1/GPa) = 0.02931829
#
# Stress axis : x y z
#
# Youngs Moduli (GPa) = 47.48332 75.13765 100.93313
#
# Poissons Ratio (x) = 0.32496 0.42073
# Poissons Ratio (y) = 0.20536 -0.10235
# Poissons Ratio (z) = 0.19793 -0.07620
#
# Static dielectric constant tensor:
#      x y z
#    x 2.179410 0.000000 0.000000 
#    y 0.000000 2.018600 0.000000 
#    z 0.000000 0.000000 1.999810 
# 
# From -- ./inp_files/1168.got.cif
#   From: 2010.05.17/outbox.cif.g08.bks.cpg/sg19_1_cif.got.tgz:1168.got - 2010.06.03 22:46:19.
