data_PCOD9315575
_publ_section_title
;
Structure prediction by ZEFSAII (Michael W. Deem and Ramdas Pophale) SiO2 
 PCOD9315575
Probable space group: P 21 21 21
;
_chemical_formula_sum "Si O2"
_cell_formula_units_Z 32
_cell_length_a 6.825534
_cell_length_b 11.031918
_cell_length_c 21.759715
_cell_angle_alpha 90.000000
_cell_angle_beta 90.000000
_cell_angle_gamma 90.000000
_cell_volume 1638.478935
_symmetry_space_group_name_H-M "P 21 21 21"
_symmetry_group_IT_number 19
_symmetry_cell_setting 'orthorhombic'
loop_
_space_group_symop_operation_xyz
x,y,z
1/2-x,-y,1/2+z
1/2+x,1/2-y,-z
-x,1/2+y,1/2-z
loop_
_atom_site_type_symbol
_atom_site_label
_atom_site_fract_x
_atom_site_fract_y
_atom_site_fract_z
Si Si1 0.746632 0.483467 0.767940
Si Si2 0.471737 0.444090 0.158638
Si Si3 0.156750 0.598543 0.216527
Si Si4 0.076818 0.334209 0.829963
Si Si5 0.397024 0.176541 0.641671
Si Si6 0.713879 0.017465 0.579509
Si Si7 0.094361 0.153294 0.530443
Si Si8 0.956357 0.430008 0.528911
O O1 0.543586 0.420893 0.752213
O O2 0.688553 0.608632 0.799420
O O3 0.867699 0.503738 0.705959
O O4 0.879795 0.409858 0.815855
O O5 0.264680 0.478369 0.190839
O O6 0.516802 0.301820 0.152483
O O7 0.488093 0.514128 0.094201
O O8 0.305200 0.658911 0.265522
O O9 0.104332 0.683573 0.159050
O O10 0.207190 0.404908 0.880598
O O11 0.602484 0.114424 0.623567
O O12 0.244312 0.154790 0.587244
O O13 0.556212 0.991641 0.525615
O O14 0.900718 0.080762 0.548211
O O15 0.039073 0.293155 0.518783
O O16 0.222475 0.088218 0.477925
#
# Coordination Sequence:
#
# PCOD9315575 Si02
#       8
#     4   4   4   4   4   4   4   4
#     4  11  24  39  67  97 127 173 209 266 333 388
#     4  11  26  43  63  99 136 172 216 268 331 399
#     4  11  24  40  66 100 131 167 216 269 326 394
#     4  11  24  43  63  93 140 172 213 268 326 406
#     4  11  22  40  68  94 124 168 217 265 329 385
#     4  11  24  42  66  91 128 171 218 273 326 384
#     4  11  22  41  68  93 124 162 220 277 319 376
#     4  11  24  42  65  95 126 169 221 270 326 382
#
# _framework density 19.530307000000001
#
# number of rings (size 3 to 8) (size 9 to 14) (size 15 to 20)
#    0.000    1.000    6.250    0.000    3.500    1.000 
#    2.250    0.000    0.000    0.000    0.000    0.000 
#    0.000    0.000    0.000    0.000    0.000    0.000 
#
# Total GULP energy -178647.990417 kJ/mol
# GULP energy per Si atom -5582.749701 kJ/mol
# Density = 1.948586 g / cm^3
# Si number density = 19.530307 Si / 1000 Ang^3
#
#
#
# Elastic Constant Matrix: (Units=GPa)
#
#
# Indices 1 2 3 4 5 6 
#
# 1 106.6028 31.0385 20.0831 0.0000 0.0000 0.0000
# 2 31.0385 80.2642 19.2640 0.0000 0.0000 0.0000
# 3 20.0831 19.2640 77.7100 0.0000 0.0000 0.0000
# 4 0.0000 0.0000 0.0000 27.3603 0.0000 0.0000
# 5 0.0000 0.0000 0.0000 0.0000 22.1514 0.0000
# 6 0.0000 0.0000 0.0000 0.0000 0.0000 20.4399
#
#
#
# Elastic Compliance Matrix: (Units=1/GPa)
#
#
# Indices 1 2 3 4 5 6 
#
# 1 0.010821 -0.003735 -0.001870 0.000000 0.000000 0.000000
# 2 -0.003735 0.014537 -0.002638 0.000000 0.000000 0.000000
# 3 -0.001870 -0.002638 0.014006 0.000000 0.000000 0.000000
# 4 0.000000 0.000000 0.000000 0.036549 0.000000 0.000000
# 5 0.000000 0.000000 0.000000 0.000000 0.045144 0.000000
# 6 0.000000 0.000000 0.000000 0.000000 0.000000 0.048924
#
#
# Mechanical properties :
#
#
# Convention : Reuss Voigt Hill
#
# Bulk Modulus (GPa) = 43.71627 45.03866 44.37747
# Shear Modulus (GPa) = 25.76085 26.93642 26.34863
#
# Velocity S-wave (km/s) = 3.63577 3.71780 3.67702
# Velocity P-wave (km/s) = 6.32910 6.44518 6.38740
#
# Compressibility (1/GPa) = 0.02287478
#
# Stress axis : x y z
#
# Youngs Moduli (GPa) = 92.41625 68.79207 71.39934
#
# Poissons Ratio (x) = 0.25697 0.13355
# Poissons Ratio (y) = 0.34522 0.18836
# Poissons Ratio (z) = 0.17286 0.18149
#
# Static dielectric constant tensor:
#      x y z
#    x 1.691770 0.000000 0.000000 
#    y 0.000000 1.688240 0.000000 
#    z 0.000000 0.000000 1.707360 
# 
# From -- ./inp_files/1983.got.cif
#   From: 2010.05.17/outbox.cif.g08.bks.cpg/sg19_1_cif.got.tgz:1983.got - 2010.06.03 22:46:19.
