data_PCOD9315851
_publ_section_title
;
Structure prediction by ZEFSAII (Michael W. Deem and Ramdas Pophale) SiO2 
 PCOD9315851
Probable space group: P 21 21 21
;
_chemical_formula_sum "Si O2"
_cell_formula_units_Z 24
_cell_length_a 13.814234
_cell_length_b 9.627098
_cell_length_c 8.613954
_cell_angle_alpha 90.000000
_cell_angle_beta 90.000000
_cell_angle_gamma 90.000000
_cell_volume 1145.578223
_symmetry_space_group_name_H-M "P 21 21 21"
_symmetry_group_IT_number 19
_symmetry_cell_setting 'orthorhombic'
loop_
_space_group_symop_operation_xyz
x,y,z
1/2-x,-y,1/2+z
1/2+x,1/2-y,-z
-x,1/2+y,1/2-z
loop_
_atom_site_type_symbol
_atom_site_label
_atom_site_fract_x
_atom_site_fract_y
_atom_site_fract_z
Si Si1 0.586780 0.016988 0.843604
Si Si2 0.579748 0.698764 0.794419
Si Si3 0.218815 0.671493 0.682259
Si Si4 0.086355 0.442181 0.793066
Si Si5 0.888034 0.400069 0.631466
Si Si6 0.780517 0.688479 0.639959
O O1 0.497593 0.117130 0.807447
O O2 0.684243 0.086149 0.776323
O O3 0.570117 0.864124 0.777059
O O4 0.598331 0.006695 0.029583
O O5 0.688720 0.659202 0.747721
O O6 0.566410 0.656263 0.972823
O O7 0.132275 0.559523 0.682756
O O8 0.189406 0.790143 0.803527
O O9 0.239445 0.743332 0.517731
O O10 0.147965 0.300773 0.782534
O O11 0.975096 0.416192 0.753710
O O12 0.838150 0.548216 0.605782
#
# Coordination Sequence:
#
# PCOD9315851 Si02
#       6
#     4   4   4   4   4   4
#     4  11  27  45  70 102 141 183 234 287 352 411
#     4  12  27  44  70 105 138 182 233 290 349 414
#     4  11  24  49  71  97 142 184 231 287 351 420
#     4  11  24  48  71  99 140 189 231 281 351 422
#     4  12  26  44  73 106 137 182 232 289 351 421
#     4  11  26  44  71 103 142 180 233 292 346 414
#
# _framework density 20.950119999999998
#
# number of rings (size 3 to 8) (size 9 to 14) (size 15 to 20)
#    0.000    0.667    3.333    3.000    9.333    1.333 
#    0.000    0.000    0.000    0.000    0.000    0.000 
#    0.000    0.000    0.000    0.000    0.000    0.000 
#
# Total GULP energy -134348.588138 kJ/mol
# GULP energy per Si atom -5597.857839 kJ/mol
# Density = 2.090244 g / cm^3
# Si number density = 20.950120 Si / 1000 Ang^3
#
#
#
# Elastic Constant Matrix: (Units=GPa)
#
#
# Indices 1 2 3 4 5 6 
#
# 1 91.3512 47.1607 12.9551 0.0000 0.0000 0.0000
# 2 47.1607 132.3331 16.8857 0.0000 0.0000 0.0000
# 3 12.9551 16.8857 34.4902 0.0000 0.0000 0.0000
# 4 0.0000 0.0000 0.0000 31.3042 0.0000 0.0000
# 5 0.0000 0.0000 0.0000 0.0000 34.9954 0.0000
# 6 0.0000 0.0000 0.0000 0.0000 0.0000 42.6900
#
#
#
# Elastic Compliance Matrix: (Units=1/GPa)
#
#
# Indices 1 2 3 4 5 6 
#
# 1 0.013688 -0.004503 -0.002937 0.000000 0.000000 0.000000
# 2 -0.004503 0.009542 -0.002980 0.000000 0.000000 0.000000
# 3 -0.002937 -0.002980 0.031556 0.000000 0.000000 0.000000
# 4 0.000000 0.000000 0.000000 0.031945 0.000000 0.000000
# 5 0.000000 0.000000 0.000000 0.000000 0.028575 0.000000
# 6 0.000000 0.000000 0.000000 0.000000 0.000000 0.023425
#
#
# Mechanical properties :
#
#
# Convention : Reuss Voigt Hill
#
# Bulk Modulus (GPa) = 29.45892 45.79750 37.62821
# Shear Modulus (GPa) = 29.25934 33.87612 31.56773
#
# Velocity S-wave (km/s) = 3.74119 4.02554 3.88597
# Velocity P-wave (km/s) = 5.72311 6.59654 6.17529
#
# Compressibility (1/GPa) = 0.03394558
#
# Stress axis : x y z
#
# Youngs Moduli (GPa) = 73.05574 104.80130 31.68998
#
# Poissons Ratio (x) = 0.47197 0.09306
# Poissons Ratio (y) = 0.32900 0.09443
# Poissons Ratio (z) = 0.21454 0.31230
#
# Static dielectric constant tensor:
#      x y z
#    x 1.709410 0.000000 0.000000 
#    y 0.000000 1.726690 0.000000 
#    z 0.000000 0.000000 1.736630 
# 
# From -- ./inp_files/2670.got.cif
#   From: 2010.05.17/outbox.cif.g08.bks.cpg/sg19_2_cif.got.tgz:2670.got - 2010.06.03 22:46:19.
