data_PCOD9315258
_publ_section_title
;
Structure prediction by ZEFSAII (Michael W. Deem and Ramdas Pophale) SiO2 
 PCOD9315258
Probable space group: P 21 21 21
;
_chemical_formula_sum "Si O2"
_cell_formula_units_Z 24
_cell_length_a 17.993823
_cell_length_b 5.610703
_cell_length_c 9.589651
_cell_angle_alpha 90.000000
_cell_angle_beta 90.000000
_cell_angle_gamma 90.000000
_cell_volume 968.151954
_symmetry_space_group_name_H-M "P 21 21 21"
_symmetry_group_IT_number 19
_symmetry_cell_setting 'orthorhombic'
loop_
_space_group_symop_operation_xyz
x,y,z
1/2-x,-y,1/2+z
1/2+x,1/2-y,-z
-x,1/2+y,1/2-z
loop_
_atom_site_type_symbol
_atom_site_label
_atom_site_fract_x
_atom_site_fract_y
_atom_site_fract_z
Si Si1 0.562031 0.226603 0.392876
Si Si2 0.080956 0.514424 0.341527
Si Si3 0.915065 0.044119 0.625179
Si Si4 0.318977 0.082454 0.202913
Si Si5 0.806494 0.672397 0.512755
Si Si6 0.405239 0.991933 0.714490
O O1 0.581712 0.009321 0.492279
O O2 0.486698 0.346448 0.449108
O O3 0.629960 0.406583 0.386952
O O4 0.550484 0.148842 0.233374
O O5 0.114645 0.763568 0.292527
O O6 0.994277 0.517020 0.298618
O O7 0.114815 0.264698 0.284137
O O8 0.871520 0.229228 0.720961
O O9 0.853807 0.912550 0.533515
O O10 0.286195 0.930665 0.334681
O O11 0.259583 0.192101 0.097529
O O12 0.865551 0.500247 0.435380
#
# Coordination Sequence:
#
# PCOD9315258 Si02
#       6
#     4   4   4   4   4   4
#     4  11  24  43  76 113 148 208 267 335 396 481
#     4  10  24  41  74 110 154 198 261 331 395 469
#     4  11  25  46  79 111 150 211 271 337 396 491
#     4  11  27  50  74 109 159 200 274 322 412 482
#     4  11  28  48  75 109 155 214 259 337 408 493
#     4  10  24  44  70 112 150 203 256 324 401 472
#
# _framework density 24.789498999999999
#
# number of rings (size 3 to 8) (size 9 to 14) (size 15 to 20)
#    0.000    1.333    1.667    1.000   16.333    2.667 
#    0.000    0.000    0.000    0.000    0.000    0.000 
#    0.000    0.000    0.000    0.000    0.000    0.000 
#
# Total GULP energy -134395.323588 kJ/mol
# GULP energy per Si atom -5599.805149 kJ/mol
# Density = 2.473308 g / cm^3
# Si number density = 24.789499 Si / 1000 Ang^3
#
#
#
# Elastic Constant Matrix: (Units=GPa)
#
#
# Indices 1 2 3 4 5 6 
#
# 1 82.9335 17.4213 21.8565 0.0000 0.0000 0.0000
# 2 17.4213 90.6653 22.5600 0.0000 0.0000 0.0000
# 3 21.8565 22.5600 78.4703 0.0000 0.0000 0.0000
# 4 0.0000 0.0000 0.0000 49.8734 0.0000 0.0000
# 5 0.0000 0.0000 0.0000 0.0000 45.8935 0.0000
# 6 0.0000 0.0000 0.0000 0.0000 0.0000 12.6712
#
#
#
# Elastic Compliance Matrix: (Units=1/GPa)
#
#
# Indices 1 2 3 4 5 6 
#
# 1 0.013268 -0.001755 -0.003191 0.000000 0.000000 0.000000
# 2 -0.001755 0.012112 -0.002993 0.000000 0.000000 0.000000
# 3 -0.003191 -0.002993 0.014493 0.000000 0.000000 0.000000
# 4 0.000000 0.000000 0.000000 0.020051 0.000000 0.000000
# 5 0.000000 0.000000 0.000000 0.000000 0.021790 0.000000
# 6 0.000000 0.000000 0.000000 0.000000 0.000000 0.078919
#
#
# Mechanical properties :
#
#
# Convention : Reuss Voigt Hill
#
# Bulk Modulus (GPa) = 41.67793 41.74939 41.71366
# Shear Modulus (GPa) = 27.09906 34.36970 30.73438
#
# Velocity S-wave (km/s) = 3.30989 3.72756 3.52492
# Velocity P-wave (km/s) = 5.60860 5.95016 5.78191
#
# Compressibility (1/GPa) = 0.02399351
#
# Stress axis : x y z
#
# Youngs Moduli (GPa) = 75.37212 82.56515 68.99921
#
# Poissons Ratio (x) = 0.14493 0.22016
# Poissons Ratio (y) = 0.13231 0.20652
# Poissons Ratio (z) = 0.24049 0.24713
#
# Static dielectric constant tensor:
#      x y z
#    x 1.921820 0.000000 0.000000 
#    y 0.000000 1.995670 0.000000 
#    z 0.000000 0.000000 1.990200 
# 
# From -- ./inp_files/4094.got.cif
#   From: 2010.05.17/outbox.cif.g08.bks.cpg/sg19_3_cif.got.tgz:4094.got - 2010.06.03 22:46:19.
