data_PCOD9315936
_publ_section_title
;
Structure prediction by ZEFSAII (Michael W. Deem and Ramdas Pophale) SiO2 
 PCOD9315936
Probable space group: P 21 21 21
;
_chemical_formula_sum "Si O2"
_cell_formula_units_Z 24
_cell_length_a 4.994637
_cell_length_b 9.095560
_cell_length_c 19.642185
_cell_angle_alpha 90.000000
_cell_angle_beta 90.000000
_cell_angle_gamma 90.000000
_cell_volume 892.325225
_symmetry_space_group_name_H-M "P 21 21 21"
_symmetry_group_IT_number 19
_symmetry_cell_setting 'orthorhombic'
loop_
_space_group_symop_operation_xyz
x,y,z
1/2-x,-y,1/2+z
1/2+x,1/2-y,-z
-x,1/2+y,1/2-z
loop_
_atom_site_type_symbol
_atom_site_label
_atom_site_fract_x
_atom_site_fract_y
_atom_site_fract_z
Si Si1 0.216199 0.265221 0.544412
Si Si2 0.650439 0.958941 0.129749
Si Si3 0.666631 0.536525 0.250000
Si Si4 0.716203 0.234779 0.044412
Si Si5 0.974126 0.803005 0.250000
Si Si6 0.650439 0.958941 0.370252
O O1 0.494924 0.206042 0.514581
O O2 0.059439 0.145970 0.590645
O O3 0.279867 0.419907 0.580663
O O4 0.840875 0.866712 0.180677
O O5 0.486142 0.063367 0.181358
O O6 0.779866 0.080093 0.080663
O O7 0.934395 0.630584 0.250000
O O8 0.513858 0.563367 0.181358
O O9 0.728608 0.363344 0.250000
O O10 0.559441 0.354030 0.090645
O O11 0.494931 0.206044 0.985417
O O12 0.840875 0.866711 0.319324
#
# Coordination Sequence:
#
# PCOD9315936 Si02
#       6
#     4   4   4   4   4   4
#     4  12  28  47  74 105 148 198 242 296 360 438
#     4  11  26  46  70 106 146 187 250 298 368 431
#     4  11  26  44  75 105 143 189 240 315 364 427
#     4  12  28  47  74 105 148 198 242 296 360 438
#     4  11  26  44  75 105 143 189 240 315 364 427
#     4  11  26  46  70 106 146 187 250 298 368 431
#
# _framework density 26.896021999999999
#
# number of rings (size 3 to 8) (size 9 to 14) (size 15 to 20)
#    0.000    0.667    3.333    2.000   14.000    0.000 
#    0.000    0.000    0.000    0.000    0.000    0.000 
#    0.000    0.000    0.000    0.000    0.000    0.000 
#
# Total GULP energy -134561.574134 kJ/mol
# GULP energy per Si atom -5606.732256 kJ/mol
# Density = 2.683481 g / cm^3
# Si number density = 26.896022 Si / 1000 Ang^3
#
#
#
# Elastic Constant Matrix: (Units=GPa)
#
#
# Indices 1 2 3 4 5 6 
#
# 1 73.6469 2.4694 15.0589 0.0000 0.0000 0.0000
# 2 2.4694 121.2748 45.7449 0.0000 0.0000 0.0000
# 3 15.0589 45.7449 110.5622 0.0000 0.0000 0.0000
# 4 0.0000 0.0000 0.0000 27.3293 0.0000 0.0000
# 5 0.0000 0.0000 0.0000 0.0000 27.8344 0.0000
# 6 0.0000 0.0000 0.0000 0.0000 0.0000 46.6879
#
#
#
# Elastic Compliance Matrix: (Units=1/GPa)
#
#
# Indices 1 2 3 4 5 6 
#
# 1 0.013994 0.000514 -0.002119 0.000000 0.000000 0.000000
# 2 0.000514 0.009789 -0.004120 0.000000 0.000000 0.000000
# 3 -0.002119 -0.004120 0.011038 0.000000 0.000000 0.000000
# 4 0.000000 0.000000 0.000000 0.036591 0.000000 0.000000
# 5 0.000000 0.000000 0.000000 0.000000 0.035927 0.000000
# 6 0.000000 0.000000 0.000000 0.000000 0.000000 0.021419
#
#
# Mechanical properties :
#
#
# Convention : Reuss Voigt Hill
#
# Bulk Modulus (GPa) = 42.78643 48.00337 45.39490
# Shear Modulus (GPa) = 33.78403 36.51770 35.15087
#
# Velocity S-wave (km/s) = 3.54799 3.68874 3.61905
# Velocity P-wave (km/s) = 5.72075 6.00241 5.86327
#
# Compressibility (1/GPa) = 0.02337190
#
# Stress axis : x y z
#
# Youngs Moduli (GPa) = 71.45756 102.15040 90.59537
#
# Poissons Ratio (x) = -0.05253 0.19196
# Poissons Ratio (y) = -0.03675 0.37329
# Poissons Ratio (z) = 0.15141 0.42090
#
# Static dielectric constant tensor:
#      x y z
#    x 2.026010 0.000000 0.000000 
#    y 0.000000 1.988300 0.000000 
#    z 0.000000 0.000000 2.178050 
# 
# From -- ./inp_files/417.got.cif
#   From: 2010.05.17/outbox.cif.g08.bks.cpg/sg19_1_cif.got.tgz:417.got - 2010.06.03 22:46:19.
