data_PCOD9315494
_publ_section_title
;
Structure prediction by ZEFSAII (Michael W. Deem and Ramdas Pophale) SiO2 
 PCOD9315494
Probable space group: P 21 21 21
;
_chemical_formula_sum "Si O2"
_cell_formula_units_Z 32
_cell_length_a 6.210737
_cell_length_b 12.383897
_cell_length_c 21.900527
_cell_angle_alpha 90.000000
_cell_angle_beta 90.000000
_cell_angle_gamma 90.000000
_cell_volume 1684.438021
_symmetry_space_group_name_H-M "P 21 21 21"
_symmetry_group_IT_number 19
_symmetry_cell_setting 'orthorhombic'
loop_
_space_group_symop_operation_xyz
x,y,z
1/2-x,-y,1/2+z
1/2+x,1/2-y,-z
-x,1/2+y,1/2-z
loop_
_atom_site_type_symbol
_atom_site_label
_atom_site_fract_x
_atom_site_fract_y
_atom_site_fract_z
Si Si1 0.631151 0.639456 0.662106
Si Si2 0.970965 0.130957 0.193137
Si Si3 0.241845 0.488896 0.705487
Si Si4 0.871543 0.454869 0.610166
Si Si5 0.427209 0.869559 0.218269
Si Si6 0.452678 0.100126 0.639901
Si Si7 0.452360 0.194151 0.505127
Si Si8 0.717818 0.290702 0.702939
O O1 0.591295 0.766214 0.652849
O O2 0.417360 0.573598 0.680353
O O3 0.760841 0.572896 0.610791
O O4 0.772059 0.637366 0.723703
O O5 0.841061 0.110206 0.256679
O O6 0.190521 0.164239 0.228389
O O7 0.965514 0.019621 0.156510
O O8 0.089186 0.460948 0.649462
O O9 0.102604 0.547733 0.757285
O O10 0.918670 0.394371 0.547754
O O11 0.710635 0.382882 0.651921
O O12 0.295100 0.905658 0.159973
O O13 0.546445 0.760527 0.201479
O O14 0.475653 0.139139 0.571139
O O15 0.562725 0.192729 0.682174
O O16 0.702748 0.247188 0.494801
#
# Coordination Sequence:
#
# PCOD9315494 Si02
#       8
#     4   4   4   4   4   4   4   4
#     4  11  22  37  62  96 135 183 213 272 358 419
#     4  12  20  39  63  97 143 169 220 283 355 430
#     4  11  21  38  62  95 135 176 219 283 342 425
#     4  11  25  40  67  93 133 180 235 281 349 412
#     4  11  19  38  59  98 133 170 218 272 355 415
#     4  12  25  42  66 100 137 177 233 290 347 417
#     4  12  29  50  75 103 136 187 247 305 349 406
#     4  12  21  38  62  98 132 170 215 284 349 412
#
# _framework density 18.997433000000001
#
# number of rings (size 3 to 8) (size 9 to 14) (size 15 to 20)
#    0.000    0.500    7.500    2.250    3.500    0.000 
#    0.000    0.000    2.750    0.000    0.000    0.000 
#    0.000    0.000    0.000    0.000    0.000    0.000 
#
# Total GULP energy -178165.355954 kJ/mol
# GULP energy per Si atom -5567.667374 kJ/mol
# Density = 1.895419 g / cm^3
# Si number density = 18.997433 Si / 1000 Ang^3
#
#
#
# Elastic Constant Matrix: (Units=GPa)
#
#
# Indices 1 2 3 4 5 6 
#
# 1 83.7496 44.7863 27.0152 0.0000 0.0000 0.0000
# 2 44.7863 128.2846 46.0104 0.0000 0.0000 0.0000
# 3 27.0152 46.0104 95.2345 0.0000 0.0000 0.0000
# 4 0.0000 0.0000 0.0000 36.0348 0.0000 0.0000
# 5 0.0000 0.0000 0.0000 0.0000 14.8928 0.0000
# 6 0.0000 0.0000 0.0000 0.0000 0.0000 28.7890
#
#
#
# Elastic Compliance Matrix: (Units=1/GPa)
#
#
# Indices 1 2 3 4 5 6 
#
# 1 0.015017 -0.004494 -0.002089 0.000000 0.000000 0.000000
# 2 -0.004494 0.010774 -0.003930 0.000000 0.000000 0.000000
# 3 -0.002089 -0.003930 0.012992 0.000000 0.000000 0.000000
# 4 0.000000 0.000000 0.000000 0.027751 0.000000 0.000000
# 5 0.000000 0.000000 0.000000 0.000000 0.067146 0.000000
# 6 0.000000 0.000000 0.000000 0.000000 0.000000 0.034735
#
#
# Mechanical properties :
#
#
# Convention : Reuss Voigt Hill
#
# Bulk Modulus (GPa) = 56.31609 60.32138 58.31873
# Shear Modulus (GPa) = 25.59378 28.57380 27.08379
#
# Velocity S-wave (km/s) = 3.67444 3.88246 3.77988
# Velocity P-wave (km/s) = 6.90727 7.20551 7.05796
#
# Compressibility (1/GPa) = 0.01775692
#
# Stress axis : x y z
#
# Youngs Moduli (GPa) = 66.59046 92.81973 76.97151
#
# Poissons Ratio (x) = 0.41709 0.16079
# Poissons Ratio (y) = 0.29922 0.30252
# Poissons Ratio (z) = 0.13911 0.36481
#
# Static dielectric constant tensor:
#      x y z
#    x 1.810810 0.000000 0.000000 
#    y 0.000000 1.741700 0.000000 
#    z 0.000000 0.000000 1.616630 
# 
# From -- ./inp_files/1296.got.cif
#   From: 2010.05.17/outbox.cif.g08.bks.cpg/sg19_1_cif.got.tgz:1296.got - 2010.06.03 22:46:19.
