data_PCOD9315949
_publ_section_title
;
Structure prediction by ZEFSAII (Michael W. Deem and Ramdas Pophale) SiO2 
 PCOD9315949
Probable space group: P 21 21 21
;
_chemical_formula_sum "Si O2"
_cell_formula_units_Z 28
_cell_length_a 4.987721
_cell_length_b 25.530793
_cell_length_c 8.348608
_cell_angle_alpha 90.000000
_cell_angle_beta 90.000000
_cell_angle_gamma 90.000000
_cell_volume 1063.115687
_symmetry_space_group_name_H-M "P 21 21 21"
_symmetry_group_IT_number 19
_symmetry_cell_setting 'orthorhombic'
loop_
_space_group_symop_operation_xyz
x,y,z
1/2-x,-y,1/2+z
1/2+x,1/2-y,-z
-x,1/2+y,1/2-z
loop_
_atom_site_type_symbol
_atom_site_label
_atom_site_fract_x
_atom_site_fract_y
_atom_site_fract_z
Si Si1 0.476791 0.723308 0.928602
Si Si2 0.513279 0.624599 0.403583
Si Si3 0.773599 0.261655 0.899260
Si Si4 0.006553 0.494948 0.460518
Si Si5 0.484258 0.400431 0.107980
Si Si6 0.846741 0.564124 0.169216
Si Si7 0.290907 0.383915 0.451208
O O1 0.370841 0.734369 0.749800
O O2 0.421656 0.662548 0.964455
O O3 0.777677 0.742565 0.958246
O O4 0.609302 0.681855 0.353635
O O5 0.220103 0.624385 0.478823
O O6 0.580784 0.585151 0.259284
O O7 0.714358 0.606947 0.546286
O O8 0.535992 0.267107 0.030195
O O9 0.083329 0.537566 0.595144
O O10 0.166770 0.441746 0.443184
O O11 0.990097 0.528703 0.300704
O O12 0.721658 0.472476 0.519282
O O13 0.444852 0.377679 0.283312
O O14 0.013483 0.613082 0.103462
#
# Coordination Sequence:
#
# PCOD9315949 Si02
#       7
#     4   4   4   4   4   4   4
#     4  12  29  49  74 112 150 195 253 310 370 436
#     4  11  26  47  74 104 148 191 244 300 370 431
#     4  12  25  48  77 106 146 194 251 305 364 435
#     4  11  27  44  73 105 148 191 245 301 371 451
#     4  11  27  46  74 110 144 191 244 297 369 448
#     4  11  27  45  72 107 149 194 245 302 373 449
#     4  12  27  45  76 102 151 194 246 305 373 434
#
# _framework density 26.337678
#
# number of rings (size 3 to 8) (size 9 to 14) (size 15 to 20)
#    0.000    0.571    0.000    6.000   20.000    0.000 
#    0.000    0.000    0.000    0.000    0.000    0.000 
#    0.000    0.000    0.000    0.000    0.000    0.000 
#
# Total GULP energy -157096.739327 kJ/mol
# GULP energy per Si atom -5610.597833 kJ/mol
# Density = 2.627773 g / cm^3
# Si number density = 26.337678 Si / 1000 Ang^3
#
#
#
# Elastic Constant Matrix: (Units=GPa)
#
#
# Indices 1 2 3 4 5 6 
#
# 1 71.3970 10.8820 13.6907 0.0000 0.0000 0.0000
# 2 10.8820 118.3504 12.0649 0.0000 0.0000 0.0000
# 3 13.6907 12.0649 103.5596 0.0000 0.0000 0.0000
# 4 0.0000 0.0000 0.0000 36.0491 0.0000 0.0000
# 5 0.0000 0.0000 0.0000 0.0000 37.8533 0.0000
# 6 0.0000 0.0000 0.0000 0.0000 0.0000 40.1927
#
#
#
# Elastic Compliance Matrix: (Units=1/GPa)
#
#
# Indices 1 2 3 4 5 6 
#
# 1 0.014524 -0.001153 -0.001786 0.000000 0.000000 0.000000
# 2 -0.001153 0.008643 -0.000854 0.000000 0.000000 0.000000
# 3 -0.001786 -0.000854 0.009992 0.000000 0.000000 0.000000
# 4 0.000000 0.000000 0.000000 0.027740 0.000000 0.000000
# 5 0.000000 0.000000 0.000000 0.000000 0.026418 0.000000
# 6 0.000000 0.000000 0.000000 0.000000 0.000000 0.024880
#
#
# Mechanical properties :
#
#
# Convention : Reuss Voigt Hill
#
# Bulk Modulus (GPa) = 39.10567 40.73137 39.91852
# Shear Modulus (GPa) = 38.96874 39.93031 39.44953
#
# Velocity S-wave (km/s) = 3.85071 3.89793 3.87439
# Velocity P-wave (km/s) = 5.88648 5.97972 5.93328
#
# Compressibility (1/GPa) = 0.02557174
#
# Stress axis : x y z
#
# Youngs Moduli (GPa) = 68.84958 115.70539 100.08112
#
# Poissons Ratio (x) = 0.13346 0.17872
# Poissons Ratio (y) = 0.07941 0.08551
# Poissons Ratio (z) = 0.12295 0.09886
#
# Static dielectric constant tensor:
#      x y z
#    x 2.062760 0.000000 0.000000 
#    y 0.000000 2.048860 0.000000 
#    z 0.000000 0.000000 2.064040 
# 
# From -- ./inp_files/2432.got.cif
#   From: 2010.05.17/outbox.cif.g08.bks.cpg/sg19_2_cif.got.tgz:2432.got - 2010.06.03 22:46:19.
