data_PCOD9315922
_publ_section_title
;
Structure prediction by ZEFSAII (Michael W. Deem and Ramdas Pophale) SiO2 
 PCOD9315922
Probable space group: P 21 21 21
;
_chemical_formula_sum "Si O2"
_cell_formula_units_Z 28
_cell_length_a 9.751958
_cell_length_b 5.015324
_cell_length_c 20.408529
_cell_angle_alpha 90.000000
_cell_angle_beta 90.000000
_cell_angle_gamma 90.000000
_cell_volume 998.165419
_symmetry_space_group_name_H-M "P 21 21 21"
_symmetry_group_IT_number 19
_symmetry_cell_setting 'orthorhombic'
loop_
_space_group_symop_operation_xyz
x,y,z
1/2-x,-y,1/2+z
1/2+x,1/2-y,-z
-x,1/2+y,1/2-z
loop_
_atom_site_type_symbol
_atom_site_label
_atom_site_fract_x
_atom_site_fract_y
_atom_site_fract_z
Si Si1 0.261744 0.350054 0.075998
Si Si2 0.819367 0.200979 0.186899
Si Si3 0.674097 0.757646 0.029697
Si Si4 0.585438 0.022199 0.813881
Si Si5 0.962617 0.863982 0.080047
Si Si6 0.481406 0.797164 0.287170
Si Si7 0.924948 0.613460 0.889135
O O1 0.155725 0.279821 0.133906
O O2 0.342921 0.611372 0.103291
O O3 0.355388 0.098188 0.060659
O O4 0.192614 0.469544 0.011662
O O5 0.821505 0.002257 0.249438
O O6 0.935015 0.403896 0.211399
O O7 0.880603 0.092613 0.119359
O O8 0.668054 0.310854 0.180920
O O9 0.829191 0.695967 0.054018
O O10 0.579832 0.818227 0.092084
O O11 0.569190 0.593711 0.980573
O O12 0.550805 0.780266 0.863272
O O13 0.528340 0.098935 0.275789
O O14 0.575053 0.595678 0.328952
#
# Coordination Sequence:
#
# PCOD9315922 Si02
#       7
#     4   4   4   4   4   4   4
#     4  11  28  47  77 109 152 202 258 320 385 461
#     4  12  25  45  74 109 153 198 262 316 399 460
#     4  11  25  49  76 110 150 205 256 320 388 468
#     4  11  26  44  76 110 150 204 252 329 385 474
#     4  11  25  49  73 112 152 200 258 322 387 469
#     4  12  28  48  76 111 153 205 256 319 390 465
#     4  12  25  50  74 107 152 198 256 320 384 459
#
# _framework density 28.051461
#
# number of rings (size 3 to 8) (size 9 to 14) (size 15 to 20)
#    0.000    0.571    4.286    2.571    6.000    5.714 
#    0.000    0.000    0.000    0.000    0.000    0.000 
#    0.000    0.000    0.000    0.000    0.000    0.000 
#
# Total GULP energy -156497.691598 kJ/mol
# GULP energy per Si atom -5589.203271 kJ/mol
# Density = 2.798761 g / cm^3
# Si number density = 28.051461 Si / 1000 Ang^3
#
#
#
# Elastic Constant Matrix: (Units=GPa)
#
#
# Indices 1 2 3 4 5 6 
#
# 1 156.4271 26.2987 -0.5178 0.0000 0.0000 0.0000
# 2 26.2987 85.2499 -0.4350 0.0000 0.0000 0.0000
# 3 -0.5178 -0.4350 80.9926 0.0000 0.0000 0.0000
# 4 0.0000 0.0000 0.0000 28.3779 0.0000 0.0000
# 5 0.0000 0.0000 0.0000 0.0000 48.3584 0.0000
# 6 0.0000 0.0000 0.0000 0.0000 0.0000 35.1370
#
#
#
# Elastic Compliance Matrix: (Units=1/GPa)
#
#
# Indices 1 2 3 4 5 6 
#
# 1 0.006743 -0.002080 0.000032 0.000000 0.000000 0.000000
# 2 -0.002080 0.012372 0.000053 0.000000 0.000000 0.000000
# 3 0.000032 0.000053 0.012347 0.000000 0.000000 0.000000
# 4 0.000000 0.000000 0.000000 0.035239 0.000000 0.000000
# 5 0.000000 0.000000 0.000000 0.000000 0.020679 0.000000
# 6 0.000000 0.000000 0.000000 0.000000 0.000000 0.028460
#
#
# Mechanical properties :
#
#
# Convention : Reuss Voigt Hill
#
# Bulk Modulus (GPa) = 36.40014 41.48460 38.94237
# Shear Modulus (GPa) = 38.76374 42.19624 40.47999
#
# Velocity S-wave (km/s) = 3.72140 3.88267 3.80289
# Velocity P-wave (km/s) = 5.60976 5.90940 5.76153
#
# Compressibility (1/GPa) = 0.02747242
#
# Stress axis : x y z
#
# Youngs Moduli (GPa) = 148.31236 80.82706 80.98940
#
# Poissons Ratio (x) = 0.16811 -0.00259
# Poissons Ratio (y) = 0.30847 -0.00430
# Poissons Ratio (z) = -0.00474 -0.00430
#
# Static dielectric constant tensor:
#      x y z
#    x 2.211650 0.000000 0.000000 
#    y 0.000000 2.245600 0.000000 
#    z 0.000000 0.000000 2.534870 
# 
# From -- ./inp_files/7347.got.cif
#   From: 2010.05.17/outbox.cif.g08.bks.cpg/sg19_4_cif.got.tgz:7347.got - 2010.06.03 22:46:19.
