data_PCOD9315252
_publ_section_title
;
Structure prediction by ZEFSAII (Michael W. Deem and Ramdas Pophale) SiO2 
 PCOD9315252
Probable space group: P 21 21 21
;
_chemical_formula_sum "Si O2"
_cell_formula_units_Z 20
_cell_length_a 10.987543
_cell_length_b 14.668352
_cell_length_c 5.057425
_cell_angle_alpha 90.000000
_cell_angle_beta 90.000000
_cell_angle_gamma 90.000000
_cell_volume 815.100880
_symmetry_space_group_name_H-M "P 21 21 21"
_symmetry_group_IT_number 19
_symmetry_cell_setting 'orthorhombic'
loop_
_space_group_symop_operation_xyz
x,y,z
1/2-x,-y,1/2+z
1/2+x,1/2-y,-z
-x,1/2+y,1/2-z
loop_
_atom_site_type_symbol
_atom_site_label
_atom_site_fract_x
_atom_site_fract_y
_atom_site_fract_z
Si Si1 0.335415 0.005856 0.804767
Si Si2 0.652034 0.275062 0.363289
Si Si3 0.753387 0.183533 0.841718
Si Si4 0.024166 0.384826 0.431298
Si Si5 0.003325 0.077885 0.920237
O O1 0.408157 0.099863 0.754266
O O2 0.237649 0.992624 0.572111
O O3 0.440737 0.932193 0.718855
O O4 0.737767 0.263829 0.620658
O O5 0.534534 0.212889 0.436264
O O6 0.602251 0.368894 0.251332
O O7 0.714991 0.223759 0.121156
O O8 0.879933 0.132689 0.881145
O O9 0.649805 0.112763 0.735816
O O10 0.018169 0.470193 0.633316
#
# Coordination Sequence:
#
# PCOD9315252 Si02
#       5
#     4   4   4   4   4
#     4  10  24  41  65  99 133 177 221 271 340 405
#     4  10  24  43  64 105 130 177 225 291 328 414
#     4  10  24  45  67  99 136 174 242 276 336 413
#     4   8  24  42  70  95 137 175 231 275 340 402
#     4  10  24  45  74  98 138 191 219 291 354 394
#
# _framework density 24.536837999999999
#
# number of rings (size 3 to 8) (size 9 to 14) (size 15 to 20)
#    2.400    0.000    0.000    0.000    5.600    8.000 
#    3.600    0.000    0.000    0.000    0.000    0.000 
#    0.000    0.000    0.000    0.000    0.000    0.000 
#
# Total GULP energy -111545.688067 kJ/mol
# GULP energy per Si atom -5577.284403 kJ/mol
# Density = 2.448099 g / cm^3
# Si number density = 24.536838 Si / 1000 Ang^3
#
#
#
# Elastic Constant Matrix: (Units=GPa)
#
#
# Indices 1 2 3 4 5 6 
#
# 1 100.1975 47.7285 -9.0306 0.0000 0.0000 0.0000
# 2 47.7285 79.9607 11.9769 0.0000 0.0000 0.0000
# 3 -9.0306 11.9769 50.3009 0.0000 0.0000 0.0000
# 4 0.0000 0.0000 0.0000 26.2030 0.0000 0.0000
# 5 0.0000 0.0000 0.0000 0.0000 21.3605 0.0000
# 6 0.0000 0.0000 0.0000 0.0000 0.0000 36.8024
#
#
#
# Elastic Compliance Matrix: (Units=1/GPa)
#
#
# Indices 1 2 3 4 5 6 
#
# 1 0.015080 -0.009755 0.005030 0.000000 0.000000 0.000000
# 2 -0.009755 0.019279 -0.006342 0.000000 0.000000 0.000000
# 3 0.005030 -0.006342 0.022293 0.000000 0.000000 0.000000
# 4 0.000000 0.000000 0.000000 0.038164 0.000000 0.000000
# 5 0.000000 0.000000 0.000000 0.000000 0.046815 0.000000
# 6 0.000000 0.000000 0.000000 0.000000 0.000000 0.027172
#
#
# Mechanical properties :
#
#
# Convention : Reuss Voigt Hill
#
# Bulk Modulus (GPa) = 28.96914 36.86764 32.91839
# Shear Modulus (GPa) = 24.69832 28.85880 26.77856
#
# Velocity S-wave (km/s) = 3.17611 3.43321 3.30716
# Velocity P-wave (km/s) = 5.02814 5.54743 5.29416
#
# Compressibility (1/GPa) = 0.03451949
#
# Stress axis : x y z
#
# Youngs Moduli (GPa) = 66.31159 51.87068 44.85640
#
# Poissons Ratio (x) = 0.50599 -0.22563
# Poissons Ratio (y) = 0.64686 0.28446
# Poissons Ratio (z) = -0.33355 0.32895
#
# Static dielectric constant tensor:
#      x y z
#    x 1.959840 0.000000 0.000000 
#    y 0.000000 2.038000 0.000000 
#    z 0.000000 0.000000 2.013510 
# 
# From -- ./inp_files/875.got.cif
#   From: 2010.05.17/outbox.cif.g08.bks.cpg/sg19_1_cif.got.tgz:875.got - 2010.06.03 22:46:19.
