data_PCOD9315972
_publ_section_title
;
Structure prediction by ZEFSAII (Michael W. Deem and Ramdas Pophale) SiO2 
 PCOD9315972
Probable space group: P 21 21 21
;
_chemical_formula_sum "Si O2"
_cell_formula_units_Z 20
_cell_length_a 8.821650
_cell_length_b 8.597127
_cell_length_c 11.515860
_cell_angle_alpha 90.000000
_cell_angle_beta 90.000000
_cell_angle_gamma 90.000000
_cell_volume 873.372558
_symmetry_space_group_name_H-M "P 21 21 21"
_symmetry_group_IT_number 19
_symmetry_cell_setting 'orthorhombic'
loop_
_space_group_symop_operation_xyz
x,y,z
1/2-x,-y,1/2+z
1/2+x,1/2-y,-z
-x,1/2+y,1/2-z
loop_
_atom_site_type_symbol
_atom_site_label
_atom_site_fract_x
_atom_site_fract_y
_atom_site_fract_z
Si Si1 0.219486 0.398757 0.597358
Si Si2 0.476055 0.721783 0.882328
Si Si3 0.629054 0.758262 0.458165
Si Si4 0.689605 0.447587 0.790576
Si Si5 0.816366 0.724391 0.665692
O O1 0.392053 0.342851 0.582582
O O2 0.196386 0.582004 0.591835
O O3 0.121831 0.325272 0.493450
O O4 0.169513 0.332269 0.722063
O O5 0.561003 0.569201 0.832059
O O6 0.376260 0.807677 0.785477
O O7 0.719272 0.616482 0.400412
O O8 0.662857 0.758379 0.594667
O O9 0.455269 0.750603 0.420891
O O10 0.803396 0.548832 0.711158
#
# Coordination Sequence:
#
# PCOD9315972 Si02
#       5
#     4   4   4   4   4
#     4  11  28  46  76 108 151 194 251 300 379 437
#     4  11  27  48  75 109 149 199 246 310 367 440
#     4  12  27  47  77 104 155 192 251 307 367 444
#     4  11  27  48  76 107 150 196 254 304 367 440
#     4  11  29  47  74 114 145 201 250 305 376 439
#
# _framework density 22.899736000000001
#
# number of rings (size 3 to 8) (size 9 to 14) (size 15 to 20)
#    0.000    0.800    0.000    3.600   28.000    0.000 
#    0.000    0.000    0.000    0.000    0.000    0.000 
#    0.000    0.000    0.000    0.000    0.000    0.000 
#
# Total GULP energy -112130.995648 kJ/mol
# GULP energy per Si atom -5606.549782 kJ/mol
# Density = 2.284762 g / cm^3
# Si number density = 22.899736 Si / 1000 Ang^3
#
#
#
# Elastic Constant Matrix: (Units=GPa)
#
#
# Indices 1 2 3 4 5 6 
#
# 1 24.3617 -4.0497 28.9146 0.0000 0.0000 0.0000
# 2 -4.0497 60.2465 9.1867 0.0000 0.0000 0.0000
# 3 28.9146 9.1867 117.4512 0.0000 0.0000 0.0000
# 4 0.0000 0.0000 0.0000 39.8439 0.0000 0.0000
# 5 0.0000 0.0000 0.0000 0.0000 41.1270 0.0000
# 6 0.0000 0.0000 0.0000 0.0000 0.0000 40.9145
#
#
#
# Elastic Compliance Matrix: (Units=1/GPa)
#
#
# Indices 1 2 3 4 5 6 
#
# 1 0.060334 0.006397 -0.015354 0.000000 0.000000 0.000000
# 2 0.006397 0.017477 -0.002942 0.000000 0.000000 0.000000
# 3 -0.015354 -0.002942 0.012524 0.000000 0.000000 0.000000
# 4 0.000000 0.000000 0.000000 0.025098 0.000000 0.000000
# 5 0.000000 0.000000 0.000000 0.000000 0.024315 0.000000
# 6 0.000000 0.000000 0.000000 0.000000 0.000000 0.024441
#
#
# Mechanical properties :
#
#
# Convention : Reuss Voigt Hill
#
# Bulk Modulus (GPa) = 15.02896 30.01807 22.52351
# Shear Modulus (GPa) = 23.79066 35.57761 29.68413
#
# Velocity S-wave (km/s) = 3.22670 3.94588 3.60427
# Velocity P-wave (km/s) = 4.52320 5.82211 5.21326
#
# Compressibility (1/GPa) = 0.06653821
#
# Stress axis : x y z
#
# Youngs Moduli (GPa) = 16.57427 57.21793 79.84597
#
# Poissons Ratio (x) = -0.36601 1.22593
# Poissons Ratio (y) = -0.10602 0.23489
# Poissons Ratio (z) = 0.25448 0.16832
#
# Static dielectric constant tensor:
#      x y z
#    x 1.871590 0.000000 0.000000 
#    y 0.000000 1.824200 0.000000 
#    z 0.000000 0.000000 1.831660 
# 
# From -- ./inp_files/2643.got.cif
#   From: 2010.05.17/outbox.cif.g08.bks.cpg/sg19_2_cif.got.tgz:2643.got - 2010.06.03 22:46:19.
