data_PCOD9315744
_publ_section_title
;
Structure prediction by ZEFSAII (Michael W. Deem and Ramdas Pophale) SiO2 
 PCOD9315744
Probable space group: P 21 21 21
;
_chemical_formula_sum "Si O2"
_cell_formula_units_Z 20
_cell_length_a 12.649692
_cell_length_b 12.106759
_cell_length_c 5.496655
_cell_angle_alpha 90.000000
_cell_angle_beta 90.000000
_cell_angle_gamma 90.000000
_cell_volume 841.794973
_symmetry_space_group_name_H-M "P 21 21 21"
_symmetry_group_IT_number 19
_symmetry_cell_setting 'orthorhombic'
loop_
_space_group_symop_operation_xyz
x,y,z
1/2-x,-y,1/2+z
1/2+x,1/2-y,-z
-x,1/2+y,1/2-z
loop_
_atom_site_type_symbol
_atom_site_label
_atom_site_fract_x
_atom_site_fract_y
_atom_site_fract_z
Si Si1 0.629841 0.749957 0.498217
Si Si2 0.040635 0.305513 0.338066
Si Si3 0.368267 0.063171 0.379263
Si Si4 0.182570 0.165192 0.682478
Si Si5 0.754210 0.931774 0.286292
O O1 0.528430 0.771668 0.662860
O O2 0.613814 0.632646 0.366646
O O3 0.733287 0.737624 0.667923
O O4 0.658616 0.843861 0.305135
O O5 0.093883 0.238137 0.556371
O O6 0.136217 0.365134 0.203040
O O7 0.958741 0.395658 0.439611
O O8 0.254974 0.103887 0.480175
O O9 0.364900 0.933379 0.340962
O O10 0.747211 0.007925 0.525633
#
# Coordination Sequence:
#
# PCOD9315744 Si02
#       5
#     4   4   4   4   4
#     4  11  26  49  76 111 154 212 261 326 395 475
#     4  11  28  48  78 114 158 207 264 324 399 478
#     4  11  24  45  80 112 145 211 261 318 404 461
#     4  11  23  50  75 112 158 198 267 332 384 475
#     4  12  29  54  79 115 165 210 261 336 400 467
#
# _framework density 23.758756999999999
#
# number of rings (size 3 to 8) (size 9 to 14) (size 15 to 20)
#    0.000    0.800    4.000    1.200    8.400    3.200 
#    0.000    0.000    0.000    0.000    0.000    0.000 
#    0.000    0.000    0.000    0.000    0.000    0.000 
#
# Total GULP energy -112126.906044 kJ/mol
# GULP energy per Si atom -5606.345302 kJ/mol
# Density = 2.370468 g / cm^3
# Si number density = 23.758757 Si / 1000 Ang^3
#
#
#
# Elastic Constant Matrix: (Units=GPa)
#
#
# Indices 1 2 3 4 5 6 
#
# 1 109.3730 26.8598 26.5139 0.0000 0.0000 0.0000
# 2 26.8598 72.4690 17.6118 0.0000 0.0000 0.0000
# 3 26.5139 17.6118 78.5315 0.0000 0.0000 0.0000
# 4 0.0000 0.0000 0.0000 27.3012 0.0000 0.0000
# 5 0.0000 0.0000 0.0000 0.0000 53.6581 0.0000
# 6 0.0000 0.0000 0.0000 0.0000 0.0000 18.3269
#
#
#
# Elastic Compliance Matrix: (Units=1/GPa)
#
#
# Indices 1 2 3 4 5 6 
#
# 1 0.010634 -0.003246 -0.002862 0.000000 0.000000 0.000000
# 2 -0.003246 0.015585 -0.002399 0.000000 0.000000 0.000000
# 3 -0.002862 -0.002399 0.014238 0.000000 0.000000 0.000000
# 4 0.000000 0.000000 0.000000 0.036628 0.000000 0.000000
# 5 0.000000 0.000000 0.000000 0.000000 0.018637 0.000000
# 6 0.000000 0.000000 0.000000 0.000000 0.000000 0.054565
#
#
# Mechanical properties :
#
#
# Convention : Reuss Voigt Hill
#
# Bulk Modulus (GPa) = 42.65770 44.70494 43.68132
# Shear Modulus (GPa) = 28.55252 32.48311 30.51782
#
# Velocity S-wave (km/s) = 3.47041 3.70159 3.58786
# Velocity P-wave (km/s) = 5.83540 6.09311 5.96565
#
# Compressibility (1/GPa) = 0.02344243
#
# Stress axis : x y z
#
# Youngs Moduli (GPa) = 94.03794 64.16382 70.23342
#
# Poissons Ratio (x) = 0.20826 0.20103
# Poissons Ratio (y) = 0.30522 0.16851
# Poissons Ratio (z) = 0.26917 0.15395
#
# Static dielectric constant tensor:
#      x y z
#    x 1.855000 0.000000 0.000000 
#    y 0.000000 1.907730 0.000000 
#    z 0.000000 0.000000 1.951160 
# 
# From -- ./inp_files/781.got.cif
#   From: 2010.05.17/outbox.cif.g08.bks.cpg/sg19_1_cif.got.tgz:781.got - 2010.06.03 22:46:19.
