data_PCOD9315799
_publ_section_title
;
Structure prediction by ZEFSAII (Michael W. Deem and Ramdas Pophale) SiO2 
 PCOD9315799
Probable space group: P 21 21 21
;
_chemical_formula_sum "Si O2"
_cell_formula_units_Z 32
_cell_length_a 11.141472
_cell_length_b 23.376511
_cell_length_c 4.731146
_cell_angle_alpha 90.000000
_cell_angle_beta 90.000000
_cell_angle_gamma 90.000000
_cell_volume 1232.221028
_symmetry_space_group_name_H-M "P 21 21 21"
_symmetry_group_IT_number 19
_symmetry_cell_setting 'orthorhombic'
loop_
_space_group_symop_operation_xyz
x,y,z
1/2-x,-y,1/2+z
1/2+x,1/2-y,-z
-x,1/2+y,1/2-z
loop_
_atom_site_type_symbol
_atom_site_label
_atom_site_fract_x
_atom_site_fract_y
_atom_site_fract_z
Si Si1 0.570713 0.402184 0.293793
Si Si2 0.874849 0.291576 0.566461
Si Si3 0.454891 0.793573 0.837713
Si Si4 0.553011 0.530814 0.275212
Si Si5 0.842177 0.134771 0.081048
Si Si6 0.163883 0.911994 0.213407
Si Si7 0.715503 0.034933 0.420295
Si Si8 0.263181 0.746246 0.436074
O O1 0.591910 0.351069 0.513492
O O2 0.551209 0.466644 0.401370
O O3 0.448873 0.388342 0.120750
O O4 0.702771 0.405907 0.155818
O O5 0.874824 0.355828 0.457680
O O6 0.841321 0.279516 0.889122
O O7 0.002490 0.261788 0.510089
O O8 0.762969 0.262696 0.389073
O O9 0.584742 0.818124 0.754209
O O10 0.380866 0.775813 0.564158
O O11 0.651300 0.538815 0.026884
O O12 0.424577 0.542085 0.133584
O O13 0.577577 0.573235 0.530155
O O14 0.789307 0.086950 0.286200
O O15 0.740503 0.178998 0.972649
O O16 0.757612 0.978477 0.245290
#
# Coordination Sequence:
#
# PCOD9315799 Si02
#       8
#     4   4   4   4   4   4   4   4
#     4  12  24  46  75 101 146 193 250 298 364 450
#     4  11  24  46  68 103 142 181 243 289 369 429
#     4  11  25  44  74 104 143 190 238 304 362 444
#     4  12  28  47  70 109 145 192 248 303 366 435
#     4  11  26  45  75 109 142 200 245 303 373 449
#     4  12  27  47  71 106 147 192 239 309 371 432
#     4  12  26  50  76 107 151 195 251 307 368 446
#     4  11  24  45  69 107 138 185 242 299 363 435
#
# _framework density 25.969370000000001
#
# number of rings (size 3 to 8) (size 9 to 14) (size 15 to 20)
#    0.000    0.500    3.750    3.750    5.250    0.000 
#    4.500    0.000    0.000    0.000    0.000    0.000 
#    0.000    0.000    0.000    0.000    0.000    0.000 
#
# Total GULP energy -179054.162343 kJ/mol
# GULP energy per Si atom -5595.442573 kJ/mol
# Density = 2.591026 g / cm^3
# Si number density = 25.969370 Si / 1000 Ang^3
#
#
#
# Elastic Constant Matrix: (Units=GPa)
#
#
# Indices 1 2 3 4 5 6 
#
# 1 70.9629 24.8082 -8.4976 0.0000 0.0000 0.0000
# 2 24.8082 108.5814 -0.5711 0.0000 0.0000 0.0000
# 3 -8.4976 -0.5711 60.2324 0.0000 0.0000 0.0000
# 4 0.0000 0.0000 0.0000 31.2024 0.0000 0.0000
# 5 0.0000 0.0000 0.0000 0.0000 33.7639 0.0000
# 6 0.0000 0.0000 0.0000 0.0000 0.0000 48.3989
#
#
#
# Elastic Compliance Matrix: (Units=1/GPa)
#
#
# Indices 1 2 3 4 5 6 
#
# 1 0.015593 -0.003551 0.002166 0.000000 0.000000 0.000000
# 2 -0.003551 0.010019 -0.000406 0.000000 0.000000 0.000000
# 3 0.002166 -0.000406 0.016904 0.000000 0.000000 0.000000
# 4 0.000000 0.000000 0.000000 0.032049 0.000000 0.000000
# 5 0.000000 0.000000 0.000000 0.000000 0.029617 0.000000
# 6 0.000000 0.000000 0.000000 0.000000 0.000000 0.020662
#
#
# Mechanical properties :
#
#
# Convention : Reuss Voigt Hill
#
# Bulk Modulus (GPa) = 25.68469 30.13953 27.91211
# Shear Modulus (GPa) = 35.35980 37.60886 36.48433
#
# Velocity S-wave (km/s) = 3.69398 3.80965 3.75226
# Velocity P-wave (km/s) = 5.30150 5.56617 5.43545
#
# Compressibility (1/GPa) = 0.03893369
#
# Stress axis : x y z
#
# Youngs Moduli (GPa) = 64.13242 99.81136 59.15725
#
# Poissons Ratio (x) = 0.35445 -0.12814
# Poissons Ratio (y) = 0.22775 0.02402
# Poissons Ratio (z) = -0.13892 0.04052
#
# Static dielectric constant tensor:
#      x y z
#    x 2.212830 0.000000 0.000000 
#    y 0.000000 2.142110 0.000000 
#    z 0.000000 0.000000 2.010520 
# 
# From -- ./inp_files/1249.got.cif
#   From: 2010.05.17/outbox.cif.g08.bks.cpg/sg19_1_cif.got.tgz:1249.got - 2010.06.03 22:46:19.
