data_PCOD9315855
_publ_section_title
;
Structure prediction by ZEFSAII (Michael W. Deem and Ramdas Pophale) SiO2 
 PCOD9315855
Probable space group: P 21 21 21
;
_chemical_formula_sum "Si O2"
_cell_formula_units_Z 28
_cell_length_a 5.003575
_cell_length_b 27.688542
_cell_length_c 8.195017
_cell_angle_alpha 90.000000
_cell_angle_beta 90.000000
_cell_angle_gamma 90.000000
_cell_volume 1135.351558
_symmetry_space_group_name_H-M "P 21 21 21"
_symmetry_group_IT_number 19
_symmetry_cell_setting 'orthorhombic'
loop_
_space_group_symop_operation_xyz
x,y,z
1/2-x,-y,1/2+z
1/2+x,1/2-y,-z
-x,1/2+y,1/2-z
loop_
_atom_site_type_symbol
_atom_site_label
_atom_site_fract_x
_atom_site_fract_y
_atom_site_fract_z
Si Si1 0.490058 0.357642 0.252302
Si Si2 0.643214 0.186029 0.503680
Si Si3 0.216775 0.860455 0.752083
Si Si4 0.991427 0.960972 0.622935
Si Si5 0.771972 0.175867 0.073063
Si Si6 0.520687 0.459179 0.108230
Si Si7 0.354057 0.236420 0.757638
O O1 0.341310 0.354537 0.426045
O O2 0.599845 0.410048 0.204697
O O3 0.693465 0.313126 0.236421
O O4 0.289606 0.347226 0.102997
O O5 0.382239 0.159895 0.427343
O O6 0.616722 0.220353 0.662144
O O7 0.733778 0.224048 0.367998
O O8 0.111402 0.914190 0.716897
O O9 0.031667 0.829417 0.629283
O O10 0.520605 0.852240 0.694758
O O11 0.725035 0.951117 0.517372
O O12 0.224161 0.975766 0.496376
O O13 0.939371 0.001750 0.757019
O O14 0.869101 0.231246 0.082408
#
# Coordination Sequence:
#
# PCOD9315855 Si02
#       7
#     4   4   4   4   4   4   4
#     4  12  27  45  71 111 149 196 258 309 374 457
#     4  11  25  42  68 105 145 200 247 304 369 454
#     4  11  24  48  74 102 149 192 245 309 378 447
#     4  12  26  54  78 114 152 197 256 322 389 466
#     4  11  26  45  74 103 147 199 245 311 370 445
#     4  12  29  51  81 114 152 200 255 321 394 462
#     4  11  25  43  68 101 152 196 252 302 372 449
#
# _framework density 24.661966
#
# number of rings (size 3 to 8) (size 9 to 14) (size 15 to 20)
#    0.000    0.571    4.286    1.714   12.000    1.143 
#    0.000    0.000    0.000    0.000    0.000    0.000 
#    0.000    0.000    0.000    0.000    0.000    0.000 
#
# Total GULP energy -156561.192137 kJ/mol
# GULP energy per Si atom -5591.471148 kJ/mol
# Density = 2.460583 g / cm^3
# Si number density = 24.661966 Si / 1000 Ang^3
#
#
#
# Elastic Constant Matrix: (Units=GPa)
#
#
# Indices 1 2 3 4 5 6 
#
# 1 82.1317 3.1975 19.3497 0.0000 0.0000 0.0000
# 2 3.1975 135.4681 49.6582 0.0000 0.0000 0.0000
# 3 19.3497 49.6582 67.8514 0.0000 0.0000 0.0000
# 4 0.0000 0.0000 0.0000 42.1364 0.0000 0.0000
# 5 0.0000 0.0000 0.0000 0.0000 42.8321 0.0000
# 6 0.0000 0.0000 0.0000 0.0000 0.0000 32.5111
#
#
#
# Elastic Compliance Matrix: (Units=1/GPa)
#
#
# Indices 1 2 3 4 5 6 
#
# 1 0.013262 0.001467 -0.004856 0.000000 0.000000 0.000000
# 2 0.001467 0.010251 -0.007920 0.000000 0.000000 0.000000
# 3 -0.004856 -0.007920 0.021919 0.000000 0.000000 0.000000
# 4 0.000000 0.000000 0.000000 0.023732 0.000000 0.000000
# 5 0.000000 0.000000 0.000000 0.000000 0.023347 0.000000
# 6 0.000000 0.000000 0.000000 0.000000 0.000000 0.030759
#
#
# Mechanical properties :
#
#
# Convention : Reuss Voigt Hill
#
# Bulk Modulus (GPa) = 43.83254 47.76245 45.79750
# Shear Modulus (GPa) = 32.57463 37.71229 35.14346
#
# Velocity S-wave (km/s) = 3.63829 3.91470 3.77902
# Velocity P-wave (km/s) = 5.95495 6.31206 6.13610
#
# Compressibility (1/GPa) = 0.02281410
#
# Stress axis : x y z
#
# Youngs Moduli (GPa) = 75.40095 97.55590 45.62153
#
# Poissons Ratio (x) = -0.14311 0.22153
# Poissons Ratio (y) = -0.11061 0.36134
# Poissons Ratio (z) = 0.36613 0.77268
#
# Static dielectric constant tensor:
#      x y z
#    x 1.983500 0.000000 0.000000 
#    y 0.000000 1.961400 0.000000 
#    z 0.000000 0.000000 2.062520 
# 
# From -- ./inp_files/2418.got.cif
#   From: 2010.05.17/outbox.cif.g08.bks.cpg/sg19_2_cif.got.tgz:2418.got - 2010.06.03 22:46:19.
