data_PCOD9315211
_publ_section_title
;
Structure prediction by ZEFSAII (Michael W. Deem and Ramdas Pophale) SiO2 
 PCOD9315211
Probable space group: P 21 21 21
;
_chemical_formula_sum "Si O2"
_cell_formula_units_Z 28
_cell_length_a 6.880782
_cell_length_b 16.387402
_cell_length_c 9.868612
_cell_angle_alpha 90.000000
_cell_angle_beta 90.000000
_cell_angle_gamma 90.000000
_cell_volume 1112.766340
_symmetry_space_group_name_H-M "P 21 21 21"
_symmetry_group_IT_number 19
_symmetry_cell_setting 'orthorhombic'
loop_
_space_group_symop_operation_xyz
x,y,z
1/2-x,-y,1/2+z
1/2+x,1/2-y,-z
-x,1/2+y,1/2-z
loop_
_atom_site_type_symbol
_atom_site_label
_atom_site_fract_x
_atom_site_fract_y
_atom_site_fract_z
Si Si1 0.898801 0.206060 0.330193
Si Si2 0.771726 0.395306 0.672457
Si Si3 0.439649 0.147017 0.041897
Si Si4 0.372061 0.793300 0.365335
Si Si5 0.401962 0.656768 0.957271
Si Si6 0.021957 0.546017 0.649426
Si Si7 0.743011 0.980927 0.610315
O O1 0.045380 0.129696 0.335309
O O2 0.028791 0.286829 0.335880
O O3 0.741989 0.221797 0.213965
O O4 0.758935 0.204929 0.459040
O O5 0.843021 0.352789 0.810025
O O6 0.909056 0.364235 0.549719
O O7 0.831649 0.490421 0.679947
O O8 0.527054 0.237654 0.022677
O O9 0.582159 0.070488 0.044360
O O10 0.279550 0.144074 0.928397
O O11 0.510195 0.860552 0.294711
O O12 0.298102 0.574324 0.919089
O O13 0.067760 0.554174 0.487119
O O14 0.187883 0.490951 0.730264
#
# Coordination Sequence:
#
# PCOD9315211 Si02
#       7
#     4   4   4   4   4   4   4
#     4  12  25  42  73 103 142 190 240 309 362 440
#     4  10  23  47  67 101 146 186 234 301 370 429
#     4  11  24  46  66 105 143 190 241 304 371 442
#     4  12  26  44  74 105 144 195 248 305 372 452
#     4  11  24  43  72 103 142 187 246 302 369 442
#     4  10  25  48  73 110 147 193 255 305 377 451
#     4  10  25  46  75 105 148 193 246 308 371 448
#
# _framework density 25.162516
#
# number of rings (size 3 to 8) (size 9 to 14) (size 15 to 20)
#    0.000    1.143    2.857    1.714    8.000    0.000 
#   10.286    0.000    0.000    0.000    0.000    0.000 
#    0.000    0.000    0.000    0.000    0.000    0.000 
#
# Total GULP energy -156016.776323 kJ/mol
# GULP energy per Si atom -5572.027726 kJ/mol
# Density = 2.510525 g / cm^3
# Si number density = 25.162516 Si / 1000 Ang^3
#
#
#
# Elastic Constant Matrix: (Units=GPa)
#
#
# Indices 1 2 3 4 5 6 
#
# 1 84.3421 53.6903 20.4818 0.0000 0.0000 0.0000
# 2 53.6903 67.1115 1.5725 0.0000 0.0000 0.0000
# 3 20.4818 1.5725 37.6762 0.0000 0.0000 0.0000
# 4 0.0000 0.0000 0.0000 5.7757 0.0000 0.0000
# 5 0.0000 0.0000 0.0000 0.0000 36.1102 0.0000
# 6 0.0000 0.0000 0.0000 0.0000 0.0000 36.1543
#
#
#
# Elastic Compliance Matrix: (Units=1/GPa)
#
#
# Indices 1 2 3 4 5 6 
#
# 1 0.031675 -0.024961 -0.016178 0.000000 0.000000 0.000000
# 2 -0.024961 0.034586 0.012126 0.000000 0.000000 0.000000
# 3 -0.016178 0.012126 0.034830 0.000000 0.000000 0.000000
# 4 0.000000 0.000000 0.000000 0.173138 0.000000 0.000000
# 5 0.000000 0.000000 0.000000 0.000000 0.027693 0.000000
# 6 0.000000 0.000000 0.000000 0.000000 0.000000 0.027659
#
#
# Mechanical properties :
#
#
# Convention : Reuss Voigt Hill
#
# Bulk Modulus (GPa) = 23.22026 37.84653 30.53339
# Shear Modulus (GPa) = 12.43898 23.16706 17.80302
#
# Velocity S-wave (km/s) = 2.22580 3.03759 2.66281
# Velocity P-wave (km/s) = 3.98167 5.23222 4.64918
#
# Compressibility (1/GPa) = 0.04306585
#
# Stress axis : x y z
#
# Youngs Moduli (GPa) = 31.57073 28.91346 28.71052
#
# Poissons Ratio (x) = 0.72172 0.46447
# Poissons Ratio (y) = 0.78805 -0.34815
# Poissons Ratio (z) = 0.51074 -0.35061
#
# Static dielectric constant tensor:
#      x y z
#    x 2.039220 0.000000 0.000000 
#    y 0.000000 1.996560 0.000000 
#    z 0.000000 0.000000 2.049310 
# 
# From -- ./inp_files/4477.got.cif
#   From: 2010.05.17/outbox.cif.g08.bks.cpg/sg19_3_cif.got.tgz:4477.got - 2010.06.03 22:46:19.
