data_PCOD9315503
_publ_section_title
;
Structure prediction by ZEFSAII (Michael W. Deem and Ramdas Pophale) SiO2 
 PCOD9315503
Probable space group: P 21 21 21
;
_chemical_formula_sum "Si O2"
_cell_formula_units_Z 32
_cell_length_a 16.393946
_cell_length_b 14.570244
_cell_length_c 5.391096
_cell_angle_alpha 90.000000
_cell_angle_beta 90.000000
_cell_angle_gamma 90.000000
_cell_volume 1287.737641
_symmetry_space_group_name_H-M "P 21 21 21"
_symmetry_group_IT_number 19
_symmetry_cell_setting 'orthorhombic'
loop_
_space_group_symop_operation_xyz
x,y,z
1/2-x,-y,1/2+z
1/2+x,1/2-y,-z
-x,1/2+y,1/2-z
loop_
_atom_site_type_symbol
_atom_site_label
_atom_site_fract_x
_atom_site_fract_y
_atom_site_fract_z
Si Si1 0.160129 0.226504 0.767111
Si Si2 0.501612 0.945922 0.138641
Si Si3 0.695687 0.124353 0.583099
Si Si4 0.321166 0.294283 0.023663
Si Si5 0.654973 0.953001 0.843924
Si Si6 0.568269 0.361458 0.864161
Si Si7 0.714018 0.432132 0.581413
Si Si8 0.868784 0.401251 0.861437
O O1 0.141949 0.299960 0.553119
O O2 0.249361 0.255139 0.852474
O O3 0.095410 0.230996 0.990707
O O4 0.174426 0.127605 0.640344
O O5 0.597367 0.948139 0.083420
O O6 0.473482 0.881559 0.901392
O O7 0.452842 0.042412 0.127360
O O8 0.479107 0.910533 0.411434
O O9 0.749100 0.060221 0.400174
O O10 0.642991 0.054476 0.740280
O O11 0.767886 0.172827 0.740762
O O12 0.361346 0.374431 0.861251
O O13 0.376746 0.206489 0.085251
O O14 0.659796 0.399568 0.813848
O O15 0.688838 0.537311 0.542935
O O16 0.809033 0.410090 0.620730
#
# Coordination Sequence:
#
# PCOD9315503 Si02
#       8
#     4   4   4   4   4   4   4   4
#     4  11  20  40  70 112 138 181 244 302 349 437
#     4  11  27  43  71  99 156 192 234 286 386 443
#     4  11  23  45  79  99 133 190 262 322 354 429
#     4  11  23  41  71 103 138 180 251 306 357 425
#     4  11  26  48  73 101 134 198 250 316 367 432
#     4  11  21  44  67 104 145 195 222 287 354 445
#     4  11  20  37  68 103 153 185 238 280 360 450
#     4  11  20  38  65 105 141 189 223 291 359 439
#
# _framework density 24.849782999999999
#
# number of rings (size 3 to 8) (size 9 to 14) (size 15 to 20)
#    0.000    1.000    6.250    1.500    1.750    1.000 
#    2.250    0.000    0.000    0.000    0.000    0.000 
#    0.000    0.000    0.000    0.000    0.000    0.000 
#
# Total GULP energy -178553.077327 kJ/mol
# GULP energy per Si atom -5579.783666 kJ/mol
# Density = 2.479322 g / cm^3
# Si number density = 24.849783 Si / 1000 Ang^3
#
#
#
# Elastic Constant Matrix: (Units=GPa)
#
#
# Indices 1 2 3 4 5 6 
#
# 1 62.9426 15.0005 9.5024 0.0000 0.0000 0.0000
# 2 15.0005 90.4725 25.9862 0.0000 0.0000 0.0000
# 3 9.5024 25.9862 107.0841 0.0000 0.0000 0.0000
# 4 0.0000 0.0000 0.0000 2.5192 0.0000 0.0000
# 5 0.0000 0.0000 0.0000 0.0000 34.9704 0.0000
# 6 0.0000 0.0000 0.0000 0.0000 0.0000 -0.1401
#
#
#
# Elastic Compliance Matrix: (Units=1/GPa)
#
#
# Indices 1 2 3 4 5 6 
#
# 1 0.016616 -0.002506 -0.000866 0.000000 0.000000 0.000000
# 2 -0.002506 0.012259 -0.002753 0.000000 0.000000 0.000000
# 3 -0.000866 -0.002753 0.010083 0.000000 0.000000 0.000000
# 4 0.000000 0.000000 0.000000 0.396955 0.000000 0.000000
# 5 0.000000 0.000000 0.000000 0.000000 0.028596 0.000000
# 6 0.000000 0.000000 0.000000 0.000000 0.000000 -7.140014
#
#
# Mechanical properties :
#
#
# Convention : Reuss Voigt Hill
#
# Bulk Modulus (GPa) = 37.44167 40.16414 38.80291
# Shear Modulus (GPa) = -0.75139 21.47058 10.35959
#
# Velocity S-wave (km/s) = -0.55048 2.94260 2.04400
# Velocity P-wave (km/s) = 3.83352 5.26717 4.60646
#
# Compressibility (1/GPa) = 0.02670821
#
# Stress axis : x y z
#
# Youngs Moduli (GPa) = 60.18475 81.57137 99.17395
#
# Poissons Ratio (x) = 0.20442 0.08591
# Poissons Ratio (y) = 0.15083 0.27298
# Poissons Ratio (z) = 0.05214 0.22453
#
# Static dielectric constant tensor:
#      x y z
#    x 1.974860 0.000000 0.000000 
#    y 0.000000 2.039960 0.000000 
#    z 0.000000 0.000000 2.126850 
# 
# From -- ./inp_files/1793.got.cif
#   From: 2010.05.17/outbox.cif.g08.bks.cpg/sg19_1_cif.got.tgz:1793.got - 2010.06.03 22:46:19.
