data_PCOD9315648
_publ_section_title
;
Structure prediction by ZEFSAII (Michael W. Deem and Ramdas Pophale) SiO2 
 PCOD9315648
Probable space group: P 21 21 21
;
_chemical_formula_sum "Si O2"
_cell_formula_units_Z 32
_cell_length_a 8.387962
_cell_length_b 20.819423
_cell_length_c 8.358282
_cell_angle_alpha 90.000000
_cell_angle_beta 90.000000
_cell_angle_gamma 90.000000
_cell_volume 1459.627924
_symmetry_space_group_name_H-M "P 21 21 21"
_symmetry_group_IT_number 19
_symmetry_cell_setting 'orthorhombic'
loop_
_space_group_symop_operation_xyz
x,y,z
1/2-x,-y,1/2+z
1/2+x,1/2-y,-z
-x,1/2+y,1/2-z
loop_
_atom_site_type_symbol
_atom_site_label
_atom_site_fract_x
_atom_site_fract_y
_atom_site_fract_z
Si Si1 0.340290 0.376265 0.946504
Si Si2 0.668171 0.691635 0.088690
Si Si3 0.504276 0.619944 0.826113
Si Si4 0.549930 0.007570 0.427744
Si Si5 0.017199 0.401481 0.828119
Si Si6 0.344444 0.335449 0.284643
Si Si7 0.678559 0.527604 0.588056
Si Si8 0.511883 0.387468 0.600216
O O1 0.154351 0.362273 0.916717
O O2 0.423499 0.373741 0.770765
O O3 0.348552 0.449078 0.011179
O O4 0.414027 0.339722 0.102548
O O5 0.569300 0.646032 0.207494
O O6 0.652462 0.763869 0.146118
O O7 0.845978 0.664131 0.088931
O O8 0.593670 0.677769 0.915035
O O9 0.339089 0.644867 0.757734
O O10 0.625820 0.580058 0.717750
O O11 0.450383 0.565632 0.950126
O O12 0.366370 0.984932 0.411232
O O13 0.604956 0.040277 0.264576
O O14 0.882436 0.437745 0.928383
O O15 0.416804 0.378571 0.430968
O O16 0.586911 0.459521 0.607979
#
# Coordination Sequence:
#
# PCOD9315648 Si02
#       8
#     4   4   4   4   4   4   4   4
#     4  12  27  43  71 111 140 187 233 304 366 429
#     4  11  26  50  69 100 144 201 248 291 351 439
#     4  11  23  44  71 100 144 185 233 305 366 421
#     4  11  23  40  67 103 143 175 230 294 370 436
#     4  11  24  42  70 101 145 185 232 301 361 433
#     4  12  28  48  71 104 148 195 249 295 356 429
#     4  12  22  42  71 107 140 180 238 304 374 432
#     4  12  25  45  76 106 142 190 241 302 370 433
#
# _framework density 21.923393999999998
#
# number of rings (size 3 to 8) (size 9 to 14) (size 15 to 20)
#    0.000    0.500    5.000    4.500    7.000    1.000 
#    2.250    0.000    0.000    0.000    0.000    0.000 
#    0.000    0.000    0.000    0.000    0.000    0.000 
#
# Total GULP energy -178723.022048 kJ/mol
# GULP energy per Si atom -5585.094439 kJ/mol
# Density = 2.187350 g / cm^3
# Si number density = 21.923394 Si / 1000 Ang^3
#
#
#
# Elastic Constant Matrix: (Units=GPa)
#
#
# Indices 1 2 3 4 5 6 
#
# 1 74.5156 9.9220 30.5296 0.0000 0.0000 0.0000
# 2 9.9220 37.7864 -2.3593 0.0000 0.0000 0.0000
# 3 30.5296 -2.3593 108.1726 0.0000 0.0000 0.0000
# 4 0.0000 0.0000 0.0000 23.5426 0.0000 0.0000
# 5 0.0000 0.0000 0.0000 0.0000 37.6104 0.0000
# 6 0.0000 0.0000 0.0000 0.0000 0.0000 18.5341
#
#
#
# Elastic Compliance Matrix: (Units=1/GPa)
#
#
# Indices 1 2 3 4 5 6 
#
# 1 0.015891 -0.004459 -0.004582 0.000000 0.000000 0.000000
# 2 -0.004459 0.027752 0.001864 0.000000 0.000000 0.000000
# 3 -0.004582 0.001864 0.010578 0.000000 0.000000 0.000000
# 4 0.000000 0.000000 0.000000 0.042476 0.000000 0.000000
# 5 0.000000 0.000000 0.000000 0.000000 0.026588 0.000000
# 6 0.000000 0.000000 0.000000 0.000000 0.000000 0.053955
#
#
# Mechanical properties :
#
#
# Convention : Reuss Voigt Hill
#
# Bulk Modulus (GPa) = 25.08367 32.96212 29.02290
# Shear Modulus (GPa) = 24.40408 28.09625 26.25016
#
# Velocity S-wave (km/s) = 3.34001 3.58378 3.46404
# Velocity P-wave (km/s) = 5.13231 5.67383 5.40985
#
# Compressibility (1/GPa) = 0.03986658
#
# Stress axis : x y z
#
# Youngs Moduli (GPa) = 62.92843 36.03379 94.53247
#
# Poissons Ratio (x) = 0.16067 0.43317
# Poissons Ratio (y) = 0.28058 -0.17618
# Poissons Ratio (z) = 0.28835 -0.06716
#
# Static dielectric constant tensor:
#      x y z
#    x 1.744730 0.000000 0.000000 
#    y 0.000000 1.681840 0.000000 
#    z 0.000000 0.000000 1.906630 
# 
# From -- ./inp_files/3172.got.cif
#   From: 2010.05.17/outbox.cif.g08.bks.cpg/sg19_2_cif.got.tgz:3172.got - 2010.06.03 22:46:19.
