data_PCOD9315397
_publ_section_title
;
Structure prediction by ZEFSAII (Michael W. Deem and Ramdas Pophale) SiO2 
 PCOD9315397
Probable space group: P 21 21 21
;
_chemical_formula_sum "Si O2"
_cell_formula_units_Z 28
_cell_length_a 8.796614
_cell_length_b 11.563576
_cell_length_c 11.787134
_cell_angle_alpha 90.000000
_cell_angle_beta 90.000000
_cell_angle_gamma 90.000000
_cell_volume 1198.990978
_symmetry_space_group_name_H-M "P 21 21 21"
_symmetry_group_IT_number 19
_symmetry_cell_setting 'orthorhombic'
loop_
_space_group_symop_operation_xyz
x,y,z
1/2-x,-y,1/2+z
1/2+x,1/2-y,-z
-x,1/2+y,1/2-z
loop_
_atom_site_type_symbol
_atom_site_label
_atom_site_fract_x
_atom_site_fract_y
_atom_site_fract_z
Si Si1 0.141939 0.917434 0.096760
Si Si2 0.306243 0.407164 0.256860
Si Si3 0.745025 0.336769 0.627939
Si Si4 0.609619 0.186050 0.026797
Si Si5 0.924360 0.448426 0.819013
Si Si6 0.500456 0.526976 0.679342
Si Si7 0.566107 0.899767 0.497167
O O1 0.281495 0.006973 0.110560
O O2 0.097613 0.897854 0.228646
O O3 0.993593 0.978497 0.042859
O O4 0.203976 0.827153 0.003525
O O5 0.247882 0.285642 0.307414
O O6 0.441571 0.458514 0.331107
O O7 0.162362 0.491126 0.239123
O O8 0.382137 0.401875 0.133057
O O9 0.866096 0.419044 0.693475
O O10 0.589913 0.410084 0.646758
O O11 0.542148 0.101004 0.930783
O O12 0.782876 0.155303 0.052380
O O13 0.576558 0.314625 0.986180
O O14 0.501550 0.166355 0.133777
#
# Coordination Sequence:
#
# PCOD9315397 Si02
#       7
#     4   4   4   4   4   4   4
#     4  11  23  43  66  96 140 179 224 285 341 409
#     4  11  24  44  67 104 135 182 231 278 349 409
#     4  11  23  44  69  95 140 177 226 283 344 401
#     4  11  22  40  66 103 131 175 231 286 344 393
#     4  11  22  42  66  96 134 174 224 283 336 404
#     4  10  25  42  67  99 137 179 227 285 336 409
#     4  11  23  39  71  99 133 176 233 286 334 405
#
# _framework density 23.352968000000001
#
# number of rings (size 3 to 8) (size 9 to 14) (size 15 to 20)
#    0.000    1.143    4.286    1.714    6.000    1.143 
#    0.000    0.000    0.000    0.000    0.000    0.000 
#    0.000    0.000    0.000    0.000    0.000    0.000 
#
# Total GULP energy -156262.687146 kJ/mol
# GULP energy per Si atom -5580.810255 kJ/mol
# Density = 2.329982 g / cm^3
# Si number density = 23.352968 Si / 1000 Ang^3
#
#
#
# Elastic Constant Matrix: (Units=GPa)
#
#
# Indices 1 2 3 4 5 6 
#
# 1 127.6441 22.2959 15.5854 0.0000 0.0000 0.0000
# 2 22.2959 43.6773 -2.3070 0.0000 0.0000 0.0000
# 3 15.5854 -2.3070 54.1079 0.0000 0.0000 0.0000
# 4 0.0000 0.0000 0.0000 8.9542 0.0000 0.0000
# 5 0.0000 0.0000 0.0000 0.0000 35.7008 0.0000
# 6 0.0000 0.0000 0.0000 0.0000 0.0000 33.3510
#
#
#
# Elastic Compliance Matrix: (Units=1/GPa)
#
#
# Indices 1 2 3 4 5 6 
#
# 1 0.009004 -0.004744 -0.002796 0.000000 0.000000 0.000000
# 2 -0.004744 0.025446 0.002451 0.000000 0.000000 0.000000
# 3 -0.002796 0.002451 0.019391 0.000000 0.000000 0.000000
# 4 0.000000 0.000000 0.000000 0.111680 0.000000 0.000000
# 5 0.000000 0.000000 0.000000 0.000000 0.028011 0.000000
# 6 0.000000 0.000000 0.000000 0.000000 0.000000 0.029984
#
#
# Mechanical properties :
#
#
# Convention : Reuss Voigt Hill
#
# Bulk Modulus (GPa) = 22.90161 32.95311 27.92736
# Shear Modulus (GPa) = 20.14109 28.25819 24.19964
#
# Velocity S-wave (km/s) = 2.93996 3.48235 3.22258
# Velocity P-wave (km/s) = 4.62088 5.50550 5.08247
#
# Compressibility (1/GPa) = 0.04366505
#
# Stress axis : x y z
#
# Youngs Moduli (GPa) = 111.05769 39.29831 51.56913
#
# Poissons Ratio (x) = 0.18644 0.14418
# Poissons Ratio (y) = 0.52687 -0.12642
# Poissons Ratio (z) = 0.31051 -0.09634
#
# Static dielectric constant tensor:
#      x y z
#    x 1.881870 0.000000 0.000000 
#    y 0.000000 1.945540 0.000000 
#    z 0.000000 0.000000 1.949680 
# 
# From -- ./inp_files/3473.got.cif
#   From: 2010.05.17/outbox.cif.g08.bks.cpg/sg19_2_cif.got.tgz:3473.got - 2010.06.03 22:46:19.
