data_PCOD9315229
_publ_section_title
;
Structure prediction by ZEFSAII (Michael W. Deem and Ramdas Pophale) SiO2 
 PCOD9315229
Probable space group: P 21 21 21
;
_chemical_formula_sum "Si O2"
_cell_formula_units_Z 24
_cell_length_a 5.046839
_cell_length_b 10.857762
_cell_length_c 17.808011
_cell_angle_alpha 90.000000
_cell_angle_beta 90.000000
_cell_angle_gamma 90.000000
_cell_volume 975.832287
_symmetry_space_group_name_H-M "P 21 21 21"
_symmetry_group_IT_number 19
_symmetry_cell_setting 'orthorhombic'
loop_
_space_group_symop_operation_xyz
x,y,z
1/2-x,-y,1/2+z
1/2+x,1/2-y,-z
-x,1/2+y,1/2-z
loop_
_atom_site_type_symbol
_atom_site_label
_atom_site_fract_x
_atom_site_fract_y
_atom_site_fract_z
Si Si1 0.080217 0.260511 0.951665
Si Si2 0.724838 0.214940 0.457873
Si Si3 0.086269 0.906551 0.685710
Si Si4 0.513760 0.999322 0.381949
Si Si5 0.351303 0.813096 0.210742
Si Si6 0.479559 0.001096 0.780141
O O1 0.994724 0.373103 0.898593
O O2 0.018138 0.140417 0.903573
O O3 0.883404 0.249480 0.022632
O O4 0.520892 0.287355 0.511186
O O5 0.707402 0.267221 0.373197
O O6 0.594764 0.080014 0.452794
O O7 0.980415 0.794508 0.738795
O O8 0.004380 0.051805 0.700503
O O9 0.400387 0.920401 0.707045
O O10 0.245572 0.037935 0.340726
O O11 0.755311 0.011712 0.324776
O O12 0.088335 0.860504 0.253950
#
# Coordination Sequence:
#
# PCOD9315229 Si02
#       6
#     4   4   4   4   4   4
#     4  12  28  45  71 104 151 193 241 299 373 437
#     4  12  28  45  71 104 151 193 241 299 373 437
#     4  10  23  48  75 109 142 191 249 302 362 431
#     4  12  24  46  70 104 146 185 243 304 368 420
#     4  10  23  48  75 109 142 191 249 302 362 431
#     4  10  24  42  76 102 136 183 247 298 356 420
#
# _framework density 24.594390000000001
#
# number of rings (size 3 to 8) (size 9 to 14) (size 15 to 20)
#    1.000    0.000    3.333    2.000    4.667    4.000 
#    0.000    0.000    0.000    0.000    0.000    0.000 
#    0.000    0.000    0.000    0.000    0.000    0.000 
#
# Total GULP energy -134004.602996 kJ/mol
# GULP energy per Si atom -5583.525125 kJ/mol
# Density = 2.453841 g / cm^3
# Si number density = 24.594390 Si / 1000 Ang^3
#
#
#
# Elastic Constant Matrix: (Units=GPa)
#
#
# Indices 1 2 3 4 5 6 
#
# 1 61.1487 -3.4255 6.9398 0.0000 0.0000 0.0000
# 2 -3.4255 113.9940 16.2525 0.0000 0.0000 0.0000
# 3 6.9398 16.2525 73.7281 0.0000 0.0000 0.0000
# 4 0.0000 0.0000 0.0000 33.9724 0.0000 0.0000
# 5 0.0000 0.0000 0.0000 0.0000 30.6956 0.0000
# 6 0.0000 0.0000 0.0000 0.0000 0.0000 28.9563
#
#
#
# Elastic Compliance Matrix: (Units=1/GPa)
#
#
# Indices 1 2 3 4 5 6 
#
# 1 0.016591 0.000745 -0.001726 0.000000 0.000000 0.000000
# 2 0.000745 0.009090 -0.002074 0.000000 0.000000 0.000000
# 3 -0.001726 -0.002074 0.014183 0.000000 0.000000 0.000000
# 4 0.000000 0.000000 0.000000 0.029436 0.000000 0.000000
# 5 0.000000 0.000000 0.000000 0.000000 0.032578 0.000000
# 6 0.000000 0.000000 0.000000 0.000000 0.000000 0.034535
#
#
# Mechanical properties :
#
#
# Convention : Reuss Voigt Hill
#
# Bulk Modulus (GPa) = 29.62590 32.04494 30.83542
# Shear Modulus (GPa) = 32.51508 33.99846 33.25677
#
# Velocity S-wave (km/s) = 3.63995 3.72205 3.68123
# Velocity P-wave (km/s) = 5.45322 5.61509 5.53475
#
# Compressibility (1/GPa) = 0.03375424
#
# Stress axis : x y z
#
# Youngs Moduli (GPa) = 60.27305 110.00545 70.50703
#
# Poissons Ratio (x) = -0.08191 0.12168
# Poissons Ratio (y) = -0.04488 0.14623
# Poissons Ratio (z) = 0.10402 0.22815
#
# Static dielectric constant tensor:
#      x y z
#    x 2.037580 0.000000 0.000000 
#    y 0.000000 2.023870 0.000000 
#    z 0.000000 0.000000 2.009800 
# 
# From -- ./inp_files/6407.got.cif
#   From: 2010.05.17/outbox.cif.g08.bks.cpg/sg19_4_cif.got.tgz:6407.got - 2010.06.03 22:46:19.
