data_PCOD9315895
_publ_section_title
;
Structure prediction by ZEFSAII (Michael W. Deem and Ramdas Pophale) SiO2 
 PCOD9315895
Probable space group: P 21 21 21
;
_chemical_formula_sum "Si O2"
_cell_formula_units_Z 32
_cell_length_a 5.855470
_cell_length_b 26.609106
_cell_length_c 8.196957
_cell_angle_alpha 90.000000
_cell_angle_beta 90.000000
_cell_angle_gamma 90.000000
_cell_volume 1277.158213
_symmetry_space_group_name_H-M "P 21 21 21"
_symmetry_group_IT_number 19
_symmetry_cell_setting 'orthorhombic'
loop_
_space_group_symop_operation_xyz
x,y,z
1/2-x,-y,1/2+z
1/2+x,1/2-y,-z
-x,1/2+y,1/2-z
loop_
_atom_site_type_symbol
_atom_site_label
_atom_site_fract_x
_atom_site_fract_y
_atom_site_fract_z
Si Si1 0.812132 0.328316 0.082498
Si Si2 0.247460 0.452046 0.993041
Si Si3 0.874608 0.781686 0.645095
Si Si4 0.958178 0.413606 0.297086
Si Si5 0.511891 0.864490 0.700915
Si Si6 0.127615 0.623643 0.946419
Si Si7 0.047183 0.026664 0.723871
Si Si8 0.638997 0.759983 0.083351
O O1 0.689699 0.275638 0.115640
O O2 0.832914 0.362328 0.240777
O O3 0.057500 0.310304 0.018383
O O4 0.684792 0.356257 0.933208
O O5 0.450764 0.479446 0.093801
O O6 0.104158 0.424255 0.133194
O O7 0.344444 0.410670 0.871303
O O8 0.082187 0.489011 0.894745
O O9 0.093566 0.776640 0.763170
O O10 0.668088 0.814245 0.715039
O O11 0.815285 0.465496 0.303636
O O12 0.111759 0.398207 0.452496
O O13 0.476128 0.877679 0.889976
O O14 0.024575 0.582799 0.827279
O O15 0.144559 0.680381 0.883262
O O16 0.391198 0.751921 0.990510
#
# Coordination Sequence:
#
# PCOD9315895 Si02
#       8
#     4   4   4   4   4   4   4   4
#     4  12  25  43  70 102 149 197 255 310 378 462
#     4  11  25  46  73 105 137 184 246 312 389 470
#     4  12  26  39  71 103 143 201 253 302 378 451
#     4  11  26  46  72 105 145 192 245 316 389 465
#     4  12  24  47  68 106 143 195 251 314 380 461
#     4  11  27  45  74 104 150 196 255 315 388 460
#     4  11  25  49  73 103 141 190 243 318 388 470
#     4  12  28  47  71 110 160 205 260 315 388 463
#
# _framework density 25.055626
#
# number of rings (size 3 to 8) (size 9 to 14) (size 15 to 20)
#    0.000    0.500    5.000    2.250    7.000    4.000 
#    2.250    0.000    0.000    0.000    0.000    0.000 
#    0.000    0.000    0.000    0.000    0.000    0.000 
#
# Total GULP energy -178785.585479 kJ/mol
# GULP energy per Si atom -5587.049546 kJ/mol
# Density = 2.499860 g / cm^3
# Si number density = 25.055626 Si / 1000 Ang^3
#
#
#
# Elastic Constant Matrix: (Units=GPa)
#
#
# Indices 1 2 3 4 5 6 
#
# 1 35.9350 5.8636 3.1711 0.0000 0.0000 0.0000
# 2 5.8636 73.9325 12.3810 0.0000 0.0000 0.0000
# 3 3.1711 12.3810 49.4069 0.0000 0.0000 0.0000
# 4 0.0000 0.0000 0.0000 42.5428 0.0000 0.0000
# 5 0.0000 0.0000 0.0000 0.0000 43.7502 0.0000
# 6 0.0000 0.0000 0.0000 0.0000 0.0000 28.0489
#
#
#
# Elastic Compliance Matrix: (Units=1/GPa)
#
#
# Indices 1 2 3 4 5 6 
#
# 1 0.028274 -0.002023 -0.001308 0.000000 0.000000 0.000000
# 2 -0.002023 0.014263 -0.003444 0.000000 0.000000 0.000000
# 3 -0.001308 -0.003444 0.021187 0.000000 0.000000 0.000000
# 4 0.000000 0.000000 0.000000 0.023506 0.000000 0.000000
# 5 0.000000 0.000000 0.000000 0.000000 0.022857 0.000000
# 6 0.000000 0.000000 0.000000 0.000000 0.000000 0.035652
#
#
# Mechanical properties :
#
#
# Convention : Reuss Voigt Hill
#
# Bulk Modulus (GPa) = 19.93103 22.45620 21.19361
# Shear Modulus (GPa) = 28.40687 32.05897 30.23292
#
# Velocity S-wave (km/s) = 3.37078 3.58091 3.47743
# Velocity P-wave (km/s) = 4.80848 5.10678 4.95987
#
# Compressibility (1/GPa) = 0.05017303
#
# Stress axis : x y z
#
# Youngs Moduli (GPa) = 35.36876 70.11081 47.19837
#
# Poissons Ratio (x) = 0.14186 0.06172
# Poissons Ratio (y) = 0.07156 0.16257
# Poissons Ratio (z) = 0.04625 0.24149
#
# Static dielectric constant tensor:
#      x y z
#    x 2.283940 0.000000 0.000000 
#    y 0.000000 1.933380 0.000000 
#    z 0.000000 0.000000 2.033960 
# 
# From -- ./inp_files/2479.got.cif
#   From: 2010.05.17/outbox.cif.g08.bks.cpg/sg19_2_cif.got.tgz:2479.got - 2010.06.03 22:46:19.
