data_PCOD9315501
_publ_section_title
;
Structure prediction by ZEFSAII (Michael W. Deem and Ramdas Pophale) SiO2 
 PCOD9315501
Probable space group: P 21 21 21
;
_chemical_formula_sum "Si O2"
_cell_formula_units_Z 28
_cell_length_a 18.429427
_cell_length_b 13.057087
_cell_length_c 4.904881
_cell_angle_alpha 90.000000
_cell_angle_beta 90.000000
_cell_angle_gamma 90.000000
_cell_volume 1180.284233
_symmetry_space_group_name_H-M "P 21 21 21"
_symmetry_group_IT_number 19
_symmetry_cell_setting 'orthorhombic'
loop_
_space_group_symop_operation_xyz
x,y,z
1/2-x,-y,1/2+z
1/2+x,1/2-y,-z
-x,1/2+y,1/2-z
loop_
_atom_site_type_symbol
_atom_site_label
_atom_site_fract_x
_atom_site_fract_y
_atom_site_fract_z
Si Si1 0.301600 0.729040 0.803323
Si Si2 0.061616 0.410205 0.272291
Si Si3 0.414050 0.452336 0.299796
Si Si4 0.095626 0.863342 0.077672
Si Si5 0.798832 0.532490 0.235346
Si Si6 0.734971 0.936324 0.872496
Si Si7 0.640551 0.751650 0.423786
O O1 0.371439 0.665544 0.692644
O O2 0.315991 0.849498 0.834734
O O3 0.280027 0.666232 0.076783
O O4 0.224583 0.725278 0.643842
O O5 0.084281 0.471943 0.543152
O O6 0.988729 0.352641 0.358955
O O7 0.039215 0.487968 0.028015
O O8 0.343112 0.436001 0.488647
O O9 0.416144 0.340875 0.160392
O O10 0.134522 0.777549 0.262309
O O11 0.130100 0.970414 0.172343
O O12 0.116102 0.842287 0.766907
O O13 0.742079 0.522189 0.485059
O O14 0.770101 0.023513 0.067886
#
# Coordination Sequence:
#
# PCOD9315501 Si02
#       7
#     4   4   4   4   4   4   4
#     4  11  24  42  71 104 131 190 230 290 333 436
#     4  12  26  43  70 105 149 174 235 289 375 415
#     4  11  23  42  66 104 137 183 216 286 361 429
#     4  12  25  49  67 105 141 187 234 306 334 418
#     4  12  25  46  70  96 132 185 248 285 329 404
#     4  11  20  37  63  98 139 168 224 285 329 403
#     4  11  25  43  75  96 143 181 243 283 353 415
#
# _framework density 23.723098
#
# number of rings (size 3 to 8) (size 9 to 14) (size 15 to 20)
#    0.000    0.571    5.714    1.714    0.000    9.143 
#    0.000    0.000    0.000    0.000    0.000    0.000 
#    0.000    0.000    0.000    0.000    0.000    0.000 
#
# Total GULP energy -156391.752663 kJ/mol
# GULP energy per Si atom -5585.419738 kJ/mol
# Density = 2.366910 g / cm^3
# Si number density = 23.723098 Si / 1000 Ang^3
#
#
#
# Elastic Constant Matrix: (Units=GPa)
#
#
# Indices 1 2 3 4 5 6 
#
# 1 93.4649 33.1093 0.3153 0.0000 0.0000 0.0000
# 2 33.1093 142.3426 28.0832 0.0000 0.0000 0.0000
# 3 0.3153 28.0832 74.5801 0.0000 0.0000 0.0000
# 4 0.0000 0.0000 0.0000 37.7503 0.0000 0.0000
# 5 0.0000 0.0000 0.0000 0.0000 23.3359 0.0000
# 6 0.0000 0.0000 0.0000 0.0000 0.0000 29.0124
#
#
#
# Elastic Compliance Matrix: (Units=1/GPa)
#
#
# Indices 1 2 3 4 5 6 
#
# 1 0.011737 -0.002938 0.001057 0.000000 0.000000 0.000000
# 2 -0.002938 0.008325 -0.003122 0.000000 0.000000 0.000000
# 3 0.001057 -0.003122 0.014580 0.000000 0.000000 0.000000
# 4 0.000000 0.000000 0.000000 0.026490 0.000000 0.000000
# 5 0.000000 0.000000 0.000000 0.000000 0.042852 0.000000
# 6 0.000000 0.000000 0.000000 0.000000 0.000000 0.034468
#
#
# Mechanical properties :
#
#
# Convention : Reuss Voigt Hill
#
# Bulk Modulus (GPa) = 40.59560 48.15593 44.37576
# Shear Modulus (GPa) = 31.91418 34.61170 33.26294
#
# Velocity S-wave (km/s) = 3.67178 3.82381 3.74857
# Velocity P-wave (km/s) = 5.92667 6.31179 6.12226
#
# Compressibility (1/GPa) = 0.02463321
#
# Stress axis : x y z
#
# Youngs Moduli (GPa) = 85.20382 120.12294 68.58880
#
# Poissons Ratio (x) = 0.35298 -0.07249
# Poissons Ratio (y) = 0.25037 0.21415
# Poissons Ratio (z) = -0.09005 0.37506
#
# Static dielectric constant tensor:
#      x y z
#    x 1.956050 0.000000 0.000000 
#    y 0.000000 1.979700 0.000000 
#    z 0.000000 0.000000 1.881330 
# 
# From -- ./inp_files/1922.got.cif
#   From: 2010.05.17/outbox.cif.g08.bks.cpg/sg19_1_cif.got.tgz:1922.got - 2010.06.03 22:46:19.
