data_PCOD9315448
_publ_section_title
;
Structure prediction by ZEFSAII (Michael W. Deem and Ramdas Pophale) SiO2 
 PCOD9315448
Probable space group: P 21 21 21
;
_chemical_formula_sum "Si O2"
_cell_formula_units_Z 20
_cell_length_a 4.874800
_cell_length_b 27.508166
_cell_length_c 5.726957
_cell_angle_alpha 90.000000
_cell_angle_beta 90.000000
_cell_angle_gamma 90.000000
_cell_volume 767.966651
_symmetry_space_group_name_H-M "P 21 21 21"
_symmetry_group_IT_number 19
_symmetry_cell_setting 'orthorhombic'
loop_
_space_group_symop_operation_xyz
x,y,z
1/2-x,-y,1/2+z
1/2+x,1/2-y,-z
-x,1/2+y,1/2-z
loop_
_atom_site_type_symbol
_atom_site_label
_atom_site_fract_x
_atom_site_fract_y
_atom_site_fract_z
Si Si1 0.053931 0.555243 0.207728
Si Si2 0.730922 0.624109 0.552470
Si Si3 0.428736 0.201748 0.287955
Si Si4 0.462599 0.049057 0.598686
Si Si5 0.930078 0.190573 0.613241
O O1 0.911758 0.595882 0.362727
O O2 0.070358 0.504598 0.345366
O O3 0.846597 0.545103 0.993599
O O4 0.345794 0.569724 0.104946
O O5 0.553414 0.666632 0.432490
O O6 0.543759 0.584395 0.681435
O O7 0.941653 0.647623 0.737209
O O8 0.628807 0.186935 0.502304
O O9 0.467882 0.259003 0.244401
O O10 0.122621 0.196479 0.386654
#
# Coordination Sequence:
#
# PCOD9315448 Si02
#       5
#     4   4   4   4   4
#     4  12  28  52  78 112 154 205 259 317 383 459
#     4  12  28  50  82 116 156 206 256 314 392 446
#     4  10  25  50  77 113 158 202 256 314 376 457
#     4  12  28  52  78 112 154 205 259 317 383 459
#     4  10  25  50  77 113 158 202 256 314 376 457
#
# _framework density 26.042798999999999
#
# number of rings (size 3 to 8) (size 9 to 14) (size 15 to 20)
#    0.000    0.800    2.000    2.400    0.000   16.000 
#    0.000    4.000    0.000    0.000    0.000    0.000 
#    0.000    0.000    0.000    0.000    0.000    0.000 
#
# Total GULP energy -112366.496622 kJ/mol
# GULP energy per Si atom -5618.324831 kJ/mol
# Density = 2.598352 g / cm^3
# Si number density = 26.042799 Si / 1000 Ang^3
#
#
#
# Elastic Constant Matrix: (Units=GPa)
#
#
# Indices 1 2 3 4 5 6 
#
# 1 82.8162 14.0176 0.2320 0.0000 0.0000 0.0000
# 2 14.0176 130.9876 22.6154 0.0000 0.0000 0.0000
# 3 0.2320 22.6154 34.8546 0.0000 0.0000 0.0000
# 4 0.0000 0.0000 0.0000 59.1718 0.0000 0.0000
# 5 0.0000 0.0000 0.0000 0.0000 45.7876 0.0000
# 6 0.0000 0.0000 0.0000 0.0000 0.0000 25.2811
#
#
#
# Elastic Compliance Matrix: (Units=1/GPa)
#
#
# Indices 1 2 3 4 5 6 
#
# 1 0.012321 -0.001469 0.000871 0.000000 0.000000 0.000000
# 2 -0.001469 0.008773 -0.005682 0.000000 0.000000 0.000000
# 3 0.000871 -0.005682 0.032372 0.000000 0.000000 0.000000
# 4 0.000000 0.000000 0.000000 0.016900 0.000000 0.000000
# 5 0.000000 0.000000 0.000000 0.000000 0.021840 0.000000
# 6 0.000000 0.000000 0.000000 0.000000 0.000000 0.039555
#
#
# Mechanical properties :
#
#
# Convention : Reuss Voigt Hill
#
# Bulk Modulus (GPa) = 24.44679 35.82094 30.13386
# Shear Modulus (GPa) = 31.65442 40.16768 35.91105
#
# Velocity S-wave (km/s) = 3.49015 3.93156 3.71742
# Velocity P-wave (km/s) = 5.06449 5.86465 5.47920
#
# Compressibility (1/GPa) = 0.04090516
#
# Stress axis : x y z
#
# Youngs Moduli (GPa) = 81.16145 113.99173 30.89116
#
# Poissons Ratio (x) = 0.16745 -0.02691
# Poissons Ratio (y) = 0.11922 0.17553
# Poissons Ratio (z) = -0.07070 0.64773
#
# Static dielectric constant tensor:
#      x y z
#    x 1.964450 0.000000 0.000000 
#    y 0.000000 2.032970 0.000000 
#    z 0.000000 0.000000 2.036580 
# 
# From -- ./inp_files/165.got.cif
#   From: 2010.05.17/outbox.cif.g08.bks.cpg/sg19_1_cif.got.tgz:165.got - 2010.06.03 22:46:19.
