data_PCOD9315842
_publ_section_title
;
Structure prediction by ZEFSAII (Michael W. Deem and Ramdas Pophale) SiO2 
 PCOD9315842
Probable space group: P 21 21 21
;
_chemical_formula_sum "Si O2"
_cell_formula_units_Z 24
_cell_length_a 8.695716
_cell_length_b 16.377623
_cell_length_c 7.074050
_cell_angle_alpha 90.000000
_cell_angle_beta 90.000000
_cell_angle_gamma 90.000000
_cell_volume 1007.451951
_symmetry_space_group_name_H-M "P 21 21 21"
_symmetry_group_IT_number 19
_symmetry_cell_setting 'orthorhombic'
loop_
_space_group_symop_operation_xyz
x,y,z
1/2-x,-y,1/2+z
1/2+x,1/2-y,-z
-x,1/2+y,1/2-z
loop_
_atom_site_type_symbol
_atom_site_label
_atom_site_fract_x
_atom_site_fract_y
_atom_site_fract_z
Si Si1 0.574794 0.434214 0.876235
Si Si2 0.508634 0.273340 0.062576
Si Si3 0.848907 0.337679 0.682707
Si Si4 0.038575 0.482843 0.684060
Si Si5 0.861956 0.068789 0.446857
Si Si6 0.669258 0.745242 0.787755
O O1 0.708142 0.384322 0.777130
O O2 0.470844 0.470090 0.712803
O O3 0.485344 0.366549 0.999612
O O4 0.603816 0.498227 0.041852
O O5 0.379741 0.246997 0.211137
O O6 0.673682 0.262748 0.164812
O O7 0.469095 0.229515 0.862023
O O8 0.831641 0.317797 0.462140
O O9 0.995879 0.391441 0.745950
O O10 0.195815 0.472709 0.568701
O O11 0.061881 0.544710 0.855197
O O12 0.849527 0.164454 0.384507
#
# Coordination Sequence:
#
# PCOD9315842 Si02
#       6
#     4   4   4   4   4   4
#     4  11  27  45  69 109 146 193 237 307 362 440
#     4  11  24  47  74 107 145 187 250 301 375 431
#     4  12  28  45  76 110 145 195 240 308 369 434
#     4  12  26  48  72 107 147 195 245 301 367 442
#     4  11  25  47  75 103 145 192 246 297 368 435
#     4  11  26  48  74 112 142 196 244 312 365 444
#
# _framework density 23.822474
#
# number of rings (size 3 to 8) (size 9 to 14) (size 15 to 20)
#    0.000    0.667    5.000    1.000    9.333    1.333 
#    9.000    0.000    0.000    0.000    0.000    0.000 
#    0.000    0.000    0.000    0.000    0.000    0.000 
#
# Total GULP energy -133963.904695 kJ/mol
# GULP energy per Si atom -5581.829362 kJ/mol
# Density = 2.376825 g / cm^3
# Si number density = 23.822474 Si / 1000 Ang^3
#
#
#
# Elastic Constant Matrix: (Units=GPa)
#
#
# Indices 1 2 3 4 5 6 
#
# 1 84.1519 17.8099 63.3271 0.0000 0.0000 0.0000
# 2 17.8099 53.8102 57.0916 0.0000 0.0000 0.0000
# 3 63.3271 57.0916 204.3765 0.0000 0.0000 0.0000
# 4 0.0000 0.0000 0.0000 39.3946 0.0000 0.0000
# 5 0.0000 0.0000 0.0000 0.0000 38.8691 0.0000
# 6 0.0000 0.0000 0.0000 0.0000 0.0000 31.6798
#
#
#
# Elastic Compliance Matrix: (Units=1/GPa)
#
#
# Indices 1 2 3 4 5 6 
#
# 1 0.015497 -0.000049 -0.004788 0.000000 0.000000 0.000000
# 2 -0.000049 0.026412 -0.007363 0.000000 0.000000 0.000000
# 3 -0.004788 -0.007363 0.008433 0.000000 0.000000 0.000000
# 4 0.000000 0.000000 0.000000 0.025384 0.000000 0.000000
# 5 0.000000 0.000000 0.000000 0.000000 0.025727 0.000000
# 6 0.000000 0.000000 0.000000 0.000000 0.000000 0.031566
#
#
# Mechanical properties :
#
#
# Convention : Reuss Voigt Hill
#
# Bulk Modulus (GPa) = 38.54727 68.75507 53.65117
# Shear Modulus (GPa) = 30.10837 35.59604 32.85220
#
# Velocity S-wave (km/s) = 3.55894 3.86971 3.71757
# Velocity P-wave (km/s) = 5.75363 6.99216 6.40291
#
# Compressibility (1/GPa) = 0.02594218
#
# Stress axis : x y z
#
# Youngs Moduli (GPa) = 64.52931 37.86169 118.57730
#
# Poissons Ratio (x) = 0.00186 0.56776
# Poissons Ratio (y) = 0.00316 0.87307
# Poissons Ratio (z) = 0.30897 0.27877
#
# Static dielectric constant tensor:
#      x y z
#    x 1.933040 0.000000 0.000000 
#    y 0.000000 2.038890 0.000000 
#    z 0.000000 0.000000 1.937240 
# 
# From -- ./inp_files/418.got.cif
#   From: 2010.05.17/outbox.cif.g08.bks.cpg/sg19_1_cif.got.tgz:418.got - 2010.06.03 22:46:19.
