data_PCOD9315128
_publ_section_title
;
Structure prediction by ZEFSAII (Michael W. Deem and Ramdas Pophale) SiO2 
 PCOD9315128
Probable space group: P 21 21 21
;
_chemical_formula_sum "Si O2"
_cell_formula_units_Z 28
_cell_length_a 5.484954
_cell_length_b 8.968266
_cell_length_c 22.865387
_cell_angle_alpha 90.000000
_cell_angle_beta 90.000000
_cell_angle_gamma 90.000000
_cell_volume 1124.760424
_symmetry_space_group_name_H-M "P 21 21 21"
_symmetry_group_IT_number 19
_symmetry_cell_setting 'orthorhombic'
loop_
_space_group_symop_operation_xyz
x,y,z
1/2-x,-y,1/2+z
1/2+x,1/2-y,-z
-x,1/2+y,1/2-z
loop_
_atom_site_type_symbol
_atom_site_label
_atom_site_fract_x
_atom_site_fract_y
_atom_site_fract_z
Si Si1 0.479064 0.270520 0.207999
Si Si2 0.645144 0.916831 0.082654
Si Si3 0.366797 0.461103 0.808097
Si Si4 0.788000 0.066219 0.971194
Si Si5 0.731173 0.453935 0.714585
Si Si6 0.747969 0.358372 0.904892
Si Si7 0.786901 0.576953 0.077205
O O1 0.530704 0.441899 0.217076
O O2 0.290535 0.198247 0.252311
O O3 0.423231 0.231309 0.140762
O O4 0.723648 0.177437 0.218459
O O5 0.710489 0.748837 0.065123
O O6 0.373919 0.986234 0.076332
O O7 0.797842 0.025341 0.039632
O O8 0.698633 0.933483 0.151845
O O9 0.528869 0.526656 0.756400
O O10 0.536040 0.394874 0.859629
O O11 0.547720 0.973589 0.949384
O O12 0.046556 0.015569 0.943243
O O13 0.724514 0.238328 0.956557
O O14 0.671494 0.439755 0.646935
#
# Coordination Sequence:
#
# PCOD9315128 Si02
#       7
#     4   4   4   4   4   4   4
#     4  10  23  44  63 106 138 190 242 307 372 460
#     4  11  28  46  77 108 151 198 265 310 389 455
#     4  10  25  42  71 102 145 188 252 310 375 451
#     4  12  28  50  78 108 156 196 259 315 386 453
#     4  11  25  41  73  98 152 188 252 305 388 444
#     4  10  24  46  71 104 144 192 256 311 382 450
#     4  12  29  49  75 112 152 206 246 320 388 463
#
# _framework density 24.894189000000001
#
# number of rings (size 3 to 8) (size 9 to 14) (size 15 to 20)
#    0.000    1.143    1.429    1.714   18.000    1.143 
#    0.000    0.000    0.000    0.000    0.000    0.000 
#    0.000    0.000    0.000    0.000    0.000    0.000 
#
# Total GULP energy -156506.461514 kJ/mol
# GULP energy per Si atom -5589.516483 kJ/mol
# Density = 2.483753 g / cm^3
# Si number density = 24.894189 Si / 1000 Ang^3
#
#
#
# Elastic Constant Matrix: (Units=GPa)
#
#
# Indices 1 2 3 4 5 6 
#
# 1 98.2408 26.6423 33.3159 0.0000 0.0000 0.0000
# 2 26.6423 104.0611 11.9788 0.0000 0.0000 0.0000
# 3 33.3159 11.9788 146.5803 0.0000 0.0000 0.0000
# 4 0.0000 0.0000 0.0000 29.1564 0.0000 0.0000
# 5 0.0000 0.0000 0.0000 0.0000 42.9979 0.0000
# 6 0.0000 0.0000 0.0000 0.0000 0.0000 23.8535
#
#
#
# Elastic Compliance Matrix: (Units=1/GPa)
#
#
# Indices 1 2 3 4 5 6 
#
# 1 0.011748 -0.002726 -0.002447 0.000000 0.000000 0.000000
# 2 -0.002726 0.010334 -0.000225 0.000000 0.000000 0.000000
# 3 -0.002447 -0.000225 0.007397 0.000000 0.000000 0.000000
# 4 0.000000 0.000000 0.000000 0.034298 0.000000 0.000000
# 5 0.000000 0.000000 0.000000 0.000000 0.023257 0.000000
# 6 0.000000 0.000000 0.000000 0.000000 0.000000 0.041923
#
#
# Mechanical properties :
#
#
# Convention : Reuss Voigt Hill
#
# Bulk Modulus (GPa) = 53.52785 54.75067 54.13926
# Shear Modulus (GPa) = 34.25118 37.66457 35.95788
#
# Velocity S-wave (km/s) = 3.71330 3.89393 3.80469
# Velocity P-wave (km/s) = 6.31930 6.50062 6.41060
#
# Compressibility (1/GPa) = 0.01868186
#
# Stress axis : x y z
#
# Youngs Moduli (GPa) = 85.11808 96.77182 135.19254
#
# Poissons Ratio (x) = 0.26381 0.33088
# Poissons Ratio (y) = 0.23204 0.03040
# Poissons Ratio (z) = 0.20832 0.02176
#
# Static dielectric constant tensor:
#      x y z
#    x 2.095780 0.000000 0.000000 
#    y 0.000000 1.969440 0.000000 
#    z 0.000000 0.000000 1.983240 
# 
# From -- ./inp_files/559.got.cif
#   From: 2010.05.17/outbox.cif.g08.bks.cpg/sg19_1_cif.got.tgz:559.got - 2010.06.03 22:46:19.
