data_PCOD9315440
_publ_section_title
;
Structure prediction by ZEFSAII (Michael W. Deem and Ramdas Pophale) SiO2 
 PCOD9315440
Probable space group: P 21 21 21
;
_chemical_formula_sum "Si O2"
_cell_formula_units_Z 24
_cell_length_a 15.647441
_cell_length_b 10.281090
_cell_length_c 5.651406
_cell_angle_alpha 90.000000
_cell_angle_beta 90.000000
_cell_angle_gamma 90.000000
_cell_volume 909.157220
_symmetry_space_group_name_H-M "P 21 21 21"
_symmetry_group_IT_number 19
_symmetry_cell_setting 'orthorhombic'
loop_
_space_group_symop_operation_xyz
x,y,z
1/2-x,-y,1/2+z
1/2+x,1/2-y,-z
-x,1/2+y,1/2-z
loop_
_atom_site_type_symbol
_atom_site_label
_atom_site_fract_x
_atom_site_fract_y
_atom_site_fract_z
Si Si1 0.160774 0.167101 0.198057
Si Si2 0.497206 0.410655 0.026367
Si Si3 0.111200 0.890254 0.214552
Si Si4 0.154011 0.601440 0.232693
Si Si5 0.975755 0.946168 0.577304
Si Si6 0.675583 0.197068 0.294106
O O1 0.179795 0.237916 0.445159
O O2 0.057935 0.175770 0.140069
O O3 0.176915 0.011841 0.224195
O O4 0.197665 0.218760 0.946302
O O5 0.540342 0.550105 0.960602
O O6 0.397602 0.395549 0.978295
O O7 0.508133 0.418645 0.304906
O O8 0.143154 0.749902 0.140622
O O9 0.059361 0.885293 0.461229
O O10 0.254218 0.581900 0.218893
O O11 0.096990 0.494681 0.103627
O O12 0.918806 0.856562 0.745883
#
# Coordination Sequence:
#
# PCOD9315440 Si02
#       6
#     4   4   4   4   4   4
#     4  10  25  48  70 106 139 198 240 302 358 429
#     4   9  23  43  70  99 138 187 253 289 351 427
#     4   9  23  45  71 102 139 188 253 297 347 436
#     4  11  26  43  71 109 145 195 235 305 372 438
#     4  11  25  43  75 102 149 190 252 300 360 436
#     4  12  28  44  75 104 158 186 235 305 376 434
#
# _framework density 26.398074000000001
#
# number of rings (size 3 to 8) (size 9 to 14) (size 15 to 20)
#    1.000    0.667    0.000    2.000   11.667    2.667 
#    0.000    0.000    0.000    0.000    0.000    0.000 
#    0.000    0.000    0.000    0.000    0.000    0.000 
#
# Total GULP energy -133737.804105 kJ/mol
# GULP energy per Si atom -5572.408504 kJ/mol
# Density = 2.633799 g / cm^3
# Si number density = 26.398074 Si / 1000 Ang^3
#
#
#
# Elastic Constant Matrix: (Units=GPa)
#
#
# Indices 1 2 3 4 5 6 
#
# 1 78.9961 3.3470 28.1144 0.0000 0.0000 0.0000
# 2 3.3470 85.5818 29.7573 0.0000 0.0000 0.0000
# 3 28.1144 29.7573 93.5947 0.0000 0.0000 0.0000
# 4 0.0000 0.0000 0.0000 38.1457 0.0000 0.0000
# 5 0.0000 0.0000 0.0000 0.0000 26.4858 0.0000
# 6 0.0000 0.0000 0.0000 0.0000 0.0000 37.9763
#
#
#
# Elastic Compliance Matrix: (Units=1/GPa)
#
#
# Indices 1 2 3 4 5 6 
#
# 1 0.014257 0.001047 -0.004616 0.000000 0.000000 0.000000
# 2 0.001047 0.013214 -0.004516 0.000000 0.000000 0.000000
# 3 -0.004616 -0.004516 0.013507 0.000000 0.000000 0.000000
# 4 0.000000 0.000000 0.000000 0.026215 0.000000 0.000000
# 5 0.000000 0.000000 0.000000 0.000000 0.037756 0.000000
# 6 0.000000 0.000000 0.000000 0.000000 0.000000 0.026332
#
#
# Mechanical properties :
#
#
# Convention : Reuss Voigt Hill
#
# Bulk Modulus (GPa) = 40.30725 42.29001 41.29863
# Shear Modulus (GPa) = 32.10908 33.65184 32.88046
#
# Velocity S-wave (km/s) = 3.49139 3.57428 3.53308
# Velocity P-wave (km/s) = 5.61741 5.75230 5.68525
#
# Compressibility (1/GPa) = 0.02480943
#
# Stress axis : x y z
#
# Youngs Moduli (GPa) = 70.14022 75.67764 74.03803
#
# Poissons Ratio (x) = -0.07926 0.34173
# Poissons Ratio (y) = -0.07346 0.33434
# Poissons Ratio (z) = 0.32374 0.34175
#
# Static dielectric constant tensor:
#      x y z
#    x 2.057440 0.000000 0.000000 
#    y 0.000000 2.324190 0.000000 
#    z 0.000000 0.000000 2.230780 
# 
# From -- ./inp_files/1711.got.cif
#   From: 2010.05.17/outbox.cif.g08.bks.cpg/sg19_1_cif.got.tgz:1711.got - 2010.06.03 22:46:19.
