data_PCOD9315709
_publ_section_title
;
Structure prediction by ZEFSAII (Michael W. Deem and Ramdas Pophale) SiO2 
 PCOD9315709
Probable space group: P 21 21 21
;
_chemical_formula_sum "Si O2"
_cell_formula_units_Z 20
_cell_length_a 9.974195
_cell_length_b 9.450761
_cell_length_c 9.255046
_cell_angle_alpha 90.000000
_cell_angle_beta 90.000000
_cell_angle_gamma 90.000000
_cell_volume 872.415186
_symmetry_space_group_name_H-M "P 21 21 21"
_symmetry_group_IT_number 19
_symmetry_cell_setting 'orthorhombic'
loop_
_space_group_symop_operation_xyz
x,y,z
1/2-x,-y,1/2+z
1/2+x,1/2-y,-z
-x,1/2+y,1/2-z
loop_
_atom_site_type_symbol
_atom_site_label
_atom_site_fract_x
_atom_site_fract_y
_atom_site_fract_z
Si Si1 0.506901 0.029551 0.147895
Si Si2 0.167816 0.244711 0.749290
Si Si3 0.693287 0.344157 0.644000
Si Si4 0.095423 0.697301 0.034720
Si Si5 0.242861 0.867784 0.535956
O O1 0.418127 0.895369 0.205880
O O2 0.593719 0.105107 0.269684
O O3 0.407752 0.152255 0.092223
O O4 0.585002 0.966849 0.010196
O O5 0.305515 0.254059 0.660938
O O6 0.200207 0.237338 0.918834
O O7 0.558607 0.270717 0.580500
O O8 0.827312 0.257504 0.606097
O O9 0.723706 0.488092 0.556458
O O10 0.675920 0.374286 0.814041
#
# Coordination Sequence:
#
# PCOD9315709 Si02
#       5
#     4   4   4   4   4
#     4  11  26  46  76 108 151 204 248 320 388 445
#     4  12  26  48  74 112 152 202 261 314 386 467
#     4  11  23  46  74 105 147 199 248 314 377 458
#     4  11  24  47  71 110 148 197 255 306 393 441
#     4  11  23  45  73 103 146 200 248 310 384 445
#
# _framework density 22.924863999999999
#
# number of rings (size 3 to 8) (size 9 to 14) (size 15 to 20)
#    0.000    0.800    6.000    1.200    2.800    3.200 
#    7.200    0.000    0.000    0.000    0.000    0.000 
#    0.000    0.000    0.000    0.000    0.000    0.000 
#
# Total GULP energy -111401.135116 kJ/mol
# GULP energy per Si atom -5570.056756 kJ/mol
# Density = 2.287269 g / cm^3
# Si number density = 22.924864 Si / 1000 Ang^3
#
#
#
# Elastic Constant Matrix: (Units=GPa)
#
#
# Indices 1 2 3 4 5 6 
#
# 1 127.3703 47.1901 42.5612 0.0000 0.0000 0.0000
# 2 47.1901 53.5766 34.5354 0.0000 0.0000 0.0000
# 3 42.5612 34.5354 172.9359 0.0000 0.0000 0.0000
# 4 0.0000 0.0000 0.0000 34.0990 0.0000 0.0000
# 5 0.0000 0.0000 0.0000 0.0000 31.2634 0.0000
# 6 0.0000 0.0000 0.0000 0.0000 0.0000 36.4231
#
#
#
# Elastic Compliance Matrix: (Units=1/GPa)
#
#
# Indices 1 2 3 4 5 6 
#
# 1 0.011789 -0.009771 -0.000950 0.000000 0.000000 0.000000
# 2 -0.009771 0.029521 -0.003491 0.000000 0.000000 0.000000
# 3 -0.000950 -0.003491 0.006713 0.000000 0.000000 0.000000
# 4 0.000000 0.000000 0.000000 0.029326 0.000000 0.000000
# 5 0.000000 0.000000 0.000000 0.000000 0.031986 0.000000
# 6 0.000000 0.000000 0.000000 0.000000 0.000000 0.027455
#
#
# Mechanical properties :
#
#
# Convention : Reuss Voigt Hill
#
# Bulk Modulus (GPa) = 51.02078 66.93959 58.98019
# Shear Modulus (GPa) = 29.11241 35.66350 32.38795
#
# Velocity S-wave (km/s) = 3.56744 3.94848 3.76278
# Velocity P-wave (km/s) = 6.26680 7.07462 6.68293
#
# Compressibility (1/GPa) = 0.01959986
#
# Stress axis : x y z
#
# Youngs Moduli (GPa) = 84.82686 33.87382 148.95611
#
# Poissons Ratio (x) = 0.33098 0.14151
# Poissons Ratio (y) = 0.82885 0.51996
# Poissons Ratio (z) = 0.08059 0.11824
#
# Static dielectric constant tensor:
#      x y z
#    x 1.931930 0.000000 0.000000 
#    y 0.000000 1.872760 0.000000 
#    z 0.000000 0.000000 1.934430 
# 
# From -- ./inp_files/2665.got.cif
#   From: 2010.05.17/outbox.cif.g08.bks.cpg/sg19_2_cif.got.tgz:2665.got - 2010.06.03 22:46:19.
