data_PCOD9315973
_publ_section_title
;
Structure prediction by ZEFSAII (Michael W. Deem and Ramdas Pophale) SiO2 
 PCOD9315973
Probable space group: P 21 21 21
;
_chemical_formula_sum "Si O2"
_cell_formula_units_Z 24
_cell_length_a 5.068319
_cell_length_b 26.121527
_cell_length_c 7.765285
_cell_angle_alpha 90.000000
_cell_angle_beta 90.000000
_cell_angle_gamma 90.000000
_cell_volume 1028.063410
_symmetry_space_group_name_H-M "P 21 21 21"
_symmetry_group_IT_number 19
_symmetry_cell_setting 'orthorhombic'
loop_
_space_group_symop_operation_xyz
x,y,z
1/2-x,-y,1/2+z
1/2+x,1/2-y,-z
-x,1/2+y,1/2-z
loop_
_atom_site_type_symbol
_atom_site_label
_atom_site_fract_x
_atom_site_fract_y
_atom_site_fract_z
Si Si1 0.874643 0.028791 0.801348
Si Si2 0.625405 0.471727 0.819293
Si Si3 0.967957 0.786051 0.489538
Si Si4 0.613768 0.853744 0.296474
Si Si5 0.428082 0.786345 0.991309
Si Si6 0.670651 0.354365 0.828587
O O1 0.825332 0.087760 0.751446
O O2 0.602513 0.997950 0.793643
O O3 0.103101 0.002866 0.687891
O O4 0.999536 0.028049 0.991152
O O5 0.683561 0.412969 0.770476
O O6 0.871174 0.818817 0.327394
O O7 0.957075 0.681050 0.183585
O O8 0.726411 0.748729 0.535676
O O9 0.047938 0.827839 0.632207
O O10 0.472013 0.853964 0.484262
O O11 0.449139 0.825831 0.149531
O O12 0.656676 0.744524 0.010092
#
# Coordination Sequence:
#
# PCOD9315973 Si02
#       6
#     4   4   4   4   4   4
#     4  11  27  48  79 110 150 198 251 315 385 447
#     4  11  27  48  79 110 150 198 251 315 385 447
#     4  12  26  44  83 106 145 204 252 304 370 450
#     4  11  29  50  78 110 153 204 254 311 381 455
#     4  12  32  46  73 116 151 196 256 312 380 446
#     4  11  29  50  78 110 153 204 254 311 381 455
#
# _framework density 23.344864000000001
#
# number of rings (size 3 to 8) (size 9 to 14) (size 15 to 20)
#    0.000    0.667    1.667    2.000   23.333    0.000 
#    0.000    0.000    0.000    0.000    0.000    0.000 
#    0.000    0.000    0.000    0.000    0.000    0.000 
#
# Total GULP energy -134458.377202 kJ/mol
# GULP energy per Si atom -5602.432383 kJ/mol
# Density = 2.329173 g / cm^3
# Si number density = 23.344864 Si / 1000 Ang^3
#
#
#
# Elastic Constant Matrix: (Units=GPa)
#
#
# Indices 1 2 3 4 5 6 
#
# 1 117.3887 29.2338 0.4310 0.0000 0.0000 0.0000
# 2 29.2338 139.4748 12.3679 0.0000 0.0000 0.0000
# 3 0.4310 12.3679 87.2858 0.0000 0.0000 0.0000
# 4 0.0000 0.0000 0.0000 2.2353 0.0000 0.0000
# 5 0.0000 0.0000 0.0000 0.0000 41.1812 0.0000
# 6 0.0000 0.0000 0.0000 0.0000 0.0000 124.7269
#
#
#
# Elastic Compliance Matrix: (Units=1/GPa)
#
#
# Indices 1 2 3 4 5 6 
#
# 1 0.008992 -0.001905 0.000225 0.000000 0.000000 0.000000
# 2 -0.001905 0.007664 -0.001077 0.000000 0.000000 0.000000
# 3 0.000225 -0.001077 0.011608 0.000000 0.000000 0.000000
# 4 0.000000 0.000000 0.000000 0.447358 0.000000 0.000000
# 5 0.000000 0.000000 0.000000 0.000000 0.024283 0.000000
# 6 0.000000 0.000000 0.000000 0.000000 0.000000 0.008018
#
#
# Mechanical properties :
#
#
# Convention : Reuss Voigt Hill
#
# Bulk Modulus (GPa) = 43.95024 47.57940 45.76482
# Shear Modulus (GPa) = 9.59657 53.76981 31.68319
#
# Velocity S-wave (km/s) = 2.02971 4.80446 3.68799
# Velocity P-wave (km/s) = 4.93562 7.15559 6.14666
#
# Compressibility (1/GPa) = 0.02275300
#
# Stress axis : x y z
#
# Youngs Moduli (GPa) = 111.20707 130.47241 86.14706
#
# Poissons Ratio (x) = 0.24852 -0.01943
# Poissons Ratio (y) = 0.21182 0.09275
# Poissons Ratio (z) = -0.02508 0.14047
#
# Static dielectric constant tensor:
#      x y z
#    x 1.958110 0.000000 0.000000 
#    y 0.000000 1.855420 0.000000 
#    z 0.000000 0.000000 1.872230 
# 
# From -- ./inp_files/2106.got.cif
#   From: 2010.05.17/outbox.cif.g08.bks.cpg/sg19_2_cif.got.tgz:2106.got - 2010.06.03 22:46:19.
