data_PCOD9315084
_publ_section_title
;
Structure prediction by ZEFSAII (Michael W. Deem and Ramdas Pophale) SiO2 
 PCOD9315084
Probable space group: P 21 21 21
;
_chemical_formula_sum "Si O2"
_cell_formula_units_Z 24
_cell_length_a 9.296053
_cell_length_b 19.628286
_cell_length_c 5.101852
_cell_angle_alpha 90.000000
_cell_angle_beta 90.000000
_cell_angle_gamma 90.000000
_cell_volume 930.912420
_symmetry_space_group_name_H-M "P 21 21 21"
_symmetry_group_IT_number 19
_symmetry_cell_setting 'orthorhombic'
loop_
_space_group_symop_operation_xyz
x,y,z
1/2-x,-y,1/2+z
1/2+x,1/2-y,-z
-x,1/2+y,1/2-z
loop_
_atom_site_type_symbol
_atom_site_label
_atom_site_fract_x
_atom_site_fract_y
_atom_site_fract_z
Si Si1 0.117026 0.931171 0.884467
Si Si2 0.956426 0.728471 0.505540
Si Si3 0.666792 0.702523 0.793006
Si Si4 0.215834 0.691211 0.801293
Si Si5 0.221987 0.545984 0.950095
Si Si6 0.563973 0.491417 0.617145
O O1 0.063997 0.946779 0.592692
O O2 0.281824 0.956785 0.883649
O O3 0.123944 0.858024 0.016493
O O4 0.037283 0.979827 0.094063
O O5 0.834148 0.704534 0.711858
O O6 0.838735 0.755013 0.288586
O O7 0.064339 0.793580 0.463031
O O8 0.091997 0.678466 0.580665
O O9 0.639336 0.772202 0.953735
O O10 0.285091 0.619923 0.887248
O O11 0.230200 0.496282 0.702922
O O12 0.055086 0.560314 0.019217
#
# Coordination Sequence:
#
# PCOD9315084 Si02
#       6
#     4   4   4   4   4   4
#     4  10  23  42  74  98 136 180 239 291 354 413
#     4  10  25  43  70 104 139 183 233 301 359 431
#     4  11  24  43  71 103 140 187 231 308 355 434
#     4  11  26  47  70 108 143 188 245 296 370 428
#     4  12  29  46  72 101 148 197 236 294 357 441
#     4  10  23  45  65 104 134 183 236 290 345 429
#
# _framework density 25.781158000000001
#
# number of rings (size 3 to 8) (size 9 to 14) (size 15 to 20)
#    0.000    1.333    0.000    3.000   14.000    0.000 
#    9.000    0.000    0.000    0.000    0.000    0.000 
#    0.000    0.000    0.000    0.000    0.000    0.000 
#
# Total GULP energy -133731.462227 kJ/mol
# GULP energy per Si atom -5572.144259 kJ/mol
# Density = 2.572248 g / cm^3
# Si number density = 25.781158 Si / 1000 Ang^3
#
#
#
# Elastic Constant Matrix: (Units=GPa)
#
#
# Indices 1 2 3 4 5 6 
#
# 1 101.3694 10.0993 27.2918 0.0000 0.0000 0.0000
# 2 10.0993 44.6574 -23.2149 0.0000 0.0000 0.0000
# 3 27.2918 -23.2149 68.0209 0.0000 0.0000 0.0000
# 4 0.0000 0.0000 0.0000 30.7896 0.0000 0.0000
# 5 0.0000 0.0000 0.0000 0.0000 24.6628 0.0000
# 6 0.0000 0.0000 0.0000 0.0000 0.0000 19.7811
#
#
#
# Elastic Compliance Matrix: (Units=1/GPa)
#
#
# Indices 1 2 3 4 5 6 
#
# 1 0.012475 -0.006593 -0.007256 0.000000 0.000000 0.000000
# 2 -0.006593 0.030707 0.013125 0.000000 0.000000 0.000000
# 3 -0.007256 0.013125 0.022092 0.000000 0.000000 0.000000
# 4 0.000000 0.000000 0.000000 0.032479 0.000000 0.000000
# 5 0.000000 0.000000 0.000000 0.000000 0.040547 0.000000
# 6 0.000000 0.000000 0.000000 0.000000 0.000000 0.050553
#
#
# Mechanical properties :
#
#
# Convention : Reuss Voigt Hill
#
# Bulk Modulus (GPa) = 15.66726 26.93336 21.30031
# Shear Modulus (GPa) = 23.63227 28.37145 26.00186
#
# Velocity S-wave (km/s) = 3.03091 3.32094 3.17923
# Velocity P-wave (km/s) = 4.28237 5.01741 4.66439
#
# Compressibility (1/GPa) = 0.06382737
#
# Stress axis : x y z
#
# Youngs Moduli (GPa) = 80.15916 32.56606 45.26532
#
# Poissons Ratio (x) = 0.21471 0.32842
# Poissons Ratio (y) = 0.52849 -0.59412
# Poissons Ratio (z) = 0.58160 -0.42744
#
# Static dielectric constant tensor:
#      x y z
#    x 2.134110 0.000000 0.000000 
#    y 0.000000 2.031070 0.000000 
#    z 0.000000 0.000000 2.061460 
# 
# From -- ./inp_files/419.got.cif
#   From: 2010.05.17/outbox.cif.g08.bks.cpg/sg19_1_cif.got.tgz:419.got - 2010.06.03 22:46:19.
