data_PCOD9315074
_publ_section_title
;
Structure prediction by ZEFSAII (Michael W. Deem and Ramdas Pophale) SiO2 
 PCOD9315074
Probable space group: P 21 21 21
;
_chemical_formula_sum "Si O2"
_cell_formula_units_Z 16
_cell_length_a 5.202821
_cell_length_b 24.762562
_cell_length_c 4.780741
_cell_angle_alpha 90.000000
_cell_angle_beta 90.000000
_cell_angle_gamma 90.000000
_cell_volume 615.927616
_symmetry_space_group_name_H-M "P 21 21 21"
_symmetry_group_IT_number 19
_symmetry_cell_setting 'orthorhombic'
loop_
_space_group_symop_operation_xyz
x,y,z
1/2-x,-y,1/2+z
1/2+x,1/2-y,-z
-x,1/2+y,1/2-z
loop_
_atom_site_type_symbol
_atom_site_label
_atom_site_fract_x
_atom_site_fract_y
_atom_site_fract_z
Si Si1 0.634953 0.566458 0.738846
Si Si2 0.346966 0.283231 0.523540
Si Si3 0.739905 0.145772 0.955483
Si Si4 0.987459 0.547684 0.245446
O O1 0.499597 0.623903 0.726142
O O2 0.729815 0.555566 0.427127
O O3 0.448670 0.515264 0.801926
O O4 0.882814 0.561134 0.937760
O O5 0.613780 0.253531 0.593069
O O6 0.224824 0.310652 0.798736
O O7 0.412957 0.326696 0.282221
O O8 0.829200 0.092349 0.123852
#
# Coordination Sequence:
#
# PCOD9315074 Si02
#       4
#     4   4   4   4
#     4  10  23  42  69 110 154 190 240 300 374 469
#     4  12  30  51  76 110 146 197 268 330 376 446
#     4  12  26  45  80 100 150 199 246 314 392 446
#     4  10  23  42  69 110 154 190 240 300 374 469
#
# _framework density 25.977079
#
# number of rings (size 3 to 8) (size 9 to 14) (size 15 to 20)
#    0.000    1.000    0.000    4.500   10.500    8.000 
#    0.000    0.000    0.000    0.000    0.000    0.000 
#    0.000    0.000    0.000    0.000    0.000    0.000 
#
# Total GULP energy -89442.158055 kJ/mol
# GULP energy per Si atom -5590.134878 kJ/mol
# Density = 2.591795 g / cm^3
# Si number density = 25.977079 Si / 1000 Ang^3
#
#
#
# Elastic Constant Matrix: (Units=GPa)
#
#
# Indices 1 2 3 4 5 6 
#
# 1 101.9699 40.7510 17.7625 0.0000 0.0000 0.0000
# 2 40.7510 70.7357 37.7393 0.0000 0.0000 0.0000
# 3 17.7625 37.7393 93.0385 0.0000 0.0000 0.0000
# 4 0.0000 0.0000 0.0000 47.1375 0.0000 0.0000
# 5 0.0000 0.0000 0.0000 0.0000 33.5094 0.0000
# 6 0.0000 0.0000 0.0000 0.0000 0.0000 44.1824
#
#
#
# Elastic Compliance Matrix: (Units=1/GPa)
#
#
# Indices 1 2 3 4 5 6 
#
# 1 0.012775 -0.007732 0.000697 0.000000 0.000000 0.000000
# 2 -0.007732 0.022721 -0.007740 0.000000 0.000000 0.000000
# 3 0.000697 -0.007740 0.013755 0.000000 0.000000 0.000000
# 4 0.000000 0.000000 0.000000 0.021215 0.000000 0.000000
# 5 0.000000 0.000000 0.000000 0.000000 0.029842 0.000000
# 6 0.000000 0.000000 0.000000 0.000000 0.000000 0.022633
#
#
# Mechanical properties :
#
#
# Convention : Reuss Voigt Hill
#
# Bulk Modulus (GPa) = 50.75753 50.91663 50.83708
# Shear Modulus (GPa) = 31.43497 36.26527 33.85012
#
# Velocity S-wave (km/s) = 3.48243 3.74043 3.61373
# Velocity P-wave (km/s) = 5.97926 6.18850 6.08478
#
# Compressibility (1/GPa) = 0.01970151
#
# Stress axis : x y z
#
# Youngs Moduli (GPa) = 78.27593 44.01191 72.70193
#
# Poissons Ratio (x) = 0.34030 -0.05070
# Poissons Ratio (y) = 0.60522 0.56273
# Poissons Ratio (z) = -0.05458 0.34066
#
# Static dielectric constant tensor:
#      x y z
#    x 2.048260 0.000000 0.000000 
#    y 0.000000 2.164070 0.000000 
#    z 0.000000 0.000000 1.964250 
# 
# From -- ./inp_files/113.got.cif
#   From: 2010.05.17/outbox.cif.g08.bks.cpg/sg19_1_cif.got.tgz:113.got - 2010.06.03 22:46:19.
