data_PCOD9315620
_publ_section_title
;
Structure prediction by ZEFSAII (Michael W. Deem and Ramdas Pophale) SiO2 
 PCOD9315620
Probable space group: P 21 21 21
;
_chemical_formula_sum "Si O2"
_cell_formula_units_Z 20
_cell_length_a 9.373495
_cell_length_b 9.843960
_cell_length_c 8.594333
_cell_angle_alpha 90.000000
_cell_angle_beta 90.000000
_cell_angle_gamma 90.000000
_cell_volume 793.018957
_symmetry_space_group_name_H-M "P 21 21 21"
_symmetry_group_IT_number 19
_symmetry_cell_setting 'orthorhombic'
loop_
_space_group_symop_operation_xyz
x,y,z
1/2-x,-y,1/2+z
1/2+x,1/2-y,-z
-x,1/2+y,1/2-z
loop_
_atom_site_type_symbol
_atom_site_label
_atom_site_fract_x
_atom_site_fract_y
_atom_site_fract_z
Si Si1 0.444451 0.170625 0.440787
Si Si2 0.758929 0.749921 0.502401
Si Si3 0.545926 0.411439 0.226169
Si Si4 0.508014 0.584530 0.520974
Si Si5 0.869698 0.658448 0.166052
O O1 0.465160 0.286197 0.306904
O O2 0.521899 0.232845 0.590569
O O3 0.273630 0.152186 0.440960
O O4 0.513678 0.026536 0.391177
O O5 0.590682 0.728548 0.522438
O O6 0.815699 0.697591 0.335996
O O7 0.822497 0.656476 0.638878
O O8 0.841358 0.892835 0.512077
O O9 0.575555 0.506502 0.374335
O O10 0.546888 0.484787 0.660907
#
# Coordination Sequence:
#
# PCOD9315620 Si02
#       5
#     4   4   4   4   4
#     4  11  24  48  70 100 144 186 235 285 365 402
#     4  12  22  43  71 100 136 183 238 279 353 426
#     4  11  22  45  69  97 140 187 221 293 344 421
#     4  11  24  44  68 100 139 186 234 290 356 414
#     4  11  26  46  70 103 139 188 232 295 350 425
#
# _framework density 25.220075999999999
#
# number of rings (size 3 to 8) (size 9 to 14) (size 15 to 20)
#    0.000    0.800    6.000    0.000    2.800    3.200 
#   14.400    0.000    0.000    0.000    0.000    0.000 
#    0.000    0.000    0.000    0.000    0.000    0.000 
#
# Total GULP energy -111676.156070 kJ/mol
# GULP energy per Si atom -5583.807803 kJ/mol
# Density = 2.516267 g / cm^3
# Si number density = 25.220076 Si / 1000 Ang^3
#
#
#
# Elastic Constant Matrix: (Units=GPa)
#
#
# Indices 1 2 3 4 5 6 
#
# 1 81.5542 21.3618 -7.3868 0.0000 0.0000 0.0000
# 2 21.3618 103.7004 -4.8776 0.0000 0.0000 0.0000
# 3 -7.3868 -4.8776 46.2260 0.0000 0.0000 0.0000
# 4 0.0000 0.0000 0.0000 26.6102 0.0000 0.0000
# 5 0.0000 0.0000 0.0000 0.0000 31.6046 0.0000
# 6 0.0000 0.0000 0.0000 0.0000 0.0000 39.5164
#
#
#
# Elastic Compliance Matrix: (Units=1/GPa)
#
#
# Indices 1 2 3 4 5 6 
#
# 1 0.013112 -0.002615 0.001819 0.000000 0.000000 0.000000
# 2 -0.002615 0.010213 0.000660 0.000000 0.000000 0.000000
# 3 0.001819 0.000660 0.021993 0.000000 0.000000 0.000000
# 4 0.000000 0.000000 0.000000 0.037580 0.000000 0.000000
# 5 0.000000 0.000000 0.000000 0.000000 0.031641 0.000000
# 6 0.000000 0.000000 0.000000 0.000000 0.000000 0.025306
#
#
# Mechanical properties :
#
#
# Convention : Reuss Voigt Hill
#
# Bulk Modulus (GPa) = 22.20009 27.74173 24.97091
# Shear Modulus (GPa) = 32.23062 34.37180 33.30121
#
# Velocity S-wave (km/s) = 3.57876 3.69572 3.63771
# Velocity P-wave (km/s) = 5.08904 5.40693 5.25039
#
# Compressibility (1/GPa) = 0.04504486
#
# Stress axis : x y z
#
# Youngs Moduli (GPa) = 76.26831 97.91499 45.46867
#
# Poissons Ratio (x) = 0.25608 -0.08272
# Poissons Ratio (y) = 0.19947 -0.03000
# Poissons Ratio (z) = -0.13875 -0.06459
#
# Static dielectric constant tensor:
#      x y z
#    x 1.996850 0.000000 0.000000 
#    y 0.000000 2.066730 0.000000 
#    z 0.000000 0.000000 2.035760 
# 
# From -- ./inp_files/2561.got.cif
#   From: 2010.05.17/outbox.cif.g08.bks.cpg/sg19_2_cif.got.tgz:2561.got - 2010.06.03 22:46:19.
