data_PCOD9315275
_publ_section_title
;
Structure prediction by ZEFSAII (Michael W. Deem and Ramdas Pophale) SiO2 
 PCOD9315275
Probable space group: P 21 21 21
;
_chemical_formula_sum "Si O2"
_cell_formula_units_Z 24
_cell_length_a 5.210246
_cell_length_b 8.321357
_cell_length_c 18.683221
_cell_angle_alpha 90.000000
_cell_angle_beta 90.000000
_cell_angle_gamma 90.000000
_cell_volume 810.035653
_symmetry_space_group_name_H-M "P 21 21 21"
_symmetry_group_IT_number 19
_symmetry_cell_setting 'orthorhombic'
loop_
_space_group_symop_operation_xyz
x,y,z
1/2-x,-y,1/2+z
1/2+x,1/2-y,-z
-x,1/2+y,1/2-z
loop_
_atom_site_type_symbol
_atom_site_label
_atom_site_fract_x
_atom_site_fract_y
_atom_site_fract_z
Si Si1 0.136813 0.425391 0.918170
Si Si2 0.197159 0.923201 0.440776
Si Si3 0.531221 0.027718 0.329393
Si Si4 0.690843 0.211852 0.736826
Si Si5 0.042172 0.259492 0.455813
Si Si6 0.261120 0.028390 0.700753
O O1 0.292253 0.259834 0.913606
O O2 0.326417 0.571258 0.936269
O O3 0.978152 0.480698 0.848479
O O4 0.924662 0.399125 0.980561
O O5 0.479900 0.982658 0.411297
O O6 0.046879 0.085864 0.415008
O O7 0.760905 0.941739 0.287855
O O8 0.317864 0.931005 0.282206
O O9 0.563768 0.707145 0.193720
O O10 0.609889 0.354853 0.788708
O O11 0.465947 0.163390 0.682140
O O12 0.250762 0.212832 0.519218
#
# Coordination Sequence:
#
# PCOD9315275 Si02
#       6
#     4   4   4   4   4   4
#     4  11  24  45  70 108 145 191 249 312 381 460
#     4  11  23  45  70 104 144 192 243 316 377 459
#     4  10  24  45  69 101 139 192 240 304 371 456
#     4  10  24  42  71  96 142 186 242 303 367 457
#     4  10  24  45  70 107 148 198 251 311 388 465
#     4  10  25  44  68 106 138 189 245 304 372 451
#
# _framework density 29.628328
#
# number of rings (size 3 to 8) (size 9 to 14) (size 15 to 20)
#    1.000    0.667    1.667    1.000    4.667    6.667 
#    9.000    0.000    0.000    0.000    0.000    0.000 
#    0.000    0.000    0.000    0.000    0.000    0.000 
#
# Total GULP energy -133749.607001 kJ/mol
# GULP energy per Si atom -5572.900292 kJ/mol
# Density = 2.956089 g / cm^3
# Si number density = 29.628328 Si / 1000 Ang^3
#
#
#
# Elastic Constant Matrix: (Units=GPa)
#
#
# Indices 1 2 3 4 5 6 
#
# 1 97.6054 37.6201 14.1593 0.0000 0.0000 0.0000
# 2 37.6201 237.8764 48.2861 0.0000 0.0000 0.0000
# 3 14.1593 48.2861 110.3518 0.0000 0.0000 0.0000
# 4 0.0000 0.0000 0.0000 48.9277 0.0000 0.0000
# 5 0.0000 0.0000 0.0000 0.0000 63.7980 0.0000
# 6 0.0000 0.0000 0.0000 0.0000 0.0000 46.3087
#
#
#
# Elastic Compliance Matrix: (Units=1/GPa)
#
#
# Indices 1 2 3 4 5 6 
#
# 1 0.010961 -0.001589 -0.000711 0.000000 0.000000 0.000000
# 2 -0.001589 0.004844 -0.001916 0.000000 0.000000 0.000000
# 3 -0.000711 -0.001916 0.009991 0.000000 0.000000 0.000000
# 4 0.000000 0.000000 0.000000 0.020438 0.000000 0.000000
# 5 0.000000 0.000000 0.000000 0.000000 0.015674 0.000000
# 6 0.000000 0.000000 0.000000 0.000000 0.000000 0.021594
#
#
# Mechanical properties :
#
#
# Convention : Reuss Voigt Hill
#
# Bulk Modulus (GPa) = 57.58818 71.77384 64.68101
# Shear Modulus (GPa) = 51.16480 54.85809 53.01144
#
# Velocity S-wave (km/s) = 4.16009 4.30762 4.23450
# Velocity P-wave (km/s) = 6.52336 7.00130 6.76655
#
# Compressibility (1/GPa) = 0.01736467
#
# Stress axis : x y z
#
# Youngs Moduli (GPa) = 91.23261 206.43891 100.08605
#
# Poissons Ratio (x) = 0.32806 0.07117
# Poissons Ratio (y) = 0.14498 0.19173
# Poissons Ratio (z) = 0.06487 0.39547
#
# Static dielectric constant tensor:
#      x y z
#    x 2.391180 0.000000 0.000000 
#    y 0.000000 2.375150 0.000000 
#    z 0.000000 0.000000 2.482620 
# 
# From -- ./inp_files/7257.got.cif
#   From: 2010.05.17/outbox.cif.g08.bks.cpg/sg19_4_cif.got.tgz:7257.got - 2010.06.03 22:46:19.
