data_PCOD9315562
_publ_section_title
;
Structure prediction by ZEFSAII (Michael W. Deem and Ramdas Pophale) SiO2 
 PCOD9315562
Probable space group: P 21 21 21
;
_chemical_formula_sum "Si O2"
_cell_formula_units_Z 32
_cell_length_a 11.208895
_cell_length_b 9.113428
_cell_length_c 13.510214
_cell_angle_alpha 90.000000
_cell_angle_beta 90.000000
_cell_angle_gamma 90.000000
_cell_volume 1380.088052
_symmetry_space_group_name_H-M "P 21 21 21"
_symmetry_group_IT_number 19
_symmetry_cell_setting 'orthorhombic'
loop_
_space_group_symop_operation_xyz
x,y,z
1/2-x,-y,1/2+z
1/2+x,1/2-y,-z
-x,1/2+y,1/2-z
loop_
_atom_site_type_symbol
_atom_site_label
_atom_site_fract_x
_atom_site_fract_y
_atom_site_fract_z
Si Si1 0.468227 0.337320 0.040575
Si Si2 0.573926 0.330134 0.352374
Si Si3 0.226114 0.384965 0.145786
Si Si4 0.783373 0.171712 0.271787
Si Si5 0.536332 0.369030 0.814442
Si Si6 0.824065 0.448687 0.171675
Si Si7 0.087861 0.932406 0.813709
Si Si8 0.527752 0.027367 0.989791
O O1 0.335853 0.319603 0.085295
O O2 0.523831 0.467997 0.104325
O O3 0.533297 0.180166 0.050149
O O4 0.482293 0.381699 0.924723
O O5 0.701497 0.247814 0.356475
O O6 0.589398 0.475608 0.287227
O O7 0.511989 0.385123 0.451456
O O8 0.481987 0.217734 0.302045
O O9 0.260771 0.502840 0.230498
O O10 0.133368 0.261993 0.181571
O O11 0.150427 0.484811 0.069179
O O12 0.761160 0.290718 0.184171
O O13 0.927255 0.160686 0.261284
O O14 0.606933 0.509005 0.772666
O O15 0.725618 0.572989 0.154172
O O16 0.920669 0.442206 0.086849
#
# Coordination Sequence:
#
# PCOD9315562 Si02
#       8
#     4   4   4   4   4   4   4   4
#     4  11  25  45  71 103 138 187 236 289 355 421
#     4  11  26  43  71  96 146 183 230 296 344 432
#     4  11  24  44  70 102 141 179 241 291 351 424
#     4  11  21  46  66 102 138 181 232 296 347 415
#     4  11  24  45  74 102 140 189 236 292 356 428
#     4  11  25  44  71 101 143 188 231 294 356 423
#     4  11  26  45  66 104 137 189 231 287 362 412
#     4  11  25  46  67 104 139 186 239 289 353 423
#
# _framework density 23.186928000000002
#
# number of rings (size 3 to 8) (size 9 to 14) (size 15 to 20)
#    0.000    1.000    5.000    0.750    8.750    3.000 
#    2.250    0.000    0.000    0.000    0.000    0.000 
#    0.000    0.000    0.000    0.000    0.000    0.000 
#
# Total GULP energy -178631.748443 kJ/mol
# GULP energy per Si atom -5582.242139 kJ/mol
# Density = 2.313415 g / cm^3
# Si number density = 23.186928 Si / 1000 Ang^3
#
#
#
# Elastic Constant Matrix: (Units=GPa)
#
#
# Indices 1 2 3 4 5 6 
#
# 1 92.5136 13.0777 13.6440 0.0000 0.0000 0.0000
# 2 13.0777 69.4331 21.6713 0.0000 0.0000 0.0000
# 3 13.6440 21.6713 36.4947 0.0000 0.0000 0.0000
# 4 0.0000 0.0000 0.0000 34.0514 0.0000 0.0000
# 5 0.0000 0.0000 0.0000 0.0000 28.3784 0.0000
# 6 0.0000 0.0000 0.0000 0.0000 0.0000 39.3915
#
#
#
# Elastic Compliance Matrix: (Units=1/GPa)
#
#
# Indices 1 2 3 4 5 6 
#
# 1 0.011498 -0.001011 -0.003698 0.000000 0.000000 0.000000
# 2 -0.001011 0.017768 -0.010173 0.000000 0.000000 0.000000
# 3 -0.003698 -0.010173 0.034825 0.000000 0.000000 0.000000
# 4 0.000000 0.000000 0.000000 0.029367 0.000000 0.000000
# 5 0.000000 0.000000 0.000000 0.000000 0.035238 0.000000
# 6 0.000000 0.000000 0.000000 0.000000 0.000000 0.025386
#
#
# Mechanical properties :
#
#
# Convention : Reuss Voigt Hill
#
# Bulk Modulus (GPa) = 29.13258 32.80303 30.96780
# Shear Modulus (GPa) = 25.60321 30.36749 27.98535
#
# Velocity S-wave (km/s) = 3.32657 3.62288 3.47788
# Velocity P-wave (km/s) = 5.22936 5.62834 5.43252
#
# Compressibility (1/GPa) = 0.03432583
#
# Stress axis : x y z
#
# Youngs Moduli (GPa) = 86.97498 56.28109 28.71530
#
# Poissons Ratio (x) = 0.05692 0.10619
# Poissons Ratio (y) = 0.08796 0.29212
# Poissons Ratio (z) = 0.32163 0.57254
#
# Static dielectric constant tensor:
#      x y z
#    x 1.892430 0.000000 0.000000 
#    y 0.000000 1.921490 0.000000 
#    z 0.000000 0.000000 1.923770 
# 
# From -- ./inp_files/6099.got.cif
#   From: 2010.05.17/outbox.cif.g08.bks.cpg/sg19_4_cif.got.tgz:6099.got - 2010.06.03 22:46:19.
