data_PCOD9315309
_publ_section_title
;
Structure prediction by ZEFSAII (Michael W. Deem and Ramdas Pophale) SiO2 
 PCOD9315309
Probable space group: P 21 21 21
;
_chemical_formula_sum "Si O2"
_cell_formula_units_Z 20
_cell_length_a 5.012807
_cell_length_b 25.289321
_cell_length_c 5.546675
_cell_angle_alpha 90.000000
_cell_angle_beta 90.000000
_cell_angle_gamma 90.000000
_cell_volume 703.154682
_symmetry_space_group_name_H-M "P 21 21 21"
_symmetry_group_IT_number 19
_symmetry_cell_setting 'orthorhombic'
loop_
_space_group_symop_operation_xyz
x,y,z
1/2-x,-y,1/2+z
1/2+x,1/2-y,-z
-x,1/2+y,1/2-z
loop_
_atom_site_type_symbol
_atom_site_label
_atom_site_fract_x
_atom_site_fract_y
_atom_site_fract_z
Si Si1 0.075461 0.465126 0.636773
Si Si2 0.762110 0.165500 0.625712
Si Si3 0.080101 0.066790 0.629953
Si Si4 0.338440 0.766094 0.641009
Si Si5 0.973400 0.364867 0.874384
O O1 0.884337 0.445759 0.422335
O O2 0.382212 0.451821 0.586721
O O3 0.027595 0.526894 0.669074
O O4 0.962254 0.428130 0.851515
O O5 0.022360 0.128678 0.658548
O O6 0.774284 0.228837 0.646682
O O7 0.636602 0.150909 0.368442
O O8 0.599175 0.150047 0.868959
O O9 0.640002 0.752516 0.574720
O O10 0.287938 0.828431 0.661162
#
# Coordination Sequence:
#
# PCOD9315309 Si02
#       5
#     4   4   4   4   4
#     4  11  24  42  67  99 135 178 224 277 335 398
#     4  10  24  45  70 100 136 178 224 276 334 397
#     4  11  24  42  67  99 135 178 224 277 335 398
#     4  10  24  44  70 100 136 178 224 276 334 396
#     4  10  24  45  70 100 136 178 224 276 334 397
#
# _framework density 28.443245999999998
#
# number of rings (size 3 to 8) (size 9 to 14) (size 15 to 20)
#    0.000    1.600    0.000    2.400    0.000   25.600 
#    0.000    0.000    0.000    0.000    0.000    0.000 
#    0.000    0.000    0.000    0.000    0.000    0.000 
#
# Total GULP energy -111991.864705 kJ/mol
# GULP energy per Si atom -5599.593235 kJ/mol
# Density = 2.837851 g / cm^3
# Si number density = 28.443246 Si / 1000 Ang^3
#
#
#
# Elastic Constant Matrix: (Units=GPa)
#
#
# Indices 1 2 3 4 5 6 
#
# 1 83.7734 56.0268 45.8896 0.0000 0.0000 0.0000
# 2 56.0268 64.8229 58.2354 0.0000 0.0000 0.0000
# 3 45.8896 58.2354 141.5128 0.0000 0.0000 0.0000
# 4 0.0000 0.0000 0.0000 66.4421 0.0000 0.0000
# 5 0.0000 0.0000 0.0000 0.0000 42.0975 0.0000
# 6 0.0000 0.0000 0.0000 0.0000 0.0000 49.2935
#
#
#
# Elastic Compliance Matrix: (Units=1/GPa)
#
#
# Indices 1 2 3 4 5 6 
#
# 1 0.028468 -0.025879 0.001418 0.000000 0.000000 0.000000
# 2 -0.025879 0.048001 -0.011361 0.000000 0.000000 0.000000
# 3 0.001418 -0.011361 0.011282 0.000000 0.000000 0.000000
# 4 0.000000 0.000000 0.000000 0.015051 0.000000 0.000000
# 5 0.000000 0.000000 0.000000 0.000000 0.023754 0.000000
# 6 0.000000 0.000000 0.000000 0.000000 0.000000 0.020287
#
#
# Mechanical properties :
#
#
# Convention : Reuss Voigt Hill
#
# Bulk Modulus (GPa) = 62.08695 67.82363 64.95529
# Shear Modulus (GPa) = 22.33591 40.23044 31.28318
#
# Velocity S-wave (km/s) = 2.80532 3.76495 3.31999
# Velocity P-wave (km/s) = 5.68937 6.54192 6.13048
#
# Compressibility (1/GPa) = 0.01610645
#
# Stress axis : x y z
#
# Youngs Moduli (GPa) = 35.12763 20.83303 88.63681
#
# Poissons Ratio (x) = 0.53914 -0.12571
# Poissons Ratio (y) = 0.90906 1.00703
# Poissons Ratio (z) = -0.04982 0.23669
#
# Static dielectric constant tensor:
#      x y z
#    x 2.112710 0.000000 0.000000 
#    y 0.000000 2.333780 0.000000 
#    z 0.000000 0.000000 2.237250 
# 
# From -- ./inp_files/166.got.cif
#   From: 2010.05.17/outbox.cif.g08.bks.cpg/sg19_1_cif.got.tgz:166.got - 2010.06.03 22:46:19.
