data_PCOD9315120
_publ_section_title
;
Structure prediction by ZEFSAII (Michael W. Deem and Ramdas Pophale) SiO2 
 PCOD9315120
Probable space group: P 21 21 21
;
_chemical_formula_sum "Si O2"
_cell_formula_units_Z 28
_cell_length_a 24.410183
_cell_length_b 5.097589
_cell_length_c 9.898361
_cell_angle_alpha 90.000000
_cell_angle_beta 90.000000
_cell_angle_gamma 90.000000
_cell_volume 1231.683550
_symmetry_space_group_name_H-M "P 21 21 21"
_symmetry_group_IT_number 19
_symmetry_cell_setting 'orthorhombic'
loop_
_space_group_symop_operation_xyz
x,y,z
1/2-x,-y,1/2+z
1/2+x,1/2-y,-z
-x,1/2+y,1/2-z
loop_
_atom_site_type_symbol
_atom_site_label
_atom_site_fract_x
_atom_site_fract_y
_atom_site_fract_z
Si Si1 0.220638 0.982429 0.337426
Si Si2 0.847144 0.964978 0.235486
Si Si3 0.468098 0.646963 0.712284
Si Si4 0.461571 0.832935 0.407140
Si Si5 0.074313 0.666520 0.748117
Si Si6 0.197888 0.662023 0.715730
Si Si7 0.280855 0.603191 0.506269
O O1 0.181464 0.739852 0.299146
O O2 0.258244 0.884125 0.458974
O O3 0.181689 0.234289 0.349394
O O4 0.266544 0.074145 0.231049
O O5 0.911742 0.952656 0.222052
O O6 0.831475 0.900399 0.391540
O O7 0.506263 0.389786 0.705202
O O8 0.457865 0.765884 0.563844
O O9 0.430023 0.614514 0.319834
O O10 0.525097 0.817615 0.359683
O O11 0.437898 0.112802 0.361286
O O12 0.134460 0.702294 0.686791
O O13 0.230720 0.502891 0.601058
O O14 0.204489 0.536529 0.865572
#
# Coordination Sequence:
#
# PCOD9315120 Si02
#       7
#     4   4   4   4   4   4   4
#     4  11  24  44  64 105 138 182 236 277 350 424
#     4  11  26  44  70  97 144 186 227 294 345 416
#     4  12  26  45  71 102 140 186 234 284 356 416
#     4  10  23  47  66 108 130 181 242 291 341 428
#     4  10  23  43  75  96 138 177 238 295 350 400
#     4  11  26  41  74 102 142 191 231 295 351 424
#     4  11  24  46  66 104 142 181 240 278 353 426
#
# _framework density 22.733114
#
# number of rings (size 3 to 8) (size 9 to 14) (size 15 to 20)
#    0.000    1.143    2.857    2.571    8.000    2.286 
#    0.000    0.000    0.000    0.000    0.000    0.000 
#    0.000    0.000    0.000    0.000    0.000    0.000 
#
# Total GULP energy -156444.356869 kJ/mol
# GULP energy per Si atom -5587.298460 kJ/mol
# Density = 2.268137 g / cm^3
# Si number density = 22.733114 Si / 1000 Ang^3
#
#
#
# Elastic Constant Matrix: (Units=GPa)
#
#
# Indices 1 2 3 4 5 6 
#
# 1 109.9320 16.5953 -17.0541 0.0000 0.0000 0.0000
# 2 16.5953 94.7845 18.7054 0.0000 0.0000 0.0000
# 3 -17.0541 18.7054 38.5749 0.0000 0.0000 0.0000
# 4 0.0000 0.0000 0.0000 32.3329 0.0000 0.0000
# 5 0.0000 0.0000 0.0000 0.0000 18.2982 0.0000
# 6 0.0000 0.0000 0.0000 0.0000 0.0000 25.2187
#
#
#
# Elastic Compliance Matrix: (Units=1/GPa)
#
#
# Indices 1 2 3 4 5 6 
#
# 1 0.010506 -0.003048 0.006123 0.000000 0.000000 0.000000
# 2 -0.003048 0.012551 -0.007434 0.000000 0.000000 0.000000
# 3 0.006123 -0.007434 0.032235 0.000000 0.000000 0.000000
# 4 0.000000 0.000000 0.000000 0.030928 0.000000 0.000000
# 5 0.000000 0.000000 0.000000 0.000000 0.054650 0.000000
# 6 0.000000 0.000000 0.000000 0.000000 0.000000 0.039653
#
#
# Mechanical properties :
#
#
# Convention : Reuss Voigt Hill
#
# Bulk Modulus (GPa) = 21.47049 31.08718 26.27883
# Shear Modulus (GPa) = 24.41808 30.17294 27.29551
#
# Velocity S-wave (km/s) = 3.28093 3.64712 3.46886
# Velocity P-wave (km/s) = 4.88035 5.60713 5.25631
#
# Compressibility (1/GPa) = 0.04657556
#
# Stress axis : x y z
#
# Youngs Moduli (GPa) = 95.17918 79.67580 31.02201
#
# Poissons Ratio (x) = 0.24284 -0.18994
# Poissons Ratio (y) = 0.29009 0.23060
# Poissons Ratio (z) = -0.58277 0.59227
#
# Static dielectric constant tensor:
#      x y z
#    x 1.839120 0.000000 0.000000 
#    y 0.000000 1.877610 0.000000 
#    z 0.000000 0.000000 1.900890 
# 
# From -- ./inp_files/4362.got.cif
#   From: 2010.05.17/outbox.cif.g08.bks.cpg/sg19_3_cif.got.tgz:4362.got - 2010.06.03 22:46:19.
