data_PCOD9315660
_publ_section_title
;
Structure prediction by ZEFSAII (Michael W. Deem and Ramdas Pophale) SiO2 
 PCOD9315660
Probable space group: P 21 21 21
;
_chemical_formula_sum "Si O2"
_cell_formula_units_Z 32
_cell_length_a 8.616702
_cell_length_b 11.627668
_cell_length_c 13.822083
_cell_angle_alpha 90.000000
_cell_angle_beta 90.000000
_cell_angle_gamma 90.000000
_cell_volume 1384.864215
_symmetry_space_group_name_H-M "P 21 21 21"
_symmetry_group_IT_number 19
_symmetry_cell_setting 'orthorhombic'
loop_
_space_group_symop_operation_xyz
x,y,z
1/2-x,-y,1/2+z
1/2+x,1/2-y,-z
-x,1/2+y,1/2-z
loop_
_atom_site_type_symbol
_atom_site_label
_atom_site_fract_x
_atom_site_fract_y
_atom_site_fract_z
Si Si1 0.195246 0.067204 0.859141
Si Si2 0.100752 0.203215 0.534011
Si Si3 0.773800 0.873209 0.454460
Si Si4 0.977483 0.019251 0.683956
Si Si5 0.483227 0.441241 0.644944
Si Si6 0.637204 0.963512 0.658233
Si Si7 0.985353 0.772393 0.589655
Si Si8 0.425479 0.093026 0.523699
O O1 0.081680 0.016534 0.778480
O O2 0.370209 0.027768 0.842731
O O3 0.152855 0.201620 0.859116
O O4 0.141004 0.013577 0.961951
O O5 0.023570 0.126264 0.616937
O O6 0.282387 0.178490 0.540051
O O7 0.051477 0.335233 0.537428
O O8 0.042766 0.153337 0.430770
O O9 0.639774 0.802774 0.401454
O O10 0.844994 0.984716 0.403652
O O11 0.920274 0.792376 0.481522
O O12 0.695250 0.906929 0.557707
O O13 0.793094 0.023712 0.697948
O O14 0.011878 0.899402 0.629508
O O15 0.431265 0.396103 0.749985
O O16 0.505106 0.050122 0.621047
#
# Coordination Sequence:
#
# PCOD9315660 Si02
#       8
#     4   4   4   4   4   4   4   4
#     4  11  25  45  69 105 138 179 232 278 347 407
#     4  11  24  46  68  98 142 180 233 280 346 401
#     4  11  23  44  71  98 140 177 228 285 343 404
#     4  11  25  43  70 101 138 180 227 285 342 408
#     4  11  24  47  68 100 138 178 231 284 337 417
#     4  11  23  44  69 101 133 180 227 279 340 406
#     4  11  23  41  72  98 138 182 221 285 341 407
#     4  11  25  44  71  99 139 188 223 288 338 406
#
# _framework density 23.106960000000001
#
# number of rings (size 3 to 8) (size 9 to 14) (size 15 to 20)
#    0.000    1.000    3.750    3.000    3.500    1.000 
#   13.500    0.000    0.000    0.000    0.000    0.000 
#    0.000    0.000    0.000    0.000    0.000    0.000 
#
# Total GULP energy -178902.740246 kJ/mol
# GULP energy per Si atom -5590.710633 kJ/mol
# Density = 2.305437 g / cm^3
# Si number density = 23.106960 Si / 1000 Ang^3
#
#
#
# Elastic Constant Matrix: (Units=GPa)
#
#
# Indices 1 2 3 4 5 6 
#
# 1 98.9411 2.8739 43.1042 0.0000 0.0000 0.0000
# 2 2.8739 39.6829 2.8799 0.0000 0.0000 0.0000
# 3 43.1042 2.8799 66.4966 0.0000 0.0000 0.0000
# 4 0.0000 0.0000 0.0000 13.2304 0.0000 0.0000
# 5 0.0000 0.0000 0.0000 0.0000 45.0098 0.0000
# 6 0.0000 0.0000 0.0000 0.0000 0.0000 25.7990
#
#
#
# Elastic Compliance Matrix: (Units=1/GPa)
#
#
# Indices 1 2 3 4 5 6 
#
# 1 0.014090 -0.000359 -0.009118 0.000000 0.000000 0.000000
# 2 -0.000359 0.025288 -0.000863 0.000000 0.000000 0.000000
# 3 -0.009118 -0.000863 0.020986 0.000000 0.000000 0.000000
# 4 0.000000 0.000000 0.000000 0.075584 0.000000 0.000000
# 5 0.000000 0.000000 0.000000 0.000000 0.022217 0.000000
# 6 0.000000 0.000000 0.000000 0.000000 0.000000 0.038761
#
#
# Mechanical properties :
#
#
# Convention : Reuss Voigt Hill
#
# Bulk Modulus (GPa) = 25.19787 33.64851 29.42319
# Shear Modulus (GPa) = 21.66074 27.22536 24.44305
#
# Velocity S-wave (km/s) = 3.06504 3.43626 3.25595
# Velocity P-wave (km/s) = 4.84299 5.50795 5.18614
#
# Compressibility (1/GPa) = 0.03968589
#
# Stress axis : x y z
#
# Youngs Moduli (GPa) = 70.97461 39.54388 47.65114
#
# Poissons Ratio (x) = 0.01418 0.43446
# Poissons Ratio (y) = 0.02546 0.04111
# Poissons Ratio (z) = 0.64711 0.03411
#
# Static dielectric constant tensor:
#      x y z
#    x 1.898080 0.000000 0.000000 
#    y 0.000000 1.885810 0.000000 
#    z 0.000000 0.000000 1.892020 
# 
# From -- ./inp_files/5902.got.cif
#   From: 2010.05.17/outbox.cif.g08.bks.cpg/sg19_3_cif.got.tgz:5902.got - 2010.06.03 22:46:19.
