data_PCOD9315159
_publ_section_title
;
Structure prediction by ZEFSAII (Michael W. Deem and Ramdas Pophale) SiO2 
 PCOD9315159
Probable space group: P 21 21 21
;
_chemical_formula_sum "Si O2"
_cell_formula_units_Z 32
_cell_length_a 5.089512
_cell_length_b 10.801102
_cell_length_c 21.310664
_cell_angle_alpha 90.000000
_cell_angle_beta 90.000000
_cell_angle_gamma 90.000000
_cell_volume 1171.497030
_symmetry_space_group_name_H-M "P 21 21 21"
_symmetry_group_IT_number 19
_symmetry_cell_setting 'orthorhombic'
loop_
_space_group_symop_operation_xyz
x,y,z
1/2-x,-y,1/2+z
1/2+x,1/2-y,-z
-x,1/2+y,1/2-z
loop_
_atom_site_type_symbol
_atom_site_label
_atom_site_fract_x
_atom_site_fract_y
_atom_site_fract_z
Si Si1 0.343948 0.583487 0.778596
Si Si2 0.791476 0.583699 0.222955
Si Si3 0.779951 0.998686 0.427919
Si Si4 0.971205 0.650387 0.669176
Si Si5 0.924314 0.246571 0.354678
Si Si6 0.121036 0.837583 0.510714
Si Si7 0.532796 0.088799 0.147765
Si Si8 0.977944 0.329399 0.484480
O O1 0.415421 0.453419 0.744447
O O2 0.163787 0.653397 0.729155
O O3 0.609411 0.660844 0.795329
O O4 0.203872 0.533822 0.841589
O O5 0.708609 0.466260 0.182347
O O6 0.796836 0.695593 0.173397
O O7 0.645169 0.590924 0.289170
O O8 0.590540 0.049808 0.482708
O O9 0.806450 0.119435 0.382500
O O10 0.656309 0.888465 0.388286
O O11 0.039722 0.945332 0.461175
O O12 0.823933 0.777436 0.654295
O O13 0.895755 0.337539 0.412702
O O14 0.888992 0.735180 0.502332
O O15 0.104557 0.898316 0.580310
O O16 0.226506 0.233674 0.482804
#
# Coordination Sequence:
#
# PCOD9315159 Si02
#       8
#     4   4   4   4   4   4   4   4
#     4  11  25  44  69 107 144 196 247 314 396 463
#     4  11  25  41  73 106 145 193 242 315 386 461
#     4  11  24  47  74 107 148 204 253 320 390 467
#     4  11  23  43  70 107 144 195 249 311 389 468
#     4  11  23  45  72 103 146 189 253 311 385 464
#     4  12  29  49  77 111 149 207 265 322 388 470
#     4  11  26  47  71 105 155 191 257 320 387 470
#     4  10  23  44  70 104 143 193 250 313 373 455
#
# _framework density 27.315473999999998
#
# number of rings (size 3 to 8) (size 9 to 14) (size 15 to 20)
#    0.000    1.000    3.750    1.500    5.250    2.000 
#   18.000    0.000    0.000    0.000    0.000    0.000 
#    0.000    0.000    0.000    0.000    0.000    0.000 
#
# Total GULP energy -178789.577376 kJ/mol
# GULP energy per Si atom -5587.174293 kJ/mol
# Density = 2.725330 g / cm^3
# Si number density = 27.315474 Si / 1000 Ang^3
#
#
#
# Elastic Constant Matrix: (Units=GPa)
#
#
# Indices 1 2 3 4 5 6 
#
# 1 68.4869 16.7730 9.7029 0.0000 0.0000 0.0000
# 2 16.7730 140.7345 32.6862 0.0000 0.0000 0.0000
# 3 9.7029 32.6862 123.0196 0.0000 0.0000 0.0000
# 4 0.0000 0.0000 0.0000 42.3353 0.0000 0.0000
# 5 0.0000 0.0000 0.0000 0.0000 22.4406 0.0000
# 6 0.0000 0.0000 0.0000 0.0000 0.0000 48.4218
#
#
#
# Elastic Compliance Matrix: (Units=1/GPa)
#
#
# Indices 1 2 3 4 5 6 
#
# 1 0.015107 -0.001624 -0.000760 0.000000 0.000000 0.000000
# 2 -0.001624 0.007747 -0.001930 0.000000 0.000000 0.000000
# 3 -0.000760 -0.001930 0.008702 0.000000 0.000000 0.000000
# 4 0.000000 0.000000 0.000000 0.023621 0.000000 0.000000
# 5 0.000000 0.000000 0.000000 0.000000 0.044562 0.000000
# 6 0.000000 0.000000 0.000000 0.000000 0.000000 0.020652
#
#
# Mechanical properties :
#
#
# Convention : Reuss Voigt Hill
#
# Bulk Modulus (GPa) = 43.61655 50.06281 46.83968
# Shear Modulus (GPa) = 36.58665 40.84480 38.71573
#
# Velocity S-wave (km/s) = 3.66377 3.87110 3.76886
# Velocity P-wave (km/s) = 5.82237 6.19258 6.01032
#
# Compressibility (1/GPa) = 0.02292708
#
# Stress axis : x y z
#
# Youngs Moduli (GPa) = 66.19570 129.07443 114.92088
#
# Poissons Ratio (x) = 0.20961 0.08734
# Poissons Ratio (y) = 0.10750 0.22184
# Poissons Ratio (z) = 0.05031 0.24917
#
# Static dielectric constant tensor:
#      x y z
#    x 2.159960 0.000000 0.000000 
#    y 0.000000 2.236740 0.000000 
#    z 0.000000 0.000000 2.148890 
# 
# From -- ./inp_files/6916.got.cif
#   From: 2010.05.17/outbox.cif.g08.bks.cpg/sg19_4_cif.got.tgz:6916.got - 2010.06.03 22:46:19.
