data_PCOD9315167
_publ_section_title
;
Structure prediction by ZEFSAII (Michael W. Deem and Ramdas Pophale) SiO2 
 PCOD9315167
Probable space group: P 21 21 21
;
_chemical_formula_sum "Si O2"
_cell_formula_units_Z 32
_cell_length_a 5.420618
_cell_length_b 8.456269
_cell_length_c 29.988823
_cell_angle_alpha 90.000000
_cell_angle_beta 90.000000
_cell_angle_gamma 90.000000
_cell_volume 1374.633785
_symmetry_space_group_name_H-M "P 21 21 21"
_symmetry_group_IT_number 19
_symmetry_cell_setting 'orthorhombic'
loop_
_space_group_symop_operation_xyz
x,y,z
1/2-x,-y,1/2+z
1/2+x,1/2-y,-z
-x,1/2+y,1/2-z
loop_
_atom_site_type_symbol
_atom_site_label
_atom_site_fract_x
_atom_site_fract_y
_atom_site_fract_z
Si Si1 0.397013 0.477604 0.326327
Si Si2 0.812072 0.291332 0.169680
Si Si3 0.196422 0.656669 0.619016
Si Si4 0.203072 0.006142 0.584838
Si Si5 0.925881 0.713417 0.195830
Si Si6 0.176050 0.152257 0.493578
Si Si7 0.726098 0.530480 0.760043
Si Si8 0.949735 0.150813 0.402675
O O1 0.175968 0.601097 0.330087
O O2 0.504769 0.461954 0.375793
O O3 0.327889 0.310349 0.304996
O O4 0.569098 0.556521 0.288915
O O5 0.586104 0.328803 0.135521
O O6 0.718902 0.371200 0.215300
O O7 0.091267 0.340481 0.157381
O O8 0.238965 0.485299 0.596054
O O9 0.263669 0.820059 0.592574
O O10 0.135572 0.024988 0.532775
O O11 0.376499 0.163189 0.591449
O O12 0.948804 0.598345 0.237371
O O13 0.125271 0.847072 0.204094
O O14 0.941763 0.643766 0.146847
O O15 0.450623 0.224291 0.497387
O O16 0.131127 0.104226 0.442626
#
# Coordination Sequence:
#
# PCOD9315167 Si02
#       8
#     4   4   4   4   4   4   4   4
#     4  11  24  40  67  91 138 191 234 292 366 416
#     4  11  26  44  66  97 145 179 241 291 349 418
#     4  11  26  46  71 106 141 189 234 299 351 430
#     4  10  23  46  71 105 142 184 237 297 363 421
#     4  12  25  41  67  97 140 186 246 291 360 425
#     4  10  23  44  76 108 141 185 241 296 359 433
#     4  12  26  39  64 100 136 185 243 293 349 428
#     4  11  23  46  76 100 143 191 242 293 367 425
#
# _framework density 23.278926999999999
#
# number of rings (size 3 to 8) (size 9 to 14) (size 15 to 20)
#    0.000    1.000    2.500    3.000    8.750    6.000 
#    0.000    7.500    0.000    0.000    0.000    0.000 
#    0.000    0.000    0.000    0.000    0.000    0.000 
#
# Total GULP energy -178279.852199 kJ/mol
# GULP energy per Si atom -5571.245381 kJ/mol
# Density = 2.322594 g / cm^3
# Si number density = 23.278927 Si / 1000 Ang^3
#
#
#
# Elastic Constant Matrix: (Units=GPa)
#
#
# Indices 1 2 3 4 5 6 
#
# 1 48.9904 17.4917 8.5476 0.0000 0.0000 0.0000
# 2 17.4917 77.8283 3.6202 0.0000 0.0000 0.0000
# 3 8.5476 3.6202 99.6562 0.0000 0.0000 0.0000
# 4 0.0000 0.0000 0.0000 22.8939 0.0000 0.0000
# 5 0.0000 0.0000 0.0000 0.0000 29.9105 0.0000
# 6 0.0000 0.0000 0.0000 0.0000 0.0000 32.4961
#
#
#
# Elastic Compliance Matrix: (Units=1/GPa)
#
#
# Indices 1 2 3 4 5 6 
#
# 1 0.022493 -0.004974 -0.001749 0.000000 0.000000 0.000000
# 2 -0.004974 0.013970 -0.000081 0.000000 0.000000 0.000000
# 3 -0.001749 -0.000081 0.010187 0.000000 0.000000 0.000000
# 4 0.000000 0.000000 0.000000 0.043680 0.000000 0.000000
# 5 0.000000 0.000000 0.000000 0.000000 0.033433 0.000000
# 6 0.000000 0.000000 0.000000 0.000000 0.000000 0.030773
#
#
# Mechanical properties :
#
#
# Convention : Reuss Voigt Hill
#
# Bulk Modulus (GPa) = 30.26245 31.75486 31.00865
# Shear Modulus (GPa) = 27.90827 30.18112 29.04469
#
# Velocity S-wave (km/s) = 3.46622 3.60460 3.53609
# Velocity P-wave (km/s) = 5.38959 5.56730 5.47917
#
# Compressibility (1/GPa) = 0.03304425
#
# Stress axis : x y z
#
# Youngs Moduli (GPa) = 44.45797 71.57972 98.16037
#
# Poissons Ratio (x) = 0.35603 0.17164
# Poissons Ratio (y) = 0.22113 0.00794
# Poissons Ratio (z) = 0.07774 0.00579
#
# Static dielectric constant tensor:
#      x y z
#    x 1.954120 0.000000 0.000000 
#    y 0.000000 1.975420 0.000000 
#    z 0.000000 0.000000 1.872890 
# 
# From -- ./inp_files/7539.got.cif
#   From: 2010.05.17/outbox.cif.g08.bks.cpg/sg19_4_cif.got.tgz:7539.got - 2010.06.03 22:46:19.
