data_PCOD9315047
_publ_section_title
;
Structure prediction by ZEFSAII (Michael W. Deem and Ramdas Pophale) SiO2 
 PCOD9315047
Probable space group: P 21 21 21
;
_chemical_formula_sum "Si O2"
_cell_formula_units_Z 32
_cell_length_a 11.457665
_cell_length_b 7.002026
_cell_length_c 17.014327
_cell_angle_alpha 90.000000
_cell_angle_beta 90.000000
_cell_angle_gamma 90.000000
_cell_volume 1365.006170
_symmetry_space_group_name_H-M "P 21 21 21"
_symmetry_group_IT_number 19
_symmetry_cell_setting 'orthorhombic'
loop_
_space_group_symop_operation_xyz
x,y,z
1/2-x,-y,1/2+z
1/2+x,1/2-y,-z
-x,1/2+y,1/2-z
loop_
_atom_site_type_symbol
_atom_site_label
_atom_site_fract_x
_atom_site_fract_y
_atom_site_fract_z
Si Si1 0.867360 0.636573 0.500395
Si Si2 0.349648 0.990059 0.205060
Si Si3 0.892825 0.146125 0.691079
Si Si4 0.591503 0.765034 0.426567
Si Si5 0.303116 0.351376 0.759932
Si Si6 0.772326 0.261848 0.542810
Si Si7 0.211598 0.496722 0.101678
Si Si8 0.917367 0.038574 0.085953
O O1 0.776460 0.489088 0.537023
O O2 0.835290 0.814151 0.445464
O O3 0.951990 0.717826 0.569497
O O4 0.951209 0.510140 0.443172
O O5 0.474628 0.889071 0.215601
O O6 0.245269 0.848750 0.227008
O O7 0.344194 0.172531 0.261588
O O8 0.360193 0.078526 0.116732
O O9 0.878065 0.197568 0.599371
O O10 0.809810 0.966095 0.707734
O O11 0.652607 0.941664 0.381667
O O12 0.623482 0.813390 0.517289
O O13 0.349317 0.462417 0.683299
O O14 0.394711 0.364470 0.830649
O O15 0.658107 0.154979 0.577717
O O16 0.787831 0.171392 0.457346
#
# Coordination Sequence:
#
# PCOD9315047 Si02
#       8
#     4   4   4   4   4   4   4   4
#     4  10  23  46  69  94 139 186 228 296 341 410
#     4  12  23  38  66  99 139 182 223 295 361 412
#     4  11  24  38  63 104 134 173 231 286 363 419
#     4   9  22  43  67  95 139 177 228 291 344 414
#     4  11  24  44  65  98 143 181 233 290 345 422
#     4  10  23  41  71 100 131 183 234 281 350 425
#     4  11  23  44  67 101 135 178 242 283 341 433
#     4   8  22  48  66 101 146 176 235 294 343 423
#
# _framework density 23.443117999999998
#
# number of rings (size 3 to 8) (size 9 to 14) (size 15 to 20)
#    0.750    1.000    2.500    0.750    5.250    3.000 
#    4.500    1.250    0.000    0.000    0.000    0.000 
#    0.000    0.000    0.000    0.000    0.000    0.000 
#
# Total GULP energy -178588.282650 kJ/mol
# GULP energy per Si atom -5580.883833 kJ/mol
# Density = 2.338976 g / cm^3
# Si number density = 23.443118 Si / 1000 Ang^3
#
#
#
# Elastic Constant Matrix: (Units=GPa)
#
#
# Indices 1 2 3 4 5 6 
#
# 1 24.4445 16.5911 -18.6293 0.0000 0.0000 0.0000
# 2 16.5911 110.2233 12.7830 0.0000 0.0000 0.0000
# 3 -18.6293 12.7830 90.4009 0.0000 0.0000 0.0000
# 4 0.0000 0.0000 0.0000 36.5200 0.0000 0.0000
# 5 0.0000 0.0000 0.0000 0.0000 27.5434 0.0000
# 6 0.0000 0.0000 0.0000 0.0000 0.0000 28.5466
#
#
#
# Elastic Compliance Matrix: (Units=1/GPa)
#
#
# Indices 1 2 3 4 5 6 
#
# 1 0.058152 -0.010312 0.013442 0.000000 0.000000 0.000000
# 2 -0.010312 0.011052 -0.003688 0.000000 0.000000 0.000000
# 3 0.013442 -0.003688 0.014353 0.000000 0.000000 0.000000
# 4 0.000000 0.000000 0.000000 0.027382 0.000000 0.000000
# 5 0.000000 0.000000 0.000000 0.000000 0.036306 0.000000
# 6 0.000000 0.000000 0.000000 0.000000 0.000000 0.035030
#
#
# Mechanical properties :
#
#
# Convention : Reuss Voigt Hill
#
# Bulk Modulus (GPa) = 12.12983 27.39537 19.76260
# Shear Modulus (GPa) = 23.71086 32.81025 28.26056
#
# Velocity S-wave (km/s) = 3.18373 3.74514 3.47579
# Velocity P-wave (km/s) = 4.32438 5.51477 4.95545
#
# Compressibility (1/GPa) = 0.08244140
#
# Stress axis : x y z
#
# Youngs Moduli (GPa) = 17.19628 90.47803 69.67027
#
# Poissons Ratio (x) = 0.93302 -0.93650
# Poissons Ratio (y) = 0.17733 0.25694
# Poissons Ratio (z) = -0.23115 0.33367
#
# Static dielectric constant tensor:
#      x y z
#    x 2.022840 0.000000 0.000000 
#    y 0.000000 1.870640 0.000000 
#    z 0.000000 0.000000 1.928860 
# 
# From -- ./inp_files/6819.got.cif
#   From: 2010.05.17/outbox.cif.g08.bks.cpg/sg19_4_cif.got.tgz:6819.got - 2010.06.03 22:46:19.
