data_PCOD9315162
_publ_section_title
;
Structure prediction by ZEFSAII (Michael W. Deem and Ramdas Pophale) SiO2 
 PCOD9315162
Probable space group: P 21 21 21
;
_chemical_formula_sum "Si O2"
_cell_formula_units_Z 32
_cell_length_a 8.871325
_cell_length_b 5.255798
_cell_length_c 30.242235
_cell_angle_alpha 90.000000
_cell_angle_beta 90.000000
_cell_angle_gamma 90.000000
_cell_volume 1410.071189
_symmetry_space_group_name_H-M "P 21 21 21"
_symmetry_group_IT_number 19
_symmetry_cell_setting 'orthorhombic'
loop_
_space_group_symop_operation_xyz
x,y,z
1/2-x,-y,1/2+z
1/2+x,1/2-y,-z
-x,1/2+y,1/2-z
loop_
_atom_site_type_symbol
_atom_site_label
_atom_site_fract_x
_atom_site_fract_y
_atom_site_fract_z
Si Si1 0.074803 0.904601 0.563028
Si Si2 0.596759 0.355101 0.259543
Si Si3 0.312484 0.512671 0.568559
Si Si4 0.011403 0.699157 0.363571
Si Si5 0.086212 0.204589 0.478198
Si Si6 0.727898 0.363009 0.356170
Si Si7 0.431549 0.055300 0.772576
Si Si8 0.774329 0.201887 0.064968
O O1 0.904331 0.818040 0.560453
O O2 0.190723 0.691968 0.546262
O O3 0.092288 0.145480 0.530357
O O4 0.125992 0.953399 0.613323
O O5 0.490163 0.603211 0.256558
O O6 0.650403 0.310893 0.309916
O O7 0.752092 0.411622 0.233387
O O8 0.432289 0.698022 0.592191
O O9 0.412712 0.332133 0.537695
O O10 0.244799 0.371989 0.610978
O O11 0.895607 0.479042 0.348987
O O12 0.023841 0.895187 0.323438
O O13 0.175933 0.648369 0.383774
O O14 0.147585 0.470575 0.461277
O O15 0.178120 0.978387 0.453592
O O16 0.512760 0.283791 0.745396
#
# Coordination Sequence:
#
# PCOD9315162 Si02
#       8
#     4   4   4   4   4   4   4   4
#     4  11  27  40  73 103 144 187 238 295 356 417
#     4  12  29  49  72 109 149 183 236 306 368 430
#     4  10  23  45  71  99 143 197 230 294 356 432
#     4  10  23  44  71 101 139 186 241 289 353 431
#     4  11  25  46  69 101 147 187 242 286 352 418
#     4  11  24  47  72  99 144 192 234 284 375 424
#     4  12  25  45  78 105 136 190 242 295 349 441
#     4  11  26  44  68 107 138 184 241 299 337 425
#
# _framework density 22.693887
#
# number of rings (size 3 to 8) (size 9 to 14) (size 15 to 20)
#    0.000    1.000    2.500    2.250   10.500    0.000 
#    2.250    0.000    0.000    0.000    0.000    0.000 
#    0.000    0.000    0.000    0.000    0.000    0.000 
#
# Total GULP energy -178982.171404 kJ/mol
# GULP energy per Si atom -5593.192856 kJ/mol
# Density = 2.264223 g / cm^3
# Si number density = 22.693887 Si / 1000 Ang^3
#
#
#
# Elastic Constant Matrix: (Units=GPa)
#
#
# Indices 1 2 3 4 5 6 
#
# 1 99.0050 19.2197 32.8512 0.0000 0.0000 0.0000
# 2 19.2197 81.8549 6.5337 0.0000 0.0000 0.0000
# 3 32.8512 6.5337 83.9116 0.0000 0.0000 0.0000
# 4 0.0000 0.0000 0.0000 33.5213 0.0000 0.0000
# 5 0.0000 0.0000 0.0000 0.0000 15.6235 0.0000
# 6 0.0000 0.0000 0.0000 0.0000 0.0000 22.2207
#
#
#
# Elastic Compliance Matrix: (Units=1/GPa)
#
#
# Indices 1 2 3 4 5 6 
#
# 1 0.012087 -0.002476 -0.004539 0.000000 0.000000 0.000000
# 2 -0.002476 0.012800 -0.000027 0.000000 0.000000 0.000000
# 3 -0.004539 -0.000027 0.013697 0.000000 0.000000 0.000000
# 4 0.000000 0.000000 0.000000 0.029832 0.000000 0.000000
# 5 0.000000 0.000000 0.000000 0.000000 0.064006 0.000000
# 6 0.000000 0.000000 0.000000 0.000000 0.000000 0.045003
#
#
# Mechanical properties :
#
#
# Convention : Reuss Voigt Hill
#
# Bulk Modulus (GPa) = 40.81799 42.44230 41.63014
# Shear Modulus (GPa) = 25.04046 28.01756 26.52901
#
# Velocity S-wave (km/s) = 3.32535 3.51748 3.42276
# Velocity P-wave (km/s) = 5.72445 5.93629 5.83133
#
# Compressibility (1/GPa) = 0.02449900
#
# Stress axis : x y z
#
# Youngs Moduli (GPa) = 82.73113 78.12347 73.01080
#
# Poissons Ratio (x) = 0.19342 0.33142
# Poissons Ratio (y) = 0.20483 0.00200
# Poissons Ratio (z) = 0.37555 0.00214
#
# Static dielectric constant tensor:
#      x y z
#    x 1.894070 0.000000 0.000000 
#    y 0.000000 1.852480 0.000000 
#    z 0.000000 0.000000 1.847490 
# 
# From -- ./inp_files/705.got.cif
#   From: 2010.05.17/outbox.cif.g08.bks.cpg/sg19_1_cif.got.tgz:705.got - 2010.06.03 22:46:19.
