data_PCOD9315654
_publ_section_title
;
Structure prediction by ZEFSAII (Michael W. Deem and Ramdas Pophale) SiO2 
 PCOD9315654
Probable space group: P 21 21 21
;
_chemical_formula_sum "Si O2"
_cell_formula_units_Z 28
_cell_length_a 26.129486
_cell_length_b 8.730858
_cell_length_c 5.461864
_cell_angle_alpha 90.000000
_cell_angle_beta 90.000000
_cell_angle_gamma 90.000000
_cell_volume 1246.030502
_symmetry_space_group_name_H-M "P 21 21 21"
_symmetry_group_IT_number 19
_symmetry_cell_setting 'orthorhombic'
loop_
_space_group_symop_operation_xyz
x,y,z
1/2-x,-y,1/2+z
1/2+x,1/2-y,-z
-x,1/2+y,1/2-z
loop_
_atom_site_type_symbol
_atom_site_label
_atom_site_fract_x
_atom_site_fract_y
_atom_site_fract_z
Si Si1 0.779373 0.014254 0.084021
Si Si2 0.470513 0.191786 0.997489
Si Si3 0.981871 0.943593 0.999352
Si Si4 0.131242 0.949340 0.660018
Si Si5 0.330033 0.902401 0.553194
Si Si6 0.127946 0.291842 0.433202
Si Si7 0.779278 0.345804 0.107683
O O1 0.797275 0.178664 0.188324
O O2 0.749667 0.950256 0.325187
O O3 0.824333 0.899886 0.007150
O O4 0.496009 0.115676 0.239654
O O5 0.410568 0.154882 0.036117
O O6 0.489334 0.119128 0.741764
O O7 0.481539 0.372398 0.997247
O O8 0.924400 0.878008 0.021969
O O9 0.127737 0.123943 0.558821
O O10 0.187755 0.876958 0.636376
O O11 0.127262 0.983782 0.945531
O O12 0.360418 0.757838 0.654401
O O13 0.281954 0.843435 0.394736
O O14 0.298735 0.010262 0.738266
#
# Coordination Sequence:
#
# PCOD9315654 Si02
#       7
#     4   4   4   4   4   4   4
#     4  12  27  43  67 101 145 189 245 301 366 439
#     4  12  28  52  80 117 150 199 252 320 384 456
#     4  12  28  52  81 112 153 195 256 316 385 455
#     4  11  25  44  74 104 148 194 248 302 374 445
#     4  11  23  42  71 101 146 190 252 296 370 443
#     4  11  26  46  71 107 145 199 248 309 377 445
#     4  11  23  41  66 102 139 196 237 302 358 441
#
# _framework density 22.471360000000001
#
# number of rings (size 3 to 8) (size 9 to 14) (size 15 to 20)
#    0.000    0.571    2.857    4.286   12.000    0.000 
#    2.571    0.000    0.000    0.000    0.000    0.000 
#    0.000    0.000    0.000    0.000    0.000    0.000 
#
# Total GULP energy -156150.675684 kJ/mol
# GULP energy per Si atom -5576.809846 kJ/mol
# Density = 2.242021 g / cm^3
# Si number density = 22.471360 Si / 1000 Ang^3
#
#
#
# Elastic Constant Matrix: (Units=GPa)
#
#
# Indices 1 2 3 4 5 6 
#
# 1 71.3617 18.3760 39.5689 0.0000 0.0000 0.0000
# 2 18.3760 131.8328 19.3729 0.0000 0.0000 0.0000
# 3 39.5689 19.3729 85.8819 0.0000 0.0000 0.0000
# 4 0.0000 0.0000 0.0000 36.7406 0.0000 0.0000
# 5 0.0000 0.0000 0.0000 0.0000 20.9897 0.0000
# 6 0.0000 0.0000 0.0000 0.0000 0.0000 37.6386
#
#
#
# Elastic Compliance Matrix: (Units=1/GPa)
#
#
# Indices 1 2 3 4 5 6 
#
# 1 0.019073 -0.001414 -0.008469 0.000000 0.000000 0.000000
# 2 -0.001414 0.007950 -0.001142 0.000000 0.000000 0.000000
# 3 -0.008469 -0.001142 0.015803 0.000000 0.000000 0.000000
# 4 0.000000 0.000000 0.000000 0.027218 0.000000 0.000000
# 5 0.000000 0.000000 0.000000 0.000000 0.047642 0.000000
# 6 0.000000 0.000000 0.000000 0.000000 0.000000 0.026568
#
#
# Mechanical properties :
#
#
# Convention : Reuss Voigt Hill
#
# Bulk Modulus (GPa) = 48.12932 49.30134 48.71533
# Shear Modulus (GPa) = 28.86333 33.19102 31.02718
#
# Velocity S-wave (km/s) = 3.58781 3.84739 3.71987
# Velocity P-wave (km/s) = 6.21512 6.45940 6.33844
#
# Compressibility (1/GPa) = 0.02077735
#
# Stress axis : x y z
#
# Youngs Moduli (GPa) = 52.43029 125.78187 63.27806
#
# Poissons Ratio (x) = 0.17787 0.53588
# Poissons Ratio (y) = 0.07414 0.07226
# Poissons Ratio (z) = 0.44401 0.14363
#
# Static dielectric constant tensor:
#      x y z
#    x 1.886710 0.000000 0.000000 
#    y 0.000000 1.828290 0.000000 
#    z 0.000000 0.000000 2.107210 
# 
# From -- ./inp_files/539.got.cif
#   From: 2010.05.17/outbox.cif.g08.bks.cpg/sg19_1_cif.got.tgz:539.got - 2010.06.03 22:46:19.
