data_PCOD9315482
_publ_section_title
;
Structure prediction by ZEFSAII (Michael W. Deem and Ramdas Pophale) SiO2 
 PCOD9315482
Probable space group: P 21 21 21
;
_chemical_formula_sum "Si O2"
_cell_formula_units_Z 32
_cell_length_a 10.389257
_cell_length_b 6.575058
_cell_length_c 16.741875
_cell_angle_alpha 90.000000
_cell_angle_beta 90.000000
_cell_angle_gamma 90.000000
_cell_volume 1143.636935
_symmetry_space_group_name_H-M "P 21 21 21"
_symmetry_group_IT_number 19
_symmetry_cell_setting 'orthorhombic'
loop_
_space_group_symop_operation_xyz
x,y,z
1/2-x,-y,1/2+z
1/2+x,1/2-y,-z
-x,1/2+y,1/2-z
loop_
_atom_site_type_symbol
_atom_site_label
_atom_site_fract_x
_atom_site_fract_y
_atom_site_fract_z
Si Si1 0.649205 0.077905 0.941208
Si Si2 0.939456 0.065396 0.051479
Si Si3 0.566001 0.270017 0.684368
Si Si4 0.795088 0.210734 0.291842
Si Si5 0.343121 0.088910 0.126961
Si Si6 0.074192 0.775280 0.938959
Si Si7 0.352304 0.345677 0.267302
Si Si8 0.672924 0.549102 0.548220
O O1 0.758884 0.233531 0.912447
O O2 0.662002 0.923958 0.866828
O O3 0.539035 0.248751 0.954355
O O4 0.634275 0.910967 0.010744
O O5 0.814370 0.207665 0.061400
O O6 0.958989 0.911275 0.977523
O O7 0.956792 0.923332 0.126964
O O8 0.441444 0.264949 0.742698
O O9 0.705330 0.243532 0.724909
O O10 0.591968 0.449655 0.620353
O O11 0.734024 0.415996 0.325648
O O12 0.687425 0.080012 0.246467
O O13 0.416563 0.222471 0.193832
O O14 0.383609 0.993848 0.040824
O O15 0.067667 0.700121 0.847382
O O16 0.190134 0.941203 0.943662
#
# Coordination Sequence:
#
# PCOD9315482 Si02
#       8
#     4   4   4   4   4   4   4   4
#     4  11  19  40  67  91 133 177 222 289 339 395
#     4  12  22  39  72 101 131 180 239 295 340 406
#     4  11  23  39  59 107 135 174 235 284 345 427
#     4  11  21  41  59  95 142 178 219 285 351 423
#     4  11  23  43  65  97 135 187 222 284 351 423
#     4  11  23  45  63 105 141 183 239 291 345 422
#     4  10  28  37  66  97 145 184 214 283 368 415
#     4  11  23  38  71 101 130 185 240 279 343 417
#
# _framework density 27.980909
#
# number of rings (size 3 to 8) (size 9 to 14) (size 15 to 20)
#    0.000    1.000    6.250    0.000    5.250    3.000 
#    0.000    0.000    5.500    0.000    0.000    0.000 
#    0.000    0.000    0.000    0.000    0.000    0.000 
#
# Total GULP energy -178740.022189 kJ/mol
# GULP energy per Si atom -5585.625693 kJ/mol
# Density = 2.791722 g / cm^3
# Si number density = 27.980909 Si / 1000 Ang^3
#
#
#
# Elastic Constant Matrix: (Units=GPa)
#
#
# Indices 1 2 3 4 5 6 
#
# 1 72.3184 37.1372 9.9357 0.0000 0.0000 0.0000
# 2 37.1372 222.3212 52.3462 0.0000 0.0000 0.0000
# 3 9.9357 52.3462 114.6901 0.0000 0.0000 0.0000
# 4 0.0000 0.0000 0.0000 57.1076 0.0000 0.0000
# 5 0.0000 0.0000 0.0000 0.0000 24.6560 0.0000
# 6 0.0000 0.0000 0.0000 0.0000 0.0000 30.3619
#
#
#
# Elastic Compliance Matrix: (Units=1/GPa)
#
#
# Indices 1 2 3 4 5 6 
#
# 1 0.015128 -0.002486 -0.000176 0.000000 0.000000 0.000000
# 2 -0.002486 0.005448 -0.002271 0.000000 0.000000 0.000000
# 3 -0.000176 -0.002271 0.009771 0.000000 0.000000 0.000000
# 4 0.000000 0.000000 0.000000 0.017511 0.000000 0.000000
# 5 0.000000 0.000000 0.000000 0.000000 0.040558 0.000000
# 6 0.000000 0.000000 0.000000 0.000000 0.000000 0.032936
#
#
# Mechanical properties :
#
#
# Convention : Reuss Voigt Hill
#
# Bulk Modulus (GPa) = 48.82458 67.57421 58.19939
# Shear Modulus (GPa) = 36.22001 43.08581 39.65291
#
# Velocity S-wave (km/s) = 3.60176 3.92832 3.76858
# Velocity P-wave (km/s) = 5.89779 6.69165 6.30722
#
# Compressibility (1/GPa) = 0.02048149
#
# Stress axis : x y z
#
# Youngs Moduli (GPa) = 66.10097 183.55476 102.34355
#
# Poissons Ratio (x) = 0.45625 0.01802
# Poissons Ratio (y) = 0.16430 0.23244
# Poissons Ratio (z) = 0.01164 0.41689
#
# Static dielectric constant tensor:
#      x y z
#    x 2.687210 0.000000 0.000000 
#    y 0.000000 2.331780 0.000000 
#    z 0.000000 0.000000 2.433160 
# 
# From -- ./inp_files/6784.got.cif
#   From: 2010.05.17/outbox.cif.g08.bks.cpg/sg19_4_cif.got.tgz:6784.got - 2010.06.03 22:46:19.
