data_PCOD9315491
_publ_section_title
;
Structure prediction by ZEFSAII (Michael W. Deem and Ramdas Pophale) SiO2 
 PCOD9315491
Probable space group: P 21 21 21
;
_chemical_formula_sum "Si O2"
_cell_formula_units_Z 28
_cell_length_a 8.967733
_cell_length_b 8.371751
_cell_length_c 14.085087
_cell_angle_alpha 90.000000
_cell_angle_beta 90.000000
_cell_angle_gamma 90.000000
_cell_volume 1057.446748
_symmetry_space_group_name_H-M "P 21 21 21"
_symmetry_group_IT_number 19
_symmetry_cell_setting 'orthorhombic'
loop_
_space_group_symop_operation_xyz
x,y,z
1/2-x,-y,1/2+z
1/2+x,1/2-y,-z
-x,1/2+y,1/2-z
loop_
_atom_site_type_symbol
_atom_site_label
_atom_site_fract_x
_atom_site_fract_y
_atom_site_fract_z
Si Si1 0.772909 0.011126 0.901026
Si Si2 0.465362 0.114220 0.953954
Si Si3 0.802065 0.325274 0.370495
Si Si4 0.625919 0.092549 0.587376
Si Si5 0.466310 0.339573 0.788731
Si Si6 0.376896 0.145827 0.159902
Si Si7 0.249676 0.100857 0.347022
O O1 0.594308 0.000041 0.912358
O O2 0.824380 0.167587 0.843955
O O3 0.809223 0.824138 0.884235
O O4 0.830203 0.032303 0.007450
O O5 0.504245 0.268090 0.890688
O O6 0.306749 0.040865 0.916757
O O7 0.485489 0.139219 0.066860
O O8 0.861419 0.283707 0.264957
O O9 0.724295 0.495279 0.372897
O O10 0.957444 0.344536 0.427737
O O11 0.741970 0.237775 0.591147
O O12 0.621425 0.001470 0.688295
O O13 0.611593 0.368307 0.726222
O O14 0.388941 0.099905 0.273120
#
# Coordination Sequence:
#
# PCOD9315491 Si02
#       7
#     4   4   4   4   4   4   4
#     4  12  24  39  63  97 137 165 211 281 333 393
#     4  12  22  39  63  98 129 168 222 269 332 398
#     4  11  23  39  66  96 123 170 221 271 329 385
#     4  11  21  38  64  96 128 166 221 276 325 388
#     4  11  18  37  64  95 121 158 221 276 314 384
#     4  12  24  39  68  97 131 171 220 279 331 391
#     4  11  20  39  66  91 125 168 224 274 322 381
#
# _framework density 26.478874999999999
#
# number of rings (size 3 to 8) (size 9 to 14) (size 15 to 20)
#    0.000    0.571    8.571    2.571    0.000    0.000 
#    0.000    0.000    6.286    0.000    0.000    0.000 
#    0.000    0.000    0.000    0.000    0.000    0.000 
#
# Total GULP energy -155996.803369 kJ/mol
# GULP energy per Si atom -5571.314406 kJ/mol
# Density = 2.641861 g / cm^3
# Si number density = 26.478875 Si / 1000 Ang^3
#
#
#
# Elastic Constant Matrix: (Units=GPa)
#
#
# Indices 1 2 3 4 5 6 
#
# 1 26.3190 12.2039 27.9111 0.0000 0.0000 0.0000
# 2 12.2039 114.4389 15.9207 0.0000 0.0000 0.0000
# 3 27.9111 15.9207 37.5453 0.0000 0.0000 0.0000
# 4 0.0000 0.0000 0.0000 54.5669 0.0000 0.0000
# 5 0.0000 0.0000 0.0000 0.0000 35.0811 0.0000
# 6 0.0000 0.0000 0.0000 0.0000 0.0000 14.9503
#
#
#
# Elastic Compliance Matrix: (Units=1/GPa)
#
#
# Indices 1 2 3 4 5 6 
#
# 1 0.179574 -0.000614 -0.133234 0.000000 0.000000 0.000000
# 2 -0.000614 0.009288 -0.003482 0.000000 0.000000 0.000000
# 3 -0.133234 -0.003482 0.127157 0.000000 0.000000 0.000000
# 4 0.000000 0.000000 0.000000 0.018326 0.000000 0.000000
# 5 0.000000 0.000000 0.000000 0.000000 0.028505 0.000000
# 6 0.000000 0.000000 0.000000 0.000000 0.000000 0.066888
#
#
# Mechanical properties :
#
#
# Convention : Reuss Voigt Hill
#
# Bulk Modulus (GPa) = 24.17908 32.26385 28.22146
# Shear Modulus (GPa) = 6.96198 29.07083 18.01641
#
# Velocity S-wave (km/s) = 1.62326 3.31703 2.61129
# Velocity P-wave (km/s) = 3.55873 5.18474 4.44669
#
# Compressibility (1/GPa) = 0.04135807
#
# Stress axis : x y z
#
# Youngs Moduli (GPa) = 5.56873 107.66346 7.86429
#
# Poissons Ratio (x) = 0.06615 1.04779
# Poissons Ratio (y) = 0.00342 0.02738
# Poissons Ratio (z) = 0.74195 0.37486
#
# Static dielectric constant tensor:
#      x y z
#    x 2.180700 0.000000 0.000000 
#    y 0.000000 2.179550 0.000000 
#    z 0.000000 0.000000 2.248330 
# 
# From -- ./inp_files/6088.got.cif
#   From: 2010.05.17/outbox.cif.g08.bks.cpg/sg19_4_cif.got.tgz:6088.got - 2010.06.03 22:46:19.
