data_PCOD9315834
_publ_section_title
;
Structure prediction by ZEFSAII (Michael W. Deem and Ramdas Pophale) SiO2 
 PCOD9315834
Probable space group: P 21 21 21
;
_chemical_formula_sum "Si O2"
_cell_formula_units_Z 20
_cell_length_a 6.546879
_cell_length_b 9.463241
_cell_length_c 14.732572
_cell_angle_alpha 90.000000
_cell_angle_beta 90.000000
_cell_angle_gamma 90.000000
_cell_volume 912.751987
_symmetry_space_group_name_H-M "P 21 21 21"
_symmetry_group_IT_number 19
_symmetry_cell_setting 'orthorhombic'
loop_
_space_group_symop_operation_xyz
x,y,z
1/2-x,-y,1/2+z
1/2+x,1/2-y,-z
-x,1/2+y,1/2-z
loop_
_atom_site_type_symbol
_atom_site_label
_atom_site_fract_x
_atom_site_fract_y
_atom_site_fract_z
Si Si1 0.644903 0.655524 0.654288
Si Si2 0.647255 0.925814 0.932439
Si Si3 0.961879 0.411027 0.694988
Si Si4 0.718665 0.060032 0.122703
Si Si5 0.085494 0.292406 0.329353
O O1 0.468498 0.555444 0.616538
O O2 0.831348 0.552724 0.677640
O O3 0.710874 0.785255 0.591043
O O4 0.561132 0.732668 0.744049
O O5 0.514859 0.785676 0.914454
O O6 0.863476 0.905150 0.882132
O O7 0.649294 0.968436 0.036981
O O8 0.804741 0.279902 0.688176
O O9 0.059425 0.418774 0.795346
O O10 0.897396 0.960065 0.161288
#
# Coordination Sequence:
#
# PCOD9315834 Si02
#       5
#     4   4   4   4   4
#     4  11  24  47  68  97 139 177 228 281 334 406
#     4  11  27  43  65 105 135 175 231 277 337 406
#     4  11  24  47  68  98 140 178 221 280 346 393
#     4  12  25  42  75  97 135 185 222 283 339 403
#     4  11  24  47  68  97 139 177 228 281 334 406
#
# _framework density 21.911757000000001
#
# number of rings (size 3 to 8) (size 9 to 14) (size 15 to 20)
#    0.000    0.800    4.000    2.400    5.600    0.000 
#    7.200    0.000    0.000    0.000    0.000    0.000 
#    0.000    0.000    0.000    0.000    0.000    0.000 
#
# Total GULP energy -111844.977193 kJ/mol
# GULP energy per Si atom -5592.248860 kJ/mol
# Density = 2.186188 g / cm^3
# Si number density = 21.911757 Si / 1000 Ang^3
#
#
#
# Elastic Constant Matrix: (Units=GPa)
#
#
# Indices 1 2 3 4 5 6 
#
# 1 93.5355 24.1851 14.4842 0.0000 0.0000 0.0000
# 2 24.1851 112.7803 -12.9671 0.0000 0.0000 0.0000
# 3 14.4842 -12.9671 73.3229 0.0000 0.0000 0.0000
# 4 0.0000 0.0000 0.0000 30.8110 0.0000 0.0000
# 5 0.0000 0.0000 0.0000 0.0000 21.0043 0.0000
# 6 0.0000 0.0000 0.0000 0.0000 0.0000 19.0235
#
#
#
# Elastic Compliance Matrix: (Units=1/GPa)
#
#
# Indices 1 2 3 4 5 6 
#
# 1 0.011877 -0.002875 -0.002855 0.000000 0.000000 0.000000
# 2 -0.002875 0.009747 0.002292 0.000000 0.000000 0.000000
# 3 -0.002855 0.002292 0.014607 0.000000 0.000000 0.000000
# 4 0.000000 0.000000 0.000000 0.032456 0.000000 0.000000
# 5 0.000000 0.000000 0.000000 0.000000 0.047609 0.000000
# 6 0.000000 0.000000 0.000000 0.000000 0.000000 0.052566
#
#
# Mechanical properties :
#
#
# Convention : Reuss Voigt Hill
#
# Bulk Modulus (GPa) = 34.06580 36.78255 35.42417
# Shear Modulus (GPa) = 26.95077 31.09687 29.02382
#
# Velocity S-wave (km/s) = 3.51090 3.77130 3.64342
# Velocity P-wave (km/s) = 5.65825 5.98220 5.82247
#
# Compressibility (1/GPa) = 0.02935496
#
# Stress axis : x y z
#
# Youngs Moduli (GPa) = 84.19954 102.59747 68.45812
#
# Poissons Ratio (x) = 0.29497 0.19542
# Poissons Ratio (y) = 0.24208 -0.15688
# Poissons Ratio (z) = 0.24035 -0.23512
#
# Static dielectric constant tensor:
#      x y z
#    x 1.800190 0.000000 0.000000 
#    y 0.000000 1.806370 0.000000 
#    z 0.000000 0.000000 1.886770 
# 
# From -- ./inp_files/4077.got.cif
#   From: 2010.05.17/outbox.cif.g08.bks.cpg/sg19_3_cif.got.tgz:4077.got - 2010.06.03 22:46:19.
