data_PCOD9315904
_publ_section_title
;
Structure prediction by ZEFSAII (Michael W. Deem and Ramdas Pophale) SiO2 
 PCOD9315904
Probable space group: P 21 21 21
;
_chemical_formula_sum "Si O2"
_cell_formula_units_Z 32
_cell_length_a 20.830904
_cell_length_b 6.027790
_cell_length_c 10.520901
_cell_angle_alpha 90.000000
_cell_angle_beta 90.000000
_cell_angle_gamma 90.000000
_cell_volume 1321.049725
_symmetry_space_group_name_H-M "P 21 21 21"
_symmetry_group_IT_number 19
_symmetry_cell_setting 'orthorhombic'
loop_
_space_group_symop_operation_xyz
x,y,z
1/2-x,-y,1/2+z
1/2+x,1/2-y,-z
-x,1/2+y,1/2-z
loop_
_atom_site_type_symbol
_atom_site_label
_atom_site_fract_x
_atom_site_fract_y
_atom_site_fract_z
Si Si1 0.811863 0.895439 0.113717
Si Si2 0.944618 0.283642 0.918830
Si Si3 0.074559 0.415738 0.772897
Si Si4 0.168642 0.105187 0.634063
Si Si5 0.313850 0.934765 0.650429
Si Si6 0.505663 0.094951 0.814760
Si Si7 0.369708 0.363889 0.688584
Si Si8 0.321283 0.559292 0.459927
O O1 0.817317 0.719880 0.226684
O O2 0.858375 0.088142 0.164013
O O3 0.742219 0.005354 0.117002
O O4 0.827913 0.776096 0.983608
O O5 0.875578 0.396115 0.899979
O O6 0.004626 0.370699 0.831645
O O7 0.936664 0.038437 0.860809
O O8 0.966323 0.343127 0.060426
O O9 0.125107 0.218215 0.743529
O O10 0.117819 0.533721 0.881473
O O11 0.241569 0.033819 0.661397
O O12 0.320492 0.808477 0.515967
O O13 0.373621 0.104257 0.666409
O O14 0.507609 0.335244 0.737621
O O15 0.577917 0.039225 0.855673
O O16 0.312936 0.421901 0.591213
#
# Coordination Sequence:
#
# PCOD9315904 Si02
#       8
#     4   4   4   4   4   4   4   4
#     4  11  26  44  72 114 152 199 263 332 407 488
#     4  12  28  50  77 114 160 213 271 329 407 490
#     4  12  27  49  75 110 157 204 263 334 406 493
#     4  12  27  45  74 113 148 208 259 331 405 488
#     4  11  27  46  77 113 153 209 264 340 413 494
#     4  12  31  52  83 117 163 222 276 344 414 494
#     4  11  25  47  73 110 153 206 264 333 405 486
#     4  11  25  47  73 111 156 203 262 333 409 491
#
# _framework density 24.223161000000001
#
# number of rings (size 3 to 8) (size 9 to 14) (size 15 to 20)
#    0.000    0.500    3.750    2.250   15.750    1.000 
#    0.000    0.000    0.000    0.000    0.000    0.000 
#    0.000    0.000    0.000    0.000    0.000    0.000 
#
# Total GULP energy -178326.425221 kJ/mol
# GULP energy per Si atom -5572.700788 kJ/mol
# Density = 2.416803 g / cm^3
# Si number density = 24.223161 Si / 1000 Ang^3
#
#
#
# Elastic Constant Matrix: (Units=GPa)
#
#
# Indices 1 2 3 4 5 6 
#
# 1 97.0416 33.5182 2.0638 0.0000 0.0000 0.0000
# 2 33.5182 103.2423 40.8245 0.0000 0.0000 0.0000
# 3 2.0638 40.8245 74.9444 0.0000 0.0000 0.0000
# 4 0.0000 0.0000 0.0000 35.8538 0.0000 0.0000
# 5 0.0000 0.0000 0.0000 0.0000 37.1538 0.0000
# 6 0.0000 0.0000 0.0000 0.0000 0.0000 51.1710
#
#
#
# Elastic Compliance Matrix: (Units=1/GPa)
#
#
# Indices 1 2 3 4 5 6 
#
# 1 0.011900 -0.004759 0.002265 0.000000 0.000000 0.000000
# 2 -0.004759 0.014248 -0.007630 0.000000 0.000000 0.000000
# 3 0.002265 -0.007630 0.017437 0.000000 0.000000 0.000000
# 4 0.000000 0.000000 0.000000 0.027891 0.000000 0.000000
# 5 0.000000 0.000000 0.000000 0.000000 0.026915 0.000000
# 6 0.000000 0.000000 0.000000 0.000000 0.000000 0.019542
#
#
# Mechanical properties :
#
#
# Convention : Reuss Voigt Hill
#
# Bulk Modulus (GPa) = 42.85122 47.56014 45.20568
# Shear Modulus (GPa) = 34.25525 38.09051 36.17288
#
# Velocity S-wave (km/s) = 3.76460 3.96976 3.86854
# Velocity P-wave (km/s) = 6.05185 6.37877 6.21746
#
# Compressibility (1/GPa) = 0.02333656
#
# Stress axis : x y z
#
# Youngs Moduli (GPa) = 84.03024 70.18406 57.34812
#
# Poissons Ratio (x) = 0.33401 -0.12988
# Poissons Ratio (y) = 0.39991 0.43759
# Poissons Ratio (z) = -0.19030 0.53553
#
# Static dielectric constant tensor:
#      x y z
#    x 1.999180 0.000000 0.000000 
#    y 0.000000 2.069270 0.000000 
#    z 0.000000 0.000000 4.184210 
# 
# From -- ./inp_files/5465.got.cif
#   From: 2010.05.17/outbox.cif.g08.bks.cpg/sg19_3_cif.got.tgz:5465.got - 2010.06.03 22:46:19.
