data_PCOD9315293
_publ_section_title
;
Structure prediction by ZEFSAII (Michael W. Deem and Ramdas Pophale) SiO2 
 PCOD9315293
Probable space group: P 21 21 21
;
_chemical_formula_sum "Si O2"
_cell_formula_units_Z 28
_cell_length_a 11.432016
_cell_length_b 12.364723
_cell_length_c 8.281110
_cell_angle_alpha 90.000000
_cell_angle_beta 90.000000
_cell_angle_gamma 90.000000
_cell_volume 1170.565631
_symmetry_space_group_name_H-M "P 21 21 21"
_symmetry_group_IT_number 19
_symmetry_cell_setting 'orthorhombic'
loop_
_space_group_symop_operation_xyz
x,y,z
1/2-x,-y,1/2+z
1/2+x,1/2-y,-z
-x,1/2+y,1/2-z
loop_
_atom_site_type_symbol
_atom_site_label
_atom_site_fract_x
_atom_site_fract_y
_atom_site_fract_z
Si Si1 0.270619 0.458246 0.799836
Si Si2 0.130806 0.017621 0.697736
Si Si3 0.814142 0.659239 0.333002
Si Si4 0.925344 0.054864 0.500287
Si Si5 0.995125 0.777876 0.141362
Si Si6 0.233508 0.781220 0.307129
Si Si7 0.488704 0.483208 0.984139
O O1 0.358906 0.491223 0.656943
O O2 0.224352 0.338569 0.756267
O O3 0.167385 0.534640 0.857029
O O4 0.358174 0.443330 0.951715
O O5 0.211507 0.124237 0.696378
O O6 0.049992 0.001167 0.541615
O O7 0.210153 0.914291 0.734678
O O8 0.041146 0.038387 0.841862
O O9 0.772749 0.700304 0.508431
O O10 0.869302 0.747847 0.215847
O O11 0.923424 0.578519 0.364024
O O12 0.957786 0.179518 0.468897
O O13 0.094082 0.785175 0.280814
O O14 0.990316 0.889752 0.048938
#
# Coordination Sequence:
#
# PCOD9315293 Si02
#       7
#     4   4   4   4   4   4   4
#     4  11  25  48  74 106 149 194 243 306 367 434
#     4  11  26  45  73 106 149 189 249 302 364 448
#     4  11  24  42  78 105 145 198 238 307 371 432
#     4  11  26  46  74 105 149 193 242 303 369 428
#     4  11  25  46  72 110 142 197 243 304 366 442
#     4  10  24  43  71 103 149 185 249 293 372 432
#     4  11  24  46  70 107 149 188 248 295 367 440
#
# _framework density 23.920061
#
# number of rings (size 3 to 8) (size 9 to 14) (size 15 to 20)
#    0.000    1.143    4.286    0.857    8.000    4.571 
#    2.571    0.000    0.000    0.000    0.000    0.000 
#    0.000    0.000    0.000    0.000    0.000    0.000 
#
# Total GULP energy -156713.780993 kJ/mol
# GULP energy per Si atom -5596.920750 kJ/mol
# Density = 2.386562 g / cm^3
# Si number density = 23.920061 Si / 1000 Ang^3
#
#
#
# Elastic Constant Matrix: (Units=GPa)
#
#
# Indices 1 2 3 4 5 6 
#
# 1 112.4642 31.4833 18.3543 0.0000 0.0000 0.0000
# 2 31.4833 84.4881 7.4730 0.0000 0.0000 0.0000
# 3 18.3543 7.4730 32.6077 0.0000 0.0000 0.0000
# 4 0.0000 0.0000 0.0000 13.4644 0.0000 0.0000
# 5 0.0000 0.0000 0.0000 0.0000 40.7584 0.0000
# 6 0.0000 0.0000 0.0000 0.0000 0.0000 31.7736
#
#
#
# Elastic Compliance Matrix: (Units=1/GPa)
#
#
# Indices 1 2 3 4 5 6 
#
# 1 0.010736 -0.003538 -0.005232 0.000000 0.000000 0.000000
# 2 -0.003538 0.013247 -0.001045 0.000000 0.000000 0.000000
# 3 -0.005232 -0.001045 0.033852 0.000000 0.000000 0.000000
# 4 0.000000 0.000000 0.000000 0.074270 0.000000 0.000000
# 5 0.000000 0.000000 0.000000 0.000000 0.024535 0.000000
# 6 0.000000 0.000000 0.000000 0.000000 0.000000 0.031473
#
#
# Mechanical properties :
#
#
# Convention : Reuss Voigt Hill
#
# Bulk Modulus (GPa) = 26.17420 38.24237 32.20828
# Shear Modulus (GPa) = 22.67811 28.68258 25.68035
#
# Velocity S-wave (km/s) = 3.08243 3.46656 3.28012
# Velocity P-wave (km/s) = 4.86154 5.66083 5.27634
#
# Compressibility (1/GPa) = 0.03820557
#
# Stress axis : x y z
#
# Youngs Moduli (GPa) = 93.14438 75.49053 29.54024
#
# Poissons Ratio (x) = 0.26707 0.15456
# Poissons Ratio (y) = 0.32953 0.03085
# Poissons Ratio (z) = 0.48736 0.07885
#
# Static dielectric constant tensor:
#      x y z
#    x 1.883510 0.000000 0.000000 
#    y 0.000000 1.896250 0.000000 
#    z 0.000000 0.000000 1.978770 
# 
# From -- ./inp_files/3418.got.cif
#   From: 2010.05.17/outbox.cif.g08.bks.cpg/sg19_2_cif.got.tgz:3418.got - 2010.06.03 22:46:19.
