data_PCOD9315955
_publ_section_title
;
Structure prediction by ZEFSAII (Michael W. Deem and Ramdas Pophale) SiO2 
 PCOD9315955
Probable space group: P 21 21 21
;
_chemical_formula_sum "Si O2"
_cell_formula_units_Z 20
_cell_length_a 4.973053
_cell_length_b 9.715641
_cell_length_c 15.879069
_cell_angle_alpha 90.000000
_cell_angle_beta 90.000000
_cell_angle_gamma 90.000000
_cell_volume 767.219412
_symmetry_space_group_name_H-M "P 21 21 21"
_symmetry_group_IT_number 19
_symmetry_cell_setting 'orthorhombic'
loop_
_space_group_symop_operation_xyz
x,y,z
1/2-x,-y,1/2+z
1/2+x,1/2-y,-z
-x,1/2+y,1/2-z
loop_
_atom_site_type_symbol
_atom_site_label
_atom_site_fract_x
_atom_site_fract_y
_atom_site_fract_z
Si Si1 0.314847 0.879848 0.216535
Si Si2 0.343494 0.464275 0.143070
Si Si3 0.939586 0.264760 0.053208
Si Si4 0.009507 0.639590 0.274739
Si Si5 0.558568 0.727780 0.056695
O O1 0.483823 0.856268 0.302355
O O2 0.463099 0.828157 0.132691
O O3 0.042320 0.789704 0.231099
O O4 0.249828 0.042038 0.218510
O O5 0.109606 0.393435 0.088843
O O6 0.517879 0.573347 0.090832
O O7 0.200989 0.554176 0.214574
O O8 0.905512 0.158856 0.129150
O O9 0.152346 0.203395 0.986431
O O10 0.855845 0.751599 0.021828
#
# Coordination Sequence:
#
# PCOD9315955 Si02
#       5
#     4   4   4   4   4
#     4  11  27  48  82 107 155 206 267 315 386 472
#     4  11  28  49  78 110 158 206 273 304 392 473
#     4  12  29  47  75 115 158 202 255 329 389 450
#     4  11  26  49  79 107 152 203 265 308 388 468
#     4  11  30  49  78 117 159 203 256 330 393 455
#
# _framework density 26.068161
#
# number of rings (size 3 to 8) (size 9 to 14) (size 15 to 20)
#    0.000    0.800    2.000    1.200   22.400    0.000 
#    0.000    0.000    0.000    0.000    0.000    0.000 
#    0.000    0.000    0.000    0.000    0.000    0.000 
#
# Total GULP energy -112036.959675 kJ/mol
# GULP energy per Si atom -5601.847984 kJ/mol
# Density = 2.600883 g / cm^3
# Si number density = 26.068161 Si / 1000 Ang^3
#
#
#
# Elastic Constant Matrix: (Units=GPa)
#
#
# Indices 1 2 3 4 5 6 
#
# 1 55.8819 6.0670 -0.2891 0.0000 0.0000 0.0000
# 2 6.0670 99.0824 20.9263 0.0000 0.0000 0.0000
# 3 -0.2891 20.9263 126.5623 0.0000 0.0000 0.0000
# 4 0.0000 0.0000 0.0000 54.4422 0.0000 0.0000
# 5 0.0000 0.0000 0.0000 0.0000 34.8347 0.0000
# 6 0.0000 0.0000 0.0000 0.0000 0.0000 35.8376
#
#
#
# Elastic Compliance Matrix: (Units=1/GPa)
#
#
# Indices 1 2 3 4 5 6 
#
# 1 0.018021 -0.001152 0.000232 0.000000 0.000000 0.000000
# 2 -0.001152 0.010531 -0.001744 0.000000 0.000000 0.000000
# 3 0.000232 -0.001744 0.008190 0.000000 0.000000 0.000000
# 4 0.000000 0.000000 0.000000 0.018368 0.000000 0.000000
# 5 0.000000 0.000000 0.000000 0.000000 0.028707 0.000000
# 6 0.000000 0.000000 0.000000 0.000000 0.000000 0.027904
#
#
# Mechanical properties :
#
#
# Convention : Reuss Voigt Hill
#
# Bulk Modulus (GPa) = 31.83341 37.21497 34.52419
# Shear Modulus (GPa) = 39.20891 42.01106 40.60999
#
# Velocity S-wave (km/s) = 3.88247 4.01881 3.95123
# Velocity P-wave (km/s) = 5.68649 5.98677 5.83856
#
# Compressibility (1/GPa) = 0.03141354
#
# Stress axis : x y z
#
# Youngs Moduli (GPa) = 55.49023 94.95329 122.09819
#
# Poissons Ratio (x) = 0.10942 -0.02829
# Poissons Ratio (y) = 0.06395 0.21293
# Poissons Ratio (z) = -0.01286 0.16559
#
# Static dielectric constant tensor:
#      x y z
#    x 2.041000 0.000000 0.000000 
#    y 0.000000 2.078800 0.000000 
#    z 0.000000 0.000000 2.025620 
# 
# From -- ./inp_files/5643.got.cif
#   From: 2010.05.17/outbox.cif.g08.bks.cpg/sg19_3_cif.got.tgz:5643.got - 2010.06.03 22:46:19.
