data_PCOD9315629
_publ_section_title
;
Structure prediction by ZEFSAII (Michael W. Deem and Ramdas Pophale) SiO2 
 PCOD9315629
Probable space group: P 21 21 21
;
_chemical_formula_sum "Si O2"
_cell_formula_units_Z 16
_cell_length_a 8.312546
_cell_length_b 10.003716
_cell_length_c 7.117588
_cell_angle_alpha 90.000000
_cell_angle_beta 90.000000
_cell_angle_gamma 90.000000
_cell_volume 591.872635
_symmetry_space_group_name_H-M "P 21 21 21"
_symmetry_group_IT_number 19
_symmetry_cell_setting 'orthorhombic'
loop_
_space_group_symop_operation_xyz
x,y,z
1/2-x,-y,1/2+z
1/2+x,1/2-y,-z
-x,1/2+y,1/2-z
loop_
_atom_site_type_symbol
_atom_site_label
_atom_site_fract_x
_atom_site_fract_y
_atom_site_fract_z
Si Si1 0.152801 0.216278 0.128182
Si Si2 0.441019 0.132538 0.625070
Si Si3 0.583396 0.923734 0.356563
Si Si4 0.118830 0.019655 0.515873
O O1 0.293368 0.106083 0.122576
O O2 0.048550 0.176570 0.947614
O O3 0.245772 0.355775 0.119729
O O4 0.022528 0.233336 0.296411
O O5 0.555474 0.057520 0.477099
O O6 0.420829 0.042491 0.813751
O O7 0.263084 0.129916 0.534609
O O8 0.532039 0.942161 0.142580
#
# Coordination Sequence:
#
# PCOD9315629 Si02
#       4
#     4   4   4   4
#     4  11  23  44  68  98 135 174 217 278 330 383
#     4  11  23  43  67  96 130 175 217 269 326 391
#     4  11  24  45  67  97 139 169 224 272 324 396
#     4  11  22  46  66  93 140 172 220 275 320 398
#
# _framework density 27.032841999999999
#
# number of rings (size 3 to 8) (size 9 to 14) (size 15 to 20)
#    0.000    1.000    7.500    0.000    3.500    0.000 
#    9.000    5.000    0.000    0.000    0.000    0.000 
#    0.000    0.000    0.000    0.000    0.000    0.000 
#
# Total GULP energy -89571.760175 kJ/mol
# GULP energy per Si atom -5598.235011 kJ/mol
# Density = 2.697131 g / cm^3
# Si number density = 27.032842 Si / 1000 Ang^3
#
#
#
# Elastic Constant Matrix: (Units=GPa)
#
#
# Indices 1 2 3 4 5 6 
#
# 1 61.1904 23.7575 -13.1119 0.0000 0.0000 0.0000
# 2 23.7575 41.8443 -8.8087 0.0000 0.0000 0.0000
# 3 -13.1119 -8.8087 122.7523 0.0000 0.0000 0.0000
# 4 0.0000 0.0000 0.0000 33.8947 0.0000 0.0000
# 5 0.0000 0.0000 0.0000 0.0000 28.4336 0.0000
# 6 0.0000 0.0000 0.0000 0.0000 0.0000 61.8872
#
#
#
# Elastic Compliance Matrix: (Units=1/GPa)
#
#
# Indices 1 2 3 4 5 6 
#
# 1 0.021205 -0.011740 0.001423 0.000000 0.000000 0.000000
# 2 -0.011740 0.030764 0.000954 0.000000 0.000000 0.000000
# 3 0.001423 0.000954 0.008367 0.000000 0.000000 0.000000
# 4 0.000000 0.000000 0.000000 0.029503 0.000000 0.000000
# 5 0.000000 0.000000 0.000000 0.000000 0.035170 0.000000
# 6 0.000000 0.000000 0.000000 0.000000 0.000000 0.016158
#
#
# Mechanical properties :
#
#
# Convention : Reuss Voigt Hill
#
# Bulk Modulus (GPa) = 24.03327 25.49564 24.76445
# Shear Modulus (GPa) = 28.77444 39.77309 34.27376
#
# Velocity S-wave (km/s) = 3.26609 3.83990 3.56456
# Velocity P-wave (km/s) = 4.80966 5.39552 5.11099
#
# Compressibility (1/GPa) = 0.04160898
#
# Stress axis : x y z
#
# Youngs Moduli (GPa) = 47.15774 32.50512 119.51894
#
# Poissons Ratio (x) = 0.38161 -0.17003
# Poissons Ratio (y) = 0.55364 -0.11398
# Poissons Ratio (z) = -0.06709 -0.03100
#
# Static dielectric constant tensor:
#      x y z
#    x 2.097840 0.000000 0.000000 
#    y 0.000000 2.299070 0.000000 
#    z 0.000000 0.000000 2.068690 
# 
# From -- ./inp_files/319.got.cif
#   From: 2010.05.17/outbox.cif.g08.bks.cpg/sg19_1_cif.got.tgz:319.got - 2010.06.03 22:46:19.
