data_PCOD9315373
_publ_section_title
;
Structure prediction by ZEFSAII (Michael W. Deem and Ramdas Pophale) SiO2 
 PCOD9315373
Probable space group: P 21 21 21
;
_chemical_formula_sum "Si O2"
_cell_formula_units_Z 28
_cell_length_a 10.263452
_cell_length_b 21.551943
_cell_length_c 4.895505
_cell_angle_alpha 90.000000
_cell_angle_beta 90.000000
_cell_angle_gamma 90.000000
_cell_volume 1082.872647
_symmetry_space_group_name_H-M "P 21 21 21"
_symmetry_group_IT_number 19
_symmetry_cell_setting 'orthorhombic'
loop_
_space_group_symop_operation_xyz
x,y,z
1/2-x,-y,1/2+z
1/2+x,1/2-y,-z
-x,1/2+y,1/2-z
loop_
_atom_site_type_symbol
_atom_site_label
_atom_site_fract_x
_atom_site_fract_y
_atom_site_fract_z
Si Si1 0.250000 0.176876 0.499997
Si Si2 0.970850 0.606684 0.133735
Si Si3 0.836809 1.000000 0.249999
Si Si4 0.750000 0.454607 0.000002
Si Si5 0.470850 0.106684 0.633732
Si Si6 0.622854 0.780473 0.621445
Si Si7 0.122851 0.280472 0.121442
O O1 0.368469 0.132453 0.411122
O O2 0.310191 0.223127 0.720863
O O3 0.189808 0.223127 0.279130
O O4 0.131531 0.132453 0.588874
O O5 0.070552 0.550714 0.105056
O O6 0.056871 0.666841 0.198852
O O7 0.869757 0.583589 0.368048
O O8 0.929446 0.949286 0.105053
O O9 0.750000 0.974005 0.500000
O O10 0.706286 0.500000 0.250002
O O11 0.869757 0.416411 0.131955
O O12 0.556870 0.166842 0.698851
O O13 0.500002 0.750000 0.458619
O O14 0.750002 0.812124 0.500003
#
# Coordination Sequence:
#
# PCOD9315373 Si02
#       7
#     4   4   4   4   4   4   4
#     4  10  25  48  76 112 148 219 272 344 414 494
#     4  11  26  49  79 114 162 209 278 352 410 514
#     4  12  30  50  76 120 162 220 266 342 432 490
#     4  12  27  52  82 122 160 219 282 346 418 504
#     4  11  26  49  79 114 162 209 278 352 410 514
#     4  10  24  47  72 112 152 209 266 343 418 494
#     4  10  24  47  72 112 152 209 266 343 418 494
#
# _framework density 25.857147000000001
#
# number of rings (size 3 to 8) (size 9 to 14) (size 15 to 20)
#    0.000    1.143    1.429    1.714   12.000    3.429 
#    5.143    0.000    0.000    0.000    0.000    0.000 
#    0.000    0.000    0.000    0.000    0.000    0.000 
#
# Total GULP energy -156325.364709 kJ/mol
# GULP energy per Si atom -5583.048740 kJ/mol
# Density = 2.579830 g / cm^3
# Si number density = 25.857147 Si / 1000 Ang^3
#
#
#
# Elastic Constant Matrix: (Units=GPa)
#
#
# Indices 1 2 3 4 5 6 
#
# 1 204.4784 52.4752 32.8066 0.0000 0.0000 0.0000
# 2 52.4752 144.1404 17.7597 0.0000 0.0000 0.0000
# 3 32.8066 17.7597 73.5237 0.0000 0.0000 0.0000
# 4 0.0000 0.0000 0.0000 99.4748 0.0000 0.0000
# 5 0.0000 0.0000 0.0000 0.0000 45.6658 0.0000
# 6 0.0000 0.0000 0.0000 0.0000 0.0000 -114.7659
#
#
#
# Elastic Compliance Matrix: (Units=1/GPa)
#
#
# Indices 1 2 3 4 5 6 
#
# 1 0.005693 -0.001814 -0.002102 0.000000 0.000000 0.000000
# 2 -0.001814 0.007728 -0.001058 0.000000 0.000000 0.000000
# 3 -0.002102 -0.001058 0.014795 0.000000 0.000000 0.000000
# 4 0.000000 0.000000 0.000000 0.010053 0.000000 0.000000
# 5 0.000000 0.000000 0.000000 0.000000 0.021898 0.000000
# 6 0.000000 0.000000 0.000000 0.000000 0.000000 -0.008713
#
#
# Mechanical properties :
#
#
# Convention : Reuss Voigt Hill
#
# Bulk Modulus (GPa) = 54.73692 69.80283 62.26988
# Shear Modulus (GPa) = 74.08487 27.34832 50.71660
#
# Velocity S-wave (km/s) = 5.35853 3.25571 4.43359
# Velocity P-wave (km/s) = 7.71362 6.41771 7.09532
#
# Compressibility (1/GPa) = 0.01826920
#
# Stress axis : x y z
#
# Youngs Moduli (GPa) = 175.64786 129.39563 67.59249
#
# Poissons Ratio (x) = 0.23468 0.14210
# Poissons Ratio (y) = 0.31856 0.07148
# Poissons Ratio (z) = 0.36926 0.13684
#
# Static dielectric constant tensor:
#      x y z
#    x 2.052560 0.000000 0.000000 
#    y 0.000000 2.053600 0.000000 
#    z 0.000000 0.000000 2.133460 
# 
# From -- ./inp_files/522.got.cif
#   From: 2010.05.17/outbox.cif.g08.bks.cpg/sg19_1_cif.got.tgz:522.got - 2010.06.03 22:46:19.
