data_PCOD9315515
_publ_section_title
;
Structure prediction by ZEFSAII (Michael W. Deem and Ramdas Pophale) SiO2 
 PCOD9315515
Probable space group: P 21 21 21
;
_chemical_formula_sum "Si O2"
_cell_formula_units_Z 32
_cell_length_a 7.914659
_cell_length_b 26.659334
_cell_length_c 6.227290
_cell_angle_alpha 90.000000
_cell_angle_beta 90.000000
_cell_angle_gamma 90.000000
_cell_volume 1313.955312
_symmetry_space_group_name_H-M "P 21 21 21"
_symmetry_group_IT_number 19
_symmetry_cell_setting 'orthorhombic'
loop_
_space_group_symop_operation_xyz
x,y,z
1/2-x,-y,1/2+z
1/2+x,1/2-y,-z
-x,1/2+y,1/2-z
loop_
_atom_site_type_symbol
_atom_site_label
_atom_site_fract_x
_atom_site_fract_y
_atom_site_fract_z
Si Si1 0.821670 0.220713 0.542205
Si Si2 0.148658 0.555998 0.996201
Si Si3 0.174523 0.905789 0.953611
Si Si4 0.176909 0.646652 0.329760
Si Si5 0.037350 0.815185 0.140420
Si Si6 0.523332 0.366234 0.239203
Si Si7 0.008840 0.475115 0.291264
Si Si8 0.952269 0.378491 0.990832
O O1 0.644482 0.210198 0.656424
O O2 0.858770 0.278889 0.514139
O O3 0.958311 0.186208 0.661132
O O4 0.819183 0.198378 0.301297
O O5 0.173651 0.601961 0.158051
O O6 0.019039 0.521476 0.129231
O O7 0.315821 0.526048 0.925996
O O8 0.090922 0.584112 0.781360
O O9 0.170025 0.895815 0.701048
O O10 0.018771 0.868486 0.020508
O O11 0.322721 0.883653 0.103278
O O12 0.131054 0.962249 0.027049
O O13 0.358358 0.639535 0.439645
O O14 0.016223 0.642569 0.487760
O O15 0.116235 0.831448 0.368456
O O16 0.980366 0.428091 0.132638
#
# Coordination Sequence:
#
# PCOD9315515 Si02
#       8
#     4   4   4   4   4   4   4   4
#     4  11  23  41  65  99 134 176 234 288 347 420
#     4  11  23  39  66 100 129 176 235 285 344 421
#     4  11  24  44  65  96 138 176 228 296 351 419
#     4  11  20  43  69  90 132 183 227 280 347 419
#     4  11  23  41  65  99 134 176 234 288 347 420
#     4  11  24  44  65  96 138 176 228 296 351 419
#     4  11  23  39  66 100 129 176 235 285 344 421
#     4  11  20  43  69  90 132 183 227 280 347 419
#
# _framework density 24.353950000000001
#
# number of rings (size 3 to 8) (size 9 to 14) (size 15 to 20)
#    0.000    1.000    5.000    3.000    0.000    5.000 
#    9.000    0.000    0.000    0.000    0.000    0.000 
#    0.000    0.000    0.000    0.000    0.000    0.000 
#
# Total GULP energy -178398.502595 kJ/mol
# GULP energy per Si atom -5574.953206 kJ/mol
# Density = 2.429852 g / cm^3
# Si number density = 24.353950 Si / 1000 Ang^3
#
#
#
# Elastic Constant Matrix: (Units=GPa)
#
#
# Indices 1 2 3 4 5 6 
#
# 1 55.5284 -28.1211 18.3662 0.0000 0.0000 0.0000
# 2 -28.1211 46.3742 1.1731 0.0000 0.0000 0.0000
# 3 18.3662 1.1731 94.7014 0.0000 0.0000 0.0000
# 4 0.0000 0.0000 0.0000 17.6471 0.0000 0.0000
# 5 0.0000 0.0000 0.0000 0.0000 39.1636 0.0000
# 6 0.0000 0.0000 0.0000 0.0000 0.0000 15.5726
#
#
#
# Elastic Compliance Matrix: (Units=1/GPa)
#
#
# Indices 1 2 3 4 5 6 
#
# 1 0.028875 0.017657 -0.005819 0.000000 0.000000 0.000000
# 2 0.017657 0.032368 -0.003825 0.000000 0.000000 0.000000
# 3 -0.005819 -0.003825 0.011735 0.000000 0.000000 0.000000
# 4 0.000000 0.000000 0.000000 0.056667 0.000000 0.000000
# 5 0.000000 0.000000 0.000000 0.000000 0.025534 0.000000
# 6 0.000000 0.000000 0.000000 0.000000 0.000000 0.064215
#
#
# Mechanical properties :
#
#
# Convention : Reuss Voigt Hill
#
# Bulk Modulus (GPa) = 11.23537 19.93782 15.58659
# Shear Modulus (GPa) = 21.45586 28.15571 24.80578
#
# Velocity S-wave (km/s) = 2.97139 3.40384 3.19494
# Velocity P-wave (km/s) = 4.04914 4.86340 4.47483
#
# Compressibility (1/GPa) = 0.08900464
#
# Stress axis : x y z
#
# Youngs Moduli (GPa) = 34.63146 30.89499 85.21246
#
# Poissons Ratio (x) = -0.54552 0.49583
# Poissons Ratio (y) = -0.61149 0.32597
# Poissons Ratio (z) = 0.20151 0.11818
#
# Static dielectric constant tensor:
#      x y z
#    x 2.111370 0.000000 0.000000 
#    y 0.000000 1.908230 0.000000 
#    z 0.000000 0.000000 2.047400 
# 
# From -- ./inp_files/680.got.cif
#   From: 2010.05.17/outbox.cif.g08.bks.cpg/sg19_1_cif.got.tgz:680.got - 2010.06.03 22:46:19.
