data_PCOD9315464
_publ_section_title
;
Structure prediction by ZEFSAII (Michael W. Deem and Ramdas Pophale) SiO2 
 PCOD9315464
Probable space group: P 21 21 21
;
_chemical_formula_sum "Si O2"
_cell_formula_units_Z 28
_cell_length_a 17.370937
_cell_length_b 5.515312
_cell_length_c 11.223475
_cell_angle_alpha 90.000000
_cell_angle_beta 90.000000
_cell_angle_gamma 90.000000
_cell_volume 1075.277787
_symmetry_space_group_name_H-M "P 21 21 21"
_symmetry_group_IT_number 19
_symmetry_cell_setting 'orthorhombic'
loop_
_space_group_symop_operation_xyz
x,y,z
1/2-x,-y,1/2+z
1/2+x,1/2-y,-z
-x,1/2+y,1/2-z
loop_
_atom_site_type_symbol
_atom_site_label
_atom_site_fract_x
_atom_site_fract_y
_atom_site_fract_z
Si Si1 0.736522 0.284490 0.737934
Si Si2 0.942025 0.360751 0.379062
Si Si3 0.962783 0.649450 0.721331
Si Si4 0.090978 0.086828 0.353110
Si Si5 0.714883 0.574168 0.985087
Si Si6 0.451731 0.287870 0.004024
Si Si7 0.332581 0.610936 0.150854
O O1 0.650974 0.211743 0.689109
O O2 0.728234 0.380670 0.875587
O O3 0.761779 0.455510 0.624673
O O4 0.795938 0.066616 0.751263
O O5 0.899973 0.399138 0.254564
O O6 0.875483 0.359472 0.476444
O O7 0.001499 0.144202 0.370619
O O8 0.002371 0.580839 0.398754
O O9 0.880530 0.682160 0.780889
O O10 0.984650 0.363132 0.714891
O O11 0.976948 0.762783 0.591511
O O12 0.102695 0.937552 0.473209
O O13 0.765715 0.794431 0.934067
O O14 0.395406 0.472349 0.070910
#
# Coordination Sequence:
#
# PCOD9315464 Si02
#       7
#     4   4   4   4   4   4   4
#     4  11  27  47  74 111 154 204 258 333 411 484
#     4  11  25  42  72 107 144 206 262 320 389 482
#     4  10  26  45  77 114 151 201 263 328 402 482
#     4  11  24  44  71 100 153 197 264 313 400 483
#     4  11  28  46  77 111 158 201 267 331 408 486
#     4  11  25  44  76 105 151 206 260 332 401 484
#     4  11  27  46  75 110 155 199 264 335 413 475
#
# _framework density 26.039784000000001
#
# number of rings (size 3 to 8) (size 9 to 14) (size 15 to 20)
#    0.000    1.143    1.429    1.714   16.000    4.571 
#    0.000    0.000    0.000    0.000    0.000    0.000 
#    0.000    0.000    0.000    0.000    0.000    0.000 
#
# Total GULP energy -156074.176050 kJ/mol
# GULP energy per Si atom -5574.077716 kJ/mol
# Density = 2.598052 g / cm^3
# Si number density = 26.039784 Si / 1000 Ang^3
#
#
#
# Elastic Constant Matrix: (Units=GPa)
#
#
# Indices 1 2 3 4 5 6 
#
# 1 121.8319 23.5206 35.8830 0.0000 0.0000 0.0000
# 2 23.5206 36.0071 12.5477 0.0000 0.0000 0.0000
# 3 35.8830 12.5477 108.7355 0.0000 0.0000 0.0000
# 4 0.0000 0.0000 0.0000 37.7022 0.0000 0.0000
# 5 0.0000 0.0000 0.0000 0.0000 42.0109 0.0000
# 6 0.0000 0.0000 0.0000 0.0000 0.0000 35.1500
#
#
#
# Elastic Compliance Matrix: (Units=1/GPa)
#
#
# Indices 1 2 3 4 5 6 
#
# 1 0.010089 -0.005657 -0.002676 0.000000 0.000000 0.000000
# 2 -0.005657 0.032108 -0.001838 0.000000 0.000000 0.000000
# 3 -0.002676 -0.001838 0.010292 0.000000 0.000000 0.000000
# 4 0.000000 0.000000 0.000000 0.026524 0.000000 0.000000
# 5 0.000000 0.000000 0.000000 0.000000 0.023803 0.000000
# 6 0.000000 0.000000 0.000000 0.000000 0.000000 0.028450
#
#
# Mechanical properties :
#
#
# Convention : Reuss Voigt Hill
#
# Bulk Modulus (GPa) = 31.10916 45.60857 38.35887
# Shear Modulus (GPa) = 30.80251 35.94749 33.37500
#
# Velocity S-wave (km/s) = 3.44307 3.71952 3.58396
# Velocity P-wave (km/s) = 5.27058 5.99995 5.64705
#
# Compressibility (1/GPa) = 0.03214487
#
# Stress axis : x y z
#
# Youngs Moduli (GPa) = 99.12268 31.14446 97.16312
#
# Poissons Ratio (x) = 0.17620 0.26005
# Poissons Ratio (y) = 0.56077 0.17861
# Poissons Ratio (z) = 0.26529 0.05725
#
# Static dielectric constant tensor:
#      x y z
#    x 2.073180 0.000000 0.000000 
#    y 0.000000 2.207940 0.000000 
#    z 0.000000 0.000000 2.090400 
# 
# From -- ./inp_files/5366.got.cif
#   From: 2010.05.17/outbox.cif.g08.bks.cpg/sg19_3_cif.got.tgz:5366.got - 2010.06.03 22:46:19.
