data_PCOD9315227
_publ_section_title
;
Structure prediction by ZEFSAII (Michael W. Deem and Ramdas Pophale) SiO2 
 PCOD9315227
Probable space group: P 21 21 21
;
_chemical_formula_sum "Si O2"
_cell_formula_units_Z 28
_cell_length_a 8.644321
_cell_length_b 14.033031
_cell_length_c 10.936934
_cell_angle_alpha 90.000000
_cell_angle_beta 90.000000
_cell_angle_gamma 90.000000
_cell_volume 1326.715984
_symmetry_space_group_name_H-M "P 21 21 21"
_symmetry_group_IT_number 19
_symmetry_cell_setting 'orthorhombic'
loop_
_space_group_symop_operation_xyz
x,y,z
1/2-x,-y,1/2+z
1/2+x,1/2-y,-z
-x,1/2+y,1/2-z
loop_
_atom_site_type_symbol
_atom_site_label
_atom_site_fract_x
_atom_site_fract_y
_atom_site_fract_z
Si Si1 0.475875 0.065728 0.240651
Si Si2 0.638488 0.387336 0.373799
Si Si3 0.945108 0.157715 0.022919
Si Si4 0.046508 0.946757 0.019178
Si Si5 0.250648 0.226189 0.148655
Si Si6 0.442785 0.756537 0.897932
Si Si7 0.750580 0.207919 0.254241
O O1 0.406971 0.050552 0.376311
O O2 0.366173 0.137831 0.167084
O O3 0.638416 0.117941 0.261021
O O4 0.481560 0.966879 0.168246
O O5 0.802853 0.439692 0.394822
O O6 0.606095 0.330982 0.498697
O O7 0.656077 0.305091 0.272938
O O8 0.839644 0.203120 0.127862
O O9 0.115493 0.199765 0.051624
O O10 0.857007 0.187949 0.899992
O O11 0.956143 0.044462 0.040707
O O12 0.953873 0.849498 0.046187
O O13 0.167692 0.243638 0.279331
O O14 0.614653 0.786796 0.855459
#
# Coordination Sequence:
#
# PCOD9315227 Si02
#       7
#     4   4   4   4   4   4   4
#     4  12  24  40  73 103 137 187 234 287 363 424
#     4  11  23  45  74  99 143 192 233 295 360 435
#     4  11  25  46  67 104 143 181 241 300 359 422
#     4  11  24  43  70 104 138 181 241 286 358 435
#     4  11  24  45  72  98 144 189 230 302 359 418
#     4  10  23  48  73  98 146 188 238 298 357 429
#     4  10  25  45  67 108 141 182 243 294 352 429
#
# _framework density 21.104742999999999
#
# number of rings (size 3 to 8) (size 9 to 14) (size 15 to 20)
#    0.000    1.143    4.286    0.857    4.000    2.286 
#    0.000    2.857    0.000    0.000    0.000    0.000 
#    0.000    0.000    0.000    0.000    0.000    0.000 
#
# Total GULP energy -156502.271929 kJ/mol
# GULP energy per Si atom -5589.366855 kJ/mol
# Density = 2.105671 g / cm^3
# Si number density = 21.104743 Si / 1000 Ang^3
#
#
#
# Elastic Constant Matrix: (Units=GPa)
#
#
# Indices 1 2 3 4 5 6 
#
# 1 82.4228 56.9258 53.6610 0.0000 0.0000 0.0000
# 2 56.9258 150.9304 66.9798 0.0000 0.0000 0.0000
# 3 53.6610 66.9798 78.8243 0.0000 0.0000 0.0000
# 4 0.0000 0.0000 0.0000 28.4341 0.0000 0.0000
# 5 0.0000 0.0000 0.0000 0.0000 16.7715 0.0000
# 6 0.0000 0.0000 0.0000 0.0000 0.0000 34.8578
#
#
#
# Elastic Compliance Matrix: (Units=1/GPa)
#
#
# Indices 1 2 3 4 5 6 
#
# 1 0.022458 -0.002706 -0.012989 0.000000 0.000000 0.000000
# 2 -0.002706 0.010963 -0.007473 0.000000 0.000000 0.000000
# 3 -0.012989 -0.007473 0.027879 0.000000 0.000000 0.000000
# 4 0.000000 0.000000 0.000000 0.035169 0.000000 0.000000
# 5 0.000000 0.000000 0.000000 0.000000 0.059625 0.000000
# 6 0.000000 0.000000 0.000000 0.000000 0.000000 0.028688
#
#
# Mechanical properties :
#
#
# Convention : Reuss Voigt Hill
#
# Bulk Modulus (GPa) = 66.83122 74.14562 70.48842
# Shear Modulus (GPa) = 21.17684 24.98674 23.08179
#
# Velocity S-wave (km/s) = 3.17111 3.44457 3.31067
# Velocity P-wave (km/s) = 6.71886 7.14343 6.93440
#
# Compressibility (1/GPa) = 0.01496307
#
# Stress axis : x y z
#
# Youngs Moduli (GPa) = 44.52725 91.21907 35.86888
#
# Poissons Ratio (x) = 0.24684 0.46591
# Poissons Ratio (y) = 0.12049 0.26805
# Poissons Ratio (z) = 0.57838 0.68169
#
# Static dielectric constant tensor:
#      x y z
#    x 1.770440 0.000000 0.000000 
#    y 0.000000 1.742400 0.000000 
#    z 0.000000 0.000000 1.764110 
# 
# From -- ./inp_files/4654.got.cif
#   From: 2010.05.17/outbox.cif.g08.bks.cpg/sg19_3_cif.got.tgz:4654.got - 2010.06.03 22:46:19.
