data_PCOD9315390
_publ_section_title
;
Structure prediction by ZEFSAII (Michael W. Deem and Ramdas Pophale) SiO2 
 PCOD9315390
Probable space group: P 21 21 21
;
_chemical_formula_sum "Si O2"
_cell_formula_units_Z 12
_cell_length_a 17.278024
_cell_length_b 4.946528
_cell_length_c 5.126550
_cell_angle_alpha 90.000000
_cell_angle_beta 90.000000
_cell_angle_gamma 90.000000
_cell_volume 438.146899
_symmetry_space_group_name_H-M "P 21 21 21"
_symmetry_group_IT_number 19
_symmetry_cell_setting 'orthorhombic'
loop_
_space_group_symop_operation_xyz
x,y,z
1/2-x,-y,1/2+z
1/2+x,1/2-y,-z
-x,1/2+y,1/2-z
loop_
_atom_site_type_symbol
_atom_site_label
_atom_site_fract_x
_atom_site_fract_y
_atom_site_fract_z
Si Si1 0.950522 0.874237 0.672093
Si Si2 0.150884 0.105029 0.189019
Si Si3 0.819493 0.233692 0.816160
O O1 0.925045 0.774476 0.385658
O O2 0.995953 0.635714 0.813224
O O3 0.870211 0.963914 0.808857
O O4 0.227024 0.295977 0.183233
O O5 0.155107 0.915580 0.439634
O O6 0.160784 0.901317 0.944065
#
# Coordination Sequence:
#
# PCOD9315390 Si02
#       3
#     4   4   4
#     4  12  26  54  78 122 162 208 258 336 398 468
#     4  10  24  50  83 114 155 210 268 323 388 474
#     4  10  24  50  83 114 155 210 268 323 388 474
#
# _framework density 27.388074
#
# number of rings (size 3 to 8) (size 9 to 14) (size 15 to 20)
#    0.000    1.333    3.333    0.000    0.000   10.667 
#   12.000    0.000    0.000    0.000    0.000    0.000 
#    0.000    0.000    0.000    0.000    0.000    0.000 
#
# Total GULP energy -67440.954114 kJ/mol
# GULP energy per Si atom -5620.079510 kJ/mol
# Density = 2.732574 g / cm^3
# Si number density = 27.388074 Si / 1000 Ang^3
#
#
#
# Elastic Constant Matrix: (Units=GPa)
#
#
# Indices 1 2 3 4 5 6 
#
# 1 94.8337 46.4432 24.8467 0.0000 0.0000 0.0000
# 2 46.4432 155.6551 43.9128 0.0000 0.0000 0.0000
# 3 24.8467 43.9128 174.5541 0.0000 0.0000 0.0000
# 4 0.0000 0.0000 0.0000 36.1213 0.0000 0.0000
# 5 0.0000 0.0000 0.0000 0.0000 39.6610 0.0000
# 6 0.0000 0.0000 0.0000 0.0000 0.0000 77.0433
#
#
#
# Elastic Compliance Matrix: (Units=1/GPa)
#
#
# Indices 1 2 3 4 5 6 
#
# 1 0.012480 -0.003469 -0.000904 0.000000 0.000000 0.000000
# 2 -0.003469 0.007879 -0.001488 0.000000 0.000000 0.000000
# 3 -0.000904 -0.001488 0.006232 0.000000 0.000000 0.000000
# 4 0.000000 0.000000 0.000000 0.027684 0.000000 0.000000
# 5 0.000000 0.000000 0.000000 0.000000 0.025214 0.000000
# 6 0.000000 0.000000 0.000000 0.000000 0.000000 0.012980
#
#
# Mechanical properties :
#
#
# Convention : Reuss Voigt Hill
#
# Bulk Modulus (GPa) = 67.25174 72.82758 70.03966
# Shear Modulus (GPa) = 45.80919 51.22113 48.51516
#
# Velocity S-wave (km/s) = 4.09418 4.32927 4.21336
# Velocity P-wave (km/s) = 6.85260 7.18602 7.02129
#
# Compressibility (1/GPa) = 0.01486950
#
# Stress axis : x y z
#
# Youngs Moduli (GPa) = 80.12573 126.91353 160.46225
#
# Poissons Ratio (x) = 0.44024 0.14503
# Poissons Ratio (y) = 0.27794 0.23884
# Poissons Ratio (z) = 0.07242 0.18891
#
# Static dielectric constant tensor:
#      x y z
#    x 2.159110 0.000000 0.000000 
#    y 0.000000 2.099410 0.000000 
#    z 0.000000 0.000000 2.149850 
# 
# From -- ./inp_files/91.got.cif
#   From: 2010.05.17/outbox.cif.g08.bks.cpg/sg19_1_cif.got.tgz:91.got - 2010.06.03 22:46:19.
