data_PCOD9315963
_publ_section_title
;
Structure prediction by ZEFSAII (Michael W. Deem and Ramdas Pophale) SiO2 
 PCOD9315963
Probable space group: P 21 21 21
;
_chemical_formula_sum "Si O2"
_cell_formula_units_Z 20
_cell_length_a 7.621570
_cell_length_b 11.942947
_cell_length_c 8.341580
_cell_angle_alpha 90.000000
_cell_angle_beta 90.000000
_cell_angle_gamma 90.000000
_cell_volume 759.284033
_symmetry_space_group_name_H-M "P 21 21 21"
_symmetry_group_IT_number 19
_symmetry_cell_setting 'orthorhombic'
loop_
_space_group_symop_operation_xyz
x,y,z
1/2-x,-y,1/2+z
1/2+x,1/2-y,-z
-x,1/2+y,1/2-z
loop_
_atom_site_type_symbol
_atom_site_label
_atom_site_fract_x
_atom_site_fract_y
_atom_site_fract_z
Si Si1 0.312775 0.348390 0.418739
Si Si2 0.668056 0.946989 0.744130
Si Si3 0.366097 0.875566 0.296565
Si Si4 0.149947 0.738898 0.479281
Si Si5 0.762699 0.617384 0.216453
O O1 0.213062 0.424736 0.287507
O O2 0.261332 0.398160 0.589706
O O3 0.515764 0.362406 0.362437
O O4 0.265083 0.219233 0.404828
O O5 0.738850 0.874464 0.592793
O O6 0.462048 0.921297 0.759302
O O7 0.175724 0.816275 0.319301
O O8 0.478774 0.813441 0.434973
O O9 0.345220 0.006944 0.325606
O O10 0.200738 0.825506 0.618813
#
# Coordination Sequence:
#
# PCOD9315963 Si02
#       5
#     4   4   4   4   4
#     4  11  29  48  76 121 159 214 273 337 404 492
#     4  12  28  48  79 112 169 213 275 335 410 483
#     4  11  27  48  82 111 160 210 268 333 408 484
#     4  11  26  51  79 114 162 212 268 334 410 476
#     4  11  28  49  80 112 160 211 278 333 410 481
#
# _framework density 26.340603000000002
#
# number of rings (size 3 to 8) (size 9 to 14) (size 15 to 20)
#    0.000    0.800    2.000    2.400   14.000    1.600 
#    0.000    0.000    0.000    0.000    0.000    0.000 
#    0.000    0.000    0.000    0.000    0.000    0.000 
#
# Total GULP energy -111716.605594 kJ/mol
# GULP energy per Si atom -5585.830280 kJ/mol
# Density = 2.628065 g / cm^3
# Si number density = 26.340603 Si / 1000 Ang^3
#
#
#
# Elastic Constant Matrix: (Units=GPa)
#
#
# Indices 1 2 3 4 5 6 
#
# 1 87.2984 84.8589 43.7125 0.0000 0.0000 0.0000
# 2 84.8589 225.7847 42.3963 0.0000 0.0000 0.0000
# 3 43.7125 42.3963 100.1380 0.0000 0.0000 0.0000
# 4 0.0000 0.0000 0.0000 43.1234 0.0000 0.0000
# 5 0.0000 0.0000 0.0000 0.0000 31.9071 0.0000
# 6 0.0000 0.0000 0.0000 0.0000 0.0000 50.9793
#
#
#
# Elastic Compliance Matrix: (Units=1/GPa)
#
#
# Indices 1 2 3 4 5 6 
#
# 1 0.021261 -0.006788 -0.006407 0.000000 0.000000 0.000000
# 2 -0.006788 0.006979 0.000008 0.000000 0.000000 0.000000
# 3 -0.006407 0.000008 0.012780 0.000000 0.000000 0.000000
# 4 0.000000 0.000000 0.000000 0.023189 0.000000 0.000000
# 5 0.000000 0.000000 0.000000 0.000000 0.031341 0.000000
# 6 0.000000 0.000000 0.000000 0.000000 0.000000 0.019616
#
#
# Mechanical properties :
#
#
# Convention : Reuss Voigt Hill
#
# Bulk Modulus (GPa) = 68.27674 83.90629 76.09151
# Shear Modulus (GPa) = 34.14821 41.35219 37.75020
#
# Velocity S-wave (km/s) = 3.60448 3.96650 3.78981
# Velocity P-wave (km/s) = 6.58027 7.27331 6.93545
#
# Compressibility (1/GPa) = 0.01464628
#
# Stress axis : x y z
#
# Youngs Moduli (GPa) = 47.03383 143.29692 78.25005
#
# Poissons Ratio (x) = 0.97266 0.50137
# Poissons Ratio (y) = 0.31925 -0.00066
# Poissons Ratio (z) = 0.30136 -0.00121
#
# Static dielectric constant tensor:
#      x y z
#    x 2.250760 0.000000 0.000000 
#    y 0.000000 2.018560 0.000000 
#    z 0.000000 0.000000 2.095530 
# 
# From -- ./inp_files/2638.got.cif
#   From: 2010.05.17/outbox.cif.g08.bks.cpg/sg19_2_cif.got.tgz:2638.got - 2010.06.03 22:46:19.
