data_PCOD9315267
_publ_section_title
;
Structure prediction by ZEFSAII (Michael W. Deem and Ramdas Pophale) SiO2 
 PCOD9315267
Probable space group: P 21 21 21
;
_chemical_formula_sum "Si O2"
_cell_formula_units_Z 28
_cell_length_a 10.552516
_cell_length_b 11.053599
_cell_length_c 10.558560
_cell_angle_alpha 90.000000
_cell_angle_beta 90.000000
_cell_angle_gamma 90.000000
_cell_volume 1231.585074
_symmetry_space_group_name_H-M "P 21 21 21"
_symmetry_group_IT_number 19
_symmetry_cell_setting 'orthorhombic'
loop_
_space_group_symop_operation_xyz
x,y,z
1/2-x,-y,1/2+z
1/2+x,1/2-y,-z
-x,1/2+y,1/2-z
loop_
_atom_site_type_symbol
_atom_site_label
_atom_site_fract_x
_atom_site_fract_y
_atom_site_fract_z
Si Si1 0.681274 0.216548 0.524043
Si Si2 0.473941 0.911575 0.711806
Si Si3 0.673171 0.962458 0.196425
Si Si4 0.192532 0.713221 0.226964
Si Si5 0.017234 0.497387 0.568786
Si Si6 0.031920 0.029779 0.474254
Si Si7 0.746056 0.539146 0.662900
O O1 0.735432 0.143881 0.644716
O O2 0.796631 0.223556 0.424352
O O3 0.608469 0.342630 0.534184
O O4 0.582676 0.130060 0.453591
O O5 0.544546 0.783807 0.732492
O O6 0.505669 0.945765 0.569703
O O7 0.535573 0.980325 0.835932
O O8 0.330062 0.951951 0.739600
O O9 0.605129 0.933832 0.329568
O O10 0.744262 0.091767 0.214803
O O11 0.562532 0.979943 0.090163
O O12 0.264978 0.830408 0.276617
O O13 0.877909 0.483635 0.624292
O O14 0.151839 0.941276 0.457415
#
# Coordination Sequence:
#
# PCOD9315267 Si02
#       7
#     4   4   4   4   4   4   4
#     4  11  23  44  78 100 141 192 245 287 366 447
#     4  10  24  42  69 101 141 190 232 300 355 425
#     4  11  24  45  73 107 137 190 246 296 367 436
#     4  11  23  46  71 103 148 187 235 316 351 434
#     4  11  25  44  69 107 145 185 241 305 361 430
#     4  10  25  42  76 102 141 193 247 295 358 444
#     4  10  26  43  68 104 147 183 244 293 366 426
#
# _framework density 22.734929999999999
#
# number of rings (size 3 to 8) (size 9 to 14) (size 15 to 20)
#    0.857    0.571    2.857    0.857    8.000    1.143 
#    2.571    0.000    0.000    0.000    0.000    0.000 
#    0.000    0.000    0.000    0.000    0.000    0.000 
#
# Total GULP energy -155969.094261 kJ/mol
# GULP energy per Si atom -5570.324795 kJ/mol
# Density = 2.268318 g / cm^3
# Si number density = 22.734930 Si / 1000 Ang^3
#
#
#
# Elastic Constant Matrix: (Units=GPa)
#
#
# Indices 1 2 3 4 5 6 
#
# 1 107.0541 33.3172 51.0243 0.0000 0.0000 0.0000
# 2 33.3172 53.9903 48.1011 0.0000 0.0000 0.0000
# 3 51.0243 48.1011 145.3137 0.0000 0.0000 0.0000
# 4 0.0000 0.0000 0.0000 11.7545 0.0000 0.0000
# 5 0.0000 0.0000 0.0000 0.0000 42.6178 0.0000
# 6 0.0000 0.0000 0.0000 0.0000 0.0000 22.8534
#
#
#
# Elastic Compliance Matrix: (Units=1/GPa)
#
#
# Indices 1 2 3 4 5 6 
#
# 1 0.012188 -0.005259 -0.002539 0.000000 0.000000 0.000000
# 2 -0.005259 0.028538 -0.007600 0.000000 0.000000 0.000000
# 3 -0.002539 -0.007600 0.010289 0.000000 0.000000 0.000000
# 4 0.000000 0.000000 0.000000 0.085073 0.000000 0.000000
# 5 0.000000 0.000000 0.000000 0.000000 0.023464 0.000000
# 6 0.000000 0.000000 0.000000 0.000000 0.000000 0.043757
#
#
# Mechanical properties :
#
#
# Convention : Reuss Voigt Hill
#
# Bulk Modulus (GPa) = 49.45810 63.47145 56.46477
# Shear Modulus (GPa) = 20.76022 27.03952 23.89987
#
# Velocity S-wave (km/s) = 3.02510 3.45242 3.24580
# Velocity P-wave (km/s) = 5.83122 6.62351 6.23995
#
# Compressibility (1/GPa) = 0.02021914
#
# Stress axis : x y z
#
# Youngs Moduli (GPa) = 82.04900 35.04071 97.19376
#
# Poissons Ratio (x) = 0.18429 0.24674
# Poissons Ratio (y) = 0.43152 0.73866
# Poissons Ratio (z) = 0.20829 0.26630
#
# Static dielectric constant tensor:
#      x y z
#    x 1.967380 0.000000 0.000000 
#    y 0.000000 1.891800 0.000000 
#    z 0.000000 0.000000 1.909900 
# 
# From -- ./inp_files/4956.got.cif
#   From: 2010.05.17/outbox.cif.g08.bks.cpg/sg19_3_cif.got.tgz:4956.got - 2010.06.03 22:46:19.
