data_PCOD9315160
_publ_section_title
;
Structure prediction by ZEFSAII (Michael W. Deem and Ramdas Pophale) SiO2 
 PCOD9315160
Probable space group: P 21 21 21
;
_chemical_formula_sum "Si O2"
_cell_formula_units_Z 28
_cell_length_a 11.268392
_cell_length_b 10.222468
_cell_length_c 12.005482
_cell_angle_alpha 90.000000
_cell_angle_beta 90.000000
_cell_angle_gamma 90.000000
_cell_volume 1382.920795
_symmetry_space_group_name_H-M "P 21 21 21"
_symmetry_group_IT_number 19
_symmetry_cell_setting 'orthorhombic'
loop_
_space_group_symop_operation_xyz
x,y,z
1/2-x,-y,1/2+z
1/2+x,1/2-y,-z
-x,1/2+y,1/2-z
loop_
_atom_site_type_symbol
_atom_site_label
_atom_site_fract_x
_atom_site_fract_y
_atom_site_fract_z
Si Si1 0.414357 0.344331 0.335694
Si Si2 0.053533 0.952967 0.810097
Si Si3 0.635015 0.179123 0.678540
Si Si4 0.771281 0.435705 0.319394
Si Si5 0.005941 0.043670 0.058279
Si Si6 0.912681 0.588306 0.017585
Si Si7 0.936877 0.319843 0.143443
O O1 0.468049 0.201906 0.306205
O O2 0.463331 0.462212 0.262086
O O3 0.275240 0.333631 0.317696
O O4 0.462712 0.376116 0.458930
O O5 0.181856 0.984191 0.758356
O O6 0.044912 0.008996 0.933999
O O7 0.604392 0.316965 0.621622
O O8 0.562587 0.162529 0.792900
O O9 0.584744 0.067155 0.597785
O O10 0.876571 0.525384 0.366643
O O11 0.690780 0.389271 0.424475
O O12 0.837181 0.328100 0.241696
O O13 0.946926 0.183930 0.078376
O O14 0.912313 0.439766 0.060276
#
# Coordination Sequence:
#
# PCOD9315160 Si02
#       7
#     4   4   4   4   4   4   4
#     4  11  25  43  67  97 136 178 225 277 344 401
#     4  11  24  44  67  98 133 177 226 274 338 408
#     4  11  23  44  67  97 135 175 224 278 330 404
#     4  10  23  44  70  93 134 182 222 269 342 409
#     4  11  23  42  68 101 134 168 229 285 327 398
#     4  11  24  45  69  94 138 185 220 276 347 405
#     4  11  24  42  68 102 132 175 230 277 338 401
#
# _framework density 20.247
#
# number of rings (size 3 to 8) (size 9 to 14) (size 15 to 20)
#    0.000    1.143    1.429    5.143    6.000    3.429 
#    5.143    0.000    0.000    0.000    0.000    0.000 
#    0.000    0.000    0.000    0.000    0.000    0.000 
#
# Total GULP energy -156503.974822 kJ/mol
# GULP energy per Si atom -5589.427672 kJ/mol
# Density = 2.020092 g / cm^3
# Si number density = 20.247000 Si / 1000 Ang^3
#
#
#
# Elastic Constant Matrix: (Units=GPa)
#
#
# Indices 1 2 3 4 5 6 
#
# 1 69.9660 19.3884 19.9428 0.0000 0.0000 0.0000
# 2 19.3884 72.8180 5.1601 0.0000 0.0000 0.0000
# 3 19.9428 5.1601 56.3818 0.0000 0.0000 0.0000
# 4 0.0000 0.0000 0.0000 28.6219 0.0000 0.0000
# 5 0.0000 0.0000 0.0000 0.0000 -40.9366 0.0000
# 6 0.0000 0.0000 0.0000 0.0000 0.0000 19.1713
#
#
#
# Elastic Compliance Matrix: (Units=1/GPa)
#
#
# Indices 1 2 3 4 5 6 
#
# 1 0.017051 -0.004139 -0.005652 0.000000 0.000000 0.000000
# 2 -0.004139 0.014827 0.000107 0.000000 0.000000 0.000000
# 3 -0.005652 0.000107 0.019726 0.000000 0.000000 0.000000
# 4 0.000000 0.000000 0.000000 0.034938 0.000000 0.000000
# 5 0.000000 0.000000 0.000000 0.000000 -0.024428 0.000000
# 6 0.000000 0.000000 0.000000 0.000000 0.000000 0.052161
#
#
# Mechanical properties :
#
#
# Convention : Reuss Voigt Hill
#
# Bulk Modulus (GPa) = 31.02221 32.01649 31.51935
# Shear Modulus (GPa) = 34.62857 11.68294 23.15576
#
# Velocity S-wave (km/s) = 4.14007 2.40473 3.38548
# Velocity P-wave (km/s) = 6.18132 4.85362 5.55726
#
# Compressibility (1/GPa) = 0.03223497
#
# Stress axis : x y z
#
# Youngs Moduli (GPa) = 58.64825 67.44264 50.69537
#
# Poissons Ratio (x) = 0.27917 0.28654
# Poissons Ratio (y) = 0.24277 -0.00543
# Poissons Ratio (z) = 0.33149 -0.00723
#
# Static dielectric constant tensor:
#      x y z
#    x 1.718940 0.000000 0.000000 
#    y 0.000000 1.723010 0.000000 
#    z 0.000000 0.000000 1.756950 
# 
# From -- ./inp_files/4934.got.cif
#   From: 2010.05.17/outbox.cif.g08.bks.cpg/sg19_3_cif.got.tgz:4934.got - 2010.06.03 22:46:19.
