data_PCOD9315769
_publ_section_title
;
Structure prediction by ZEFSAII (Michael W. Deem and Ramdas Pophale) SiO2 
 PCOD9315769
Probable space group: P 21 21 21
;
_chemical_formula_sum "Si O2"
_cell_formula_units_Z 24
_cell_length_a 11.347634
_cell_length_b 17.886163
_cell_length_c 4.941586
_cell_angle_alpha 90.000000
_cell_angle_beta 90.000000
_cell_angle_gamma 90.000000
_cell_volume 1002.972123
_symmetry_space_group_name_H-M "P 21 21 21"
_symmetry_group_IT_number 19
_symmetry_cell_setting 'orthorhombic'
loop_
_space_group_symop_operation_xyz
x,y,z
1/2-x,-y,1/2+z
1/2+x,1/2-y,-z
-x,1/2+y,1/2-z
loop_
_atom_site_type_symbol
_atom_site_label
_atom_site_fract_x
_atom_site_fract_y
_atom_site_fract_z
Si Si1 0.275453 0.812919 0.182249
Si Si2 0.685124 0.472827 0.088932
Si Si3 0.230203 0.603207 0.635776
Si Si4 0.860074 0.260793 0.800128
Si Si5 0.562532 0.031362 0.517078
Si Si6 0.594257 0.178433 0.238540
O O1 0.323769 0.894607 0.247967
O O2 0.233139 0.785865 0.475977
O O3 0.365423 0.748603 0.077206
O O4 0.169075 0.806740 0.971502
O O5 0.722571 0.527317 0.338334
O O6 0.564198 0.494802 0.936826
O O7 0.160688 0.673089 0.765581
O O8 0.142324 0.534507 0.605806
O O9 0.284215 0.641599 0.368779
O O10 0.349527 0.569791 0.766820
O O11 0.988694 0.280374 0.920581
O O12 0.534486 0.102913 0.337109
#
# Coordination Sequence:
#
# PCOD9315769 Si02
#       6
#     4   4   4   4   4   4
#     4  11  24  46  64 104 137 184 248 295 359 439
#     4  12  28  47  73 108 146 201 250 305 378 446
#     4  11  25  45  71 114 144 202 245 312 390 443
#     4  11  25  44  73 100 146 188 248 301 368 441
#     4  12  24  45  73 105 156 190 250 313 374 456
#     4  11  24  43  70 101 141 193 237 304 367 445
#
# _framework density 23.928882999999999
#
# number of rings (size 3 to 8) (size 9 to 14) (size 15 to 20)
#    0.000    0.667    3.333    4.000    7.000    0.000 
#    0.000    3.333    0.000    0.000    0.000    0.000 
#    0.000    0.000    0.000    0.000    0.000    0.000 
#
# Total GULP energy -133622.319039 kJ/mol
# GULP energy per Si atom -5567.596627 kJ/mol
# Density = 2.387442 g / cm^3
# Si number density = 23.928883 Si / 1000 Ang^3
#
#
#
# Elastic Constant Matrix: (Units=GPa)
#
#
# Indices 1 2 3 4 5 6 
#
# 1 98.3285 51.4401 7.5909 0.0000 0.0000 0.0000
# 2 51.4401 167.5135 17.9544 0.0000 0.0000 0.0000
# 3 7.5909 17.9544 61.1990 0.0000 0.0000 0.0000
# 4 0.0000 0.0000 0.0000 20.8213 0.0000 0.0000
# 5 0.0000 0.0000 0.0000 0.0000 20.7540 0.0000
# 6 0.0000 0.0000 0.0000 0.0000 0.0000 39.9695
#
#
#
# Elastic Compliance Matrix: (Units=1/GPa)
#
#
# Indices 1 2 3 4 5 6 
#
# 1 0.012127 -0.003678 -0.000425 0.000000 0.000000 0.000000
# 2 -0.003678 0.007279 -0.001679 0.000000 0.000000 0.000000
# 3 -0.000425 -0.001679 0.016886 0.000000 0.000000 0.000000
# 4 0.000000 0.000000 0.000000 0.048028 0.000000 0.000000
# 5 0.000000 0.000000 0.000000 0.000000 0.048184 0.000000
# 6 0.000000 0.000000 0.000000 0.000000 0.000000 0.025019
#
#
# Mechanical properties :
#
#
# Convention : Reuss Voigt Hill
#
# Bulk Modulus (GPa) = 40.44268 53.44576 46.94422
# Shear Modulus (GPa) = 28.19602 32.97933 30.58767
#
# Velocity S-wave (km/s) = 3.43640 3.71647 3.57917
# Velocity P-wave (km/s) = 5.71691 6.38748 6.06147
#
# Compressibility (1/GPa) = 0.02472635
#
# Stress axis : x y z
#
# Youngs Moduli (GPa) = 82.45943 137.37699 59.22231
#
# Poissons Ratio (x) = 0.50534 0.02517
# Poissons Ratio (y) = 0.30332 0.09945
# Poissons Ratio (z) = 0.03505 0.23070
#
# Static dielectric constant tensor:
#      x y z
#    x 1.980620 0.000000 0.000000 
#    y 0.000000 1.939650 0.000000 
#    z 0.000000 0.000000 2.171100 
# 
# From -- ./inp_files/998.got.cif
#   From: 2010.05.17/outbox.cif.g08.bks.cpg/sg19_1_cif.got.tgz:998.got - 2010.06.03 22:46:19.
