data_PCOD9315513
_publ_section_title
;
Structure prediction by ZEFSAII (Michael W. Deem and Ramdas Pophale) SiO2 
 PCOD9315513
Probable space group: P 21 21 21
;
_chemical_formula_sum "Si O2"
_cell_formula_units_Z 28
_cell_length_a 17.289906
_cell_length_b 12.386824
_cell_length_c 6.665508
_cell_angle_alpha 90.000000
_cell_angle_beta 90.000000
_cell_angle_gamma 90.000000
_cell_volume 1427.532002
_symmetry_space_group_name_H-M "P 21 21 21"
_symmetry_group_IT_number 19
_symmetry_cell_setting 'orthorhombic'
loop_
_space_group_symop_operation_xyz
x,y,z
1/2-x,-y,1/2+z
1/2+x,1/2-y,-z
-x,1/2+y,1/2-z
loop_
_atom_site_type_symbol
_atom_site_label
_atom_site_fract_x
_atom_site_fract_y
_atom_site_fract_z
Si Si1 0.549004 0.642239 0.163576
Si Si2 0.952761 0.716805 0.540203
Si Si3 0.587280 0.492890 0.516358
Si Si4 0.356897 0.190259 0.700200
Si Si5 0.406807 0.641112 0.850745
Si Si6 0.320847 0.798910 0.127973
Si Si7 0.050899 0.588844 0.270604
O O1 0.518998 0.728371 0.325392
O O2 0.568399 0.540333 0.299216
O O3 0.623051 0.670678 0.032576
O O4 0.480600 0.638028 0.999742
O O5 0.929153 0.791017 0.348378
O O6 0.879922 0.705039 0.685127
O O7 0.990421 0.609034 0.451299
O O8 0.610910 0.590647 0.665692
O O9 0.655270 0.405740 0.496492
O O10 0.508711 0.434480 0.589778
O O11 0.265103 0.199795 0.712334
O O12 0.400241 0.301882 0.753547
O O13 0.395856 0.516075 0.794839
O O14 0.340017 0.699708 0.977571
#
# Coordination Sequence:
#
# PCOD9315513 Si02
#       7
#     4   4   4   4   4   4   4
#     4  11  20  42  68  99 122 174 236 276 339 392
#     4  11  21  44  68  97 132 179 230 283 331 396
#     4  12  24  42  72  99 132 182 229 290 336 401
#     4  12  27  45  64 109 139 176 234 281 350 410
#     4  11  22  43  67  98 134 176 229 282 338 405
#     4  11  28  42  66 100 146 179 216 285 364 400
#     4  12  20  46  71  96 135 174 240 287 314 418
#
# _framework density 19.614272
#
# number of rings (size 3 to 8) (size 9 to 14) (size 15 to 20)
#    0.000    0.571    7.143    1.714    2.000    1.143 
#    2.571    0.000    0.000    0.000    0.000    0.000 
#    0.000    0.000    0.000    0.000    0.000    0.000 
#
# Total GULP energy -156358.034754 kJ/mol
# GULP energy per Si atom -5584.215527 kJ/mol
# Density = 1.956963 g / cm^3
# Si number density = 19.614272 Si / 1000 Ang^3
#
#
#
# Elastic Constant Matrix: (Units=GPa)
#
#
# Indices 1 2 3 4 5 6 
#
# 1 97.0442 41.4750 30.2126 0.0000 0.0000 0.0000
# 2 41.4750 121.9703 47.0359 0.0000 0.0000 0.0000
# 3 30.2126 47.0359 110.2297 0.0000 0.0000 0.0000
# 4 0.0000 0.0000 0.0000 39.5404 0.0000 0.0000
# 5 0.0000 0.0000 0.0000 0.0000 21.6181 0.0000
# 6 0.0000 0.0000 0.0000 0.0000 0.0000 18.3848
#
#
#
# Elastic Compliance Matrix: (Units=1/GPa)
#
#
# Indices 1 2 3 4 5 6 
#
# 1 0.012385 -0.003474 -0.001912 0.000000 0.000000 0.000000
# 2 -0.003474 0.010788 -0.003651 0.000000 0.000000 0.000000
# 3 -0.001912 -0.003651 0.011154 0.000000 0.000000 0.000000
# 4 0.000000 0.000000 0.000000 0.025291 0.000000 0.000000
# 5 0.000000 0.000000 0.000000 0.000000 0.046258 0.000000
# 6 0.000000 0.000000 0.000000 0.000000 0.000000 0.054393
#
#
# Mechanical properties :
#
#
# Convention : Reuss Voigt Hill
#
# Bulk Modulus (GPa) = 61.53002 62.96569 62.24786
# Shear Modulus (GPa) = 27.20949 29.94336 28.57642
#
# Velocity S-wave (km/s) = 3.72859 3.91143 3.82110
# Velocity P-wave (km/s) = 7.06928 7.25056 7.16049
#
# Compressibility (1/GPa) = 0.01625223
#
# Stress axis : x y z
#
# Youngs Moduli (GPa) = 80.74576 92.69560 89.65359
#
# Poissons Ratio (x) = 0.32201 0.17143
# Poissons Ratio (y) = 0.28050 0.32734
# Poissons Ratio (z) = 0.15440 0.33845
#
# Static dielectric constant tensor:
#      x y z
#    x 1.663240 0.000000 0.000000 
#    y 0.000000 1.741720 0.000000 
#    z 0.000000 0.000000 1.703550 
# 
# From -- ./inp_files/1754.got.cif
#   From: 2010.05.17/outbox.cif.g08.bks.cpg/sg19_1_cif.got.tgz:1754.got - 2010.06.03 22:46:19.
