data_PCOD9315561
_publ_section_title
;
Structure prediction by ZEFSAII (Michael W. Deem and Ramdas Pophale) SiO2 
 PCOD9315561
Probable space group: P 21 21 21
;
_chemical_formula_sum "Si O2"
_cell_formula_units_Z 28
_cell_length_a 9.881426
_cell_length_b 16.631548
_cell_length_c 6.817038
_cell_angle_alpha 90.000000
_cell_angle_beta 90.000000
_cell_angle_gamma 90.000000
_cell_volume 1120.335277
_symmetry_space_group_name_H-M "P 21 21 21"
_symmetry_group_IT_number 19
_symmetry_cell_setting 'orthorhombic'
loop_
_space_group_symop_operation_xyz
x,y,z
1/2-x,-y,1/2+z
1/2+x,1/2-y,-z
-x,1/2+y,1/2-z
loop_
_atom_site_type_symbol
_atom_site_label
_atom_site_fract_x
_atom_site_fract_y
_atom_site_fract_z
Si Si1 0.049316 0.138641 0.718619
Si Si2 0.508553 0.817548 0.665778
Si Si3 0.008251 0.300182 0.468991
Si Si4 0.720977 0.100218 0.320265
Si Si5 0.420985 0.515252 0.510421
Si Si6 0.185447 0.932739 0.366932
Si Si7 0.274724 0.108876 0.304482
O O1 0.023905 0.217687 0.591747
O O2 0.209139 0.120032 0.745025
O O3 0.981883 0.060011 0.617506
O O4 0.998681 0.159947 0.937693
O O5 0.504966 0.725601 0.741805
O O6 0.648792 0.851154 0.748495
O O7 0.375708 0.856716 0.767804
O O8 0.139935 0.353215 0.512391
O O9 0.878323 0.342164 0.563932
O O10 0.783204 0.016532 0.393641
O O11 0.620303 0.083937 0.141475
O O12 0.530756 0.541467 0.674994
O O13 0.172422 0.896227 0.582619
O O14 0.263052 0.018238 0.383799
#
# Coordination Sequence:
#
# PCOD9315561 Si02
#       7
#     4   4   4   4   4   4   4
#     4  11  25  46  76 109 153 195 262 312 374 469
#     4  11  25  43  72 106 147 200 247 307 385 450
#     4  12  25  49  71 111 159 196 243 320 394 455
#     4  12  25  46  73 109 155 196 253 321 380 451
#     4  12  24  49  74 110 153 199 263 321 376 455
#     4  11  21  45  76 105 141 196 257 310 365 454
#     4  11  23  44  74 104 142 198 251 307 378 450
#
# _framework density 24.992522000000001
#
# number of rings (size 3 to 8) (size 9 to 14) (size 15 to 20)
#    0.000    0.571    5.714    1.714    0.000    3.429 
#    5.143    0.000    0.000    0.000    0.000    0.000 
#    0.000    0.000    0.000    0.000    0.000    0.000 
#
# Total GULP energy -156825.535002 kJ/mol
# GULP energy per Si atom -5600.911964 kJ/mol
# Density = 2.493564 g / cm^3
# Si number density = 24.992522 Si / 1000 Ang^3
#
#
#
# Elastic Constant Matrix: (Units=GPa)
#
#
# Indices 1 2 3 4 5 6 
#
# 1 148.7738 45.3577 45.9857 0.0000 0.0000 0.0000
# 2 45.3577 74.6750 12.7310 0.0000 0.0000 0.0000
# 3 45.9857 12.7310 79.3841 0.0000 0.0000 0.0000
# 4 0.0000 0.0000 0.0000 46.2739 0.0000 0.0000
# 5 0.0000 0.0000 0.0000 0.0000 42.9325 0.0000
# 6 0.0000 0.0000 0.0000 0.0000 0.0000 28.7546
#
#
#
# Elastic Compliance Matrix: (Units=1/GPa)
#
#
# Indices 1 2 3 4 5 6 
#
# 1 0.009778 -0.005113 -0.004844 0.000000 0.000000 0.000000
# 2 -0.005113 0.016442 0.000325 0.000000 0.000000 0.000000
# 3 -0.004844 0.000325 0.015351 0.000000 0.000000 0.000000
# 4 0.000000 0.000000 0.000000 0.021610 0.000000 0.000000
# 5 0.000000 0.000000 0.000000 0.000000 0.023292 0.000000
# 6 0.000000 0.000000 0.000000 0.000000 0.000000 0.034777
#
#
# Mechanical properties :
#
#
# Convention : Reuss Voigt Hill
#
# Bulk Modulus (GPa) = 44.83051 56.77573 50.80312
# Shear Modulus (GPa) = 33.79521 36.84276 35.31898
#
# Velocity S-wave (km/s) = 3.68123 3.84363 3.76331
# Velocity P-wave (km/s) = 6.00376 6.51647 6.26536
#
# Compressibility (1/GPa) = 0.02230624
#
# Stress axis : x y z
#
# Youngs Moduli (GPa) = 102.27235 60.82096 65.14265
#
# Poissons Ratio (x) = 0.31099 0.31556
# Poissons Ratio (y) = 0.52294 -0.02118
# Poissons Ratio (z) = 0.49542 -0.01978
#
# Static dielectric constant tensor:
#      x y z
#    x 1.979690 0.000000 0.000000 
#    y 0.000000 2.003300 0.000000 
#    z 0.000000 0.000000 2.016580 
# 
# From -- ./inp_files/3007.got.cif
#   From: 2010.05.17/outbox.cif.g08.bks.cpg/sg19_2_cif.got.tgz:3007.got - 2010.06.03 22:46:19.
