data_PCOD9315773
_publ_section_title
;
Structure prediction by ZEFSAII (Michael W. Deem and Ramdas Pophale) SiO2 
 PCOD9315773
Probable space group: P 21 21 21
;
_chemical_formula_sum "Si O2"
_cell_formula_units_Z 20
_cell_length_a 7.700843
_cell_length_b 11.736618
_cell_length_c 8.051581
_cell_angle_alpha 90.000000
_cell_angle_beta 90.000000
_cell_angle_gamma 90.000000
_cell_volume 727.716807
_symmetry_space_group_name_H-M "P 21 21 21"
_symmetry_group_IT_number 19
_symmetry_cell_setting 'orthorhombic'
loop_
_space_group_symop_operation_xyz
x,y,z
1/2-x,-y,1/2+z
1/2+x,1/2-y,-z
-x,1/2+y,1/2-z
loop_
_atom_site_type_symbol
_atom_site_label
_atom_site_fract_x
_atom_site_fract_y
_atom_site_fract_z
Si Si1 0.817476 0.661855 0.964564
Si Si2 0.672953 0.857174 0.184768
Si Si3 0.588754 0.809081 0.555380
Si Si4 0.194195 0.033115 0.221037
Si Si5 0.923065 0.894072 0.626887
O O1 0.680919 0.594681 0.849116
O O2 0.982393 0.688503 0.855963
O O3 0.787670 0.768532 0.083840
O O4 0.866963 0.558600 0.093084
O O5 0.675468 0.853238 0.382975
O O6 0.676259 0.984346 0.115725
O O7 0.426242 0.886479 0.608039
O O8 0.750882 0.820165 0.681137
O O9 0.514176 0.685128 0.512776
O O10 0.399613 0.069698 0.226586
#
# Coordination Sequence:
#
# PCOD9315773 Si02
#       5
#     4   4   4   4   4
#     4  11  25  49  71 108 150 189 251 302 366 438
#     4  11  27  46  71 113 144 189 252 297 373 435
#     4  12  24  46  75 103 150 191 243 302 366 433
#     4  11  24  48  73 106 146 201 242 300 366 433
#     4  11  24  43  72 108 140 186 242 293 365 439
#
# _framework density 27.483215999999999
#
# number of rings (size 3 to 8) (size 9 to 14) (size 15 to 20)
#    0.000    0.800    4.000    2.400    2.800    4.800 
#   10.800    0.000    0.000    0.000    0.000    0.000 
#    0.000    0.000    0.000    0.000    0.000    0.000 
#
# Total GULP energy -111757.723630 kJ/mol
# GULP energy per Si atom -5587.886181 kJ/mol
# Density = 2.742066 g / cm^3
# Si number density = 27.483216 Si / 1000 Ang^3
#
#
#
# Elastic Constant Matrix: (Units=GPa)
#
#
# Indices 1 2 3 4 5 6 
#
# 1 104.2277 48.4087 7.9172 0.0000 0.0000 0.0000
# 2 48.4087 170.3026 19.3840 0.0000 0.0000 0.0000
# 3 7.9172 19.3840 59.1124 0.0000 0.0000 0.0000
# 4 0.0000 0.0000 0.0000 36.6917 0.0000 0.0000
# 5 0.0000 0.0000 0.0000 0.0000 40.4836 0.0000
# 6 0.0000 0.0000 0.0000 0.0000 0.0000 21.0906
#
#
#
# Elastic Compliance Matrix: (Units=1/GPa)
#
#
# Indices 1 2 3 4 5 6 
#
# 1 0.011066 -0.003092 -0.000468 0.000000 0.000000 0.000000
# 2 -0.003092 0.006964 -0.001869 0.000000 0.000000 0.000000
# 3 -0.000468 -0.001869 0.017593 0.000000 0.000000 0.000000
# 4 0.000000 0.000000 0.000000 0.027254 0.000000 0.000000
# 5 0.000000 0.000000 0.000000 0.000000 0.024701 0.000000
# 6 0.000000 0.000000 0.000000 0.000000 0.000000 0.047415
#
#
# Mechanical properties :
#
#
# Convention : Reuss Voigt Hill
#
# Bulk Modulus (GPa) = 40.38299 53.89584 47.13941
# Shear Modulus (GPa) = 32.44515 36.84870 34.64692
#
# Velocity S-wave (km/s) = 3.43963 3.66563 3.55443
# Velocity P-wave (km/s) = 5.52271 6.12934 5.83392
#
# Compressibility (1/GPa) = 0.02476290
#
# Stress axis : x y z
#
# Youngs Moduli (GPa) = 90.36565 143.60269 56.84208
#
# Poissons Ratio (x) = 0.44406 0.02661
# Poissons Ratio (y) = 0.27944 0.10626
# Poissons Ratio (z) = 0.04230 0.26844
#
# Static dielectric constant tensor:
#      x y z
#    x 2.116940 0.000000 0.000000 
#    y 0.000000 2.197870 0.000000 
#    z 0.000000 0.000000 2.235550 
# 
# From -- ./inp_files/2649.got.cif
#   From: 2010.05.17/outbox.cif.g08.bks.cpg/sg19_2_cif.got.tgz:2649.got - 2010.06.03 22:46:19.
