data_PCOD9315048
_publ_section_title
;
Structure prediction by ZEFSAII (Michael W. Deem and Ramdas Pophale) SiO2 
 PCOD9315048
Probable space group: P 21 21 21
;
_chemical_formula_sum "Si O2"
_cell_formula_units_Z 24
_cell_length_a 6.113817
_cell_length_b 17.954448
_cell_length_c 9.611960
_cell_angle_alpha 90.000000
_cell_angle_beta 90.000000
_cell_angle_gamma 90.000000
_cell_volume 1055.106862
_symmetry_space_group_name_H-M "P 21 21 21"
_symmetry_group_IT_number 19
_symmetry_cell_setting 'orthorhombic'
loop_
_space_group_symop_operation_xyz
x,y,z
1/2-x,-y,1/2+z
1/2+x,1/2-y,-z
-x,1/2+y,1/2-z
loop_
_atom_site_type_symbol
_atom_site_label
_atom_site_fract_x
_atom_site_fract_y
_atom_site_fract_z
Si Si1 0.283308 0.704260 0.875500
Si Si2 0.180739 0.510166 0.086079
Si Si3 0.265574 0.758262 0.433067
Si Si4 0.595817 0.824184 0.825736
Si Si5 0.050170 0.559265 0.796207
Si Si6 0.872025 0.395203 0.236904
O O1 0.355826 0.784829 0.818280
O O2 0.114113 0.647397 0.801910
O O3 0.500749 0.656669 0.844800
O O4 0.210254 0.708010 0.034298
O O5 0.097817 0.588126 0.148982
O O6 0.406879 0.484156 0.154033
O O7 0.028659 0.445039 0.144224
O O8 0.180937 0.520656 0.921322
O O9 0.516415 0.748844 0.493468
O O10 0.235048 0.699477 0.307537
O O11 0.250041 0.840761 0.369751
O O12 0.795097 0.555905 0.823848
#
# Coordination Sequence:
#
# PCOD9315048 Si02
#       6
#     4   4   4   4   4   4
#     4   9  22  41  65 100 129 172 231 294 354 405
#     4  10  24  42  69 100 135 187 237 294 364 430
#     4  11  28  46  72 104 146 197 240 298 368 437
#     4  10  23  41  71 100 136 180 243 295 351 444
#     4  10  23  44  66  99 140 180 230 297 361 428
#     4  10  24  44  71  93 144 182 231 308 362 424
#
# _framework density 22.746511999999999
#
# number of rings (size 3 to 8) (size 9 to 14) (size 15 to 20)
#    0.000    2.000    0.000    0.000   18.667    5.333 
#    0.000    0.000    0.000    0.000    0.000    0.000 
#    0.000    0.000    0.000    0.000    0.000    0.000 
#
# Total GULP energy -133669.579413 kJ/mol
# GULP energy per Si atom -5569.565809 kJ/mol
# Density = 2.269474 g / cm^3
# Si number density = 22.746512 Si / 1000 Ang^3
#
#
#
# Elastic Constant Matrix: (Units=GPa)
#
#
# Indices 1 2 3 4 5 6 
#
# 1 73.2445 16.8254 27.8627 0.0000 0.0000 0.0000
# 2 16.8254 49.7203 17.1587 0.0000 0.0000 0.0000
# 3 27.8627 17.1587 55.9864 0.0000 0.0000 0.0000
# 4 0.0000 0.0000 0.0000 36.5471 0.0000 0.0000
# 5 0.0000 0.0000 0.0000 0.0000 -11.2236 0.0000
# 6 0.0000 0.0000 0.0000 0.0000 0.0000 -6.8798
#
#
#
# Elastic Compliance Matrix: (Units=1/GPa)
#
#
# Indices 1 2 3 4 5 6 
#
# 1 0.017291 -0.003222 -0.007618 0.000000 0.000000 0.000000
# 2 -0.003222 0.023092 -0.005474 0.000000 0.000000 0.000000
# 3 -0.007618 -0.005474 0.023330 0.000000 0.000000 0.000000
# 4 0.000000 0.000000 0.000000 0.027362 0.000000 0.000000
# 5 0.000000 0.000000 0.000000 0.000000 -0.089098 0.000000
# 6 0.000000 0.000000 0.000000 0.000000 0.000000 -0.145352
#
#
# Mechanical properties :
#
#
# Convention : Reuss Voigt Hill
#
# Bulk Modulus (GPa) = 32.16892 33.62719 32.89806
# Shear Modulus (GPa) = -49.80743 11.49569 -19.15587
#
# Velocity S-wave (km/s) = -4.68447 2.25051 -2.90512
# Velocity P-wave (km/s) = 3.88407 4.64420 1.80037
#
# Compressibility (1/GPa) = 0.03108590
#
# Stress axis : x y z
#
# Youngs Moduli (GPa) = 57.83383 43.30522 42.86323
#
# Poissons Ratio (x) = 0.13955 0.32651
# Poissons Ratio (y) = 0.18636 0.23461
# Poissons Ratio (z) = 0.44055 0.23703
#
# Static dielectric constant tensor:
#      x y z
#    x 1.962250 0.000000 0.000000 
#    y 0.000000 1.991710 0.000000 
#    z 0.000000 0.000000 1.903380 
# 
# From -- ./inp_files/426.got.cif
#   From: 2010.05.17/outbox.cif.g08.bks.cpg/sg19_1_cif.got.tgz:426.got - 2010.06.03 22:46:19.
