data_PCOD9315718
_publ_section_title
;
Structure prediction by ZEFSAII (Michael W. Deem and Ramdas Pophale) SiO2 
 PCOD9315718
Probable space group: P 21 21 21
;
_chemical_formula_sum "Si O2"
_cell_formula_units_Z 28
_cell_length_a 9.015244
_cell_length_b 7.843568
_cell_length_c 15.860005
_cell_angle_alpha 90.000000
_cell_angle_beta 90.000000
_cell_angle_gamma 90.000000
_cell_volume 1121.487588
_symmetry_space_group_name_H-M "P 21 21 21"
_symmetry_group_IT_number 19
_symmetry_cell_setting 'orthorhombic'
loop_
_space_group_symop_operation_xyz
x,y,z
1/2-x,-y,1/2+z
1/2+x,1/2-y,-z
-x,1/2+y,1/2-z
loop_
_atom_site_type_symbol
_atom_site_label
_atom_site_fract_x
_atom_site_fract_y
_atom_site_fract_z
Si Si1 0.828537 0.940398 0.019683
Si Si2 0.623686 0.559613 0.696081
Si Si3 0.113082 0.176556 0.166386
Si Si4 0.583218 0.271082 0.217860
Si Si5 0.016295 0.623157 0.047690
Si Si6 0.383826 0.195557 0.054175
Si Si7 0.304685 0.413057 0.292890
O O1 0.958102 0.802353 0.013989
O O2 0.758739 0.927902 0.113438
O O3 0.692471 0.894253 0.957627
O O4 0.882478 0.128863 0.997314
O O5 0.542155 0.728149 0.664491
O O6 0.594275 0.508063 0.792408
O O7 0.799298 0.585143 0.690719
O O8 0.551312 0.412061 0.639809
O O9 0.214115 0.167528 0.084163
O O10 0.206798 0.295901 0.231541
O O11 0.485286 0.222617 0.136653
O O12 0.470501 0.334335 0.288989
O O13 0.674096 0.103373 0.243736
O O14 0.946072 0.467277 0.994199
#
# Coordination Sequence:
#
# PCOD9315718 Si02
#       7
#     4   4   4   4   4   4   4
#     4  12  27  48  74 111 146 190 246 304 362 441
#     4  12  25  45  71 107 143 190 237 299 364 430
#     4  11  25  47  70 104 146 185 242 295 362 427
#     4  11  24  44  75 100 146 188 240 299 360 440
#     4  12  28  47  76 109 147 192 245 301 372 430
#     4  11  26  49  74 106 147 192 239 300 368 433
#     4  11  23  46  70 105 139 189 239 296 362 429
#
# _framework density 24.966840000000001
#
# number of rings (size 3 to 8) (size 9 to 14) (size 15 to 20)
#    0.000    0.571    4.286    3.429    2.000    2.286 
#    2.571    0.000    0.000    0.000    0.000    0.000 
#    0.000    0.000    0.000    0.000    0.000    0.000 
#
# Total GULP energy -157029.561387 kJ/mol
# GULP energy per Si atom -5608.198621 kJ/mol
# Density = 2.491001 g / cm^3
# Si number density = 24.966840 Si / 1000 Ang^3
#
#
#
# Elastic Constant Matrix: (Units=GPa)
#
#
# Indices 1 2 3 4 5 6 
#
# 1 88.9137 26.2036 14.2088 0.0000 0.0000 0.0000
# 2 26.2036 70.3730 17.6221 0.0000 0.0000 0.0000
# 3 14.2088 17.6221 52.0814 0.0000 0.0000 0.0000
# 4 0.0000 0.0000 0.0000 40.2742 0.0000 0.0000
# 5 0.0000 0.0000 0.0000 0.0000 30.1806 0.0000
# 6 0.0000 0.0000 0.0000 0.0000 0.0000 48.7352
#
#
#
# Elastic Compliance Matrix: (Units=1/GPa)
#
#
# Indices 1 2 3 4 5 6 
#
# 1 0.012832 -0.004263 -0.002059 0.000000 0.000000 0.000000
# 2 -0.004263 0.016941 -0.004569 0.000000 0.000000 0.000000
# 3 -0.002059 -0.004569 0.021308 0.000000 0.000000 0.000000
# 4 0.000000 0.000000 0.000000 0.024830 0.000000 0.000000
# 5 0.000000 0.000000 0.000000 0.000000 0.033134 0.000000
# 6 0.000000 0.000000 0.000000 0.000000 0.000000 0.020519
#
#
# Mechanical properties :
#
#
# Convention : Reuss Voigt Hill
#
# Bulk Modulus (GPa) = 34.12862 36.38190 35.25526
# Shear Modulus (GPa) = 31.03424 34.06024 32.54724
#
# Velocity S-wave (km/s) = 3.52947 3.69754 3.61448
# Velocity P-wave (km/s) = 5.50534 5.72999 5.61879
#
# Compressibility (1/GPa) = 0.02930092
#
# Stress axis : x y z
#
# Youngs Moduli (GPa) = 77.92988 59.02708 46.92988
#
# Poissons Ratio (x) = 0.25161 0.09661
# Poissons Ratio (y) = 0.33218 0.21444
# Poissons Ratio (z) = 0.16042 0.26971
#
# Static dielectric constant tensor:
#      x y z
#    x 1.958440 0.000000 0.000000 
#    y 0.000000 1.965550 0.000000 
#    z 0.000000 0.000000 1.988470 
# 
# From -- ./inp_files/6587.got.cif
#   From: 2010.05.17/outbox.cif.g08.bks.cpg/sg19_4_cif.got.tgz:6587.got - 2010.06.03 22:46:19.
