data_PCOD9315555
_publ_section_title
;
Structure prediction by ZEFSAII (Michael W. Deem and Ramdas Pophale) SiO2 
 PCOD9315555
Probable space group: P 21 21 21
;
_chemical_formula_sum "Si O2"
_cell_formula_units_Z 32
_cell_length_a 8.306970
_cell_length_b 19.694950
_cell_length_c 9.231169
_cell_angle_alpha 90.000000
_cell_angle_beta 90.000000
_cell_angle_gamma 90.000000
_cell_volume 1510.268716
_symmetry_space_group_name_H-M "P 21 21 21"
_symmetry_group_IT_number 19
_symmetry_cell_setting 'orthorhombic'
loop_
_space_group_symop_operation_xyz
x,y,z
1/2-x,-y,1/2+z
1/2+x,1/2-y,-z
-x,1/2+y,1/2-z
loop_
_atom_site_type_symbol
_atom_site_label
_atom_site_fract_x
_atom_site_fract_y
_atom_site_fract_z
Si Si1 0.584313 0.301137 0.962487
Si Si2 0.289879 0.072237 0.921935
Si Si3 0.944459 0.496152 0.795123
Si Si4 0.107522 0.690197 0.193608
Si Si5 0.481969 0.862735 0.091144
Si Si6 0.397448 0.149402 0.665628
Si Si7 0.049937 0.371555 0.630501
Si Si8 0.880877 0.255545 0.784208
O O1 0.441398 0.325174 0.857507
O O2 0.711350 0.259988 0.864822
O O3 0.673671 0.366375 0.028051
O O4 0.513425 0.255866 0.090770
O O5 0.417809 0.109219 0.815866
O O6 0.189730 0.019507 0.822779
O O7 0.362965 0.037254 0.063349
O O8 0.055946 0.441799 0.715647
O O9 0.032278 0.563897 0.850391
O O10 0.075965 0.770222 0.174607
O O11 0.289420 0.671608 0.154357
O O12 0.002296 0.648403 0.079061
O O13 0.292931 0.857304 0.128701
O O14 0.586361 0.804819 0.171066
O O15 0.505013 0.120046 0.536874
O O16 0.909421 0.325933 0.701715
#
# Coordination Sequence:
#
# PCOD9315555 Si02
#       8
#     4   4   4   4   4   4   4   4
#     4  12  25  42  71 105 138 179 237 299 357 415
#     4  11  23  43  71 102 139 185 234 287 352 429
#     4  11  24  44  68 101 141 187 232 284 354 435
#     4  12  25  42  67 106 137 183 234 295 353 417
#     4  11  24  44  66  99 140 182 232 288 351 424
#     4  11  21  44  71 102 135 177 240 289 348 412
#     4  12  24  43  70 100 142 183 236 285 353 427
#     4  12  22  44  68 103 138 180 235 297 354 415
#
# _framework density 21.188281
#
# number of rings (size 3 to 8) (size 9 to 14) (size 15 to 20)
#    0.000    0.500    6.250    3.750    3.500    0.000 
#    2.250    0.000    0.000    0.000    0.000    0.000 
#    0.000    0.000    0.000    0.000    0.000    0.000 
#
# Total GULP energy -179026.781187 kJ/mol
# GULP energy per Si atom -5594.586912 kJ/mol
# Density = 2.114006 g / cm^3
# Si number density = 21.188281 Si / 1000 Ang^3
#
#
#
# Elastic Constant Matrix: (Units=GPa)
#
#
# Indices 1 2 3 4 5 6 
#
# 1 37.3474 0.3492 15.9573 0.0000 0.0000 0.0000
# 2 0.3492 81.1424 17.2042 0.0000 0.0000 0.0000
# 3 15.9573 17.2042 115.0261 0.0000 0.0000 0.0000
# 4 0.0000 0.0000 0.0000 51.4847 0.0000 0.0000
# 5 0.0000 0.0000 0.0000 0.0000 37.2576 0.0000
# 6 0.0000 0.0000 0.0000 0.0000 0.0000 7.8401
#
#
#
# Elastic Compliance Matrix: (Units=1/GPa)
#
#
# Indices 1 2 3 4 5 6 
#
# 1 0.028506 0.000739 -0.004065 0.000000 0.000000 0.000000
# 2 0.000739 0.012747 -0.002009 0.000000 0.000000 0.000000
# 3 -0.004065 -0.002009 0.009558 0.000000 0.000000 0.000000
# 4 0.000000 0.000000 0.000000 0.019423 0.000000 0.000000
# 5 0.000000 0.000000 0.000000 0.000000 0.026840 0.000000
# 6 0.000000 0.000000 0.000000 0.000000 0.000000 0.127549
#
#
# Mechanical properties :
#
#
# Convention : Reuss Voigt Hill
#
# Bulk Modulus (GPa) = 24.91239 33.39303 29.15271
# Shear Modulus (GPa) = 20.10672 32.65017 26.37844
#
# Velocity S-wave (km/s) = 3.08385 3.92976 3.53222
# Velocity P-wave (km/s) = 4.94604 6.03200 5.51581
#
# Compressibility (1/GPa) = 0.04014067
#
# Stress axis : x y z
#
# Youngs Moduli (GPa) = 35.08081 78.45101 104.62315
#
# Poissons Ratio (x) = -0.05799 0.42530
# Poissons Ratio (y) = -0.02593 0.21019
# Poissons Ratio (z) = 0.14261 0.15761
#
# Static dielectric constant tensor:
#      x y z
#    x 1.771280 0.000000 0.000000 
#    y 0.000000 1.759780 0.000000 
#    z 0.000000 0.000000 1.782100 
# 
# From -- ./inp_files/3109.got.cif
#   From: 2010.05.17/outbox.cif.g08.bks.cpg/sg19_2_cif.got.tgz:3109.got - 2010.06.03 22:46:19.
