data_PCOD9315317
_publ_section_title
;
Structure prediction by ZEFSAII (Michael W. Deem and Ramdas Pophale) SiO2 
 PCOD9315317
Probable space group: P 21 21 21
;
_chemical_formula_sum "Si O2"
_cell_formula_units_Z 32
_cell_length_a 15.646811
_cell_length_b 5.004744
_cell_length_c 16.652049
_cell_angle_alpha 90.000000
_cell_angle_beta 90.000000
_cell_angle_gamma 90.000000
_cell_volume 1303.993373
_symmetry_space_group_name_H-M "P 21 21 21"
_symmetry_group_IT_number 19
_symmetry_cell_setting 'orthorhombic'
loop_
_space_group_symop_operation_xyz
x,y,z
1/2-x,-y,1/2+z
1/2+x,1/2-y,-z
-x,1/2+y,1/2-z
loop_
_atom_site_type_symbol
_atom_site_label
_atom_site_fract_x
_atom_site_fract_y
_atom_site_fract_z
Si Si1 0.602978 0.390164 0.444417
Si Si2 0.026889 0.609124 0.804622
Si Si3 0.350958 0.633176 0.900235
Si Si4 0.174248 0.219988 0.159637
Si Si5 0.197432 0.924380 0.841141
Si Si6 0.762189 0.738235 0.507424
Si Si7 0.955791 0.040085 0.239848
Si Si8 0.779060 0.792289 0.807810
O O1 0.522600 0.464089 0.388271
O O2 0.587990 0.248771 0.530271
O O3 0.674635 0.608408 0.470426
O O4 0.655392 0.208059 0.381451
O O5 0.123014 0.708106 0.825353
O O6 0.014459 0.363018 0.743068
O O7 0.298971 0.844820 0.845961
O O8 0.399766 0.438348 0.840276
O O9 0.273163 0.490180 0.945074
O O10 0.177982 0.297120 0.066675
O O11 0.090090 0.341878 0.197087
O O12 0.247108 0.407442 0.200867
O O13 0.203676 0.914339 0.166883
O O14 0.188606 0.150886 0.772858
O O15 0.188848 0.053230 0.929331
O O16 0.029818 0.825158 0.221041
#
# Coordination Sequence:
#
# PCOD9315317 Si02
#       8
#     4   4   4   4   4   4   4   4
#     4  10  24  44  72 106 144 189 233 298 372 424
#     4  12  29  45  71 109 153 192 239 302 376 437
#     4  11  24  47  77 100 146 193 249 298 364 432
#     4  11  23  44  73 100 138 182 246 290 353 427
#     4  11  25  43  72 109 141 194 247 293 364 442
#     4  10  24  44  76 106 138 194 244 306 357 432
#     4  12  28  46  70 105 142 191 238 295 361 424
#     4  11  21  41  73 103 134 187 234 292 347 434
#
# _framework density 24.540004
#
# number of rings (size 3 to 8) (size 9 to 14) (size 15 to 20)
#    0.000    1.000    3.750    1.500    8.750    1.000 
#    2.250    0.000    0.000    0.000    0.000    0.000 
#    0.000    0.000    0.000    0.000    0.000    0.000 
#
# Total GULP energy -178732.843440 kJ/mol
# GULP energy per Si atom -5585.401357 kJ/mol
# Density = 2.448415 g / cm^3
# Si number density = 24.540004 Si / 1000 Ang^3
#
#
#
# Elastic Constant Matrix: (Units=GPa)
#
#
# Indices 1 2 3 4 5 6 
#
# 1 37.3273 17.9104 14.9674 0.0000 0.0000 0.0000
# 2 17.9104 61.2199 34.4925 0.0000 0.0000 0.0000
# 3 14.9674 34.4925 127.4731 0.0000 0.0000 0.0000
# 4 0.0000 0.0000 0.0000 29.0117 0.0000 0.0000
# 5 0.0000 0.0000 0.0000 0.0000 43.6904 0.0000
# 6 0.0000 0.0000 0.0000 0.0000 0.0000 23.1953
#
#
#
# Elastic Compliance Matrix: (Units=1/GPa)
#
#
# Indices 1 2 3 4 5 6 
#
# 1 0.031380 -0.008383 -0.001416 0.000000 0.000000 0.000000
# 2 -0.008383 0.021512 -0.004837 0.000000 0.000000 0.000000
# 3 -0.001416 -0.004837 0.009320 0.000000 0.000000 0.000000
# 4 0.000000 0.000000 0.000000 0.034469 0.000000 0.000000
# 5 0.000000 0.000000 0.000000 0.000000 0.022888 0.000000
# 6 0.000000 0.000000 0.000000 0.000000 0.000000 0.043112
#
#
# Mechanical properties :
#
#
# Convention : Reuss Voigt Hill
#
# Bulk Modulus (GPa) = 30.35733 40.08453 35.22093
# Shear Modulus (GPa) = 24.63875 29.75615 27.19745
#
# Velocity S-wave (km/s) = 3.17207 3.48596 3.33271
# Velocity P-wave (km/s) = 5.08069 5.70722 5.40305
#
# Compressibility (1/GPa) = 0.03294097
#
# Stress axis : x y z
#
# Youngs Moduli (GPa) = 31.86735 46.48575 107.29824
#
# Poissons Ratio (x) = 0.38967 0.15197
# Poissons Ratio (y) = 0.26713 0.51896
# Poissons Ratio (z) = 0.04513 0.22483
#
# Static dielectric constant tensor:
#      x y z
#    x 2.155030 0.000000 0.000000 
#    y 0.000000 2.060970 0.000000 
#    z 0.000000 0.000000 1.978630 
# 
# From -- ./inp_files/5748.got.cif
#   From: 2010.05.17/outbox.cif.g08.bks.cpg/sg19_3_cif.got.tgz:5748.got - 2010.06.03 22:46:19.
