data_PCOD9315530
_publ_section_title
;
Structure prediction by ZEFSAII (Michael W. Deem and Ramdas Pophale) SiO2 
 PCOD9315530
Probable space group: P 21 21 21
;
_chemical_formula_sum "Si O2"
_cell_formula_units_Z 32
_cell_length_a 6.539000
_cell_length_b 18.018265
_cell_length_c 13.884735
_cell_angle_alpha 90.000000
_cell_angle_beta 90.000000
_cell_angle_gamma 90.000000
_cell_volume 1635.919400
_symmetry_space_group_name_H-M "P 21 21 21"
_symmetry_group_IT_number 19
_symmetry_cell_setting 'orthorhombic'
loop_
_space_group_symop_operation_xyz
x,y,z
1/2-x,-y,1/2+z
1/2+x,1/2-y,-z
-x,1/2+y,1/2-z
loop_
_atom_site_type_symbol
_atom_site_label
_atom_site_fract_x
_atom_site_fract_y
_atom_site_fract_z
Si Si1 0.601468 0.586790 0.403541
Si Si2 0.830771 0.845328 0.442717
Si Si3 0.600421 0.413233 0.403598
Si Si4 0.510404 0.686064 0.920671
Si Si5 0.830083 0.184909 0.732681
Si Si6 0.331209 0.685043 0.267285
Si Si7 0.170358 0.654584 0.057282
Si Si8 0.009293 0.185969 0.079414
O O1 0.505311 0.604225 0.509502
O O2 0.634134 0.499983 0.391942
O O3 0.442254 0.619744 0.326188
O O4 0.806255 0.634171 0.388390
O O5 0.770505 0.844341 0.331238
O O6 0.623523 0.858050 0.501632
O O7 0.899351 0.760770 0.465625
O O8 0.804804 0.365600 0.388551
O O9 0.441030 0.380421 0.326217
O O10 0.503956 0.395988 0.509547
O O11 0.356820 0.709984 0.835585
O O12 0.601281 0.760929 0.965745
O O13 0.377710 0.641958 0.998418
O O14 0.999472 0.249923 0.749982
O O15 0.230632 0.655732 0.168756
O O16 0.144256 0.710050 0.335559
#
# Coordination Sequence:
#
# PCOD9315530 Si02
#       8
#     4   4   4   4   4   4   4   4
#     4  11  26  42  61  96 137 169 212 278 331 376
#     4  11  21  39  67  94 122 171 219 260 315 396
#     4  11  26  42  61  96 137 169 212 278 331 376
#     4  11  21  39  67  95 128 162 219 266 319 384
#     4  11  23  39  70  99 125 166 224 270 320 391
#     4  11  23  39  70  99 125 166 224 270 320 391
#     4  11  21  39  67  94 122 171 219 260 315 396
#     4  11  21  39  67  95 128 162 219 266 319 384
#
# _framework density 19.560863999999999
#
# number of rings (size 3 to 8) (size 9 to 14) (size 15 to 20)
#    0.000    1.000    5.000    2.250    0.000    5.000 
#    0.000    2.500    0.000    0.000    0.000    0.000 
#    0.000    0.000    0.000    0.000    0.000    0.000 
#
# Total GULP energy -178643.728379 kJ/mol
# GULP energy per Si atom -5582.616512 kJ/mol
# Density = 1.951634 g / cm^3
# Si number density = 19.560864 Si / 1000 Ang^3
#
#
#
# Elastic Constant Matrix: (Units=GPa)
#
#
# Indices 1 2 3 4 5 6 
#
# 1 99.8931 19.3556 24.8333 0.0000 0.0000 0.0000
# 2 19.3556 81.4062 -14.0006 0.0000 0.0000 0.0000
# 3 24.8333 -14.0006 100.5421 0.0000 0.0000 0.0000
# 4 0.0000 0.0000 0.0000 15.8956 0.0000 0.0000
# 5 0.0000 0.0000 0.0000 0.0000 36.4907 0.0000
# 6 0.0000 0.0000 0.0000 0.0000 0.0000 14.3416
#
#
#
# Elastic Compliance Matrix: (Units=1/GPa)
#
#
# Indices 1 2 3 4 5 6 
#
# 1 0.011467 -0.003292 -0.003291 0.000000 0.000000 0.000000
# 2 -0.003292 0.013531 0.002697 0.000000 0.000000 0.000000
# 3 -0.003291 0.002697 0.011134 0.000000 0.000000 0.000000
# 4 0.000000 0.000000 0.000000 0.062910 0.000000 0.000000
# 5 0.000000 0.000000 0.000000 0.000000 0.027404 0.000000
# 6 0.000000 0.000000 0.000000 0.000000 0.000000 0.069727
#
#
# Mechanical properties :
#
#
# Convention : Reuss Voigt Hill
#
# Bulk Modulus (GPa) = 35.26007 38.02421 36.64214
# Shear Modulus (GPa) = 23.43036 30.12248 26.77642
#
# Velocity S-wave (km/s) = 3.46471 3.92846 3.70385
# Velocity P-wave (km/s) = 5.83700 6.32915 6.08805
#
# Compressibility (1/GPa) = 0.02836069
#
# Stress axis : x y z
#
# Youngs Moduli (GPa) = 87.20915 73.90552 89.81122
#
# Poissons Ratio (x) = 0.24332 0.29554
# Poissons Ratio (y) = 0.28712 -0.24225
# Poissons Ratio (z) = 0.28698 -0.19935
#
# Static dielectric constant tensor:
#      x y z
#    x 1.703980 0.000000 0.000000 
#    y 0.000000 1.644440 0.000000 
#    z 0.000000 0.000000 1.723850 
# 
# From -- ./inp_files/5755.got.cif
#   From: 2010.05.17/outbox.cif.g08.bks.cpg/sg19_3_cif.got.tgz:5755.got - 2010.06.03 22:46:19.
