data_PCOD9315289
_publ_section_title
;
Structure prediction by ZEFSAII (Michael W. Deem and Ramdas Pophale) SiO2 
 PCOD9315289
Probable space group: P 21 21 21
;
_chemical_formula_sum "Si O2"
_cell_formula_units_Z 28
_cell_length_a 5.273986
_cell_length_b 8.611398
_cell_length_c 24.172121
_cell_angle_alpha 90.000000
_cell_angle_beta 90.000000
_cell_angle_gamma 90.000000
_cell_volume 1097.810535
_symmetry_space_group_name_H-M "P 21 21 21"
_symmetry_group_IT_number 19
_symmetry_cell_setting 'orthorhombic'
loop_
_space_group_symop_operation_xyz
x,y,z
1/2-x,-y,1/2+z
1/2+x,1/2-y,-z
-x,1/2+y,1/2-z
loop_
_atom_site_type_symbol
_atom_site_label
_atom_site_fract_x
_atom_site_fract_y
_atom_site_fract_z
Si Si1 0.493494 0.463297 0.381912
Si Si2 0.701480 0.319005 0.618778
Si Si3 0.091457 0.840535 0.199887
Si Si4 0.458015 0.655124 0.017808
Si Si5 0.688006 0.832216 0.692188
Si Si6 0.005535 0.365047 0.089675
Si Si7 0.227482 0.122178 0.022874
O O1 0.235540 0.365701 0.391545
O O2 0.701875 0.360600 0.349147
O O3 0.433103 0.602331 0.339834
O O4 0.589369 0.513034 0.441233
O O5 0.620436 0.289911 0.682625
O O6 0.948131 0.368468 0.581879
O O7 0.506451 0.451884 0.599917
O O8 0.225502 0.773576 0.254297
O O9 0.965238 0.010069 0.207623
O O10 0.190163 0.739036 0.007602
O O11 0.487752 0.490023 0.987490
O O12 0.555527 0.725502 0.645737
O O13 0.231900 0.272524 0.061867
O O14 0.814982 0.336667 0.038338
#
# Coordination Sequence:
#
# PCOD9315289 Si02
#       7
#     4   4   4   4   4   4   4
#     4  11  23  46  70 104 140 194 243 308 382 467
#     4  10  24  43  69 105 140 192 250 307 374 460
#     4  11  24  47  73 100 146 190 251 309 385 458
#     4  11  23  39  72 106 148 196 255 308 383 458
#     4  11  25  43  72  99 141 185 245 310 375 457
#     4  11  24  45  68 106 148 189 246 313 380 456
#     4  11  23  43  72 104 151 196 250 317 395 462
#
# _framework density 25.505312
#
# number of rings (size 3 to 8) (size 9 to 14) (size 15 to 20)
#    0.000    1.143    2.857    2.571    2.000    5.714 
#    7.714    0.000    0.000    0.000    0.000    0.000 
#    0.000    0.000    0.000    0.000    0.000    0.000 
#
# Total GULP energy -155932.234966 kJ/mol
# GULP energy per Si atom -5569.008392 kJ/mol
# Density = 2.544726 g / cm^3
# Si number density = 25.505312 Si / 1000 Ang^3
#
#
#
# Elastic Constant Matrix: (Units=GPa)
#
#
# Indices 1 2 3 4 5 6 
#
# 1 56.8939 61.3615 47.5872 0.0000 0.0000 0.0000
# 2 61.3615 135.3840 64.5864 0.0000 0.0000 0.0000
# 3 47.5872 64.5864 83.7788 0.0000 0.0000 0.0000
# 4 0.0000 0.0000 0.0000 53.9544 0.0000 0.0000
# 5 0.0000 0.0000 0.0000 0.0000 33.3040 0.0000
# 6 0.0000 0.0000 0.0000 0.0000 0.0000 35.8375
#
#
#
# Elastic Compliance Matrix: (Units=1/GPa)
#
#
# Indices 1 2 3 4 5 6 
#
# 1 0.043956 -0.012672 -0.015198 0.000000 0.000000 0.000000
# 2 -0.012672 0.015336 -0.004625 0.000000 0.000000 0.000000
# 3 -0.015198 -0.004625 0.024135 0.000000 0.000000 0.000000
# 4 0.000000 0.000000 0.000000 0.018534 0.000000 0.000000
# 5 0.000000 0.000000 0.000000 0.000000 0.030026 0.000000
# 6 0.000000 0.000000 0.000000 0.000000 0.000000 0.027904
#
#
# Mechanical properties :
#
#
# Convention : Reuss Voigt Hill
#
# Bulk Modulus (GPa) = 54.24237 69.23632 61.73934
# Shear Modulus (GPa) = 21.64245 31.45396 26.54820
#
# Velocity S-wave (km/s) = 2.91614 3.51555 3.22978
# Velocity P-wave (km/s) = 5.71417 6.60935 6.17800
#
# Compressibility (1/GPa) = 0.01843577
#
# Stress axis : x y z
#
# Youngs Moduli (GPa) = 22.75010 65.20440 41.43429
#
# Poissons Ratio (x) = 0.82627 0.62973
# Poissons Ratio (y) = 0.28829 0.19164
# Poissons Ratio (z) = 0.34576 0.30158
#
# Static dielectric constant tensor:
#      x y z
#    x 2.128970 0.000000 0.000000 
#    y 0.000000 2.198080 0.000000 
#    z 0.000000 0.000000 2.061820 
# 
# From -- ./inp_files/2440.got.cif
#   From: 2010.05.17/outbox.cif.g08.bks.cpg/sg19_2_cif.got.tgz:2440.got - 2010.06.03 22:46:19.
