data_PCOD9315578
_publ_section_title
;
Structure prediction by ZEFSAII (Michael W. Deem and Ramdas Pophale) SiO2 
 PCOD9315578
Probable space group: P 21 21 21
;
_chemical_formula_sum "Si O2"
_cell_formula_units_Z 28
_cell_length_a 5.269103
_cell_length_b 10.113197
_cell_length_c 19.873609
_cell_angle_alpha 90.000000
_cell_angle_beta 90.000000
_cell_angle_gamma 90.000000
_cell_volume 1059.014476
_symmetry_space_group_name_H-M "P 21 21 21"
_symmetry_group_IT_number 19
_symmetry_cell_setting 'orthorhombic'
loop_
_space_group_symop_operation_xyz
x,y,z
1/2-x,-y,1/2+z
1/2+x,1/2-y,-z
-x,1/2+y,1/2-z
loop_
_atom_site_type_symbol
_atom_site_label
_atom_site_fract_x
_atom_site_fract_y
_atom_site_fract_z
Si Si1 0.025098 0.832099 0.514536
Si Si2 0.958514 0.076761 0.417947
Si Si3 0.538072 0.715466 0.107972
Si Si4 0.324162 0.071574 0.666886
Si Si5 0.451990 0.159574 0.239357
Si Si6 0.319292 0.376831 0.863712
Si Si7 0.092181 0.365200 0.196950
O O1 0.798206 0.736827 0.487676
O O2 0.027091 0.966389 0.472453
O O3 0.923229 0.858534 0.589226
O O4 0.933366 0.000053 0.345694
O O5 0.682053 0.138351 0.431839
O O6 0.178814 0.188656 0.418737
O O7 0.400336 0.853318 0.128573
O O8 0.558524 0.652310 0.181942
O O9 0.455245 0.149223 0.729380
O O10 0.239318 0.941368 0.706050
O O11 0.526471 0.006800 0.616079
O O12 0.713759 0.104043 0.211277
O O13 0.373837 0.306442 0.213085
O O14 0.465135 0.239229 0.855173
#
# Coordination Sequence:
#
# PCOD9315578 Si02
#       7
#     4   4   4   4   4   4   4
#     4  12  26  48  77 110 148 193 257 322 370 435
#     4  12  26  44  72 107 149 190 246 308 375 439
#     4  12  26  44  69 107 149 198 238 304 381 448
#     4  11  25  42  68 104 157 193 244 302 381 466
#     4  11  24  40  70 103 148 196 245 309 371 454
#     4  11  25  43  71 109 140 201 248 305 376 451
#     4  11  22  41  65 112 147 185 242 306 378 441
#
# _framework density 26.439677
#
# number of rings (size 3 to 8) (size 9 to 14) (size 15 to 20)
#    0.000    0.571    4.286    3.429   10.000    0.000 
#    0.000    0.000    3.143    0.000    0.000    0.000 
#    0.000    0.000    0.000    0.000    0.000    0.000 
#
# Total GULP energy -156617.565191 kJ/mol
# GULP energy per Si atom -5593.484471 kJ/mol
# Density = 2.637950 g / cm^3
# Si number density = 26.439677 Si / 1000 Ang^3
#
#
#
# Elastic Constant Matrix: (Units=GPa)
#
#
# Indices 1 2 3 4 5 6 
#
# 1 110.4324 27.0320 3.8098 0.0000 0.0000 0.0000
# 2 27.0320 95.1911 14.9068 0.0000 0.0000 0.0000
# 3 3.8098 14.9068 70.1924 0.0000 0.0000 0.0000
# 4 0.0000 0.0000 0.0000 41.0061 0.0000 0.0000
# 5 0.0000 0.0000 0.0000 0.0000 34.5421 0.0000
# 6 0.0000 0.0000 0.0000 0.0000 0.0000 62.7741
#
#
#
# Elastic Compliance Matrix: (Units=1/GPa)
#
#
# Indices 1 2 3 4 5 6 
#
# 1 0.009732 -0.002773 0.000061 0.000000 0.000000 0.000000
# 2 -0.002773 0.011657 -0.002325 0.000000 0.000000 0.000000
# 3 0.000061 -0.002325 0.014737 0.000000 0.000000 0.000000
# 4 0.000000 0.000000 0.000000 0.024387 0.000000 0.000000
# 5 0.000000 0.000000 0.000000 0.000000 0.028950 0.000000
# 6 0.000000 0.000000 0.000000 0.000000 0.000000 0.015930
#
#
# Mechanical properties :
#
#
# Convention : Reuss Voigt Hill
#
# Bulk Modulus (GPa) = 38.38642 40.81257 39.59949
# Shear Modulus (GPa) = 40.27338 43.00227 41.63783
#
# Velocity S-wave (km/s) = 3.90708 4.03728 3.97271
# Velocity P-wave (km/s) = 5.90793 6.09938 6.00442
#
# Compressibility (1/GPa) = 0.02605088
#
# Stress axis : x y z
#
# Youngs Moduli (GPa) = 102.75333 85.78678 67.85622
#
# Poissons Ratio (x) = 0.23790 -0.00412
# Poissons Ratio (y) = 0.28495 0.15777
# Poissons Ratio (z) = -0.00624 0.19946
#
# Static dielectric constant tensor:
#      x y z
#    x 2.114420 0.000000 0.000000 
#    y 0.000000 2.128340 0.000000 
#    z 0.000000 0.000000 2.088050 
# 
# From -- ./inp_files/7284.got.cif
#   From: 2010.05.17/outbox.cif.g08.bks.cpg/sg19_4_cif.got.tgz:7284.got - 2010.06.03 22:46:19.
