data_PCOD9315916
_publ_section_title
;
Structure prediction by ZEFSAII (Michael W. Deem and Ramdas Pophale) SiO2 
 PCOD9315916
Probable space group: P 21 21 21
;
_chemical_formula_sum "Si O2"
_cell_formula_units_Z 24
_cell_length_a 18.223762
_cell_length_b 5.218666
_cell_length_c 9.128599
_cell_angle_alpha 90.000000
_cell_angle_beta 90.000000
_cell_angle_gamma 90.000000
_cell_volume 868.163788
_symmetry_space_group_name_H-M "P 21 21 21"
_symmetry_group_IT_number 19
_symmetry_cell_setting 'orthorhombic'
loop_
_space_group_symop_operation_xyz
x,y,z
1/2-x,-y,1/2+z
1/2+x,1/2-y,-z
-x,1/2+y,1/2-z
loop_
_atom_site_type_symbol
_atom_site_label
_atom_site_fract_x
_atom_site_fract_y
_atom_site_fract_z
Si Si1 0.897772 0.430398 0.681526
Si Si2 0.655694 0.179638 0.933925
Si Si3 0.734543 0.454688 0.680486
Si Si4 0.709580 0.150453 0.395435
Si Si5 0.944175 0.772692 0.927997
Si Si6 0.038861 0.512735 0.258139
O O1 0.882187 0.665987 0.564895
O O2 0.815323 0.318969 0.686411
O O3 0.920592 0.515139 0.844708
O O4 0.972168 0.308240 0.621761
O O5 0.674006 0.360687 0.795462
O O6 0.601468 0.970776 0.864406
O O7 0.735002 0.056612 0.959012
O O8 0.708760 0.380442 0.517899
O O9 0.755142 0.730943 0.748824
O O10 0.626128 0.062278 0.372289
O O11 0.942551 0.848544 0.097147
O O12 0.017479 0.798688 0.307076
#
# Coordination Sequence:
#
# PCOD9315916 Si02
#       6
#     4   4   4   4   4   4
#     4  11  27  47  74 113 159 206 258 334 401 478
#     4  12  27  48  78 111 154 207 261 332 391 484
#     4  11  25  48  73 109 154 197 266 319 399 474
#     4  11  27  47  77 110 149 206 262 331 397 484
#     4  11  27  48  73 116 155 210 264 331 406 475
#     4  12  29  52  81 117 159 212 265 327 404 485
#
# _framework density 27.644551
#
# number of rings (size 3 to 8) (size 9 to 14) (size 15 to 20)
#    0.000    0.667    5.000    0.000   14.000    0.000 
#    3.000    0.000    0.000    0.000    0.000    0.000 
#    0.000    0.000    0.000    0.000    0.000    0.000 
#
# Total GULP energy -133950.155633 kJ/mol
# GULP energy per Si atom -5581.256485 kJ/mol
# Density = 2.758163 g / cm^3
# Si number density = 27.644551 Si / 1000 Ang^3
#
#
#
# Elastic Constant Matrix: (Units=GPa)
#
#
# Indices 1 2 3 4 5 6 
#
# 1 150.0233 32.7083 9.7078 0.0000 0.0000 0.0000
# 2 32.7083 71.8176 5.7901 0.0000 0.0000 0.0000
# 3 9.7078 5.7901 95.2874 0.0000 0.0000 0.0000
# 4 0.0000 0.0000 0.0000 15.9827 0.0000 0.0000
# 5 0.0000 0.0000 0.0000 0.0000 38.6851 0.0000
# 6 0.0000 0.0000 0.0000 0.0000 0.0000 44.0939
#
#
#
# Elastic Compliance Matrix: (Units=1/GPa)
#
#
# Indices 1 2 3 4 5 6 
#
# 1 0.007429 -0.003339 -0.000554 0.000000 0.000000 0.000000
# 2 -0.003339 0.015493 -0.000601 0.000000 0.000000 0.000000
# 3 -0.000554 -0.000601 0.010588 0.000000 0.000000 0.000000
# 4 0.000000 0.000000 0.000000 0.062568 0.000000 0.000000
# 5 0.000000 0.000000 0.000000 0.000000 0.025850 0.000000
# 6 0.000000 0.000000 0.000000 0.000000 0.000000 0.022679
#
#
# Mechanical properties :
#
#
# Convention : Reuss Voigt Hill
#
# Bulk Modulus (GPa) = 40.78004 45.94897 43.36451
# Shear Modulus (GPa) = 30.90826 37.68049 34.29437
#
# Velocity S-wave (km/s) = 3.34737 3.69594 3.52596
# Velocity P-wave (km/s) = 5.45192 5.90514 5.68305
#
# Compressibility (1/GPa) = 0.02452180
#
# Stress axis : x y z
#
# Youngs Moduli (GPa) = 134.59952 64.54397 94.45064
#
# Poissons Ratio (x) = 0.21551 0.05233
# Poissons Ratio (y) = 0.44942 0.05679
# Poissons Ratio (z) = 0.07457 0.03881
#
# Static dielectric constant tensor:
#      x y z
#    x 2.218660 0.000000 0.000000 
#    y 0.000000 2.296270 0.000000 
#    z 0.000000 0.000000 2.160330 
# 
# From -- ./inp_files/4096.got.cif
#   From: 2010.05.17/outbox.cif.g08.bks.cpg/sg19_3_cif.got.tgz:4096.got - 2010.06.03 22:46:19.
