data_PCOD9315363
_publ_section_title
;
Structure prediction by ZEFSAII (Michael W. Deem and Ramdas Pophale) SiO2 
 PCOD9315363
Probable space group: P 21 21 21
;
_chemical_formula_sum "Si O2"
_cell_formula_units_Z 20
_cell_length_a 11.315426
_cell_length_b 8.395434
_cell_length_c 8.547490
_cell_angle_alpha 90.000000
_cell_angle_beta 90.000000
_cell_angle_gamma 90.000000
_cell_volume 811.993704
_symmetry_space_group_name_H-M "P 21 21 21"
_symmetry_group_IT_number 19
_symmetry_cell_setting 'orthorhombic'
loop_
_space_group_symop_operation_xyz
x,y,z
1/2-x,-y,1/2+z
1/2+x,1/2-y,-z
-x,1/2+y,1/2-z
loop_
_atom_site_type_symbol
_atom_site_label
_atom_site_fract_x
_atom_site_fract_y
_atom_site_fract_z
Si Si1 0.869990 0.357468 0.315768
Si Si2 0.329683 0.059311 0.342597
Si Si3 0.988675 0.719888 0.739077
Si Si4 0.624685 0.012067 0.737491
Si Si5 0.864974 0.995560 0.590560
O O1 0.814685 0.362658 0.488743
O O2 0.788111 0.474966 0.215017
O O3 0.874679 0.180060 0.247052
O O4 0.002529 0.421755 0.324577
O O5 0.388097 0.182903 0.216799
O O6 0.429661 0.919782 0.361834
O O7 0.027430 0.622732 0.894126
O O8 0.894568 0.860791 0.720549
O O9 0.737138 0.060308 0.635756
O O10 0.636822 0.070844 0.916640
#
# Coordination Sequence:
#
# PCOD9315363 Si02
#       5
#     4   4   4   4   4
#     4  12  30  47  73 110 144 191 246 291 361 433
#     4  11  26  47  77 103 149 187 245 297 359 427
#     4  10  24  46  76 102 140 198 234 296 362 414
#     4  12  30  47  73 110 144 191 246 291 361 433
#     4  11  26  47  77 103 149 187 245 297 359 427
#
# _framework density 24.630735000000001
#
# number of rings (size 3 to 8) (size 9 to 14) (size 15 to 20)
#    0.000    0.800    4.000    0.000   16.800    0.000 
#    0.000    0.000    0.000    0.000    0.000    0.000 
#    0.000    0.000    0.000    0.000    0.000    0.000 
#
# Total GULP energy -111647.321652 kJ/mol
# GULP energy per Si atom -5582.366083 kJ/mol
# Density = 2.457467 g / cm^3
# Si number density = 24.630735 Si / 1000 Ang^3
#
#
#
# Elastic Constant Matrix: (Units=GPa)
#
#
# Indices 1 2 3 4 5 6 
#
# 1 122.8027 29.9102 45.5491 0.0000 0.0000 0.0000
# 2 29.9102 64.1729 -2.6145 0.0000 0.0000 0.0000
# 3 45.5491 -2.6145 74.3095 0.0000 0.0000 0.0000
# 4 0.0000 0.0000 0.0000 27.0876 0.0000 0.0000
# 5 0.0000 0.0000 0.0000 0.0000 37.4054 0.0000
# 6 0.0000 0.0000 0.0000 0.0000 0.0000 54.7457
#
#
#
# Elastic Compliance Matrix: (Units=1/GPa)
#
#
# Indices 1 2 3 4 5 6 
#
# 1 0.012597 -0.006195 -0.007939 0.000000 0.000000 0.000000
# 2 -0.006195 0.018652 0.004453 0.000000 0.000000 0.000000
# 3 -0.007939 0.004453 0.018480 0.000000 0.000000 0.000000
# 4 0.000000 0.000000 0.000000 0.036917 0.000000 0.000000
# 5 0.000000 0.000000 0.000000 0.000000 0.026734 0.000000
# 6 0.000000 0.000000 0.000000 0.000000 0.000000 0.018266
#
#
# Mechanical properties :
#
#
# Convention : Reuss Voigt Hill
#
# Bulk Modulus (GPa) = 32.92992 45.21940 39.07466
# Shear Modulus (GPa) = 31.03085 36.41045 33.72065
#
# Velocity S-wave (km/s) = 3.55328 3.84898 3.70408
# Velocity P-wave (km/s) = 5.49844 6.17670 5.84741
#
# Compressibility (1/GPa) = 0.03036752
#
# Stress axis : x y z
#
# Youngs Moduli (GPa) = 79.38587 53.61479 54.11138
#
# Poissons Ratio (x) = 0.33212 0.42961
# Poissons Ratio (y) = 0.49177 -0.24098
# Poissons Ratio (z) = 0.63027 -0.23876
#
# Static dielectric constant tensor:
#      x y z
#    x 1.900900 0.000000 0.000000 
#    y 0.000000 2.057030 0.000000 
#    z 0.000000 0.000000 1.737440 
# 
# From -- ./inp_files/2593.got.cif
#   From: 2010.05.17/outbox.cif.g08.bks.cpg/sg19_2_cif.got.tgz:2593.got - 2010.06.03 22:46:19.
