data_PCOD9315603
_publ_section_title
;
Structure prediction by ZEFSAII (Michael W. Deem and Ramdas Pophale) SiO2 
 PCOD9315603
Probable space group: P 21 21 21
;
_chemical_formula_sum "Si O2"
_cell_formula_units_Z 24
_cell_length_a 5.704954
_cell_length_b 9.625094
_cell_length_c 16.312972
_cell_angle_alpha 90.000000
_cell_angle_beta 90.000000
_cell_angle_gamma 90.000000
_cell_volume 895.757014
_symmetry_space_group_name_H-M "P 21 21 21"
_symmetry_group_IT_number 19
_symmetry_cell_setting 'orthorhombic'
loop_
_space_group_symop_operation_xyz
x,y,z
1/2-x,-y,1/2+z
1/2+x,1/2-y,-z
-x,1/2+y,1/2-z
loop_
_atom_site_type_symbol
_atom_site_label
_atom_site_fract_x
_atom_site_fract_y
_atom_site_fract_z
Si Si1 0.424041 0.255814 0.889415
Si Si2 0.535956 0.269421 0.413455
Si Si3 0.921437 0.165639 0.293876
Si Si4 0.422858 0.173278 0.140730
Si Si5 0.298114 0.949983 0.936545
Si Si6 0.083556 0.573968 0.767564
O O1 0.261666 0.246170 0.644076
O O2 0.463248 0.252486 0.790109
O O3 0.367984 0.108988 0.930065
O O4 0.180075 0.340617 0.901602
O O5 0.856055 0.156258 0.649221
O O6 0.463460 0.114237 0.441907
O O7 0.572998 0.368007 0.490670
O O8 0.775234 0.030893 0.266182
O O9 0.462857 0.311988 0.197020
O O10 0.125511 0.105262 0.348133
O O11 0.184857 0.189032 0.088099
O O12 0.393142 0.038070 0.198436
#
# Coordination Sequence:
#
# PCOD9315603 Si02
#       6
#     4   4   4   4   4   4
#     4  11  25  42  74 100 144 195 254 310 367 444
#     4  12  25  45  68 110 148 201 242 321 381 466
#     4  11  24  42  68 102 137 196 249 308 363 453
#     4  11  24  42  69 108 141 191 253 315 366 441
#     4  12  26  44  69 106 156 194 251 314 391 454
#     4  11  22  43  72 104 146 191 263 306 374 452
#
# _framework density 26.792978999999999
#
# number of rings (size 3 to 8) (size 9 to 14) (size 15 to 20)
#    0.000    0.667    6.667    2.000    2.333    0.000 
#    3.000    3.333    0.000    0.000    0.000    0.000 
#    0.000    0.000    0.000    0.000    0.000    0.000 
#
# Total GULP energy -134123.093136 kJ/mol
# GULP energy per Si atom -5588.462214 kJ/mol
# Density = 2.673200 g / cm^3
# Si number density = 26.792979 Si / 1000 Ang^3
#
#
#
# Elastic Constant Matrix: (Units=GPa)
#
#
# Indices 1 2 3 4 5 6 
#
# 1 120.7825 31.5314 27.4588 0.0000 0.0000 0.0000
# 2 31.5314 123.4185 14.5113 0.0000 0.0000 0.0000
# 3 27.4588 14.5113 128.1245 0.0000 0.0000 0.0000
# 4 0.0000 0.0000 0.0000 47.9782 0.0000 0.0000
# 5 0.0000 0.0000 0.0000 0.0000 30.7838 0.0000
# 6 0.0000 0.0000 0.0000 0.0000 0.0000 37.3033
#
#
#
# Elastic Compliance Matrix: (Units=1/GPa)
#
#
# Indices 1 2 3 4 5 6 
#
# 1 0.009237 -0.002156 -0.001735 0.000000 0.000000 0.000000
# 2 -0.002156 0.008715 -0.000525 0.000000 0.000000 0.000000
# 3 -0.001735 -0.000525 0.008236 0.000000 0.000000 0.000000
# 4 0.000000 0.000000 0.000000 0.020843 0.000000 0.000000
# 5 0.000000 0.000000 0.000000 0.000000 0.032485 0.000000
# 6 0.000000 0.000000 0.000000 0.000000 0.000000 0.026807
#
#
# Mechanical properties :
#
#
# Convention : Reuss Voigt Hill
#
# Bulk Modulus (GPa) = 57.61841 57.70316 57.66079
# Shear Modulus (GPa) = 41.34274 43.13467 42.23871
#
# Velocity S-wave (km/s) = 3.93242 4.01674 3.97480
# Velocity P-wave (km/s) = 6.49387 6.56473 6.52939
#
# Compressibility (1/GPa) = 0.01735556
#
# Stress axis : x y z
#
# Youngs Moduli (GPa) = 108.26431 114.74454 121.41387
#
# Poissons Ratio (x) = 0.24736 0.21070
# Poissons Ratio (y) = 0.23339 0.06375
# Poissons Ratio (z) = 0.18788 0.06025
#
# Static dielectric constant tensor:
#      x y z
#    x 2.244720 0.000000 0.000000 
#    y 0.000000 2.121760 0.000000 
#    z 0.000000 0.000000 2.072100 
# 
# From -- ./inp_files/6871.got.cif
#   From: 2010.05.17/outbox.cif.g08.bks.cpg/sg19_4_cif.got.tgz:6871.got - 2010.06.03 22:46:19.
