data_PCOD9315002
_publ_section_title
;
Structure prediction by ZEFSAII (Michael W. Deem and Ramdas Pophale) SiO2 
 PCOD9315002
Probable space group: P 21 21 21
;
_chemical_formula_sum "Si O2"
_cell_formula_units_Z 28
_cell_length_a 13.721827
_cell_length_b 17.238847
_cell_length_c 5.424860
_cell_angle_alpha 90.000000
_cell_angle_beta 90.000000
_cell_angle_gamma 90.000000
_cell_volume 1283.242367
_symmetry_space_group_name_H-M "P 21 21 21"
_symmetry_group_IT_number 19
_symmetry_cell_setting 'orthorhombic'
loop_
_space_group_symop_operation_xyz
x,y,z
1/2-x,-y,1/2+z
1/2+x,1/2-y,-z
-x,1/2+y,1/2-z
loop_
_atom_site_type_symbol
_atom_site_label
_atom_site_fract_x
_atom_site_fract_y
_atom_site_fract_z
Si Si1 0.777808 0.718018 0.252445
Si Si2 0.439859 0.163228 0.172314
Si Si3 0.651318 0.202136 0.254282
Si Si4 0.306193 0.519968 0.221204
Si Si5 0.628607 0.567741 0.724521
Si Si6 0.976165 0.511260 0.621287
Si Si7 0.175071 0.078284 0.529877
O O1 0.662228 0.702654 0.269446
O O2 0.808423 0.754950 0.512406
O O3 0.805578 0.768827 0.013203
O O4 0.834782 0.637451 0.195796
O O5 0.534169 0.210529 0.247520
O O6 0.449859 0.077278 0.291493
O O7 0.434506 0.137193 0.885770
O O8 0.672946 0.110710 0.234137
O O9 0.257138 0.489153 0.472196
O O10 0.410029 0.478793 0.167782
O O11 0.687145 0.512372 0.535092
O O12 0.719538 0.602695 0.867769
O O13 0.557488 0.502824 0.841614
O O14 0.911325 0.573173 0.770360
#
# Coordination Sequence:
#
# PCOD9315002 Si02
#       7
#     4   4   4   4   4   4   4
#     4  12  25  45  68 103 149 181 228 288 353 442
#     4  10  24  43  69  96 133 196 228 278 353 418
#     4  11  28  47  71  99 138 192 236 282 356 433
#     4  11  26  51  74  98 132 187 253 301 338 403
#     4  11  19  37  70 101 140 179 233 280 347 432
#     4  10  23  39  72  99 139 178 234 293 351 412
#     4  11  21  36  64 108 139 173 218 290 360 410
#
# _framework density 21.819728000000001
#
# number of rings (size 3 to 8) (size 9 to 14) (size 15 to 20)
#    0.000    1.143    2.857    2.571   12.000    0.000 
#    7.714    0.000    0.000    0.000    0.000    0.000 
#    0.000    0.000    0.000    0.000    0.000    0.000 
#
# Total GULP energy -156162.091715 kJ/mol
# GULP energy per Si atom -5577.217561 kJ/mol
# Density = 2.177007 g / cm^3
# Si number density = 21.819728 Si / 1000 Ang^3
#
#
#
# Elastic Constant Matrix: (Units=GPa)
#
#
# Indices 1 2 3 4 5 6 
#
# 1 139.0512 31.2366 50.8863 0.0000 0.0000 0.0000
# 2 31.2366 49.9879 26.0556 0.0000 0.0000 0.0000
# 3 50.8863 26.0556 104.7008 0.0000 0.0000 0.0000
# 4 0.0000 0.0000 0.0000 49.7059 0.0000 0.0000
# 5 0.0000 0.0000 0.0000 0.0000 27.3885 0.0000
# 6 0.0000 0.0000 0.0000 0.0000 0.0000 29.1049
#
#
#
# Elastic Compliance Matrix: (Units=1/GPa)
#
#
# Indices 1 2 3 4 5 6 
#
# 1 0.009399 -0.004013 -0.003570 0.000000 0.000000 0.000000
# 2 -0.004013 0.024700 -0.004196 0.000000 0.000000 0.000000
# 3 -0.003570 -0.004196 0.012330 0.000000 0.000000 0.000000
# 4 0.000000 0.000000 0.000000 0.020118 0.000000 0.000000
# 5 0.000000 0.000000 0.000000 0.000000 0.036512 0.000000
# 6 0.000000 0.000000 0.000000 0.000000 0.000000 0.034358
#
#
# Mechanical properties :
#
#
# Convention : Reuss Voigt Hill
#
# Bulk Modulus (GPa) = 43.72243 56.67743 50.19993
# Shear Modulus (GPa) = 29.65608 33.61061 31.63334
#
# Velocity S-wave (km/s) = 3.69065 3.92902 3.81170
# Velocity P-wave (km/s) = 6.18407 6.82749 6.51373
#
# Compressibility (1/GPa) = 0.02287156
#
# Stress axis : x y z
#
# Youngs Moduli (GPa) = 106.39020 40.48626 81.10156
#
# Poissons Ratio (x) = 0.16247 0.28950
# Poissons Ratio (y) = 0.42693 0.34033
# Poissons Ratio (z) = 0.37977 0.16990
#
# Static dielectric constant tensor:
#      x y z
#    x 1.795040 0.000000 0.000000 
#    y 0.000000 1.804350 0.000000 
#    z 0.000000 0.000000 2.196230 
# 
# From -- ./inp_files/1062.got.cif
#   From: 2010.05.17/outbox.cif.g08.bks.cpg/sg19_1_cif.got.tgz:1062.got - 2010.06.03 22:46:19.
