data_PCOD9315182
_publ_section_title
;
Structure prediction by ZEFSAII (Michael W. Deem and Ramdas Pophale) SiO2 
 PCOD9315182
Probable space group: P 21 21 21
;
_chemical_formula_sum "Si O2"
_cell_formula_units_Z 32
_cell_length_a 9.203373
_cell_length_b 14.105035
_cell_length_c 11.191240
_cell_angle_alpha 90.000000
_cell_angle_beta 90.000000
_cell_angle_gamma 90.000000
_cell_volume 1452.778491
_symmetry_space_group_name_H-M "P 21 21 21"
_symmetry_group_IT_number 19
_symmetry_cell_setting 'orthorhombic'
loop_
_space_group_symop_operation_xyz
x,y,z
1/2-x,-y,1/2+z
1/2+x,1/2-y,-z
-x,1/2+y,1/2-z
loop_
_atom_site_type_symbol
_atom_site_label
_atom_site_fract_x
_atom_site_fract_y
_atom_site_fract_z
Si Si1 0.541956 0.560194 0.808970
Si Si2 0.675930 0.998823 0.392327
Si Si3 0.147904 0.118517 0.591788
Si Si4 0.824560 0.278780 0.949443
Si Si5 0.509072 0.055798 0.968222
Si Si6 0.991853 0.624357 0.442078
Si Si7 0.884131 0.147623 0.724607
Si Si8 0.174719 0.319423 0.474264
O O1 0.697074 0.580402 0.867718
O O2 0.537554 0.577804 0.668013
O O3 0.507306 0.448309 0.831083
O O4 0.434816 0.631977 0.879165
O O5 0.535877 0.948871 0.452031
O O6 0.677808 0.955856 0.260432
O O7 0.818475 0.960314 0.460975
O O8 0.672120 0.110081 0.412651
O O9 0.151824 0.213305 0.514261
O O10 0.055518 0.141076 0.710498
O O11 0.066711 0.038088 0.516728
O O12 0.664816 0.325497 0.960279
O O13 0.831467 0.219678 0.826085
O O14 0.946616 0.360284 0.950683
O O15 0.883362 0.204879 0.049952
O O16 0.825652 0.177153 0.596281
#
# Coordination Sequence:
#
# PCOD9315182 Si02
#       8
#     4   4   4   4   4   4   4   4
#     4  11  26  44  69 106 143 190 231 295 353 415
#     4  10  23  47  71  97 138 184 234 289 346 424
#     4  12  27  44  70 106 142 187 234 286 355 425
#     4  11  24  43  72 103 139 178 235 294 345 424
#     4  12  25  45  72 101 140 188 238 285 350 426
#     4  10  23  45  70 103 136 182 232 291 347 414
#     4  11  24  45  69 101 139 184 232 287 358 414
#     4  11  24  47  69 101 141 181 238 291 354 420
#
# _framework density 22.026758000000001
#
# number of rings (size 3 to 8) (size 9 to 14) (size 15 to 20)
#    0.000    1.000    3.750    2.250    5.250    1.000 
#    0.000    0.000    0.000    0.000    0.000    0.000 
#    0.000    0.000    0.000    0.000    0.000    0.000 
#
# Total GULP energy -178768.041113 kJ/mol
# GULP energy per Si atom -5586.501285 kJ/mol
# Density = 2.197662 g / cm^3
# Si number density = 22.026758 Si / 1000 Ang^3
#
#
#
# Elastic Constant Matrix: (Units=GPa)
#
#
# Indices 1 2 3 4 5 6 
#
# 1 66.3474 3.3976 2.9791 0.0000 0.0000 0.0000
# 2 3.3976 135.4762 23.8716 0.0000 0.0000 0.0000
# 3 2.9791 23.8716 55.9776 0.0000 0.0000 0.0000
# 4 0.0000 0.0000 0.0000 31.8427 0.0000 0.0000
# 5 0.0000 0.0000 0.0000 0.0000 29.0806 0.0000
# 6 0.0000 0.0000 0.0000 0.0000 0.0000 37.1899
#
#
#
# Elastic Compliance Matrix: (Units=1/GPa)
#
#
# Indices 1 2 3 4 5 6 
#
# 1 0.015117 -0.000257 -0.000695 0.000000 0.000000 0.000000
# 2 -0.000257 0.007985 -0.003392 0.000000 0.000000 0.000000
# 3 -0.000695 -0.003392 0.019348 0.000000 0.000000 0.000000
# 4 0.000000 0.000000 0.000000 0.031404 0.000000 0.000000
# 5 0.000000 0.000000 0.000000 0.000000 0.034387 0.000000
# 6 0.000000 0.000000 0.000000 0.000000 0.000000 0.026889
#
#
# Mechanical properties :
#
#
# Convention : Reuss Voigt Hill
#
# Bulk Modulus (GPa) = 29.61837 35.36641 32.49239
# Shear Modulus (GPa) = 32.24323 34.79284 33.51803
#
# Velocity S-wave (km/s) = 3.83014 3.97869 3.90512
# Velocity P-wave (km/s) = 5.74767 6.09899 5.92593
#
# Compressibility (1/GPa) = 0.03376283
#
# Stress axis : x y z
#
# Youngs Moduli (GPa) = 66.15275 125.22788 51.68583
#
# Poissons Ratio (x) = 0.03214 0.03592
# Poissons Ratio (y) = 0.01698 0.17530
# Poissons Ratio (z) = 0.04598 0.42474
#
# Static dielectric constant tensor:
#      x y z
#    x 1.846780 0.000000 0.000000 
#    y 0.000000 1.814690 0.000000 
#    z 0.000000 0.000000 1.859820 
# 
# From -- ./inp_files/4732.got.cif
#   From: 2010.05.17/outbox.cif.g08.bks.cpg/sg19_3_cif.got.tgz:4732.got - 2010.06.03 22:46:19.
