data_PCOD9315783
_publ_section_title
;
Structure prediction by ZEFSAII (Michael W. Deem and Ramdas Pophale) SiO2 
 PCOD9315783
Probable space group: P 21 21 21
;
_chemical_formula_sum "Si O2"
_cell_formula_units_Z 28
_cell_length_a 9.266718
_cell_length_b 24.063465
_cell_length_c 5.127743
_cell_angle_alpha 90.000000
_cell_angle_beta 90.000000
_cell_angle_gamma 90.000000
_cell_volume 1143.432049
_symmetry_space_group_name_H-M "P 21 21 21"
_symmetry_group_IT_number 19
_symmetry_cell_setting 'orthorhombic'
loop_
_space_group_symop_operation_xyz
x,y,z
1/2-x,-y,1/2+z
1/2+x,1/2-y,-z
-x,1/2+y,1/2-z
loop_
_atom_site_type_symbol
_atom_site_label
_atom_site_fract_x
_atom_site_fract_y
_atom_site_fract_z
Si Si1 0.648065 0.510746 0.184792
Si Si2 0.865797 0.644312 0.485542
Si Si3 0.825407 0.154143 0.750991
Si Si4 0.383228 0.733191 0.468516
Si Si5 0.177222 0.527475 0.810450
Si Si6 0.429214 0.238781 0.531915
Si Si7 0.278887 0.121324 0.506704
O O1 0.754890 0.506282 0.433075
O O2 0.493420 0.482316 0.243076
O O3 0.615524 0.575310 0.109766
O O4 0.806060 0.707432 0.493320
O O5 0.854479 0.621149 0.195646
O O6 0.026863 0.647094 0.588773
O O7 0.773363 0.611352 0.700495
O O8 0.706497 0.180186 0.942826
O O9 0.792091 0.093044 0.646427
O O10 0.854138 0.203076 0.540989
O O11 0.441898 0.732819 0.177228
O O12 0.511050 0.738886 0.677815
O O13 0.271706 0.506098 0.565258
O O14 0.339409 0.183023 0.496633
#
# Coordination Sequence:
#
# PCOD9315783 Si02
#       7
#     4   4   4   4   4   4   4
#     4  12  27  50  79 107 148 210 266 315 372 456
#     4  11  24  44  69 111 138 188 234 300 370 442
#     4  11  26  46  75  98 155 188 240 303 375 449
#     4  11  25  41  67 104 141 180 229 282 372 441
#     4  12  30  51  75 114 154 204 260 320 393 447
#     4  11  26  42  70 106 139 187 229 295 365 436
#     4  12  24  44  73 102 145 175 256 295 359 433
#
# _framework density 24.487682
#
# number of rings (size 3 to 8) (size 9 to 14) (size 15 to 20)
#    0.000    0.571    1.429    6.000    6.000    4.571 
#    0.000    0.000    0.000    0.000    0.000    0.000 
#    0.000    0.000    0.000    0.000    0.000    0.000 
#
# Total GULP energy -156815.192240 kJ/mol
# GULP energy per Si atom -5600.542580 kJ/mol
# Density = 2.443195 g / cm^3
# Si number density = 24.487682 Si / 1000 Ang^3
#
#
#
# Elastic Constant Matrix: (Units=GPa)
#
#
# Indices 1 2 3 4 5 6 
#
# 1 76.6328 48.2148 34.1565 0.0000 0.0000 0.0000
# 2 48.2148 168.5119 27.2209 0.0000 0.0000 0.0000
# 3 34.1565 27.2209 83.5800 0.0000 0.0000 0.0000
# 4 0.0000 0.0000 0.0000 36.3004 0.0000 0.0000
# 5 0.0000 0.0000 0.0000 0.0000 38.4412 0.0000
# 6 0.0000 0.0000 0.0000 0.0000 0.0000 33.4176
#
#
#
# Elastic Compliance Matrix: (Units=1/GPa)
#
#
# Indices 1 2 3 4 5 6 
#
# 1 0.018499 -0.004298 -0.006160 0.000000 0.000000 0.000000
# 2 -0.004298 0.007262 -0.000609 0.000000 0.000000 0.000000
# 3 -0.006160 -0.000609 0.014680 0.000000 0.000000 0.000000
# 4 0.000000 0.000000 0.000000 0.027548 0.000000 0.000000
# 5 0.000000 0.000000 0.000000 0.000000 0.026014 0.000000
# 6 0.000000 0.000000 0.000000 0.000000 0.000000 0.029924
#
#
# Mechanical properties :
#
#
# Convention : Reuss Voigt Hill
#
# Bulk Modulus (GPa) = 54.62123 60.87879 57.75001
# Shear Modulus (GPa) = 32.85921 36.24066 34.54994
#
# Velocity S-wave (km/s) = 3.66712 3.85119 3.76028
# Velocity P-wave (km/s) = 6.34700 6.68510 6.51824
#
# Compressibility (1/GPa) = 0.01830790
#
# Stress axis : x y z
#
# Youngs Moduli (GPa) = 54.05684 137.69626 68.11814
#
# Poissons Ratio (x) = 0.59180 0.41962
# Poissons Ratio (y) = 0.23233 0.04147
# Poissons Ratio (z) = 0.33300 0.08384
#
# Static dielectric constant tensor:
#      x y z
#    x 1.965560 0.000000 0.000000 
#    y 0.000000 2.029000 0.000000 
#    z 0.000000 0.000000 1.952040 
# 
# From -- ./inp_files/530.got.cif
#   From: 2010.05.17/outbox.cif.g08.bks.cpg/sg19_1_cif.got.tgz:530.got - 2010.06.03 22:46:19.
