data_PCOD9315411
_publ_section_title
;
Structure prediction by ZEFSAII (Michael W. Deem and Ramdas Pophale) SiO2 
 PCOD9315411
Probable space group: P 21 21 21
;
_chemical_formula_sum "Si O2"
_cell_formula_units_Z 32
_cell_length_a 15.067955
_cell_length_b 15.744292
_cell_length_c 5.558375
_cell_angle_alpha 90.000000
_cell_angle_beta 90.000000
_cell_angle_gamma 90.000000
_cell_volume 1318.637110
_symmetry_space_group_name_H-M "P 21 21 21"
_symmetry_group_IT_number 19
_symmetry_cell_setting 'orthorhombic'
loop_
_space_group_symop_operation_xyz
x,y,z
1/2-x,-y,1/2+z
1/2+x,1/2-y,-z
-x,1/2+y,1/2-z
loop_
_atom_site_type_symbol
_atom_site_label
_atom_site_fract_x
_atom_site_fract_y
_atom_site_fract_z
Si Si1 0.890664 0.539509 0.546902
Si Si2 0.825858 0.194160 0.369269
Si Si3 0.342112 0.224164 0.219658
Si Si4 0.088973 0.392247 0.004679
Si Si5 0.815993 0.939704 0.997246
Si Si6 0.176704 0.229263 0.992869
Si Si7 0.088213 0.604338 0.504564
Si Si8 0.610392 0.554211 0.540875
O O1 0.847983 0.632652 0.542892
O O2 0.862713 0.498476 0.801356
O O3 0.997431 0.555332 0.550654
O O4 0.866741 0.487177 0.301024
O O5 0.863370 0.278982 0.500203
O O6 0.774731 0.112884 0.485604
O O7 0.749940 0.230073 0.188228
O O8 0.910693 0.147763 0.255940
O O9 0.359476 0.148744 0.038826
O O10 0.235311 0.235606 0.234191
O O11 0.391011 0.312419 0.160564
O O12 0.131180 0.416796 0.748150
O O13 0.091496 0.289511 0.997489
O O14 0.995419 0.436599 0.032940
O O15 0.140586 0.415810 0.247878
O O16 0.826484 0.041744 0.991806
#
# Coordination Sequence:
#
# PCOD9315411 Si02
#       8
#     4   4   4   4   4   4   4   4
#     4  12  28  48  75 105 141 194 245 305 353 440
#     4  10  25  43  73 108 148 191 240 305 365 447
#     4  11  26  46  71 104 145 194 239 303 365 437
#     4  11  21  46  68 101 142 182 228 293 358 430
#     4  11  23  41  72 102 143 182 228 290 361 427
#     4  10  25  47  72 103 139 193 244 291 368 428
#     4  11  25  44  71 109 146 181 246 297 367 434
#     4  12  27  47  72 104 148 187 244 302 365 421
#
# _framework density 24.267481
#
# number of rings (size 3 to 8) (size 9 to 14) (size 15 to 20)
#    0.000    1.000    3.750    0.750   10.500    1.000 
#    2.250    0.000    0.000    0.000    0.000    0.000 
#    0.000    0.000    0.000    0.000    0.000    0.000 
#
# Total GULP energy -178353.097912 kJ/mol
# GULP energy per Si atom -5573.534310 kJ/mol
# Density = 2.421225 g / cm^3
# Si number density = 24.267481 Si / 1000 Ang^3
#
#
#
# Elastic Constant Matrix: (Units=GPa)
#
#
# Indices 1 2 3 4 5 6 
#
# 1 44.0461 -0.3192 13.5430 0.0000 0.0000 0.0000
# 2 -0.3192 137.6066 48.4365 0.0000 0.0000 0.0000
# 3 13.5430 48.4365 101.1812 0.0000 0.0000 0.0000
# 4 0.0000 0.0000 0.0000 40.0267 0.0000 0.0000
# 5 0.0000 0.0000 0.0000 0.0000 11.0212 0.0000
# 6 0.0000 0.0000 0.0000 0.0000 0.0000 25.2768
#
#
#
# Elastic Compliance Matrix: (Units=1/GPa)
#
#
# Indices 1 2 3 4 5 6 
#
# 1 0.023907 0.001421 -0.003880 0.000000 0.000000 0.000000
# 2 0.001421 0.008824 -0.004415 0.000000 0.000000 0.000000
# 3 -0.003880 -0.004415 0.012516 0.000000 0.000000 0.000000
# 4 0.000000 0.000000 0.000000 0.024983 0.000000 0.000000
# 5 0.000000 0.000000 0.000000 0.000000 0.090734 0.000000
# 6 0.000000 0.000000 0.000000 0.000000 0.000000 0.039562
#
#
# Mechanical properties :
#
#
# Convention : Reuss Voigt Hill
#
# Bulk Modulus (GPa) = 31.74602 45.12828 38.43715
# Shear Modulus (GPa) = 22.24461 30.00985 26.12723
#
# Velocity S-wave (km/s) = 3.03090 3.52039 3.28477
# Velocity P-wave (km/s) = 5.03573 5.92965 5.50088
#
# Compressibility (1/GPa) = 0.03150001
#
# Stress axis : x y z
#
# Youngs Moduli (GPa) = 41.82899 113.32389 79.89828
#
# Poissons Ratio (x) = -0.16107 0.31003
# Poissons Ratio (y) = -0.05945 0.35271
# Poissons Ratio (z) = 0.16231 0.50027
#
# Static dielectric constant tensor:
#      x y z
#    x 1.955290 0.000000 0.000000 
#    y 0.000000 1.984190 0.000000 
#    z 0.000000 0.000000 2.191320 
# 
# From -- ./inp_files/1812.got.cif
#   From: 2010.05.17/outbox.cif.g08.bks.cpg/sg19_1_cif.got.tgz:1812.got - 2010.06.03 22:46:19.
