data_PCOD9315180
_publ_section_title
;
Structure prediction by ZEFSAII (Michael W. Deem and Ramdas Pophale) SiO2 
 PCOD9315180
Probable space group: P 21 21 21
;
_chemical_formula_sum "Si O2"
_cell_formula_units_Z 32
_cell_length_a 11.919900
_cell_length_b 5.525263
_cell_length_c 19.445927
_cell_angle_alpha 90.000000
_cell_angle_beta 90.000000
_cell_angle_gamma 90.000000
_cell_volume 1280.720078
_symmetry_space_group_name_H-M "P 21 21 21"
_symmetry_group_IT_number 19
_symmetry_cell_setting 'orthorhombic'
loop_
_space_group_symop_operation_xyz
x,y,z
1/2-x,-y,1/2+z
1/2+x,1/2-y,-z
-x,1/2+y,1/2-z
loop_
_atom_site_type_symbol
_atom_site_label
_atom_site_fract_x
_atom_site_fract_y
_atom_site_fract_z
Si Si1 0.979166 0.640795 0.207938
Si Si2 0.634155 0.879191 0.301799
Si Si3 0.296235 0.721720 0.007371
Si Si4 0.648861 0.069489 0.893448
Si Si5 0.721515 0.548038 0.622663
Si Si6 0.925886 0.335335 0.664007
Si Si7 0.049157 0.977012 0.585634
Si Si8 0.041018 0.643509 0.450859
O O1 0.855616 0.594302 0.177345
O O2 0.993464 0.901258 0.244939
O O3 0.060901 0.615296 0.141608
O O4 0.754136 0.900551 0.337257
O O5 0.637042 0.809791 0.223086
O O6 0.570431 0.677485 0.346737
O O7 0.550741 0.104306 0.310433
O O8 0.210736 0.527130 0.038074
O O9 0.334356 0.885196 0.070827
O O10 0.259362 0.889574 0.945623
O O11 0.413409 0.605592 0.980541
O O12 0.574407 0.306240 0.911157
O O13 0.847482 0.568315 0.650406
O O14 0.644027 0.769250 0.598204
O O15 0.949613 0.163495 0.599497
O O16 0.032177 0.813457 0.518358
#
# Coordination Sequence:
#
# PCOD9315180 Si02
#       8
#     4   4   4   4   4   4   4   4
#     4  11  27  51  77 110 152 200 255 310 378 453
#     4  12  25  44  67 104 136 189 240 287 367 432
#     4  11  23  45  70 103 139 183 239 297 372 437
#     4  11  24  46  75 105 144 195 238 310 374 450
#     4  10  26  43  70 105 136 189 241 306 372 434
#     4  12  24  44  68  95 141 183 234 301 348 441
#     4  11  22  44  66 100 138 177 237 288 363 432
#     4  10  23  45  69 104 138 176 236 301 366 447
#
# _framework density 24.985942999999999
#
# number of rings (size 3 to 8) (size 9 to 14) (size 15 to 20)
#    0.000    1.000    3.750    1.500    3.500    6.000 
#    4.500    0.000    0.000    0.000    0.000    0.000 
#    0.000    0.000    0.000    0.000    0.000    0.000 
#
# Total GULP energy -179001.512526 kJ/mol
# GULP energy per Si atom -5593.797266 kJ/mol
# Density = 2.492907 g / cm^3
# Si number density = 24.985943 Si / 1000 Ang^3
#
#
#
# Elastic Constant Matrix: (Units=GPa)
#
#
# Indices 1 2 3 4 5 6 
#
# 1 120.3604 7.0932 16.7251 0.0000 0.0000 0.0000
# 2 7.0932 45.7958 13.5965 0.0000 0.0000 0.0000
# 3 16.7251 13.5965 62.8642 0.0000 0.0000 0.0000
# 4 0.0000 0.0000 0.0000 30.8206 0.0000 0.0000
# 5 0.0000 0.0000 0.0000 0.0000 29.3547 0.0000
# 6 0.0000 0.0000 0.0000 0.0000 0.0000 11.1521
#
#
#
# Elastic Compliance Matrix: (Units=1/GPa)
#
#
# Indices 1 2 3 4 5 6 
#
# 1 0.008648 -0.000701 -0.002149 0.000000 0.000000 0.000000
# 2 -0.000701 0.023391 -0.004873 0.000000 0.000000 0.000000
# 3 -0.002149 -0.004873 0.017533 0.000000 0.000000 0.000000
# 4 0.000000 0.000000 0.000000 0.032446 0.000000 0.000000
# 5 0.000000 0.000000 0.000000 0.000000 0.034066 0.000000
# 6 0.000000 0.000000 0.000000 0.000000 0.000000 0.089669
#
#
# Mechanical properties :
#
#
# Convention : Reuss Voigt Hill
#
# Bulk Modulus (GPa) = 29.30291 33.76110 31.53201
# Shear Modulus (GPa) = 21.49841 27.03920 24.26880
#
# Velocity S-wave (km/s) = 2.93647 3.29321 3.11995
# Velocity P-wave (km/s) = 4.82187 5.29166 5.06222
#
# Compressibility (1/GPa) = 0.03412630
#
# Stress axis : x y z
#
# Youngs Moduli (GPa) = 115.62880 42.75088 57.03542
#
# Poissons Ratio (x) = 0.02999 0.12258
# Poissons Ratio (y) = 0.08111 0.27791
# Poissons Ratio (z) = 0.24851 0.20831
#
# Static dielectric constant tensor:
#      x y z
#    x 1.962860 0.000000 0.000000 
#    y 0.000000 1.996000 0.000000 
#    z 0.000000 0.000000 1.963370 
# 
# From -- ./inp_files/7146.got.cif
#   From: 2010.05.17/outbox.cif.g08.bks.cpg/sg19_4_cif.got.tgz:7146.got - 2010.06.03 22:46:19.
