data_PCOD9315676
_publ_section_title
;
Structure prediction by ZEFSAII (Michael W. Deem and Ramdas Pophale) SiO2 
 PCOD9315676
Probable space group: P 21 21 21
;
_chemical_formula_sum "Si O2"
_cell_formula_units_Z 32
_cell_length_a 11.533402
_cell_length_b 5.387451
_cell_length_c 20.806930
_cell_angle_alpha 90.000000
_cell_angle_beta 90.000000
_cell_angle_gamma 90.000000
_cell_volume 1292.851873
_symmetry_space_group_name_H-M "P 21 21 21"
_symmetry_group_IT_number 19
_symmetry_cell_setting 'orthorhombic'
loop_
_space_group_symop_operation_xyz
x,y,z
1/2-x,-y,1/2+z
1/2+x,1/2-y,-z
-x,1/2+y,1/2-z
loop_
_atom_site_type_symbol
_atom_site_label
_atom_site_fract_x
_atom_site_fract_y
_atom_site_fract_z
Si Si1 0.485802 0.439115 0.790662
Si Si2 0.216135 0.930045 0.963595
Si Si3 0.965234 0.286364 0.714231
Si Si4 0.542438 0.210118 0.094326
Si Si5 0.130342 0.409601 0.602467
Si Si6 0.372684 0.194340 0.603831
Si Si7 0.738694 0.914139 0.153568
Si Si8 0.446817 0.912900 0.983121
O O1 0.499546 0.167222 0.759971
O O2 0.583090 0.497451 0.844620
O O3 0.356746 0.474610 0.820040
O O4 0.254296 0.703367 0.917270
O O5 0.109753 0.044735 0.926613
O O6 0.170419 0.912424 0.035762
O O7 0.335959 0.082698 0.966900
O O8 0.826920 0.281594 0.700035
O O9 0.000630 0.554245 0.741581
O O10 0.045739 0.258969 0.650398
O O11 0.413091 0.306519 0.108391
O O12 0.630826 0.101662 0.145600
O O13 0.536067 0.043250 0.030871
O O14 0.262374 0.361010 0.623370
O O15 0.107172 0.302605 0.530120
O O16 0.486407 0.344156 0.581233
#
# Coordination Sequence:
#
# PCOD9315676 Si02
#       8
#     4   4   4   4   4   4   4   4
#     4  12  33  57  80 115 164 230 281 323 401 500
#     4  11  24  43  75 111 151 191 260 335 420 464
#     4  12  27  45  74 107 145 200 256 318 392 462
#     4  12  22  42  75 112 150 198 252 331 417 489
#     4  11  25  44  68 110 153 184 264 326 402 480
#     4  11  24  49  74 111 160 201 263 338 400 489
#     4  12  26  49  79 107 156 195 274 330 405 488
#     4  11  23  43  67 111 147 195 244 327 411 478
#
# _framework density 24.751480000000001
#
# number of rings (size 3 to 8) (size 9 to 14) (size 15 to 20)
#    0.000    0.500    6.250    0.750    7.000    2.000 
#    2.250    0.000    0.000    0.000    0.000    0.000 
#    0.000    0.000    0.000    0.000    0.000    0.000 
#
# Total GULP energy -178727.291941 kJ/mol
# GULP energy per Si atom -5585.227873 kJ/mol
# Density = 2.469514 g / cm^3
# Si number density = 24.751480 Si / 1000 Ang^3
#
#
#
# Elastic Constant Matrix: (Units=GPa)
#
#
# Indices 1 2 3 4 5 6 
#
# 1 133.6081 -0.2926 17.3775 0.0000 0.0000 0.0000
# 2 -0.2926 51.6249 9.6007 0.0000 0.0000 0.0000
# 3 17.3775 9.6007 69.0911 0.0000 0.0000 0.0000
# 4 0.0000 0.0000 0.0000 18.8606 0.0000 0.0000
# 5 0.0000 0.0000 0.0000 0.0000 45.9195 0.0000
# 6 0.0000 0.0000 0.0000 0.0000 0.0000 24.9776
#
#
#
# Elastic Compliance Matrix: (Units=1/GPa)
#
#
# Indices 1 2 3 4 5 6 
#
# 1 0.007746 0.000417 -0.002006 0.000000 0.000000 0.000000
# 2 0.000417 0.019907 -0.002871 0.000000 0.000000 0.000000
# 3 -0.002006 -0.002871 0.015377 0.000000 0.000000 0.000000
# 4 0.000000 0.000000 0.000000 0.053021 0.000000 0.000000
# 5 0.000000 0.000000 0.000000 0.000000 0.021777 0.000000
# 6 0.000000 0.000000 0.000000 0.000000 0.000000 0.040036
#
#
# Mechanical properties :
#
#
# Convention : Reuss Voigt Hill
#
# Bulk Modulus (GPa) = 29.31715 34.18838 31.75276
# Shear Modulus (GPa) = 28.06549 33.12744 30.59647
#
# Velocity S-wave (km/s) = 3.37098 3.66239 3.51970
# Velocity P-wave (km/s) = 5.19824 5.63265 5.41980
#
# Compressibility (1/GPa) = 0.03410973
#
# Stress axis : x y z
#
# Youngs Moduli (GPa) = 129.09166 50.23412 65.03128
#
# Poissons Ratio (x) = -0.02095 0.13047
# Poissons Ratio (y) = -0.05383 0.18671
# Poissons Ratio (z) = 0.25900 0.14423
#
# Static dielectric constant tensor:
#      x y z
#    x 1.990200 0.000000 0.000000 
#    y 0.000000 2.096130 0.000000 
#    z 0.000000 0.000000 2.066000 
# 
# From -- ./inp_files/7181.got.cif
#   From: 2010.05.17/outbox.cif.g08.bks.cpg/sg19_4_cif.got.tgz:7181.got - 2010.06.03 22:46:19.
