data_PCOD9315334
_publ_section_title
;
Structure prediction by ZEFSAII (Michael W. Deem and Ramdas Pophale) SiO2 
 PCOD9315334
Probable space group: P 21 21 21
;
_chemical_formula_sum "Si O2"
_cell_formula_units_Z 28
_cell_length_a 4.984788
_cell_length_b 8.896700
_cell_length_c 22.386769
_cell_angle_alpha 90.000000
_cell_angle_beta 90.000000
_cell_angle_gamma 90.000000
_cell_volume 992.812090
_symmetry_space_group_name_H-M "P 21 21 21"
_symmetry_group_IT_number 19
_symmetry_cell_setting 'orthorhombic'
loop_
_space_group_symop_operation_xyz
x,y,z
1/2-x,-y,1/2+z
1/2+x,1/2-y,-z
-x,1/2+y,1/2-z
loop_
_atom_site_type_symbol
_atom_site_label
_atom_site_fract_x
_atom_site_fract_y
_atom_site_fract_z
Si Si1 0.299308 0.528498 0.623339
Si Si2 0.416341 0.196839 0.300194
Si Si3 0.428218 0.263599 0.537426
Si Si4 0.473301 0.943162 0.110766
Si Si5 0.808655 0.291174 0.205771
Si Si6 0.476692 0.738354 0.457782
Si Si7 0.077289 0.009016 0.213888
O O1 0.143507 0.416995 0.669700
O O2 0.427241 0.415922 0.575083
O O3 0.533215 0.631962 0.651388
O O4 0.086658 0.639598 0.590430
O O5 0.360974 0.312376 0.354632
O O6 0.528522 0.289005 0.242042
O O7 0.212190 0.075239 0.274026
O O8 0.725326 0.214289 0.518803
O O9 0.259371 0.138731 0.572336
O O10 0.593905 0.080852 0.073957
O O11 0.294290 0.014195 0.163227
O O12 0.988634 0.344247 0.263404
O O13 0.841418 0.114633 0.194893
O O14 0.223214 0.789706 0.496543
#
# Coordination Sequence:
#
# PCOD9315334 Si02
#       7
#     4   4   4   4   4   4   4
#     4  11  24  45  70 105 137 189 243 293 377 418
#     4  10  25  45  68 105 146 188 236 282 362 455
#     4  11  25  50  72 102 141 193 251 303 354 431
#     4  10  24  45  68 107 137 196 236 303 365 429
#     4  11  23  43  66 105 145 178 231 289 352 441
#     4  12  27  48  71 107 142 186 250 314 360 416
#     4  11  24  44  69 105 148 184 235 286 362 438
#
# _framework density 28.202718000000001
#
# number of rings (size 3 to 8) (size 9 to 14) (size 15 to 20)
#    0.000    1.143    2.857    1.714    4.000    4.571 
#    7.714    0.000    0.000    0.000    0.000    0.000 
#    0.000    0.000    0.000    0.000    0.000    0.000 
#
# Total GULP energy -156786.050582 kJ/mol
# GULP energy per Si atom -5599.501806 kJ/mol
# Density = 2.813853 g / cm^3
# Si number density = 28.202718 Si / 1000 Ang^3
#
#
#
# Elastic Constant Matrix: (Units=GPa)
#
#
# Indices 1 2 3 4 5 6 
#
# 1 111.0436 11.0696 48.5394 0.0000 0.0000 0.0000
# 2 11.0696 120.4251 47.6848 0.0000 0.0000 0.0000
# 3 48.5394 47.6848 130.6501 0.0000 0.0000 0.0000
# 4 0.0000 0.0000 0.0000 56.8577 0.0000 0.0000
# 5 0.0000 0.0000 0.0000 0.0000 45.7392 0.0000
# 6 0.0000 0.0000 0.0000 0.0000 0.0000 39.1286
#
#
#
# Elastic Compliance Matrix: (Units=1/GPa)
#
#
# Indices 1 2 3 4 5 6 
#
# 1 0.010801 0.000697 -0.004267 0.000000 0.000000 0.000000
# 2 0.000697 0.009752 -0.003818 0.000000 0.000000 0.000000
# 3 -0.004267 -0.003818 0.010633 0.000000 0.000000 0.000000
# 4 0.000000 0.000000 0.000000 0.017588 0.000000 0.000000
# 5 0.000000 0.000000 0.000000 0.000000 0.021863 0.000000
# 6 0.000000 0.000000 0.000000 0.000000 0.000000 0.025557
#
#
# Mechanical properties :
#
#
# Convention : Reuss Voigt Hill
#
# Bulk Modulus (GPa) = 60.94231 64.07850 62.51040
# Shear Modulus (GPa) = 42.94048 45.33343 44.13696
#
# Velocity S-wave (km/s) = 3.90624 4.01361 3.96029
# Velocity P-wave (km/s) = 6.48078 6.65197 6.56693
#
# Compressibility (1/GPa) = 0.01640896
#
# Stress axis : x y z
#
# Youngs Moduli (GPa) = 92.58128 102.54609 94.04729
#
# Poissons Ratio (x) = -0.07146 0.40132
# Poissons Ratio (y) = -0.06451 0.35908
# Poissons Ratio (z) = 0.39507 0.39153
#
# Static dielectric constant tensor:
#      x y z
#    x 2.195470 0.000000 0.000000 
#    y 0.000000 2.249850 0.000000 
#    z 0.000000 0.000000 2.261210 
# 
# From -- ./inp_files/7258.got.cif
#   From: 2010.05.17/outbox.cif.g08.bks.cpg/sg19_4_cif.got.tgz:7258.got - 2010.06.03 22:46:19.
