data_PCOD9315333
_publ_section_title
;
Structure prediction by ZEFSAII (Michael W. Deem and Ramdas Pophale) SiO2 
 PCOD9315333
Probable space group: P 21 21 21
;
_chemical_formula_sum "Si O2"
_cell_formula_units_Z 24
_cell_length_a 7.627230
_cell_length_b 8.827581
_cell_length_c 14.829827
_cell_angle_alpha 90.000000
_cell_angle_beta 90.000000
_cell_angle_gamma 90.000000
_cell_volume 998.492113
_symmetry_space_group_name_H-M "P 21 21 21"
_symmetry_group_IT_number 19
_symmetry_cell_setting 'orthorhombic'
loop_
_space_group_symop_operation_xyz
x,y,z
1/2-x,-y,1/2+z
1/2+x,1/2-y,-z
-x,1/2+y,1/2-z
loop_
_atom_site_type_symbol
_atom_site_label
_atom_site_fract_x
_atom_site_fract_y
_atom_site_fract_z
Si Si1 0.601172 0.062584 0.949469
Si Si2 0.809290 0.861733 0.094549
Si Si3 0.709821 0.404796 0.984908
Si Si4 0.478608 0.120046 0.379655
Si Si5 0.732000 0.930079 0.761999
Si Si6 0.193819 0.830418 0.133623
O O1 0.396017 0.067957 0.969075
O O2 0.642199 0.009182 0.848240
O O3 0.670878 0.231192 0.968166
O O4 0.702932 0.951073 0.017793
O O5 0.692535 0.721583 0.127259
O O6 0.821983 0.986842 0.173125
O O7 0.864391 0.759508 0.904205
O O8 0.566333 0.485172 0.050835
O O9 0.718746 0.495109 0.889743
O O10 0.560387 0.057150 0.286222
O O11 0.492122 0.199355 0.584665
O O12 0.683759 0.751090 0.769190
#
# Coordination Sequence:
#
# PCOD9315333 Si02
#       6
#     4   4   4   4   4   4
#     4  12  25  45  71 115 141 193 248 308 374 430
#     4  12  24  48  75 103 153 191 246 307 367 444
#     4  12  24  45  75 105 153 186 248 312 364 450
#     4  10  24  45  68 102 139 197 238 292 370 430
#     4  10  25  46  69 107 142 192 247 294 368 442
#     4  10  24  45  70 104 140 197 237 295 369 442
#
# _framework density 24.036242999999999
#
# number of rings (size 3 to 8) (size 9 to 14) (size 15 to 20)
#    1.000    0.000    1.667    5.000    2.333    5.333 
#    6.000    0.000    0.000    0.000    0.000    0.000 
#    0.000    0.000    0.000    0.000    0.000    0.000 
#
# Total GULP energy -134002.190097 kJ/mol
# GULP energy per Si atom -5583.424587 kJ/mol
# Density = 2.398154 g / cm^3
# Si number density = 24.036243 Si / 1000 Ang^3
#
#
#
# Elastic Constant Matrix: (Units=GPa)
#
#
# Indices 1 2 3 4 5 6 
#
# 1 147.0616 -2.7101 3.6312 0.0000 0.0000 0.0000
# 2 -2.7101 51.2512 5.8184 0.0000 0.0000 0.0000
# 3 3.6312 5.8184 71.4758 0.0000 0.0000 0.0000
# 4 0.0000 0.0000 0.0000 37.9917 0.0000 0.0000
# 5 0.0000 0.0000 0.0000 0.0000 19.5320 0.0000
# 6 0.0000 0.0000 0.0000 0.0000 0.0000 47.7605
#
#
#
# Elastic Compliance Matrix: (Units=1/GPa)
#
#
# Indices 1 2 3 4 5 6 
#
# 1 0.006817 0.000404 -0.000379 0.000000 0.000000 0.000000
# 2 0.000404 0.019718 -0.001626 0.000000 0.000000 0.000000
# 3 -0.000379 -0.001626 0.014142 0.000000 0.000000 0.000000
# 4 0.000000 0.000000 0.000000 0.026322 0.000000 0.000000
# 5 0.000000 0.000000 0.000000 0.000000 0.051198 0.000000
# 6 0.000000 0.000000 0.000000 0.000000 0.000000 0.020938
#
#
# Mechanical properties :
#
#
# Convention : Reuss Voigt Hill
#
# Bulk Modulus (GPa) = 26.68505 31.47417 29.07961
# Shear Modulus (GPa) = 32.29393 38.59346 35.44369
#
# Velocity S-wave (km/s) = 3.66943 4.01139 3.84421
# Velocity P-wave (km/s) = 5.39250 5.88029 5.64167
#
# Compressibility (1/GPa) = 0.03747416
#
# Stress axis : x y z
#
# Youngs Moduli (GPa) = 146.69917 50.71603 70.70965
#
# Poissons Ratio (x) = -0.02046 0.02681
# Poissons Ratio (y) = -0.05919 0.11494
# Poissons Ratio (z) = 0.05562 0.08244
#
# Static dielectric constant tensor:
#      x y z
#    x 1.938470 0.000000 0.000000 
#    y 0.000000 1.930370 0.000000 
#    z 0.000000 0.000000 1.985850 
# 
# From -- ./inp_files/5831.got.cif
#   From: 2010.05.17/outbox.cif.g08.bks.cpg/sg19_3_cif.got.tgz:5831.got - 2010.06.03 22:46:19.
