data_PCOD9315407
_publ_section_title
;
Structure prediction by ZEFSAII (Michael W. Deem and Ramdas Pophale) SiO2 
 PCOD9315407
Probable space group: P 21 21 21
;
_chemical_formula_sum "Si O2"
_cell_formula_units_Z 32
_cell_length_a 5.612396
_cell_length_b 12.290424
_cell_length_c 18.518293
_cell_angle_alpha 90.000000
_cell_angle_beta 90.000000
_cell_angle_gamma 90.000000
_cell_volume 1277.368268
_symmetry_space_group_name_H-M "P 21 21 21"
_symmetry_group_IT_number 19
_symmetry_cell_setting 'orthorhombic'
loop_
_space_group_symop_operation_xyz
x,y,z
1/2-x,-y,1/2+z
1/2+x,1/2-y,-z
-x,1/2+y,1/2-z
loop_
_atom_site_type_symbol
_atom_site_label
_atom_site_fract_x
_atom_site_fract_y
_atom_site_fract_z
Si Si1 0.571537 0.796873 0.905203
Si Si2 0.581876 0.927317 0.157202
Si Si3 0.765758 0.618760 0.714855
Si Si4 0.615536 0.250969 0.734700
Si Si5 0.548872 0.686559 0.489969
Si Si6 0.256204 0.001806 0.427990
Si Si7 0.008213 0.847474 0.675760
Si Si8 0.628049 0.092441 0.519454
O O1 0.584600 0.797092 0.818991
O O2 0.353989 0.877749 0.924965
O O3 0.532733 0.676209 0.935246
O O4 0.791707 0.845902 0.947335
O O5 0.658119 0.047042 0.185832
O O6 0.336888 0.915194 0.203296
O O7 0.713160 0.818572 0.183074
O O8 0.647222 0.930464 0.072074
O O9 0.493074 0.658037 0.714316
O O10 0.827264 0.532844 0.652886
O O11 0.895103 0.730687 0.691753
O O12 0.755735 0.343443 0.775747
O O13 0.287051 0.741902 0.493733
O O14 0.562881 0.585810 0.545195
O O15 0.580152 0.648542 0.407652
O O16 0.465703 0.996865 0.487769
#
# Coordination Sequence:
#
# PCOD9315407 Si02
#       8
#     4   4   4   4   4   4   4   4
#     4  11  24  43  71 104 144 191 248 316 389 462
#     4  10  25  43  71 106 143 193 250 318 390 460
#     4  11  25  46  69 104 147 196 253 310 388 467
#     4  10  25  44  70 103 147 195 252 318 391 472
#     4  12  28  49  76 111 154 201 261 322 387 467
#     4  12  26  44  74 104 150 201 252 316 394 467
#     4  11  24  44  70 101 147 193 255 314 384 467
#     4  11  25  43  71 107 146 192 249 320 385 468
#
# _framework density 25.05151
#
# number of rings (size 3 to 8) (size 9 to 14) (size 15 to 20)
#    0.000    1.000    2.500    2.250    5.250    8.000 
#    0.000    0.000    0.000    0.000    0.000    0.000 
#    0.000    0.000    0.000    0.000    0.000    0.000 
#
# Total GULP energy -178689.240405 kJ/mol
# GULP energy per Si atom -5584.038763 kJ/mol
# Density = 2.499449 g / cm^3
# Si number density = 25.051510 Si / 1000 Ang^3
#
#
#
# Elastic Constant Matrix: (Units=GPa)
#
#
# Indices 1 2 3 4 5 6 
#
# 1 45.1232 13.1297 19.9372 0.0000 0.0000 0.0000
# 2 13.1297 73.0082 27.6275 0.0000 0.0000 0.0000
# 3 19.9372 27.6275 115.0475 0.0000 0.0000 0.0000
# 4 0.0000 0.0000 0.0000 40.6559 0.0000 0.0000
# 5 0.0000 0.0000 0.0000 0.0000 28.7142 0.0000
# 6 0.0000 0.0000 0.0000 0.0000 0.0000 30.4837
#
#
#
# Elastic Compliance Matrix: (Units=1/GPa)
#
#
# Indices 1 2 3 4 5 6 
#
# 1 0.024619 -0.003094 -0.003523 0.000000 0.000000 0.000000
# 2 -0.003094 0.015455 -0.003175 0.000000 0.000000 0.000000
# 3 -0.003523 -0.003175 0.010065 0.000000 0.000000 0.000000
# 4 0.000000 0.000000 0.000000 0.024597 0.000000 0.000000
# 5 0.000000 0.000000 0.000000 0.000000 0.034826 0.000000
# 6 0.000000 0.000000 0.000000 0.000000 0.000000 0.032804
#
#
# Mechanical properties :
#
#
# Convention : Reuss Voigt Hill
#
# Bulk Modulus (GPa) = 32.72934 39.39643 36.06289
# Shear Modulus (GPa) = 29.04686 31.46970 30.25828
#
# Velocity S-wave (km/s) = 3.40882 3.54814 3.47917
# Velocity P-wave (km/s) = 5.34664 5.70491 5.52868
#
# Compressibility (1/GPa) = 0.03055362
#
# Stress axis : x y z
#
# Youngs Moduli (GPa) = 40.61972 64.70364 99.35297
#
# Poissons Ratio (x) = 0.20020 0.35005
# Poissons Ratio (y) = 0.12568 0.31546
# Poissons Ratio (z) = 0.14311 0.20545
#
# Static dielectric constant tensor:
#      x y z
#    x 2.068580 0.000000 0.000000 
#    y 0.000000 1.997160 0.000000 
#    z 0.000000 0.000000 1.960360 
# 
# From -- ./inp_files/6940.got.cif
#   From: 2010.05.17/outbox.cif.g08.bks.cpg/sg19_4_cif.got.tgz:6940.got - 2010.06.03 22:46:19.
