data_PCOD9315847
_publ_section_title
;
Structure prediction by ZEFSAII (Michael W. Deem and Ramdas Pophale) SiO2 
 PCOD9315847
Probable space group: P 21 21 21
;
_chemical_formula_sum "Si O2"
_cell_formula_units_Z 32
_cell_length_a 12.346932
_cell_length_b 19.806807
_cell_length_c 5.509649
_cell_angle_alpha 90.000000
_cell_angle_beta 90.000000
_cell_angle_gamma 90.000000
_cell_volume 1347.402840
_symmetry_space_group_name_H-M "P 21 21 21"
_symmetry_group_IT_number 19
_symmetry_cell_setting 'orthorhombic'
loop_
_space_group_symop_operation_xyz
x,y,z
1/2-x,-y,1/2+z
1/2+x,1/2-y,-z
-x,1/2+y,1/2-z
loop_
_atom_site_type_symbol
_atom_site_label
_atom_site_fract_x
_atom_site_fract_y
_atom_site_fract_z
Si Si1 0.878629 0.905050 0.159892
Si Si2 0.949197 0.381920 0.726641
Si Si3 0.131572 0.175693 0.876830
Si Si4 0.293674 0.895336 0.879347
Si Si5 0.293173 0.680202 0.443072
Si Si6 0.523261 0.494512 0.596460
Si Si7 0.909361 0.227079 0.777049
Si Si8 0.151576 0.618267 0.047639
O O1 0.882833 0.857651 0.397189
O O2 0.750414 0.911146 0.117125
O O3 0.947392 0.972455 0.198064
O O4 0.943257 0.873469 0.936593
O O5 0.835745 0.399014 0.591761
O O6 0.929207 0.305580 0.814420
O O7 0.962313 0.445552 0.904002
O O8 0.163629 0.133710 0.637351
O O9 0.165736 0.252687 0.811311
O O10 0.002007 0.182749 0.905457
O O11 0.179143 0.147304 0.131517
O O12 0.359760 0.964775 0.838215
O O13 0.209106 0.712376 0.629011
O O14 0.219634 0.628443 0.292655
O O15 0.447846 0.432052 0.520104
O O16 0.897604 0.192839 0.511393
#
# Coordination Sequence:
#
# PCOD9315847 Si02
#       8
#     4   4   4   4   4   4   4   4
#     4  11  28  44  79 111 154 206 268 336 411 485
#     4  12  29  49  78 118 160 216 270 343 408 499
#     4  12  26  49  81 120 155 212 268 339 409 487
#     4  12  30  51  80 113 165 213 277 328 414 498
#     4  11  25  47  79 116 157 206 268 345 413 488
#     4  12  29  48  76 112 158 219 265 338 405 503
#     4  11  24  47  81 112 161 204 275 336 410 486
#     4  11  25  49  78 116 156 206 273 337 416 482
#
# _framework density 23.749393000000001
#
# number of rings (size 3 to 8) (size 9 to 14) (size 15 to 20)
#    0.000    0.500    2.500    3.750   12.250    3.000 
#    0.000    0.000    0.000    0.000    0.000    0.000 
#    0.000    0.000    0.000    0.000    0.000    0.000 
#
# Total GULP energy -178537.716900 kJ/mol
# GULP energy per Si atom -5579.303653 kJ/mol
# Density = 2.369534 g / cm^3
# Si number density = 23.749393 Si / 1000 Ang^3
#
#
#
# Elastic Constant Matrix: (Units=GPa)
#
#
# Indices 1 2 3 4 5 6 
#
# 1 73.0335 9.2553 -14.4203 0.0000 0.0000 0.0000
# 2 9.2553 99.4689 19.9604 0.0000 0.0000 0.0000
# 3 -14.4203 19.9604 60.9010 0.0000 0.0000 0.0000
# 4 0.0000 0.0000 0.0000 32.0978 0.0000 0.0000
# 5 0.0000 0.0000 0.0000 0.0000 30.2750 0.0000
# 6 0.0000 0.0000 0.0000 0.0000 0.0000 46.1299
#
#
#
# Elastic Compliance Matrix: (Units=1/GPa)
#
#
# Indices 1 2 3 4 5 6 
#
# 1 0.014811 -0.002228 0.004237 0.000000 0.000000 0.000000
# 2 -0.002228 0.011096 -0.004165 0.000000 0.000000 0.000000
# 3 0.004237 -0.004165 0.018788 0.000000 0.000000 0.000000
# 4 0.000000 0.000000 0.000000 0.031155 0.000000 0.000000
# 5 0.000000 0.000000 0.000000 0.000000 0.033031 0.000000
# 6 0.000000 0.000000 0.000000 0.000000 0.000000 0.021678
#
#
# Mechanical properties :
#
#
# Convention : Reuss Voigt Hill
#
# Bulk Modulus (GPa) = 24.76159 29.22159 26.99159
# Shear Modulus (GPa) = 33.70808 36.27440 34.99124
#
# Velocity S-wave (km/s) = 3.77148 3.91241 3.84259
# Velocity P-wave (km/s) = 5.42349 5.72190 5.57469
#
# Compressibility (1/GPa) = 0.04038513
#
# Stress axis : x y z
#
# Youngs Moduli (GPa) = 67.51538 90.11893 53.22435
#
# Poissons Ratio (x) = 0.20083 -0.22554
# Poissons Ratio (y) = 0.15046 0.22166
# Poissons Ratio (z) = -0.28609 0.37530
#
# Static dielectric constant tensor:
#      x y z
#    x 1.917000 0.000000 0.000000 
#    y 0.000000 1.965950 0.000000 
#    z 0.000000 0.000000 2.040010 
# 
# From -- ./inp_files/1175.got.cif
#   From: 2010.05.17/outbox.cif.g08.bks.cpg/sg19_1_cif.got.tgz:1175.got - 2010.06.03 22:46:19.
