data_PCOD9315945
_publ_section_title
;
Structure prediction by ZEFSAII (Michael W. Deem and Ramdas Pophale) SiO2 
 PCOD9315945
Probable space group: P 21 21 21
;
_chemical_formula_sum "Si O2"
_cell_formula_units_Z 28
_cell_length_a 10.286116
_cell_length_b 5.305729
_cell_length_c 20.639621
_cell_angle_alpha 90.000000
_cell_angle_beta 90.000000
_cell_angle_gamma 90.000000
_cell_volume 1126.414415
_symmetry_space_group_name_H-M "P 21 21 21"
_symmetry_group_IT_number 19
_symmetry_cell_setting 'orthorhombic'
loop_
_space_group_symop_operation_xyz
x,y,z
1/2-x,-y,1/2+z
1/2+x,1/2-y,-z
-x,1/2+y,1/2-z
loop_
_atom_site_type_symbol
_atom_site_label
_atom_site_fract_x
_atom_site_fract_y
_atom_site_fract_z
Si Si1 0.657787 0.072599 0.442650
Si Si2 0.513637 0.518440 0.706489
Si Si3 0.387316 0.496983 0.304599
Si Si4 0.167299 0.178212 0.694354
Si Si5 0.619814 0.609048 0.993140
Si Si6 0.312545 0.791575 0.627461
Si Si7 0.214686 0.015768 0.869979
O O1 0.644450 0.242245 0.378999
O O2 0.528630 0.121980 0.483146
O O3 0.792750 0.144750 0.478051
O O4 0.683580 0.801758 0.410365
O O5 0.498546 0.252115 0.743008
O O6 0.644888 0.541429 0.663603
O O7 0.399275 0.564106 0.653653
O O8 0.309893 0.584038 0.240414
O O9 0.339509 0.248303 0.341392
O O10 0.534796 0.452437 0.282968
O O11 0.369850 0.743294 0.348739
O O12 0.275807 0.966546 0.688254
O O13 0.702426 0.489684 0.052517
O O14 0.614526 0.452401 0.926822
#
# Coordination Sequence:
#
# PCOD9315945 Si02
#       7
#     4   4   4   4   4   4   4
#     4  11  27  50  78 110 161 206 279 326 415 476
#     4  12  30  51  80 117 164 215 275 334 415 492
#     4  12  26  46  78 117 156 202 260 328 406 477
#     4  11  26  46  75 115 155 204 259 334 406 480
#     4  11  28  50  79 115 158 219 272 342 402 497
#     4  11  29  49  79 111 162 212 273 335 415 481
#     4  12  28  48  79 113 162 208 272 327 407 483
#
# _framework density 24.857637
#
# number of rings (size 3 to 8) (size 9 to 14) (size 15 to 20)
#    0.000    0.571    1.429    3.429   18.000    1.143 
#    0.000    0.000    0.000    0.000    0.000    0.000 
#    0.000    0.000    0.000    0.000    0.000    0.000 
#
# Total GULP energy -156781.476440 kJ/mol
# GULP energy per Si atom -5599.338444 kJ/mol
# Density = 2.480106 g / cm^3
# Si number density = 24.857637 Si / 1000 Ang^3
#
#
#
# Elastic Constant Matrix: (Units=GPa)
#
#
# Indices 1 2 3 4 5 6 
#
# 1 97.3385 22.4512 25.4108 0.0000 0.0000 0.0000
# 2 22.4512 130.8978 28.5148 0.0000 0.0000 0.0000
# 3 25.4108 28.5148 81.0455 0.0000 0.0000 0.0000
# 4 0.0000 0.0000 0.0000 42.2976 0.0000 0.0000
# 5 0.0000 0.0000 0.0000 0.0000 46.9361 0.0000
# 6 0.0000 0.0000 0.0000 0.0000 0.0000 34.3338
#
#
#
# Elastic Compliance Matrix: (Units=1/GPa)
#
#
# Indices 1 2 3 4 5 6 
#
# 1 0.011382 -0.001272 -0.003121 0.000000 0.000000 0.000000
# 2 -0.001272 0.008416 -0.002562 0.000000 0.000000 0.000000
# 3 -0.003121 -0.002562 0.014219 0.000000 0.000000 0.000000
# 4 0.000000 0.000000 0.000000 0.023642 0.000000 0.000000
# 5 0.000000 0.000000 0.000000 0.000000 0.021306 0.000000
# 6 0.000000 0.000000 0.000000 0.000000 0.000000 0.029126
#
#
# Mechanical properties :
#
#
# Convention : Reuss Voigt Hill
#
# Bulk Modulus (GPa) = 49.73743 51.33729 50.53736
# Shear Modulus (GPa) = 38.84940 40.24050 39.54495
#
# Velocity S-wave (km/s) = 3.95761 4.02784 3.99288
# Velocity P-wave (km/s) = 6.39812 6.50605 6.45231
#
# Compressibility (1/GPa) = 0.02010558
#
# Stress axis : x y z
#
# Youngs Moduli (GPa) = 87.86100 118.82278 70.32977
#
# Poissons Ratio (x) = 0.15118 0.21949
# Poissons Ratio (y) = 0.11178 0.18019
# Poissons Ratio (z) = 0.27421 0.30444
#
# Static dielectric constant tensor:
#      x y z
#    x 1.998140 0.000000 0.000000 
#    y 0.000000 2.010970 0.000000 
#    z 0.000000 0.000000 1.969110 
# 
# From -- ./inp_files/6437.got.cif
#   From: 2010.05.17/outbox.cif.g08.bks.cpg/sg19_4_cif.got.tgz:6437.got - 2010.06.03 22:46:19.
