data_PCOD9315932
_publ_section_title
;
Structure prediction by ZEFSAII (Michael W. Deem and Ramdas Pophale) SiO2 
 PCOD9315932
Probable space group: P 21 21 21
;
_chemical_formula_sum "Si O2"
_cell_formula_units_Z 24
_cell_length_a 10.900463
_cell_length_b 5.499100
_cell_length_c 15.386628
_cell_angle_alpha 90.000000
_cell_angle_beta 90.000000
_cell_angle_gamma 90.000000
_cell_volume 922.316581
_symmetry_space_group_name_H-M "P 21 21 21"
_symmetry_group_IT_number 19
_symmetry_cell_setting 'orthorhombic'
loop_
_space_group_symop_operation_xyz
x,y,z
1/2-x,-y,1/2+z
1/2+x,1/2-y,-z
-x,1/2+y,1/2-z
loop_
_atom_site_type_symbol
_atom_site_label
_atom_site_fract_x
_atom_site_fract_y
_atom_site_fract_z
Si Si1 0.302867 0.131584 0.062576
Si Si2 0.852874 0.571770 0.130078
Si Si3 0.312203 0.809939 0.225518
Si Si4 0.862918 0.000185 0.372929
Si Si5 0.034609 0.140454 0.879203
Si Si6 0.839103 0.139947 0.563085
O O1 0.170716 0.230745 0.093412
O O2 0.398320 0.347510 0.084334
O O3 0.339066 0.934331 0.134004
O O4 0.324462 0.061152 0.962841
O O5 0.776264 0.463241 0.210132
O O6 0.794854 0.835012 0.107007
O O7 0.996004 0.546494 0.149548
O O8 0.230531 0.574964 0.202964
O O9 0.439411 0.803750 0.277942
O O10 0.837240 0.160484 0.459178
O O11 0.102134 0.379022 0.918542
O O12 0.088121 0.876403 0.902886
#
# Coordination Sequence:
#
# PCOD9315932 Si02
#       6
#     4   4   4   4   4   4
#     4  12  28  51  79 119 163 214 273 328 415 482
#     4  11  27  52  77 113 165 213 263 349 396 494
#     4  11  29  47  75 120 154 214 269 332 402 482
#     4  12  27  47  78 113 158 214 274 332 407 483
#     4  11  28  50  82 112 162 206 271 334 397 479
#     4  11  25  53  77 115 148 215 264 329 407 474
#
# _framework density 26.021433999999999
#
# number of rings (size 3 to 8) (size 9 to 14) (size 15 to 20)
#    0.000    0.667    3.333    2.000   14.000    0.000 
#    3.000    0.000    0.000    0.000    0.000    0.000 
#    0.000    0.000    0.000    0.000    0.000    0.000 
#
# Total GULP energy -134246.112213 kJ/mol
# GULP energy per Si atom -5593.588009 kJ/mol
# Density = 2.596221 g / cm^3
# Si number density = 26.021434 Si / 1000 Ang^3
#
#
#
# Elastic Constant Matrix: (Units=GPa)
#
#
# Indices 1 2 3 4 5 6 
#
# 1 48.9868 23.4702 -1.1396 0.0000 0.0000 0.0000
# 2 23.4702 89.7916 44.1041 0.0000 0.0000 0.0000
# 3 -1.1396 44.1041 120.4704 0.0000 0.0000 0.0000
# 4 0.0000 0.0000 0.0000 52.8527 0.0000 0.0000
# 5 0.0000 0.0000 0.0000 0.0000 32.7841 0.0000
# 6 0.0000 0.0000 0.0000 0.0000 0.0000 46.2236
#
#
#
# Elastic Compliance Matrix: (Units=1/GPa)
#
#
# Indices 1 2 3 4 5 6 
#
# 1 0.024255 -0.007867 0.003110 0.000000 0.000000 0.000000
# 2 -0.007867 0.016130 -0.005980 0.000000 0.000000 0.000000
# 3 0.003110 -0.005980 0.010519 0.000000 0.000000 0.000000
# 4 0.000000 0.000000 0.000000 0.018921 0.000000 0.000000
# 5 0.000000 0.000000 0.000000 0.000000 0.030503 0.000000
# 6 0.000000 0.000000 0.000000 0.000000 0.000000 0.021634
#
#
# Mechanical properties :
#
#
# Convention : Reuss Voigt Hill
#
# Bulk Modulus (GPa) = 33.97861 43.56870 38.77365
# Shear Modulus (GPa) = 32.62697 39.22635 35.92666
#
# Velocity S-wave (km/s) = 3.54482 3.88682 3.71975
# Velocity P-wave (km/s) = 5.46265 6.07642 5.77769
#
# Compressibility (1/GPa) = 0.02943028
#
# Stress axis : x y z
#
# Youngs Moduli (GPa) = 41.22791 61.99438 95.06245
#
# Poissons Ratio (x) = 0.48774 -0.29562
# Poissons Ratio (y) = 0.32436 0.56845
# Poissons Ratio (z) = -0.12821 0.37071
#
# Static dielectric constant tensor:
#      x y z
#    x 2.127170 0.000000 0.000000 
#    y 0.000000 2.110960 0.000000 
#    z 0.000000 0.000000 2.031830 
# 
# From -- ./inp_files/6046.got.cif
#   From: 2010.05.17/outbox.cif.g08.bks.cpg/sg19_4_cif.got.tgz:6046.got - 2010.06.03 22:46:19.
