data_PCOD9315869
_publ_section_title
;
Structure prediction by ZEFSAII (Michael W. Deem and Ramdas Pophale) SiO2 
 PCOD9315869
Probable space group: P 21 21 21
;
_chemical_formula_sum "Si O2"
_cell_formula_units_Z 20
_cell_length_a 7.440675
_cell_length_b 9.324202
_cell_length_c 11.129542
_cell_angle_alpha 90.000000
_cell_angle_beta 90.000000
_cell_angle_gamma 90.000000
_cell_volume 772.149335
_symmetry_space_group_name_H-M "P 21 21 21"
_symmetry_group_IT_number 19
_symmetry_cell_setting 'orthorhombic'
loop_
_space_group_symop_operation_xyz
x,y,z
1/2-x,-y,1/2+z
1/2+x,1/2-y,-z
-x,1/2+y,1/2-z
loop_
_atom_site_type_symbol
_atom_site_label
_atom_site_fract_x
_atom_site_fract_y
_atom_site_fract_z
Si Si1 0.084943 0.561172 0.537224
Si Si2 0.969602 0.615124 0.914602
Si Si3 0.437919 0.175809 0.610291
Si Si4 0.079973 0.888081 0.756943
Si Si5 0.905205 0.768829 0.355190
O O1 0.267935 0.609852 0.600052
O O2 0.090914 0.428806 0.443746
O O3 0.947620 0.505049 0.638944
O O4 0.006702 0.694726 0.464418
O O5 0.754409 0.614207 0.925304
O O6 0.020416 0.462676 0.856029
O O7 0.009387 0.742522 0.818478
O O8 0.041487 0.673402 0.041095
O O9 0.459203 0.182766 0.752084
O O10 0.277502 0.847157 0.712295
#
# Coordination Sequence:
#
# PCOD9315869 Si02
#       5
#     4   4   4   4   4
#     4  11  27  46  73 112 145 196 258 304 377 446
#     4  11  24  50  79 107 154 193 254 303 383 442
#     4  11  26  50  76 108 150 205 246 313 373 456
#     4  11  24  50  73 107 151 190 244 315 365 451
#     4  12  27  46  75 106 152 196 250 311 378 441
#
# _framework density 25.901724999999999
#
# number of rings (size 3 to 8) (size 9 to 14) (size 15 to 20)
#    0.000    0.800    4.000    2.400    2.800    4.800 
#    7.200    0.000    0.000    0.000    0.000    0.000 
#    0.000    0.000    0.000    0.000    0.000    0.000 
#
# Total GULP energy -112033.866384 kJ/mol
# GULP energy per Si atom -5601.693319 kJ/mol
# Density = 2.584277 g / cm^3
# Si number density = 25.901725 Si / 1000 Ang^3
#
#
#
# Elastic Constant Matrix: (Units=GPa)
#
#
# Indices 1 2 3 4 5 6 
#
# 1 45.8767 11.3370 14.9509 0.0000 0.0000 0.0000
# 2 11.3370 97.3835 59.3183 0.0000 0.0000 0.0000
# 3 14.9509 59.3183 102.8305 0.0000 0.0000 0.0000
# 4 0.0000 0.0000 0.0000 62.3594 0.0000 0.0000
# 5 0.0000 0.0000 0.0000 0.0000 41.3469 0.0000
# 6 0.0000 0.0000 0.0000 0.0000 0.0000 36.2679
#
#
#
# Elastic Compliance Matrix: (Units=1/GPa)
#
#
# Indices 1 2 3 4 5 6 
#
# 1 0.022943 -0.000985 -0.002767 0.000000 0.000000 0.000000
# 2 -0.000985 0.015874 -0.009014 0.000000 0.000000 0.000000
# 3 -0.002767 -0.009014 0.015327 0.000000 0.000000 0.000000
# 4 0.000000 0.000000 0.000000 0.016036 0.000000 0.000000
# 5 0.000000 0.000000 0.000000 0.000000 0.024186 0.000000
# 6 0.000000 0.000000 0.000000 0.000000 0.000000 0.027573
#
#
# Mechanical properties :
#
#
# Convention : Reuss Voigt Hill
#
# Bulk Modulus (GPa) = 34.95182 46.36701 40.65942
# Shear Modulus (GPa) = 31.84570 38.69380 35.26975
#
# Velocity S-wave (km/s) = 3.51020 3.86925 3.69409
# Velocity P-wave (km/s) = 5.47284 6.15642 5.82467
#
# Compressibility (1/GPa) = 0.02861081
#
# Stress axis : x y z
#
# Youngs Moduli (GPa) = 43.58642 62.99703 65.24580
#
# Poissons Ratio (x) = 0.06207 0.18056
# Poissons Ratio (y) = 0.04294 0.58810
# Poissons Ratio (z) = 0.12062 0.56783
#
# Static dielectric constant tensor:
#      x y z
#    x 1.994170 0.000000 0.000000 
#    y 0.000000 2.085300 0.000000 
#    z 0.000000 0.000000 2.036720 
# 
# From -- ./inp_files/2614.got.cif
#   From: 2010.05.17/outbox.cif.g08.bks.cpg/sg19_2_cif.got.tgz:2614.got - 2010.06.03 22:46:19.
