data_PCOD9315430
_publ_section_title
;
Structure prediction by ZEFSAII (Michael W. Deem and Ramdas Pophale) SiO2 
 PCOD9315430
Probable space group: P 21 21 21
;
_chemical_formula_sum "Si O2"
_cell_formula_units_Z 28
_cell_length_a 6.203904
_cell_length_b 18.445970
_cell_length_c 11.060426
_cell_angle_alpha 90.000000
_cell_angle_beta 90.000000
_cell_angle_gamma 90.000000
_cell_volume 1265.722270
_symmetry_space_group_name_H-M "P 21 21 21"
_symmetry_group_IT_number 19
_symmetry_cell_setting 'orthorhombic'
loop_
_space_group_symop_operation_xyz
x,y,z
1/2-x,-y,1/2+z
1/2+x,1/2-y,-z
-x,1/2+y,1/2-z
loop_
_atom_site_type_symbol
_atom_site_label
_atom_site_fract_x
_atom_site_fract_y
_atom_site_fract_z
Si Si1 0.839125 0.052171 0.853414
Si Si2 0.944402 0.359947 0.206457
Si Si3 0.170797 0.115053 0.033739
Si Si4 0.185905 0.729761 0.954441
Si Si5 0.580846 0.291220 0.751064
Si Si6 0.819994 0.529028 0.858040
Si Si7 0.421719 0.410956 0.568919
O O1 0.688957 0.119265 0.818987
O O2 0.989374 0.035721 0.739217
O O3 0.706395 0.980511 0.886314
O O4 0.967832 0.076489 0.971849
O O5 0.860001 0.419488 0.300547
O O6 0.924321 0.278421 0.254121
O O7 0.822690 0.368306 0.079667
O O8 0.121440 0.185526 0.112234
O O9 0.267209 0.054808 0.123476
O O10 0.208758 0.764353 0.821863
O O11 0.430019 0.754782 0.006685
O O12 0.199815 0.643723 0.977475
O O13 0.485530 0.360413 0.681202
O O14 0.879517 0.559288 0.990314
#
# Coordination Sequence:
#
# PCOD9315430 Si02
#       7
#     4   4   4   4   4   4   4
#     4  11  26  48  73 108 143 196 247 311 379 462
#     4  11  26  50  70 105 150 191 247 315 378 471
#     4  11  27  47  76 105 147 196 251 306 386 466
#     4  10  25  46  72 114 151 193 251 317 389 458
#     4  11  27  45  75 106 150 196 248 314 390 452
#     4  11  26  47  76 106 144 190 251 314 383 454
#     4  11  25  45  78 110 141 194 253 319 381 455
#
# _framework density 22.121756000000001
#
# number of rings (size 3 to 8) (size 9 to 14) (size 15 to 20)
#    0.000    1.143    1.429    1.714   20.000    0.000 
#    2.571    0.000    0.000    0.000    0.000    0.000 
#    0.000    0.000    0.000    0.000    0.000    0.000 
#
# Total GULP energy -156276.446130 kJ/mol
# GULP energy per Si atom -5581.301648 kJ/mol
# Density = 2.207141 g / cm^3
# Si number density = 22.121756 Si / 1000 Ang^3
#
#
#
# Elastic Constant Matrix: (Units=GPa)
#
#
# Indices 1 2 3 4 5 6 
#
# 1 54.9444 6.7715 11.8341 0.0000 0.0000 0.0000
# 2 6.7715 68.9699 9.6415 0.0000 0.0000 0.0000
# 3 11.8341 9.6415 46.9205 0.0000 0.0000 0.0000
# 4 0.0000 0.0000 0.0000 101.1110 0.0000 0.0000
# 5 0.0000 0.0000 0.0000 0.0000 0.7270 0.0000
# 6 0.0000 0.0000 0.0000 0.0000 0.0000 23.6494
#
#
#
# Elastic Compliance Matrix: (Units=1/GPa)
#
#
# Indices 1 2 3 4 5 6 
#
# 1 0.019350 -0.001254 -0.004623 0.000000 0.000000 0.000000
# 2 -0.001254 0.015009 -0.002768 0.000000 0.000000 0.000000
# 3 -0.004623 -0.002768 0.023047 0.000000 0.000000 0.000000
# 4 0.000000 0.000000 0.000000 0.009890 0.000000 0.000000
# 5 0.000000 0.000000 0.000000 0.000000 1.375569 0.000000
# 6 0.000000 0.000000 0.000000 0.000000 0.000000 0.042284
#
#
# Mechanical properties :
#
#
# Convention : Reuss Voigt Hill
#
# Bulk Modulus (GPa) = 24.92650 25.25880 25.09265
# Shear Modulus (GPa) = 3.29856 34.60332 18.95094
#
# Velocity S-wave (km/s) = 1.22243 3.95931 2.93006
# Velocity P-wave (km/s) = 3.64483 5.68722 4.77646
#
# Compressibility (1/GPa) = 0.04011795
#
# Stress axis : x y z
#
# Youngs Moduli (GPa) = 51.67852 66.62630 43.38886
#
# Poissons Ratio (x) = 0.08352 0.20058
# Poissons Ratio (y) = 0.06478 0.12010
# Poissons Ratio (z) = 0.23890 0.18442
#
# Static dielectric constant tensor:
#      x y z
#    x 1.818510 0.000000 0.000000 
#    y 0.000000 1.800940 0.000000 
#    z 0.000000 0.000000 1.829900 
# 
# From -- ./inp_files/4479.got.cif
#   From: 2010.05.17/outbox.cif.g08.bks.cpg/sg19_3_cif.got.tgz:4479.got - 2010.06.03 22:46:19.
