data_PCOD9315230
_publ_section_title
;
Structure prediction by ZEFSAII (Michael W. Deem and Ramdas Pophale) SiO2 
 PCOD9315230
Probable space group: P 21 21 21
;
_chemical_formula_sum "Si O2"
_cell_formula_units_Z 16
_cell_length_a 12.763423
_cell_length_b 10.062669
_cell_length_c 4.914901
_cell_angle_alpha 90.000000
_cell_angle_beta 90.000000
_cell_angle_gamma 90.000000
_cell_volume 631.240891
_symmetry_space_group_name_H-M "P 21 21 21"
_symmetry_group_IT_number 19
_symmetry_cell_setting 'orthorhombic'
loop_
_space_group_symop_operation_xyz
x,y,z
1/2-x,-y,1/2+z
1/2+x,1/2-y,-z
-x,1/2+y,1/2-z
loop_
_atom_site_type_symbol
_atom_site_label
_atom_site_fract_x
_atom_site_fract_y
_atom_site_fract_z
Si Si1 0.016635 0.898220 0.717250
Si Si2 0.879773 0.931295 0.235727
Si Si3 0.317966 0.301974 0.478276
Si Si4 0.293155 0.932619 0.274212
O O1 0.962609 0.860671 0.435341
O O2 0.088871 0.030190 0.694795
O O3 0.095018 0.786363 0.829369
O O4 0.927277 0.926805 0.936197
O O5 0.867985 0.078555 0.353248
O O6 0.766398 0.864297 0.228081
O O7 0.251346 0.206644 0.678112
O O8 0.274978 0.963335 0.590561
#
# Coordination Sequence:
#
# PCOD9315230 Si02
#       4
#     4   4   4   4
#     4  11  27  51  80 116 153 209 258 307 397 468
#     4  12  28  50  80 119 154 207 251 325 390 450
#     4  11  28  55  76 117 163 192 266 325 381 464
#     4  10  23  48  78 108 150 200 249 315 380 450
#
# _framework density 25.346899000000001
#
# number of rings (size 3 to 8) (size 9 to 14) (size 15 to 20)
#    0.000    1.000    0.000    4.500    3.500   18.000 
#   13.500    0.000    0.000    0.000    0.000    0.000 
#    0.000    0.000    0.000    0.000    0.000    0.000 
#
# Total GULP energy -89831.689799 kJ/mol
# GULP energy per Si atom -5614.480612 kJ/mol
# Density = 2.528921 g / cm^3
# Si number density = 25.346899 Si / 1000 Ang^3
#
#
#
# Elastic Constant Matrix: (Units=GPa)
#
#
# Indices 1 2 3 4 5 6 
#
# 1 106.4984 31.3978 3.8495 0.0000 0.0000 0.0000
# 2 31.3978 115.1953 -0.1730 0.0000 0.0000 0.0000
# 3 3.8495 -0.1730 73.2438 0.0000 0.0000 0.0000
# 4 0.0000 0.0000 0.0000 20.0404 0.0000 0.0000
# 5 0.0000 0.0000 0.0000 0.0000 52.9972 0.0000
# 6 0.0000 0.0000 0.0000 0.0000 0.0000 47.6290
#
#
#
# Elastic Compliance Matrix: (Units=1/GPa)
#
#
# Indices 1 2 3 4 5 6 
#
# 1 0.010232 -0.002790 -0.000544 0.000000 0.000000 0.000000
# 2 -0.002790 0.009442 0.000169 0.000000 0.000000 0.000000
# 3 -0.000544 0.000169 0.013682 0.000000 0.000000 0.000000
# 4 0.000000 0.000000 0.000000 0.049899 0.000000 0.000000
# 5 0.000000 0.000000 0.000000 0.000000 0.018869 0.000000
# 6 0.000000 0.000000 0.000000 0.000000 0.000000 0.020996
#
#
# Mechanical properties :
#
#
# Convention : Reuss Voigt Hill
#
# Bulk Modulus (GPa) = 37.00234 40.56513 38.78373
# Shear Modulus (GPa) = 36.11209 41.45753 38.78481
#
# Velocity S-wave (km/s) = 3.77863 4.04865 3.91597
# Velocity P-wave (km/s) = 5.80237 6.15582 5.98171
#
# Compressibility (1/GPa) = 0.02702532
#
# Stress axis : x y z
#
# Youngs Moduli (GPa) = 97.73332 105.91522 73.08849
#
# Poissons Ratio (x) = 0.29547 0.03979
# Poissons Ratio (y) = 0.27264 -0.01235
# Poissons Ratio (z) = 0.05320 -0.01789
#
# Static dielectric constant tensor:
#      x y z
#    x 1.970970 0.000000 0.000000 
#    y 0.000000 2.005450 0.000000 
#    z 0.000000 0.000000 1.937580 
# 
# From -- ./inp_files/794.got.cif
#   From: 2010.05.17/outbox.cif.g08.bks.cpg/sg19_1_cif.got.tgz:794.got - 2010.06.03 22:46:19.
