data_PCOD9315781
_publ_section_title
;
Structure prediction by ZEFSAII (Michael W. Deem and Ramdas Pophale) SiO2 
 PCOD9315781
Probable space group: P 21 21 21
;
_chemical_formula_sum "Si O2"
_cell_formula_units_Z 24
_cell_length_a 7.033864
_cell_length_b 13.056284
_cell_length_c 13.056260
_cell_angle_alpha 90.000000
_cell_angle_beta 90.000000
_cell_angle_gamma 90.000000
_cell_volume 1199.036338
_symmetry_space_group_name_H-M "P 21 21 21"
_symmetry_group_IT_number 19
_symmetry_cell_setting 'orthorhombic'
loop_
_space_group_symop_operation_xyz
x,y,z
1/2-x,-y,1/2+z
1/2+x,1/2-y,-z
-x,1/2+y,1/2-z
loop_
_atom_site_type_symbol
_atom_site_label
_atom_site_fract_x
_atom_site_fract_y
_atom_site_fract_z
Si Si1 0.393272 0.507593 0.597322
Si Si2 0.356741 0.347318 0.757607
Si Si3 0.024695 0.776147 0.646211
Si Si4 0.907607 0.987833 0.075349
Si Si5 0.274698 0.896214 0.473854
Si Si6 0.657608 0.174646 0.737844
O O1 0.375017 0.394869 0.644881
O O2 0.276736 0.514555 0.492391
O O3 0.605738 0.549828 0.587909
O O4 0.305593 0.584322 0.680502
O O5 0.444401 0.430503 0.834336
O O6 0.473279 0.242389 0.764582
O O7 0.144270 0.337906 0.799830
O O8 0.161408 0.834726 0.564589
O O9 0.158536 0.742614 0.740480
O O10 0.911408 0.685415 0.584717
O O11 0.875013 0.879184 0.129191
O O12 0.091454 0.009515 0.007377
#
# Coordination Sequence:
#
# PCOD9315781 Si02
#       6
#     4   4   4   4   4   4
#     4  11  24  44  67  99 130 168 220 269 323 387
#     4  11  24  44  67  99 130 168 220 269 323 387
#     4  12  22  40  74  96 126 172 224 270 318 378
#     4  11  24  44  67  99 130 168 220 269 323 387
#     4  12  22  40  74  96 126 172 224 270 318 378
#     4  11  24  44  67  99 130 168 220 269 323 387
#
# _framework density 20.016074
#
# number of rings (size 3 to 8) (size 9 to 14) (size 15 to 20)
#    0.000    0.667    6.667    2.000    0.000    2.667 
#    6.000    0.000    0.000    0.000    0.000    0.000 
#    0.000    0.000    0.000    0.000    0.000    0.000 
#
# Total GULP energy -133814.534976 kJ/mol
# GULP energy per Si atom -5575.605624 kJ/mol
# Density = 1.997052 g / cm^3
# Si number density = 20.016074 Si / 1000 Ang^3
#
#
#
# Elastic Constant Matrix: (Units=GPa)
#
#
# Indices 1 2 3 4 5 6 
#
# 1 104.2755 21.7413 21.7374 0.0000 0.0000 0.0000
# 2 21.7413 57.1029 29.5359 0.0000 0.0000 0.0000
# 3 21.7374 29.5359 57.1085 0.0000 0.0000 0.0000
# 4 0.0000 0.0000 0.0000 29.8901 0.0000 0.0000
# 5 0.0000 0.0000 0.0000 0.0000 17.8973 0.0000
# 6 0.0000 0.0000 0.0000 0.0000 0.0000 17.8879
#
#
#
# Elastic Compliance Matrix: (Units=1/GPa)
#
#
# Indices 1 2 3 4 5 6 
#
# 1 0.010711 -0.002688 -0.002686 0.000000 0.000000 0.000000
# 2 -0.002688 0.024583 -0.011691 0.000000 0.000000 0.000000
# 3 -0.002686 -0.011691 0.024579 0.000000 0.000000 0.000000
# 4 0.000000 0.000000 0.000000 0.033456 0.000000 0.000000
# 5 0.000000 0.000000 0.000000 0.000000 0.055874 0.000000
# 6 0.000000 0.000000 0.000000 0.000000 0.000000 0.055904
#
#
# Mechanical properties :
#
#
# Convention : Reuss Voigt Hill
#
# Bulk Modulus (GPa) = 38.84741 40.50179 39.67460
# Shear Modulus (GPa) = 20.17612 22.83322 21.50467
#
# Velocity S-wave (km/s) = 3.17834 3.38115 3.28131
# Velocity P-wave (km/s) = 5.73754 5.95999 5.84982
#
# Compressibility (1/GPa) = 0.02574174
#
# Stress axis : x y z
#
# Youngs Moduli (GPa) = 93.36619 40.67902 40.68460
#
# Poissons Ratio (x) = 0.10936 0.10929
# Poissons Ratio (y) = 0.25101 0.47563
# Poissons Ratio (z) = 0.25082 0.47556
#
# Static dielectric constant tensor:
#      x y z
#    x 1.679920 0.000000 0.000000 
#    y 0.000000 1.770390 0.000000 
#    z 0.000000 0.000000 1.770420 
# 
# From -- ./inp_files/1433.got.cif
#   From: 2010.05.17/outbox.cif.g08.bks.cpg/sg19_1_cif.got.tgz:1433.got - 2010.06.03 22:46:19.
