data_PCOD9315694
_publ_section_title
;
Structure prediction by ZEFSAII (Michael W. Deem and Ramdas Pophale) SiO2 
 PCOD9315694
Probable space group: P 21 21 21
;
_chemical_formula_sum "Si O2"
_cell_formula_units_Z 32
_cell_length_a 10.921528
_cell_length_b 21.541148
_cell_length_c 5.971792
_cell_angle_alpha 90.000000
_cell_angle_beta 90.000000
_cell_angle_gamma 90.000000
_cell_volume 1404.937229
_symmetry_space_group_name_H-M "P 21 21 21"
_symmetry_group_IT_number 19
_symmetry_cell_setting 'orthorhombic'
loop_
_space_group_symop_operation_xyz
x,y,z
1/2-x,-y,1/2+z
1/2+x,1/2-y,-z
-x,1/2+y,1/2-z
loop_
_atom_site_type_symbol
_atom_site_label
_atom_site_fract_x
_atom_site_fract_y
_atom_site_fract_z
Si Si1 0.465334 0.652798 0.679172
Si Si2 0.244546 0.432134 0.336896
Si Si3 0.298256 0.979358 0.630561
Si Si4 0.699360 0.652180 0.396982
Si Si5 0.658835 0.246454 0.096321
Si Si6 0.927818 0.043062 0.025650
Si Si7 0.347612 0.344094 0.705732
Si Si8 0.556925 0.727534 0.062920
O O1 0.354185 0.605115 0.687648
O O2 0.567690 0.634562 0.500142
O O3 0.416065 0.721383 0.615234
O O4 0.531593 0.666846 0.911631
O O5 0.179179 0.497171 0.387761
O O6 0.264175 0.388252 0.550731
O O7 0.376982 0.441898 0.222539
O O8 0.266530 0.908121 0.686292
O O9 0.441325 0.988299 0.567601
O O10 0.234108 0.989975 0.378311
O O11 0.784041 0.686194 0.578235
O O12 0.668863 0.706099 0.219618
O O13 0.766095 0.196870 0.129128
O O14 0.564943 0.239867 0.297632
O O15 0.929978 0.108146 0.157122
O O16 0.410904 0.291498 0.557701
#
# Coordination Sequence:
#
# PCOD9315694 Si02
#       8
#     4   4   4   4   4   4   4   4
#     4  11  23  44  73 103 150 191 250 321 396 484
#     4  12  25  46  74 108 144 202 260 326 399 471
#     4  12  33  56  82 115 161 216 275 336 405 491
#     4  11  27  45  74 106 150 202 259 321 407 482
#     4  11  24  42  67 112 142 191 245 316 391 477
#     4  12  29  47  78 109 155 203 271 334 397 480
#     4  12  25  43  70 110 149 190 258 319 394 471
#     4  11  26  41  72 107 151 199 246 327 399 480
#
# _framework density 22.776817000000001
#
# number of rings (size 3 to 8) (size 9 to 14) (size 15 to 20)
#    0.000    0.500    5.000    1.500    8.750    1.000 
#    0.000    0.000    0.000    0.000    0.000    0.000 
#    0.000    0.000    0.000    0.000    0.000    0.000 
#
# Total GULP energy -178679.476440 kJ/mol
# GULP energy per Si atom -5583.733639 kJ/mol
# Density = 2.272498 g / cm^3
# Si number density = 22.776817 Si / 1000 Ang^3
#
#
#
# Elastic Constant Matrix: (Units=GPa)
#
#
# Indices 1 2 3 4 5 6 
#
# 1 63.2758 0.1577 6.6481 0.0000 0.0000 0.0000
# 2 0.1577 82.8029 14.1319 0.0000 0.0000 0.0000
# 3 6.6481 14.1319 51.2858 0.0000 0.0000 0.0000
# 4 0.0000 0.0000 0.0000 38.8701 0.0000 0.0000
# 5 0.0000 0.0000 0.0000 0.0000 26.2438 0.0000
# 6 0.0000 0.0000 0.0000 0.0000 0.0000 22.3106
#
#
#
# Elastic Compliance Matrix: (Units=1/GPa)
#
#
# Indices 1 2 3 4 5 6 
#
# 1 0.016031 0.000340 -0.002172 0.000000 0.000000 0.000000
# 2 0.000340 0.012680 -0.003538 0.000000 0.000000 0.000000
# 3 -0.002172 -0.003538 0.020755 0.000000 0.000000 0.000000
# 4 0.000000 0.000000 0.000000 0.025727 0.000000 0.000000
# 5 0.000000 0.000000 0.000000 0.000000 0.038104 0.000000
# 6 0.000000 0.000000 0.000000 0.000000 0.000000 0.044822
#
#
# Mechanical properties :
#
#
# Convention : Reuss Voigt Hill
#
# Bulk Modulus (GPa) = 25.82200 26.58222 26.20211
# Shear Modulus (GPa) = 27.50766 29.24667 28.37716
#
# Velocity S-wave (km/s) = 3.47897 3.58726 3.53353
# Velocity P-wave (km/s) = 5.24397 5.37159 5.30816
#
# Compressibility (1/GPa) = 0.03872667
#
# Stress axis : x y z
#
# Youngs Moduli (GPa) = 62.37851 78.86394 48.18102
#
# Poissons Ratio (x) = -0.02682 0.10464
# Poissons Ratio (y) = -0.02122 0.17047
# Poissons Ratio (z) = 0.13548 0.27903
#
# Static dielectric constant tensor:
#      x y z
#    x 1.841260 0.000000 0.000000 
#    y 0.000000 1.851380 0.000000 
#    z 0.000000 0.000000 1.940200 
# 
# From -- ./inp_files/1225.got.cif
#   From: 2010.05.17/outbox.cif.g08.bks.cpg/sg19_1_cif.got.tgz:1225.got - 2010.06.03 22:46:19.
