data_PCOD9315802
_publ_section_title
;
Structure prediction by ZEFSAII (Michael W. Deem and Ramdas Pophale) SiO2 
 PCOD9315802
Probable space group: P 21 21 21
;
_chemical_formula_sum "Si O2"
_cell_formula_units_Z 28
_cell_length_a 17.332866
_cell_length_b 4.946796
_cell_length_c 11.958936
_cell_angle_alpha 90.000000
_cell_angle_beta 90.000000
_cell_angle_gamma 90.000000
_cell_volume 1025.384911
_symmetry_space_group_name_H-M "P 21 21 21"
_symmetry_group_IT_number 19
_symmetry_cell_setting 'orthorhombic'
loop_
_space_group_symop_operation_xyz
x,y,z
1/2-x,-y,1/2+z
1/2+x,1/2-y,-z
-x,1/2+y,1/2-z
loop_
_atom_site_type_symbol
_atom_site_label
_atom_site_fract_x
_atom_site_fract_y
_atom_site_fract_z
Si Si1 0.372671 0.584987 0.448410
Si Si2 0.871518 0.553718 0.002977
Si Si3 0.012941 0.083229 0.682787
Si Si4 0.223725 0.421759 0.337909
Si Si5 0.981529 0.620123 0.214294
Si Si6 0.768500 0.629696 0.395694
Si Si7 0.637738 0.843387 0.809247
O O1 0.455087 0.593608 0.393729
O O2 0.311513 0.481450 0.357786
O O3 0.328319 0.836959 0.502930
O O4 0.377559 0.403259 0.557418
O O5 0.805939 0.725735 0.066655
O O6 0.940182 0.569229 0.095897
O O7 0.816983 0.326680 0.943124
O O8 0.914501 0.666512 0.892202
O O9 0.970744 0.356368 0.723167
O O10 0.209721 0.339253 0.205914
O O11 0.160424 0.654985 0.329324
O O12 0.057090 0.865921 0.206369
O O13 0.057330 0.395401 0.224400
O O14 0.784941 0.352544 0.335463
#
# Coordination Sequence:
#
# PCOD9315802 Si02
#       7
#     4   4   4   4   4   4   4
#     4  11  26  47  74 105 158 202 255 324 401 454
#     4  12  26  49  80 111 153 212 257 330 404 464
#     4  12  31  52  80 116 161 212 266 325 398 491
#     4  11  25  46  72 113 145 203 259 322 386 479
#     4  12  27  46  75 112 152 193 259 316 387 463
#     4  11  27  45  75 111 149 197 270 322 393 475
#     4  11  24  45  70 108 148 193 248 327 377 460
#
# _framework density 27.306819000000001
#
# number of rings (size 3 to 8) (size 9 to 14) (size 15 to 20)
#    0.000    0.571    4.286    1.714   10.000    2.286 
#    0.000    0.000    0.000    0.000    0.000    0.000 
#    0.000    0.000    0.000    0.000    0.000    0.000 
#
# Total GULP energy -155902.906580 kJ/mol
# GULP energy per Si atom -5567.960949 kJ/mol
# Density = 2.724467 g / cm^3
# Si number density = 27.306819 Si / 1000 Ang^3
#
#
#
# Elastic Constant Matrix: (Units=GPa)
#
#
# Indices 1 2 3 4 5 6 
#
# 1 120.5238 13.2876 43.7782 0.0000 0.0000 0.0000
# 2 13.2876 142.8058 35.4090 0.0000 0.0000 0.0000
# 3 43.7782 35.4090 116.7527 0.0000 0.0000 0.0000
# 4 0.0000 0.0000 0.0000 30.9768 0.0000 0.0000
# 5 0.0000 0.0000 0.0000 0.0000 48.8871 0.0000
# 6 0.0000 0.0000 0.0000 0.0000 0.0000 27.7600
#
#
#
# Elastic Compliance Matrix: (Units=1/GPa)
#
#
# Indices 1 2 3 4 5 6 
#
# 1 0.009605 -0.000001 -0.003601 0.000000 0.000000 0.000000
# 2 -0.000001 0.007572 -0.002296 0.000000 0.000000 0.000000
# 3 -0.003601 -0.002296 0.010612 0.000000 0.000000 0.000000
# 4 0.000000 0.000000 0.000000 0.032282 0.000000 0.000000
# 5 0.000000 0.000000 0.000000 0.000000 0.020455 0.000000
# 6 0.000000 0.000000 0.000000 0.000000 0.000000 0.036023
#
#
# Mechanical properties :
#
#
# Convention : Reuss Voigt Hill
#
# Bulk Modulus (GPa) = 62.52937 62.78136 62.65536
# Shear Modulus (GPa) = 37.40352 40.69862 39.05107
#
# Velocity S-wave (km/s) = 3.70503 3.86478 3.78575
# Velocity P-wave (km/s) = 6.42273 6.55411 6.48876
#
# Compressibility (1/GPa) = 0.01599248
#
# Stress axis : x y z
#
# Youngs Moduli (GPa) = 104.10847 132.06690 94.23372
#
# Poissons Ratio (x) = 0.00010 0.33938
# Poissons Ratio (y) = 0.00008 0.21637
# Poissons Ratio (z) = 0.37494 0.30324
#
# Static dielectric constant tensor:
#      x y z
#    x 2.454620 0.000000 0.000000 
#    y 0.000000 2.359390 0.000000 
#    z 0.000000 0.000000 2.179860 
# 
# From -- ./inp_files/5354.got.cif
#   From: 2010.05.17/outbox.cif.g08.bks.cpg/sg19_3_cif.got.tgz:5354.got - 2010.06.03 22:46:19.
