data_PCOD9315850
_publ_section_title
;
Structure prediction by ZEFSAII (Michael W. Deem and Ramdas Pophale) SiO2 
 PCOD9315850
Probable space group: P 21 21 21
;
_chemical_formula_sum "Si O2"
_cell_formula_units_Z 32
_cell_length_a 5.297682
_cell_length_b 8.105012
_cell_length_c 30.561252
_cell_angle_alpha 90.000000
_cell_angle_beta 90.000000
_cell_angle_gamma 90.000000
_cell_volume 1312.232198
_symmetry_space_group_name_H-M "P 21 21 21"
_symmetry_group_IT_number 19
_symmetry_cell_setting 'orthorhombic'
loop_
_space_group_symop_operation_xyz
x,y,z
1/2-x,-y,1/2+z
1/2+x,1/2-y,-z
-x,1/2+y,1/2-z
loop_
_atom_site_type_symbol
_atom_site_label
_atom_site_fract_x
_atom_site_fract_y
_atom_site_fract_z
Si Si1 0.480371 0.191314 0.244743
Si Si2 0.980968 0.403538 0.242742
Si Si3 0.280063 0.465597 0.826694
Si Si4 0.041733 0.319534 0.021479
Si Si5 0.769207 0.928693 0.828384
Si Si6 0.870424 0.667922 0.986909
Si Si7 0.404110 0.884094 0.116229
Si Si8 0.640899 0.256826 0.877577
O O1 0.218198 0.280356 0.237662
O O2 0.543576 0.067604 0.205390
O O3 0.716972 0.314406 0.240207
O O4 0.515163 0.111634 0.292468
O O5 0.017840 0.470579 0.291741
O O6 0.035360 0.537176 0.204788
O O7 0.389756 0.303842 0.850178
O O8 0.182535 0.593845 0.862676
O O9 0.072967 0.285988 0.072750
O O10 0.310844 0.286645 0.998410
O O11 0.957025 0.504153 0.011610
O O12 0.781915 0.098939 0.856191
O O13 0.767312 0.768807 0.859529
O O14 0.907916 0.650105 0.935103
O O15 0.576502 0.699502 0.996810
O O16 0.285290 0.067365 0.121727
#
# Coordination Sequence:
#
# PCOD9315850 Si02
#       8
#     4   4   4   4   4   4   4   4
#     4  11  24  48  72 112 163 203 263 319 386 469
#     4  11  24  48  71 111 161 205 260 317 391 464
#     4  11  25  42  77 107 160 206 255 329 391 452
#     4  12  26  52  82 113 157 212 253 329 420 478
#     4  11  25  47  79 114 155 212 263 321 398 469
#     4  12  28  53  81 117 158 207 265 332 412 484
#     4  12  26  52  78 115 158 204 266 343 389 481
#     4  12  26  50  78 117 154 205 271 328 395 491
#
# _framework density 24.385930999999999
#
# number of rings (size 3 to 8) (size 9 to 14) (size 15 to 20)
#    0.000    0.500    3.750    3.750    1.750    3.000 
#    9.000    0.000    0.000    0.000    0.000    0.000 
#    0.000    0.000    0.000    0.000    0.000    0.000 
#
# Total GULP energy -179207.266185 kJ/mol
# GULP energy per Si atom -5600.227068 kJ/mol
# Density = 2.433043 g / cm^3
# Si number density = 24.385931 Si / 1000 Ang^3
#
#
#
# Elastic Constant Matrix: (Units=GPa)
#
#
# Indices 1 2 3 4 5 6 
#
# 1 116.1891 34.8033 10.8089 0.0000 0.0000 0.0000
# 2 34.8033 120.9648 34.9736 0.0000 0.0000 0.0000
# 3 10.8089 34.9736 145.4876 0.0000 0.0000 0.0000
# 4 0.0000 0.0000 0.0000 51.9480 0.0000 0.0000
# 5 0.0000 0.0000 0.0000 0.0000 27.2611 0.0000
# 6 0.0000 0.0000 0.0000 0.0000 0.0000 67.0862
#
#
#
# Elastic Compliance Matrix: (Units=1/GPa)
#
#
# Indices 1 2 3 4 5 6 
#
# 1 0.009419 -0.002695 -0.000052 0.000000 0.000000 0.000000
# 2 -0.002695 0.009655 -0.002121 0.000000 0.000000 0.000000
# 3 -0.000052 -0.002121 0.007387 0.000000 0.000000 0.000000
# 4 0.000000 0.000000 0.000000 0.019250 0.000000 0.000000
# 5 0.000000 0.000000 0.000000 0.000000 0.036682 0.000000
# 6 0.000000 0.000000 0.000000 0.000000 0.000000 0.014906
#
#
# Mechanical properties :
#
#
# Convention : Reuss Voigt Hill
#
# Bulk Modulus (GPa) = 59.78742 60.42368 60.10555
# Shear Modulus (GPa) = 44.40087 49.39610 46.89849
#
# Velocity S-wave (km/s) = 4.27166 4.50555 4.39016
# Velocity P-wave (km/s) = 6.99284 7.20406 7.09924
#
# Compressibility (1/GPa) = 0.01672593
#
# Stress axis : x y z
#
# Youngs Moduli (GPa) = 106.17157 103.56890 135.37070
#
# Poissons Ratio (x) = 0.27911 0.00703
# Poissons Ratio (y) = 0.28612 0.28710
# Poissons Ratio (z) = 0.00551 0.21965
#
# Static dielectric constant tensor:
#      x y z
#    x 2.007070 0.000000 0.000000 
#    y 0.000000 2.054680 0.000000 
#    z 0.000000 0.000000 1.881550 
# 
# From -- ./inp_files/7540.got.cif
#   From: 2010.05.17/outbox.cif.g08.bks.cpg/sg19_4_cif.got.tgz:7540.got - 2010.06.03 22:46:19.
