data_PCOD9315394
_publ_section_title
;
Structure prediction by ZEFSAII (Michael W. Deem and Ramdas Pophale) SiO2 
 PCOD9315394
Probable space group: P 21 21 21
;
_chemical_formula_sum "Si O2"
_cell_formula_units_Z 28
_cell_length_a 4.984834
_cell_length_b 8.750171
_cell_length_c 27.330962
_cell_angle_alpha 90.000000
_cell_angle_beta 90.000000
_cell_angle_gamma 90.000000
_cell_volume 1192.125998
_symmetry_space_group_name_H-M "P 21 21 21"
_symmetry_group_IT_number 19
_symmetry_cell_setting 'orthorhombic'
loop_
_space_group_symop_operation_xyz
x,y,z
1/2-x,-y,1/2+z
1/2+x,1/2-y,-z
-x,1/2+y,1/2-z
loop_
_atom_site_type_symbol
_atom_site_label
_atom_site_fract_x
_atom_site_fract_y
_atom_site_fract_z
Si Si1 0.338228 0.771880 0.175686
Si Si2 0.683420 0.785256 0.617799
Si Si3 0.669116 0.550847 0.122361
Si Si4 0.254031 0.831503 0.979122
Si Si5 0.995277 0.652727 0.486296
Si Si6 0.334963 0.834145 0.779068
Si Si7 0.303914 0.100225 0.169492
O O1 0.391284 0.635222 0.137206
O O2 0.626955 0.794663 0.201640
O O3 0.135391 0.723558 0.218079
O O4 0.239292 0.927960 0.152338
O O5 0.810864 0.621597 0.604969
O O6 0.621675 0.869322 0.567280
O O7 0.400547 0.780712 0.645530
O O8 0.897809 0.865082 0.652483
O O9 0.790095 0.655319 0.079478
O O10 0.809684 0.548742 0.175670
O O11 0.033242 0.705672 0.994525
O O12 0.124051 0.993277 0.995037
O O13 0.243296 0.728781 0.516076
O O14 0.241000 0.894069 0.727447
#
# Coordination Sequence:
#
# PCOD9315394 Si02
#       7
#     4   4   4   4   4   4   4
#     4  10  25  44  71 100 149 184 242 292 352 424
#     4  12  28  45  76 104 146 188 245 294 373 430
#     4  10  28  47  74 104 144 191 241 293 366 437
#     4  12  29  46  79 106 146 190 249 298 377 435
#     4  12  26  49  74 108 147 187 244 312 364 438
#     4  10  25  41  76  97 152 180 243 287 361 418
#     4  12  27  44  70 111 142 192 240 298 357 428
#
# _framework density 23.487451
#
# number of rings (size 3 to 8) (size 9 to 14) (size 15 to 20)
#    0.857    0.000    1.429    3.429   12.000    0.000 
#    0.000    0.000    0.000    0.000    0.000    0.000 
#    0.000    0.000    0.000    0.000    0.000    0.000 
#
# Total GULP energy -156358.653361 kJ/mol
# GULP energy per Si atom -5584.237620 kJ/mol
# Density = 2.343399 g / cm^3
# Si number density = 23.487451 Si / 1000 Ang^3
#
#
#
# Elastic Constant Matrix: (Units=GPa)
#
#
# Indices 1 2 3 4 5 6 
#
# 1 89.4423 3.0869 7.1007 0.0000 0.0000 0.0000
# 2 3.0869 66.5378 3.2314 0.0000 0.0000 0.0000
# 3 7.1007 3.2314 102.3339 0.0000 0.0000 0.0000
# 4 0.0000 0.0000 0.0000 24.1042 0.0000 0.0000
# 5 0.0000 0.0000 0.0000 0.0000 27.6174 0.0000
# 6 0.0000 0.0000 0.0000 0.0000 0.0000 23.1353
#
#
#
# Elastic Compliance Matrix: (Units=1/GPa)
#
#
# Indices 1 2 3 4 5 6 
#
# 1 0.011258 -0.000485 -0.000766 0.000000 0.000000 0.000000
# 2 -0.000485 0.015073 -0.000442 0.000000 0.000000 0.000000
# 3 -0.000766 -0.000442 0.009839 0.000000 0.000000 0.000000
# 4 0.000000 0.000000 0.000000 0.041487 0.000000 0.000000
# 5 0.000000 0.000000 0.000000 0.000000 0.036209 0.000000
# 6 0.000000 0.000000 0.000000 0.000000 0.000000 0.043224
#
#
# Mechanical properties :
#
#
# Convention : Reuss Voigt Hill
#
# Bulk Modulus (GPa) = 30.50311 31.68354 31.09333
# Shear Modulus (GPa) = 29.17087 31.29772 30.23429
#
# Velocity S-wave (km/s) = 3.52799 3.65434 3.59172
# Velocity P-wave (km/s) = 5.44158 5.59683 5.51975
#
# Compressibility (1/GPa) = 0.03278354
#
# Stress axis : x y z
#
# Youngs Moduli (GPa) = 88.82625 66.34359 101.63592
#
# Poissons Ratio (x) = 0.03218 0.07784
# Poissons Ratio (y) = 0.04309 0.04495
# Poissons Ratio (z) = 0.06803 0.02934
#
# Static dielectric constant tensor:
#      x y z
#    x 1.854770 0.000000 0.000000 
#    y 0.000000 1.923180 0.000000 
#    z 0.000000 0.000000 1.890370 
# 
# From -- ./inp_files/7524.got.cif
#   From: 2010.05.17/outbox.cif.g08.bks.cpg/sg19_4_cif.got.tgz:7524.got - 2010.06.03 22:46:19.
