data_PCOD9315046
_publ_section_title
;
Structure prediction by ZEFSAII (Michael W. Deem and Ramdas Pophale) SiO2 
 PCOD9315046
Probable space group: P 21 21 21
;
_chemical_formula_sum "Si O2"
_cell_formula_units_Z 28
_cell_length_a 16.600348
_cell_length_b 13.548643
_cell_length_c 5.099520
_cell_angle_alpha 90.000000
_cell_angle_beta 90.000000
_cell_angle_gamma 90.000000
_cell_volume 1146.944205
_symmetry_space_group_name_H-M "P 21 21 21"
_symmetry_group_IT_number 19
_symmetry_cell_setting 'orthorhombic'
loop_
_space_group_symop_operation_xyz
x,y,z
1/2-x,-y,1/2+z
1/2+x,1/2-y,-z
-x,1/2+y,1/2-z
loop_
_atom_site_type_symbol
_atom_site_label
_atom_site_fract_x
_atom_site_fract_y
_atom_site_fract_z
Si Si1 0.933622 0.364178 0.383756
Si Si2 0.798176 0.133777 0.079155
Si Si3 0.238350 0.935429 0.901230
Si Si4 0.366021 0.596543 0.283031
Si Si5 0.005159 0.263496 0.897182
Si Si6 0.465000 0.452185 0.998311
Si Si7 0.269799 0.722764 0.929676
O O1 0.974986 0.298321 0.612021
O O2 0.982518 0.466924 0.352567
O O3 0.219390 0.436511 0.897059
O O4 0.943200 0.305645 0.112927
O O5 0.778401 0.215267 0.296384
O O6 0.881765 0.082166 0.134721
O O7 0.788471 0.182276 0.795725
O O8 0.847378 0.397001 0.492220
O O9 0.270279 0.009912 0.123649
O O10 0.291586 0.835826 0.875507
O O11 0.408533 0.684448 0.439734
O O12 0.429322 0.510352 0.249208
O O13 0.342107 0.647417 0.002896
O O14 0.010727 0.146696 0.924893
#
# Coordination Sequence:
#
# PCOD9315046 Si02
#       7
#     4   4   4   4   4   4   4
#     4  11  27  47  66 106 141 183 242 288 360 433
#     4  10  23  41  70  99 139 178 231 292 360 409
#     4  12  25  44  72  99 137 192 245 288 346 430
#     4   9  26  41  71 102 141 177 249 280 357 425
#     4  11  25  46  68  97 149 185 224 301 364 419
#     4  11  25  45  73 104 143 190 230 300 364 426
#     4  10  23  42  68  97 142 171 243 291 343 408
#
# _framework density 24.412697000000001
#
# number of rings (size 3 to 8) (size 9 to 14) (size 15 to 20)
#    0.857    0.571    0.000    3.429    8.000    4.571 
#    0.000    0.000    0.000    0.000    0.000    0.000 
#    0.000    0.000    0.000    0.000    0.000    0.000 
#
# Total GULP energy -156565.573119 kJ/mol
# GULP energy per Si atom -5591.627611 kJ/mol
# Density = 2.435713 g / cm^3
# Si number density = 24.412697 Si / 1000 Ang^3
#
#
#
# Elastic Constant Matrix: (Units=GPa)
#
#
# Indices 1 2 3 4 5 6 
#
# 1 54.3834 5.3324 -4.0258 0.0000 0.0000 0.0000
# 2 5.3324 150.7049 18.4634 0.0000 0.0000 0.0000
# 3 -4.0258 18.4634 79.0702 0.0000 0.0000 0.0000
# 4 0.0000 0.0000 0.0000 27.8552 0.0000 0.0000
# 5 0.0000 0.0000 0.0000 0.0000 18.1391 0.0000
# 6 0.0000 0.0000 0.0000 0.0000 0.0000 29.3565
#
#
#
# Elastic Compliance Matrix: (Units=1/GPa)
#
#
# Indices 1 2 3 4 5 6 
#
# 1 0.018550 -0.000795 0.001130 0.000000 0.000000 0.000000
# 2 -0.000795 0.006865 -0.001643 0.000000 0.000000 0.000000
# 3 0.001130 -0.001643 0.013088 0.000000 0.000000 0.000000
# 4 0.000000 0.000000 0.000000 0.035900 0.000000 0.000000
# 5 0.000000 0.000000 0.000000 0.000000 0.055129 0.000000
# 6 0.000000 0.000000 0.000000 0.000000 0.000000 0.034064
#
#
# Mechanical properties :
#
#
# Convention : Reuss Voigt Hill
#
# Bulk Modulus (GPa) = 27.86578 35.96651 31.91614
# Shear Modulus (GPa) = 28.06234 32.69607 30.37920
#
# Velocity S-wave (km/s) = 3.39410 3.66362 3.53143
# Velocity P-wave (km/s) = 5.17679 5.71497 5.45252
#
# Compressibility (1/GPa) = 0.03588631
#
# Stress axis : x y z
#
# Youngs Moduli (GPa) = 53.90967 145.66741 76.40423
#
# Poissons Ratio (x) = 0.11577 -0.08634
# Poissons Ratio (y) = 0.04285 0.12557
# Poissons Ratio (z) = -0.06092 0.23940
#
# Static dielectric constant tensor:
#      x y z
#    x 2.041060 0.000000 0.000000 
#    y 0.000000 1.963780 0.000000 
#    z 0.000000 0.000000 1.928050 
# 
# From -- ./inp_files/1941.got.cif
#   From: 2010.05.17/outbox.cif.g08.bks.cpg/sg19_1_cif.got.tgz:1941.got - 2010.06.03 22:46:19.
