data_PCOD9315279
_publ_section_title
;
Structure prediction by ZEFSAII (Michael W. Deem and Ramdas Pophale) SiO2 
 PCOD9315279
Probable space group: P 21 21 21
;
_chemical_formula_sum "Si O2"
_cell_formula_units_Z 32
_cell_length_a 9.289402
_cell_length_b 26.165850
_cell_length_c 5.353848
_cell_angle_alpha 90.000000
_cell_angle_beta 90.000000
_cell_angle_gamma 90.000000
_cell_volume 1301.333596
_symmetry_space_group_name_H-M "P 21 21 21"
_symmetry_group_IT_number 19
_symmetry_cell_setting 'orthorhombic'
loop_
_space_group_symop_operation_xyz
x,y,z
1/2-x,-y,1/2+z
1/2+x,1/2-y,-z
-x,1/2+y,1/2-z
loop_
_atom_site_type_symbol
_atom_site_label
_atom_site_fract_x
_atom_site_fract_y
_atom_site_fract_z
Si Si1 0.199200 0.371893 0.320296
Si Si2 0.673571 0.044729 0.062348
Si Si3 0.849413 0.609866 0.328804
Si Si4 0.452327 0.098768 0.405893
Si Si5 0.157479 0.728420 0.735386
Si Si6 0.971553 0.720109 0.257034
Si Si7 0.168690 0.007805 0.941914
Si Si8 0.588238 0.938301 0.927144
O O1 0.272485 0.327109 0.168694
O O2 0.323147 0.387308 0.514831
O O3 0.037796 0.361427 0.418092
O O4 0.183791 0.427319 0.197485
O O5 0.574366 0.083894 0.210455
O O6 0.832700 0.042488 0.175126
O O7 0.603397 0.989404 0.087332
O O8 0.687259 0.619399 0.236261
O O9 0.868623 0.568614 0.552219
O O10 0.937486 0.661921 0.348470
O O11 0.927056 0.577824 0.111642
O O12 0.419434 0.043089 0.528594
O O13 0.060793 0.743991 0.493738
O O14 0.307554 0.758987 0.778955
O O15 0.061954 0.725427 0.994092
O O16 0.285773 0.008060 0.165007
#
# Coordination Sequence:
#
# PCOD9315279 Si02
#       8
#     4   4   4   4   4   4   4   4
#     4  11  24  44  72 102 148 194 249 300 375 441
#     4  11  23  40  63 100 146 200 248 290 371 430
#     4  11  25  44  74 105 151 192 258 302 383 442
#     4  10  26  40  65 109 146 206 237 309 362 455
#     4  12  29  55  85 115 155 194 261 327 399 466
#     4  12  29  55  84 119 148 203 255 330 400 465
#     4  10  24  43  63 104 155 197 244 299 357 441
#     4  11  22  41  64 100 143 196 244 301 345 454
#
# _framework density 24.590160999999998
#
# number of rings (size 3 to 8) (size 9 to 14) (size 15 to 20)
#    0.000    1.000    2.500    2.250   15.750    4.000 
#    0.000    0.000    0.000    0.000    0.000    0.000 
#    0.000    0.000    0.000    0.000    0.000    0.000 
#
# Total GULP energy -178240.105560 kJ/mol
# GULP energy per Si atom -5570.003299 kJ/mol
# Density = 2.453419 g / cm^3
# Si number density = 24.590161 Si / 1000 Ang^3
#
#
#
# Elastic Constant Matrix: (Units=GPa)
#
#
# Indices 1 2 3 4 5 6 
#
# 1 136.4795 12.8312 35.2076 0.0000 0.0000 0.0000
# 2 12.8312 59.1065 -1.5143 0.0000 0.0000 0.0000
# 3 35.2076 -1.5143 66.4719 0.0000 0.0000 0.0000
# 4 0.0000 0.0000 0.0000 19.1357 0.0000 0.0000
# 5 0.0000 0.0000 0.0000 0.0000 29.0589 0.0000
# 6 0.0000 0.0000 0.0000 0.0000 0.0000 38.5721
#
#
#
# Elastic Compliance Matrix: (Units=1/GPa)
#
#
# Indices 1 2 3 4 5 6 
#
# 1 0.008720 -0.002012 -0.004664 0.000000 0.000000 0.000000
# 2 -0.002012 0.017393 0.001462 0.000000 0.000000 0.000000
# 3 -0.004664 0.001462 0.017548 0.000000 0.000000 0.000000
# 4 0.000000 0.000000 0.000000 0.052258 0.000000 0.000000
# 5 0.000000 0.000000 0.000000 0.000000 0.034413 0.000000
# 6 0.000000 0.000000 0.000000 0.000000 0.000000 0.025925
#
#
# Mechanical properties :
#
#
# Convention : Reuss Voigt Hill
#
# Bulk Modulus (GPa) = 30.09225 39.45634 34.77430
# Shear Modulus (GPa) = 28.12735 31.72223 29.92479
#
# Velocity S-wave (km/s) = 3.38575 3.59561 3.49225
# Velocity P-wave (km/s) = 5.24866 5.77220 5.51664
#
# Compressibility (1/GPa) = 0.03323114
#
# Stress axis : x y z
#
# Youngs Moduli (GPa) = 114.68495 57.49459 56.98745
#
# Poissons Ratio (x) = 0.11570 0.26580
# Poissons Ratio (y) = 0.23079 -0.08332
# Poissons Ratio (z) = 0.53492 -0.08406
#
# Static dielectric constant tensor:
#      x y z
#    x 2.053800 0.000000 0.000000 
#    y 0.000000 2.011380 0.000000 
#    z 0.000000 0.000000 2.188540 
# 
# From -- ./inp_files/726.got.cif
#   From: 2010.05.17/outbox.cif.g08.bks.cpg/sg19_1_cif.got.tgz:726.got - 2010.06.03 22:46:19.
