data_PCOD9315612
_publ_section_title
;
Structure prediction by ZEFSAII (Michael W. Deem and Ramdas Pophale) SiO2 
 PCOD9315612
Probable space group: P 21 21 21
;
_chemical_formula_sum "Si O2"
_cell_formula_units_Z 28
_cell_length_a 9.092416
_cell_length_b 15.407813
_cell_length_c 9.238817
_cell_angle_alpha 90.000000
_cell_angle_beta 90.000000
_cell_angle_gamma 90.000000
_cell_volume 1294.305096
_symmetry_space_group_name_H-M "P 21 21 21"
_symmetry_group_IT_number 19
_symmetry_cell_setting 'orthorhombic'
loop_
_space_group_symop_operation_xyz
x,y,z
1/2-x,-y,1/2+z
1/2+x,1/2-y,-z
-x,1/2+y,1/2-z
loop_
_atom_site_type_symbol
_atom_site_label
_atom_site_fract_x
_atom_site_fract_y
_atom_site_fract_z
Si Si1 0.564270 0.973617 0.680369
Si Si2 0.682691 0.545602 0.985088
Si Si3 0.981078 0.290912 0.145577
Si Si4 0.204549 0.429122 0.064653
Si Si5 0.815201 0.664846 0.225511
Si Si6 0.913156 0.208794 0.858640
Si Si7 0.687991 0.391378 0.214414
O O1 0.704204 0.952016 0.578462
O O2 0.425764 0.908832 0.711791
O O3 0.477208 0.048828 0.591429
O O4 0.627729 0.997824 0.838075
O O5 0.735145 0.623968 0.087515
O O6 0.676340 0.458428 0.081430
O O7 0.803059 0.549383 0.857141
O O8 0.840093 0.340819 0.198759
O O9 0.080379 0.355472 0.048498
O O10 0.074001 0.247336 0.274592
O O11 0.936990 0.217423 0.030518
O O12 0.320133 0.378536 0.167011
O O13 0.680813 0.706591 0.317328
O O14 0.066051 0.183801 0.785870
#
# Coordination Sequence:
#
# PCOD9315612 Si02
#       7
#     4   4   4   4   4   4   4
#     4  12  24  48  70 112 145 192 252 306 366 446
#     4  12  24  46  73 107 146 192 247 307 379 437
#     4  11  22  44  72 104 146 192 242 300 368 448
#     4  11  24  42  73 103 146 188 245 300 359 444
#     4  11  25  44  74 102 146 189 248 310 365 444
#     4  11  24  43  72 107 141 192 254 292 374 442
#     4  12  25  45  78 105 148 199 248 311 373 451
#
# _framework density 21.633230999999999
#
# number of rings (size 3 to 8) (size 9 to 14) (size 15 to 20)
#    0.000    0.571    5.714    2.571    0.000    4.571 
#    0.000    0.000    0.000    0.000    0.000    0.000 
#    0.000    0.000    0.000    0.000    0.000    0.000 
#
# Total GULP energy -155928.617818 kJ/mol
# GULP energy per Si atom -5568.879208 kJ/mol
# Density = 2.158399 g / cm^3
# Si number density = 21.633231 Si / 1000 Ang^3
#
#
#
# Elastic Constant Matrix: (Units=GPa)
#
#
# Indices 1 2 3 4 5 6 
#
# 1 104.1799 31.6270 4.4207 0.0000 0.0000 0.0000
# 2 31.6270 58.3943 16.9748 0.0000 0.0000 0.0000
# 3 4.4207 16.9748 41.6240 0.0000 0.0000 0.0000
# 4 0.0000 0.0000 0.0000 40.3852 0.0000 0.0000
# 5 0.0000 0.0000 0.0000 0.0000 28.5565 0.0000
# 6 0.0000 0.0000 0.0000 0.0000 0.0000 11.3268
#
#
#
# Elastic Compliance Matrix: (Units=1/GPa)
#
#
# Indices 1 2 3 4 5 6 
#
# 1 0.011570 -0.006704 0.001505 0.000000 0.000000 0.000000
# 2 -0.006704 0.023313 -0.008795 0.000000 0.000000 0.000000
# 3 0.001505 -0.008795 0.027451 0.000000 0.000000 0.000000
# 4 0.000000 0.000000 0.000000 0.024762 0.000000 0.000000
# 5 0.000000 0.000000 0.000000 0.000000 0.035018 0.000000
# 6 0.000000 0.000000 0.000000 0.000000 0.000000 0.088286
#
#
# Mechanical properties :
#
#
# Convention : Reuss Voigt Hill
#
# Bulk Modulus (GPa) = 29.11531 34.47147 31.79339
# Shear Modulus (GPa) = 20.01303 26.13209 23.07256
#
# Velocity S-wave (km/s) = 3.04486 3.47934 3.26933
# Velocity P-wave (km/s) = 5.08423 5.66659 5.38329
#
# Compressibility (1/GPa) = 0.03434619
#
# Stress axis : x y z
#
# Youngs Moduli (GPa) = 86.42942 42.89521 36.42790
#
# Poissons Ratio (x) = 0.28757 -0.05483
# Poissons Ratio (y) = 0.57943 0.32039
# Poissons Ratio (z) = -0.13009 0.37727
#
# Static dielectric constant tensor:
#      x y z
#    x 1.820930 0.000000 0.000000 
#    y 0.000000 1.872240 0.000000 
#    z 0.000000 0.000000 1.862710 
# 
# From -- ./inp_files/3034.got.cif
#   From: 2010.05.17/outbox.cif.g08.bks.cpg/sg19_2_cif.got.tgz:3034.got - 2010.06.03 22:46:19.
