data_PCOD9315291
_publ_section_title
;
Structure prediction by ZEFSAII (Michael W. Deem and Ramdas Pophale) SiO2 
 PCOD9315291
Probable space group: P 21 21 21
;
_chemical_formula_sum "Si O2"
_cell_formula_units_Z 28
_cell_length_a 4.991860
_cell_length_b 10.778433
_cell_length_c 20.998083
_cell_angle_alpha 90.000000
_cell_angle_beta 90.000000
_cell_angle_gamma 90.000000
_cell_volume 1129.789857
_symmetry_space_group_name_H-M "P 21 21 21"
_symmetry_group_IT_number 19
_symmetry_cell_setting 'orthorhombic'
loop_
_space_group_symop_operation_xyz
x,y,z
1/2-x,-y,1/2+z
1/2+x,1/2-y,-z
-x,1/2+y,1/2-z
loop_
_atom_site_type_symbol
_atom_site_label
_atom_site_fract_x
_atom_site_fract_y
_atom_site_fract_z
Si Si1 0.489776 0.734584 0.040542
Si Si2 0.179841 0.038638 0.931210
Si Si3 0.512934 0.028410 0.203241
Si Si4 0.350101 0.665526 0.622180
Si Si5 0.661671 0.112023 0.629268
Si Si6 0.335183 0.269436 0.262292
Si Si7 0.195068 0.078538 0.073768
O O1 0.579538 0.602064 0.066637
O O2 0.576785 0.838462 0.091446
O O3 0.182574 0.733781 0.019561
O O4 0.423484 0.062446 0.884009
O O5 0.926382 0.121965 0.910650
O O6 0.294122 0.074857 0.001356
O O7 0.464930 0.135053 0.253431
O O8 0.387718 0.067988 0.135234
O O9 0.816883 0.001796 0.180926
O O10 0.458714 0.885449 0.224254
O O11 0.298198 0.696720 0.695506
O O12 0.447787 0.790003 0.585947
O O13 0.625640 0.223941 0.678862
O O14 0.486295 0.044205 0.577712
#
# Coordination Sequence:
#
# PCOD9315291 Si02
#       7
#     4   4   4   4   4   4   4
#     4  12  25  45  71 105 148 188 247 298 369 443
#     4  12  26  44  73 107 149 182 251 305 366 441
#     4   9  22  44  70  97 143 185 248 297 369 441
#     4  11  27  44  71 107 142 189 239 313 364 439
#     4  10  24  43  70 100 140 198 232 304 366 446
#     4   9  23  45  68 105 138 194 245 302 368 445
#     4  11  23  45  71 101 142 196 238 299 382 445
#
# _framework density 24.783372
#
# number of rings (size 3 to 8) (size 9 to 14) (size 15 to 20)
#    0.857    0.571    1.429    2.571    8.000    1.143 
#    7.714    0.000    0.000    0.000    0.000    0.000 
#    0.000    0.000    0.000    0.000    0.000    0.000 
#
# Total GULP energy -156057.256433 kJ/mol
# GULP energy per Si atom -5573.473444 kJ/mol
# Density = 2.472696 g / cm^3
# Si number density = 24.783372 Si / 1000 Ang^3
#
#
#
# Elastic Constant Matrix: (Units=GPa)
#
#
# Indices 1 2 3 4 5 6 
#
# 1 32.2903 6.1358 -1.2829 0.0000 0.0000 0.0000
# 2 6.1358 98.8824 25.8621 0.0000 0.0000 0.0000
# 3 -1.2829 25.8621 68.5964 0.0000 0.0000 0.0000
# 4 0.0000 0.0000 0.0000 53.2205 0.0000 0.0000
# 5 0.0000 0.0000 0.0000 0.0000 21.2125 0.0000
# 6 0.0000 0.0000 0.0000 0.0000 0.0000 33.9839
#
#
#
# Elastic Compliance Matrix: (Units=1/GPa)
#
#
# Indices 1 2 3 4 5 6 
#
# 1 0.031472 -0.002337 0.001470 0.000000 0.000000 0.000000
# 2 -0.002337 0.011393 -0.004339 0.000000 0.000000 0.000000
# 3 0.001470 -0.004339 0.016241 0.000000 0.000000 0.000000
# 4 0.000000 0.000000 0.000000 0.018790 0.000000 0.000000
# 5 0.000000 0.000000 0.000000 0.000000 0.047142 0.000000
# 6 0.000000 0.000000 0.000000 0.000000 0.000000 0.029426
#
#
# Mechanical properties :
#
#
# Convention : Reuss Voigt Hill
#
# Bulk Modulus (GPa) = 20.53688 29.02210 24.77949
# Shear Modulus (GPa) = 27.60793 32.95364 30.28079
#
# Velocity S-wave (km/s) = 3.34124 3.65042 3.49924
# Velocity P-wave (km/s) = 4.81557 5.43168 5.13288
#
# Compressibility (1/GPa) = 0.04869288
#
# Stress axis : x y z
#
# Youngs Moduli (GPa) = 31.77467 87.77392 61.57100
#
# Poissons Ratio (x) = 0.20515 -0.09050
# Poissons Ratio (y) = 0.07427 0.26716
# Poissons Ratio (z) = -0.04670 0.38085
#
# Static dielectric constant tensor:
#      x y z
#    x 2.057820 0.000000 0.000000 
#    y 0.000000 2.012670 0.000000 
#    z 0.000000 0.000000 2.038110 
# 
# From -- ./inp_files/7273.got.cif
#   From: 2010.05.17/outbox.cif.g08.bks.cpg/sg19_4_cif.got.tgz:7273.got - 2010.06.03 22:46:19.
