data_PCOD9315371
_publ_section_title
;
Structure prediction by ZEFSAII (Michael W. Deem and Ramdas Pophale) SiO2 
 PCOD9315371
Probable space group: P 21 21 21
;
_chemical_formula_sum "Si O2"
_cell_formula_units_Z 32
_cell_length_a 22.753799
_cell_length_b 4.964583
_cell_length_c 10.266980
_cell_angle_alpha 90.000000
_cell_angle_beta 90.000000
_cell_angle_gamma 90.000000
_cell_volume 1159.790132
_symmetry_space_group_name_H-M "P 21 21 21"
_symmetry_group_IT_number 19
_symmetry_cell_setting 'orthorhombic'
loop_
_space_group_symop_operation_xyz
x,y,z
1/2-x,-y,1/2+z
1/2+x,1/2-y,-z
-x,1/2+y,1/2-z
loop_
_atom_site_type_symbol
_atom_site_label
_atom_site_fract_x
_atom_site_fract_y
_atom_site_fract_z
Si Si1 0.591630 0.339040 0.780102
Si Si2 0.706002 0.586874 0.389068
Si Si3 0.691923 0.667100 0.743005
Si Si4 0.421936 0.873234 0.164369
Si Si5 0.517580 0.039441 0.579446
Si Si6 0.364002 0.432792 0.511159
Si Si7 0.967337 0.906904 0.608088
Si Si8 0.239429 0.414298 0.445720
O O1 0.638365 0.491872 0.689913
O O2 0.564838 0.101298 0.691988
O O3 0.540960 0.544003 0.826993
O O4 0.621901 0.202573 0.906543
O O5 0.748286 0.494925 0.271525
O O6 0.637639 0.530090 0.363949
O O7 0.721728 0.888418 0.432594
O O8 0.724613 0.383780 0.505955
O O9 0.703861 0.941744 0.668356
O O10 0.663863 0.737303 0.882737
O O11 0.416544 0.708755 0.297902
O O12 0.477111 0.059647 0.200808
O O13 0.451270 0.711733 0.041019
O O14 0.498861 0.763298 0.506345
O O15 0.428150 0.355804 0.456093
O O16 0.308485 0.454374 0.416098
#
# Coordination Sequence:
#
# PCOD9315371 Si02
#       8
#     4   4   4   4   4   4   4   4
#     4  11  25  43  70 105 151 192 252 313 381 464
#     4  11  27  44  73 109 147 194 259 307 386 453
#     4  11  24  46  72 106 147 201 247 318 383 462
#     4  12  25  46  73 107 149 199 255 321 382 468
#     4  11  27  42  69 108 143 198 246 313 385 454
#     4  10  24  47  71 104 150 195 250 316 393 455
#     4  11  25  48  71 107 148 198 257 316 391 463
#     4  11  25  46  73 110 147 199 252 314 381 465
#
# _framework density 27.591197000000001
#
# number of rings (size 3 to 8) (size 9 to 14) (size 15 to 20)
#    0.000    1.000    2.500    2.250   10.500    0.000 
#    0.000    0.000    0.000    0.000    0.000    0.000 
#    0.000    0.000    0.000    0.000    0.000    0.000 
#
# Total GULP energy -178743.255667 kJ/mol
# GULP energy per Si atom -5585.726740 kJ/mol
# Density = 2.752840 g / cm^3
# Si number density = 27.591197 Si / 1000 Ang^3
#
#
#
# Elastic Constant Matrix: (Units=GPa)
#
#
# Indices 1 2 3 4 5 6 
#
# 1 183.5393 15.8352 14.4772 0.0000 0.0000 0.0000
# 2 15.8352 47.3007 9.8105 0.0000 0.0000 0.0000
# 3 14.4772 9.8105 89.8647 0.0000 0.0000 0.0000
# 4 0.0000 0.0000 0.0000 38.4981 0.0000 0.0000
# 5 0.0000 0.0000 0.0000 0.0000 44.4004 0.0000
# 6 0.0000 0.0000 0.0000 0.0000 0.0000 34.5145
#
#
#
# Elastic Compliance Matrix: (Units=1/GPa)
#
#
# Indices 1 2 3 4 5 6 
#
# 1 0.005656 -0.001744 -0.000721 0.000000 0.000000 0.000000
# 2 -0.001744 0.022169 -0.002139 0.000000 0.000000 0.000000
# 3 -0.000721 -0.002139 0.011477 0.000000 0.000000 0.000000
# 4 0.000000 0.000000 0.000000 0.025975 0.000000 0.000000
# 5 0.000000 0.000000 0.000000 0.000000 0.022522 0.000000
# 6 0.000000 0.000000 0.000000 0.000000 0.000000 0.028973
#
#
# Mechanical properties :
#
#
# Convention : Reuss Voigt Hill
#
# Bulk Modulus (GPa) = 33.22891 44.55007 38.88949
# Shear Modulus (GPa) = 36.76139 42.18805 39.47472
#
# Velocity S-wave (km/s) = 3.65411 3.91454 3.78656
# Velocity P-wave (km/s) = 5.46560 6.05087 5.76567
#
# Compressibility (1/GPa) = 0.03009428
#
# Stress axis : x y z
#
# Youngs Moduli (GPa) = 176.81162 45.10834 87.12708
#
# Poissons Ratio (x) = 0.07867 0.06280
# Poissons Ratio (y) = 0.30835 0.18638
# Poissons Ratio (z) = 0.12744 0.09650
#
# Static dielectric constant tensor:
#      x y z
#    x 2.179210 0.000000 0.000000 
#    y 0.000000 2.320750 0.000000 
#    z 0.000000 0.000000 2.280880 
# 
# From -- ./inp_files/5482.got.cif
#   From: 2010.05.17/outbox.cif.g08.bks.cpg/sg19_3_cif.got.tgz:5482.got - 2010.06.03 22:46:19.
