data_PCOD9315157
_publ_section_title
;
Structure prediction by ZEFSAII (Michael W. Deem and Ramdas Pophale) SiO2 
 PCOD9315157
Probable space group: P 21 21 21
;
_chemical_formula_sum "Si O2"
_cell_formula_units_Z 24
_cell_length_a 5.188964
_cell_length_b 9.523145
_cell_length_c 17.815363
_cell_angle_alpha 90.000000
_cell_angle_beta 90.000000
_cell_angle_gamma 90.000000
_cell_volume 880.350734
_symmetry_space_group_name_H-M "P 21 21 21"
_symmetry_group_IT_number 19
_symmetry_cell_setting 'orthorhombic'
loop_
_space_group_symop_operation_xyz
x,y,z
1/2-x,-y,1/2+z
1/2+x,1/2-y,-z
-x,1/2+y,1/2-z
loop_
_atom_site_type_symbol
_atom_site_label
_atom_site_fract_x
_atom_site_fract_y
_atom_site_fract_z
Si Si1 0.750139 0.767137 0.222698
Si Si2 0.985296 0.538501 0.292816
Si Si3 0.191628 0.928148 0.056501
Si Si4 0.064592 0.832649 0.475031
Si Si5 0.566024 0.142374 0.404293
Si Si6 0.613622 0.387223 0.174641
O O1 0.999326 0.690435 0.256146
O O2 0.675100 0.701985 0.143536
O O3 0.537658 0.757481 0.288427
O O4 0.781069 0.932106 0.212292
O O5 0.910127 0.530616 0.379233
O O6 0.764251 0.468330 0.240649
O O7 0.252910 0.778364 0.094529
O O8 0.998520 0.893357 0.989469
O O9 0.420251 0.014437 0.015539
O O10 0.283251 0.734244 0.514911
O O11 0.185795 0.852671 0.392013
O O12 0.600470 0.993685 0.362663
#
# Coordination Sequence:
#
# PCOD9315157 Si02
#       6
#     4   4   4   4   4   4
#     4  11  24  44  69 104 143 192 244 317 375 449
#     4  11  25  40  69 103 139 192 244 304 380 444
#     4  11  23  45  69 107 144 195 250 308 379 452
#     4  11  27  48  75 109 149 194 249 306 375 447
#     4  10  23  44  69 102 140 191 245 307 374 452
#     4  10  24  45  69 101 147 186 244 312 365 446
#
# _framework density 27.261861
#
# number of rings (size 3 to 8) (size 9 to 14) (size 15 to 20)
#    0.000    1.333    1.667    2.000    7.000    4.000 
#    0.000    0.000    0.000    0.000    0.000    0.000 
#    0.000    0.000    0.000    0.000    0.000    0.000 
#
# Total GULP energy -134398.383572 kJ/mol
# GULP energy per Si atom -5599.932649 kJ/mol
# Density = 2.719981 g / cm^3
# Si number density = 27.261861 Si / 1000 Ang^3
#
#
#
# Elastic Constant Matrix: (Units=GPa)
#
#
# Indices 1 2 3 4 5 6 
#
# 1 65.5494 28.0246 7.2832 0.0000 0.0000 0.0000
# 2 28.0246 100.8414 31.8623 0.0000 0.0000 0.0000
# 3 7.2832 31.8623 169.4460 0.0000 0.0000 0.0000
# 4 0.0000 0.0000 0.0000 53.2412 0.0000 0.0000
# 5 0.0000 0.0000 0.0000 0.0000 20.8028 0.0000
# 6 0.0000 0.0000 0.0000 0.0000 0.0000 45.1063
#
#
#
# Elastic Compliance Matrix: (Units=1/GPa)
#
#
# Indices 1 2 3 4 5 6 
#
# 1 0.017317 -0.004867 0.000171 0.000000 0.000000 0.000000
# 2 -0.004867 0.011911 -0.002030 0.000000 0.000000 0.000000
# 3 0.000171 -0.002030 0.006276 0.000000 0.000000 0.000000
# 4 0.000000 0.000000 0.000000 0.018782 0.000000 0.000000
# 5 0.000000 0.000000 0.000000 0.000000 0.048071 0.000000
# 6 0.000000 0.000000 0.000000 0.000000 0.000000 0.022170
#
#
# Mechanical properties :
#
#
# Convention : Reuss Voigt Hill
#
# Bulk Modulus (GPa) = 45.34862 52.24189 48.79526
# Shear Modulus (GPa) = 34.40449 41.74115 38.07282
#
# Velocity S-wave (km/s) = 3.55632 3.91720 3.74111
# Velocity P-wave (km/s) = 5.79084 6.29792 6.04969
#
# Compressibility (1/GPa) = 0.02205139
#
# Stress axis : x y z
#
# Youngs Moduli (GPa) = 57.74564 83.95894 159.33593
#
# Poissons Ratio (x) = 0.40859 -0.02721
# Poissons Ratio (y) = 0.28102 0.32353
# Poissons Ratio (z) = -0.00986 0.17048
#
# Static dielectric constant tensor:
#      x y z
#    x 2.114950 0.000000 0.000000 
#    y 0.000000 2.198570 0.000000 
#    z 0.000000 0.000000 2.068100 
# 
# From -- ./inp_files/411.got.cif
#   From: 2010.05.17/outbox.cif.g08.bks.cpg/sg19_1_cif.got.tgz:411.got - 2010.06.03 22:46:19.
