data_PCOD9315222
_publ_section_title
;
Structure prediction by ZEFSAII (Michael W. Deem and Ramdas Pophale) SiO2 
 PCOD9315222
Probable space group: P 21 21 21
;
_chemical_formula_sum "Si O2"
_cell_formula_units_Z 24
_cell_length_a 11.279259
_cell_length_b 8.090924
_cell_length_c 11.853942
_cell_angle_alpha 90.000000
_cell_angle_beta 90.000000
_cell_angle_gamma 90.000000
_cell_volume 1081.786329
_symmetry_space_group_name_H-M "P 21 21 21"
_symmetry_group_IT_number 19
_symmetry_cell_setting 'orthorhombic'
loop_
_space_group_symop_operation_xyz
x,y,z
1/2-x,-y,1/2+z
1/2+x,1/2-y,-z
-x,1/2+y,1/2-z
loop_
_atom_site_type_symbol
_atom_site_label
_atom_site_fract_x
_atom_site_fract_y
_atom_site_fract_z
Si Si1 0.942803 0.569895 0.004426
Si Si2 0.281121 0.798806 0.808600
Si Si3 0.383785 0.649511 0.164204
Si Si4 0.288173 0.472882 0.489434
Si Si5 0.590421 0.416046 0.148802
Si Si6 0.235746 0.183344 0.050836
O O1 0.894285 0.625868 0.126080
O O2 0.949716 0.731239 0.925286
O O3 0.842640 0.448005 0.954495
O O4 0.072734 0.495756 0.002436
O O5 0.241521 0.640626 0.882152
O O6 0.298991 0.768789 0.677185
O O7 0.178496 0.937291 0.814162
O O8 0.458868 0.481695 0.173014
O O9 0.382704 0.752026 0.279223
O O10 0.259696 0.618262 0.102061
O O11 0.225159 0.649958 0.487007
O O12 0.624770 0.388407 0.018972
#
# Coordination Sequence:
#
# PCOD9315222 Si02
#       6
#     4   4   4   4   4   4
#     4  10  23  48  68 101 146 189 241 300 366 431
#     4  10  23  48  68 101 146 189 241 300 366 431
#     4  11  25  43  77 103 142 186 246 302 361 437
#     4  11  26  45  71 106 145 190 244 301 368 433
#     4  11  25  43  77 103 142 186 246 302 361 437
#     4  11  26  45  71 106 145 190 244 301 368 433
#
# _framework density 22.185524999999998
#
# number of rings (size 3 to 8) (size 9 to 14) (size 15 to 20)
#    0.000    1.333    3.333    0.000    9.333    0.000 
#   12.000    0.000    0.000    0.000    0.000    0.000 
#    0.000    0.000    0.000    0.000    0.000    0.000 
#
# Total GULP energy -134237.487710 kJ/mol
# GULP energy per Si atom -5593.228655 kJ/mol
# Density = 2.213503 g / cm^3
# Si number density = 22.185525 Si / 1000 Ang^3
#
#
#
# Elastic Constant Matrix: (Units=GPa)
#
#
# Indices 1 2 3 4 5 6 
#
# 1 22.9598 2.6255 36.3368 0.0000 0.0000 0.0000
# 2 2.6255 86.6278 45.5244 0.0000 0.0000 0.0000
# 3 36.3368 45.5244 172.5790 0.0000 0.0000 0.0000
# 4 0.0000 0.0000 0.0000 36.2405 0.0000 0.0000
# 5 0.0000 0.0000 0.0000 0.0000 8.1996 0.0000
# 6 0.0000 0.0000 0.0000 0.0000 0.0000 23.1870
#
#
#
# Elastic Compliance Matrix: (Units=1/GPa)
#
#
# Indices 1 2 3 4 5 6 
#
# 1 0.068213 0.006362 -0.016041 0.000000 0.000000 0.000000
# 2 0.006362 0.013995 -0.005031 0.000000 0.000000 0.000000
# 3 -0.016041 -0.005031 0.010499 0.000000 0.000000 0.000000
# 4 0.000000 0.000000 0.000000 0.027593 0.000000 0.000000
# 5 0.000000 0.000000 0.000000 0.000000 0.121956 0.000000
# 6 0.000000 0.000000 0.000000 0.000000 0.000000 0.043128
#
#
# Mechanical properties :
#
#
# Convention : Reuss Voigt Hill
#
# Bulk Modulus (GPa) = 15.80081 50.12666 32.96373
# Shear Modulus (GPa) = 14.88537 26.70409 20.79473
#
# Velocity S-wave (km/s) = 2.59308 3.47316 3.06487
# Velocity P-wave (km/s) = 4.01286 6.22311 5.23594
#
# Compressibility (1/GPa) = 0.06328788
#
# Stress axis : x y z
#
# Youngs Moduli (GPa) = 14.65987 71.45494 95.24667
#
# Poissons Ratio (x) = -0.45462 1.52783
# Poissons Ratio (y) = -0.09327 0.47921
# Poissons Ratio (z) = 0.23516 0.35951
#
# Static dielectric constant tensor:
#      x y z
#    x 1.802200 0.000000 0.000000 
#    y 0.000000 1.840190 0.000000 
#    z 0.000000 0.000000 1.814850 
# 
# From -- ./inp_files/4914.got.cif
#   From: 2010.05.17/outbox.cif.g08.bks.cpg/sg19_3_cif.got.tgz:4914.got - 2010.06.03 22:46:19.
