data_PCOD9315957
_publ_section_title
;
Structure prediction by ZEFSAII (Michael W. Deem and Ramdas Pophale) SiO2 
 PCOD9315957
Probable space group: P 21 21 21
;
_chemical_formula_sum "Si O2"
_cell_formula_units_Z 24
_cell_length_a 11.609717
_cell_length_b 9.794026
_cell_length_c 8.725423
_cell_angle_alpha 90.000000
_cell_angle_beta 90.000000
_cell_angle_gamma 90.000000
_cell_volume 992.131815
_symmetry_space_group_name_H-M "P 21 21 21"
_symmetry_group_IT_number 19
_symmetry_cell_setting 'orthorhombic'
loop_
_space_group_symop_operation_xyz
x,y,z
1/2-x,-y,1/2+z
1/2+x,1/2-y,-z
-x,1/2+y,1/2-z
loop_
_atom_site_type_symbol
_atom_site_label
_atom_site_fract_x
_atom_site_fract_y
_atom_site_fract_z
Si Si1 0.770416 0.792996 0.715379
Si Si2 0.721835 0.918417 0.146850
Si Si3 0.713435 0.675696 0.384572
Si Si4 0.066696 0.306832 0.541639
Si Si5 0.009750 0.003494 0.474321
Si Si6 0.393933 0.063512 0.659531
O O1 0.754777 0.749044 0.540330
O O2 0.899311 0.781835 0.782685
O O3 0.690989 0.689629 0.810252
O O4 0.731527 0.948612 0.734022
O O5 0.692390 0.791841 0.257542
O O6 0.819957 0.871026 0.032393
O O7 0.610916 0.979468 0.060078
O O8 0.602123 0.584607 0.428135
O O9 0.815265 0.570763 0.340311
O O10 0.049309 0.160654 0.464637
O O11 0.961811 0.405571 0.497121
O O12 0.018039 0.942282 0.302982
#
# Coordination Sequence:
#
# PCOD9315957 Si02
#       6
#     4   4   4   4   4   4
#     4  11  27  50  75 118 156 201 267 323 398 477
#     4  12  28  49  77 116 154 210 262 329 397 475
#     4  11  26  53  81 113 161 212 266 330 406 475
#     4  12  26  45  81 107 159 201 256 330 386 478
#     4  11  27  47  78 116 158 207 271 321 398 479
#     4  11  26  50  82 114 160 213 258 337 401 478
#
# _framework density 24.190335000000001
#
# number of rings (size 3 to 8) (size 9 to 14) (size 15 to 20)
#    0.000    0.667    3.333    2.000    9.333    1.333 
#    3.000    0.000    0.000    0.000    0.000    0.000 
#    0.000    0.000    0.000    0.000    0.000    0.000 
#
# Total GULP energy -134437.167425 kJ/mol
# GULP energy per Si atom -5601.548643 kJ/mol
# Density = 2.413528 g / cm^3
# Si number density = 24.190335 Si / 1000 Ang^3
#
#
#
# Elastic Constant Matrix: (Units=GPa)
#
#
# Indices 1 2 3 4 5 6 
#
# 1 114.4543 50.9076 55.2557 0.0000 0.0000 0.0000
# 2 50.9076 139.7930 14.5134 0.0000 0.0000 0.0000
# 3 55.2557 14.5134 65.6902 0.0000 0.0000 0.0000
# 4 0.0000 0.0000 0.0000 44.3534 0.0000 0.0000
# 5 0.0000 0.0000 0.0000 0.0000 44.7776 0.0000
# 6 0.0000 0.0000 0.0000 0.0000 0.0000 36.5963
#
#
#
# Elastic Compliance Matrix: (Units=1/GPa)
#
#
# Indices 1 2 3 4 5 6 
#
# 1 0.017541 -0.004970 -0.013656 0.000000 0.000000 0.000000
# 2 -0.004970 0.008729 0.002252 0.000000 0.000000 0.000000
# 3 -0.013656 0.002252 0.026213 0.000000 0.000000 0.000000
# 4 0.000000 0.000000 0.000000 0.022546 0.000000 0.000000
# 5 0.000000 0.000000 0.000000 0.000000 0.022333 0.000000
# 6 0.000000 0.000000 0.000000 0.000000 0.000000 0.027325
#
#
# Mechanical properties :
#
#
# Convention : Reuss Voigt Hill
#
# Bulk Modulus (GPa) = 50.67451 62.36567 56.52009
# Shear Modulus (GPa) = 30.48531 38.42952 34.45741
#
# Velocity S-wave (km/s) = 3.55382 3.99009 3.77826
# Velocity P-wave (km/s) = 6.15087 6.86039 6.51530
#
# Compressibility (1/GPa) = 0.01973379
#
# Stress axis : x y z
#
# Youngs Moduli (GPa) = 57.01064 114.55414 38.14960
#
# Poissons Ratio (x) = 0.56932 0.52098
# Poissons Ratio (y) = 0.28333 -0.08590
# Poissons Ratio (z) = 0.77856 -0.25795
#
# Static dielectric constant tensor:
#      x y z
#    x 1.961620 0.000000 0.000000 
#    y 0.000000 1.900970 0.000000 
#    z 0.000000 0.000000 1.995120 
# 
# From -- ./inp_files/3316.got.cif
#   From: 2010.05.17/outbox.cif.g08.bks.cpg/sg19_2_cif.got.tgz:3316.got - 2010.06.03 22:46:19.
