data_PCOD9315073
_publ_section_title
;
Structure prediction by ZEFSAII (Michael W. Deem and Ramdas Pophale) SiO2 
 PCOD9315073
Probable space group: P 21 21 21
;
_chemical_formula_sum "Si O2"
_cell_formula_units_Z 32
_cell_length_a 12.480613
_cell_length_b 7.971796
_cell_length_c 12.276226
_cell_angle_alpha 90.000000
_cell_angle_beta 90.000000
_cell_angle_gamma 90.000000
_cell_volume 1221.397336
_symmetry_space_group_name_H-M "P 21 21 21"
_symmetry_group_IT_number 19
_symmetry_cell_setting 'orthorhombic'
loop_
_space_group_symop_operation_xyz
x,y,z
1/2-x,-y,1/2+z
1/2+x,1/2-y,-z
-x,1/2+y,1/2-z
loop_
_atom_site_type_symbol
_atom_site_label
_atom_site_fract_x
_atom_site_fract_y
_atom_site_fract_z
Si Si1 0.461155 0.353761 0.329956
Si Si2 0.932238 0.522270 0.621937
Si Si3 0.190343 0.452231 0.994601
Si Si4 0.401306 0.733373 0.824387
Si Si5 0.884812 0.113707 0.310022
Si Si6 0.125525 0.097652 0.097369
Si Si7 0.803371 0.310263 0.118013
Si Si8 0.833875 0.602728 0.976288
O O1 0.480804 0.400927 0.204058
O O2 0.416482 0.167481 0.339999
O O3 0.383843 0.477452 0.397638
O O4 0.577652 0.354645 0.387617
O O5 0.958458 0.528142 0.492640
O O6 0.816809 0.615272 0.634042
O O7 0.293406 0.365094 0.945293
O O8 0.200810 0.575475 0.096453
O O9 0.137360 0.288430 0.052168
O O10 0.402822 0.552770 0.764743
O O11 0.513426 0.804968 0.869574
O O12 0.383558 0.865271 0.724859
O O13 0.322507 0.758731 0.927151
O O14 0.852248 0.261060 0.230714
O O15 0.226848 0.975527 0.076475
O O16 0.870343 0.439636 0.047334
#
# Coordination Sequence:
#
# PCOD9315073 Si02
#       8
#     4   4   4   4   4   4   4   4
#     4  12  23  45  72  99 137 185 242 287 356 429
#     4  10  24  44  70  99 135 190 235 295 352 421
#     4   9  21  45  65  99 137 181 230 294 351 423
#     4  11  23  42  70 108 141 186 235 292 359 430
#     4  11  23  43  71 102 142 182 232 293 362 428
#     4   9  23  43  69  97 148 180 228 296 354 415
#     4  10  24  48  66 101 143 184 237 295 357 425
#     4  10  23  42  69 103 135 186 231 290 353 421
#
# _framework density 26.199501999999999
#
# number of rings (size 3 to 8) (size 9 to 14) (size 15 to 20)
#    0.000    2.000    1.250    2.250    7.000    3.000 
#    9.000    0.000    0.000    0.000    0.000    0.000 
#    0.000    0.000    0.000    0.000    0.000    0.000 
#
# Total GULP energy -178930.711154 kJ/mol
# GULP energy per Si atom -5591.584724 kJ/mol
# Density = 2.613987 g / cm^3
# Si number density = 26.199502 Si / 1000 Ang^3
#
#
#
# Elastic Constant Matrix: (Units=GPa)
#
#
# Indices 1 2 3 4 5 6 
#
# 1 53.7957 15.0412 14.9289 0.0000 0.0000 0.0000
# 2 15.0412 117.0930 24.0204 0.0000 0.0000 0.0000
# 3 14.9289 24.0204 110.8305 0.0000 0.0000 0.0000
# 4 0.0000 0.0000 0.0000 55.6803 0.0000 0.0000
# 5 0.0000 0.0000 0.0000 0.0000 40.3853 0.0000
# 6 0.0000 0.0000 0.0000 0.0000 0.0000 34.9689
#
#
#
# Elastic Compliance Matrix: (Units=1/GPa)
#
#
# Indices 1 2 3 4 5 6 
#
# 1 0.019787 -0.002088 -0.002213 0.000000 0.000000 0.000000
# 2 -0.002088 0.009158 -0.001704 0.000000 0.000000 0.000000
# 3 -0.002213 -0.001704 0.009690 0.000000 0.000000 0.000000
# 4 0.000000 0.000000 0.000000 0.017960 0.000000 0.000000
# 5 0.000000 0.000000 0.000000 0.000000 0.024761 0.000000
# 6 0.000000 0.000000 0.000000 0.000000 0.000000 0.028597
#
#
# Mechanical properties :
#
#
# Convention : Reuss Voigt Hill
#
# Bulk Modulus (GPa) = 37.55678 43.30001 40.42840
# Shear Modulus (GPa) = 38.21571 41.38883 39.80227
#
# Velocity S-wave (km/s) = 3.82336 3.97893 3.90192
# Velocity P-wave (km/s) = 5.81866 6.13776 5.98034
#
# Compressibility (1/GPa) = 0.02662635
#
# Stress axis : x y z
#
# Youngs Moduli (GPa) = 50.53913 109.19570 103.19844
#
# Poissons Ratio (x) = 0.22797 0.22836
# Poissons Ratio (y) = 0.10551 0.17581
# Poissons Ratio (z) = 0.11183 0.18602
#
# Static dielectric constant tensor:
#      x y z
#    x 2.103160 0.000000 0.000000 
#    y 0.000000 2.085630 0.000000 
#    z 0.000000 0.000000 2.083010 
# 
# From -- ./inp_files/5236.got.cif
#   From: 2010.05.17/outbox.cif.g08.bks.cpg/sg19_3_cif.got.tgz:5236.got - 2010.06.03 22:46:19.
