data_PCOD9315470
_publ_section_title
;
Structure prediction by ZEFSAII (Michael W. Deem and Ramdas Pophale) SiO2 
 PCOD9315470
Probable space group: P 21 21 21
;
_chemical_formula_sum "Si O2"
_cell_formula_units_Z 16
_cell_length_a 21.888704
_cell_length_b 5.538894
_cell_length_c 4.769797
_cell_angle_alpha 90.000000
_cell_angle_beta 90.000000
_cell_angle_gamma 90.000000
_cell_volume 578.286426
_symmetry_space_group_name_H-M "P 21 21 21"
_symmetry_group_IT_number 19
_symmetry_cell_setting 'orthorhombic'
loop_
_space_group_symop_operation_xyz
x,y,z
1/2-x,-y,1/2+z
1/2+x,1/2-y,-z
-x,1/2+y,1/2-z
loop_
_atom_site_type_symbol
_atom_site_label
_atom_site_fract_x
_atom_site_fract_y
_atom_site_fract_z
Si Si1 0.111767 0.775756 0.319631
Si Si2 0.860908 0.591328 0.664034
Si Si3 0.487427 0.705212 0.397497
Si Si4 0.213676 0.428996 0.188073
O O1 0.156059 0.548266 0.349929
O O2 0.039954 0.741003 0.374336
O O3 0.136749 0.995975 0.517732
O O4 0.118523 0.855115 0.002068
O O5 0.914470 0.780311 0.578005
O O6 0.802260 0.701389 0.509103
O O7 0.502664 0.437725 0.299113
O O8 0.259873 0.391313 0.446334
#
# Coordination Sequence:
#
# PCOD9315470 Si02
#       4
#     4   4   4   4
#     4  11  27  47  78 114 155 203 261 329 402 474
#     4  11  27  47  78 114 155 203 261 329 402 474
#     4  10  26  46  82 118 160 200 258 332 406 480
#     4  12  28  48  80 108 160 210 268 326 396 480
#
# _framework density 27.667950000000001
#
# number of rings (size 3 to 8) (size 9 to 14) (size 15 to 20)
#    0.000    1.000    0.000    3.000   21.000    6.000 
#    0.000    0.000    0.000    0.000    0.000    0.000 
#    0.000    0.000    0.000    0.000    0.000    0.000 
#
# Total GULP energy -89474.417573 kJ/mol
# GULP energy per Si atom -5592.151098 kJ/mol
# Density = 2.760498 g / cm^3
# Si number density = 27.667950 Si / 1000 Ang^3
#
#
#
# Elastic Constant Matrix: (Units=GPa)
#
#
# Indices 1 2 3 4 5 6 
#
# 1 68.0997 39.0115 50.8754 0.0000 0.0000 0.0000
# 2 39.0115 88.9901 39.4249 0.0000 0.0000 0.0000
# 3 50.8754 39.4249 104.5741 0.0000 0.0000 0.0000
# 4 0.0000 0.0000 0.0000 37.7887 0.0000 0.0000
# 5 0.0000 0.0000 0.0000 0.0000 57.4295 0.0000
# 6 0.0000 0.0000 0.0000 0.0000 0.0000 48.7329
#
#
#
# Elastic Compliance Matrix: (Units=1/GPa)
#
#
# Indices 1 2 3 4 5 6 
#
# 1 0.026286 -0.007032 -0.010137 0.000000 0.000000 0.000000
# 2 -0.007032 0.015372 -0.002374 0.000000 0.000000 0.000000
# 3 -0.010137 -0.002374 0.015389 0.000000 0.000000 0.000000
# 4 0.000000 0.000000 0.000000 0.026463 0.000000 0.000000
# 5 0.000000 0.000000 0.000000 0.000000 0.017413 0.000000
# 6 0.000000 0.000000 0.000000 0.000000 0.000000 0.020520
#
#
# Mechanical properties :
#
#
# Convention : Reuss Voigt Hill
#
# Bulk Modulus (GPa) = 55.67786 57.80971 56.74379
# Shear Modulus (GPa) = 30.02720 37.61370 33.82045
#
# Velocity S-wave (km/s) = 3.29792 3.69110 3.50003
# Velocity P-wave (km/s) = 5.88804 6.25340 6.07347
#
# Compressibility (1/GPa) = 0.01796046
#
# Stress axis : x y z
#
# Youngs Moduli (GPa) = 38.04325 65.05430 64.98054
#
# Poissons Ratio (x) = 0.45748 0.65870
# Poissons Ratio (y) = 0.26753 0.15426
# Poissons Ratio (z) = 0.38564 0.15444
#
# Static dielectric constant tensor:
#      x y z
#    x 2.412740 0.000000 0.000000 
#    y 0.000000 2.171800 0.000000 
#    z 0.000000 0.000000 2.085330 
# 
# From -- ./inp_files/122.got.cif
#   From: 2010.05.17/outbox.cif.g08.bks.cpg/sg19_1_cif.got.tgz:122.got - 2010.06.03 22:46:19.
