data_PCOD9315092
_publ_section_title
;
Structure prediction by ZEFSAII (Michael W. Deem and Ramdas Pophale) SiO2 
 PCOD9315092
Probable space group: P 21 21 21
;
_chemical_formula_sum "Si O2"
_cell_formula_units_Z 24
_cell_length_a 7.712509
_cell_length_b 8.173219
_cell_length_c 14.154206
_cell_angle_alpha 90.000000
_cell_angle_beta 90.000000
_cell_angle_gamma 90.000000
_cell_volume 892.224885
_symmetry_space_group_name_H-M "P 21 21 21"
_symmetry_group_IT_number 19
_symmetry_cell_setting 'orthorhombic'
loop_
_space_group_symop_operation_xyz
x,y,z
1/2-x,-y,1/2+z
1/2+x,1/2-y,-z
-x,1/2+y,1/2-z
loop_
_atom_site_type_symbol
_atom_site_label
_atom_site_fract_x
_atom_site_fract_y
_atom_site_fract_z
Si Si1 0.318790 0.253629 0.443371
Si Si2 0.483802 0.457559 0.278387
Si Si3 0.952690 0.092122 0.384993
Si Si4 0.085580 0.745009 0.610997
Si Si5 0.929118 0.562489 0.440717
Si Si6 0.112780 0.889279 0.240616
O O1 0.426727 0.321092 0.354995
O O2 0.133022 0.182756 0.414394
O O3 0.330944 0.397044 0.522990
O O4 0.399206 0.098328 0.496149
O O5 0.386398 0.406829 0.182458
O O6 0.459277 0.631262 0.330688
O O7 0.688629 0.449909 0.251935
O O8 0.013722 0.922629 0.338023
O O9 0.879185 0.210803 0.304118
O O10 0.249626 0.854076 0.587441
O O11 0.023007 0.683977 0.510468
O O12 0.990633 0.494592 0.339603
#
# Coordination Sequence:
#
# PCOD9315092 Si02
#       6
#     4   4   4   4   4   4
#     4  11  23  44  69  97 134 177 225 275 331 403
#     4  11  24  44  69  96 132 178 226 274 333 402
#     4  11  23  43  68  97 133 173 223 279 338 402
#     4  11  23  43  68  97 133 175 222 279 336 400
#     4  10  23  43  65  95 135 173 222 279 333 398
#     4  10  24  43  65  96 133 176 224 282 337 397
#
# _framework density 26.899048000000001
#
# number of rings (size 3 to 8) (size 9 to 14) (size 15 to 20)
#    0.000    1.333    0.000    7.000    0.000    8.000 
#    0.000   20.000    0.000    0.000    0.000    0.000 
#    0.000    0.000    0.000    0.000    0.000    0.000 
#
# Total GULP energy -134427.271100 kJ/mol
# GULP energy per Si atom -5601.136296 kJ/mol
# Density = 2.683782 g / cm^3
# Si number density = 26.899048 Si / 1000 Ang^3
#
#
#
# Elastic Constant Matrix: (Units=GPa)
#
#
# Indices 1 2 3 4 5 6 
#
# 1 48.9120 5.3018 27.4619 0.0000 0.0000 0.0000
# 2 5.3018 68.1015 52.2255 0.0000 0.0000 0.0000
# 3 27.4619 52.2255 157.0376 0.0000 0.0000 0.0000
# 4 0.0000 0.0000 0.0000 64.6519 0.0000 0.0000
# 5 0.0000 0.0000 0.0000 0.0000 42.1157 0.0000
# 6 0.0000 0.0000 0.0000 0.0000 0.0000 45.8649
#
#
#
# Elastic Compliance Matrix: (Units=1/GPa)
#
#
# Indices 1 2 3 4 5 6 
#
# 1 0.022820 0.001723 -0.004564 0.000000 0.000000 0.000000
# 2 0.001723 0.019841 -0.006900 0.000000 0.000000 0.000000
# 3 -0.004564 -0.006900 0.009461 0.000000 0.000000 0.000000
# 4 0.000000 0.000000 0.000000 0.015467 0.000000 0.000000
# 5 0.000000 0.000000 0.000000 0.000000 0.023744 0.000000
# 6 0.000000 0.000000 0.000000 0.000000 0.000000 0.021803
#
#
# Mechanical properties :
#
#
# Convention : Reuss Voigt Hill
#
# Bulk Modulus (GPa) = 30.63587 49.33663 39.98625
# Shear Modulus (GPa) = 34.84359 43.13061 38.98710
#
# Velocity S-wave (km/s) = 3.60300 4.00862 3.81121
# Velocity P-wave (km/s) = 5.35936 6.30925 5.85360
#
# Compressibility (1/GPa) = 0.03264148
#
# Stress axis : x y z
#
# Youngs Moduli (GPa) = 43.82029 50.40028 105.70065
#
# Poissons Ratio (x) = -0.08686 0.48240
# Poissons Ratio (y) = -0.07552 0.72932
# Poissons Ratio (z) = 0.19999 0.34776
#
# Static dielectric constant tensor:
#      x y z
#    x 2.098190 0.000000 0.000000 
#    y 0.000000 2.185400 0.000000 
#    z 0.000000 0.000000 2.080080 
# 
# From -- ./inp_files/2811.got.cif
#   From: 2010.05.17/outbox.cif.g08.bks.cpg/sg19_2_cif.got.tgz:2811.got - 2010.06.03 22:46:19.
