data_PCOD9315056
_publ_section_title
;
Structure prediction by ZEFSAII (Michael W. Deem and Ramdas Pophale) SiO2 
 PCOD9315056
Probable space group: P 21 21 21
;
_chemical_formula_sum "Si O2"
_cell_formula_units_Z 32
_cell_length_a 27.927301
_cell_length_b 8.860531
_cell_length_c 4.921706
_cell_angle_alpha 90.000000
_cell_angle_beta 90.000000
_cell_angle_gamma 90.000000
_cell_volume 1217.879675
_symmetry_space_group_name_H-M "P 21 21 21"
_symmetry_group_IT_number 19
_symmetry_cell_setting 'orthorhombic'
loop_
_space_group_symop_operation_xyz
x,y,z
1/2-x,-y,1/2+z
1/2+x,1/2-y,-z
-x,1/2+y,1/2-z
loop_
_atom_site_type_symbol
_atom_site_label
_atom_site_fract_x
_atom_site_fract_y
_atom_site_fract_z
Si Si1 0.031339 0.771690 0.577350
Si Si2 0.128538 0.896802 0.333949
Si Si3 0.263365 0.587783 0.596611
Si Si4 0.640919 0.118044 0.251407
Si Si5 0.032891 0.470916 0.281498
Si Si6 0.228338 0.918365 0.642943
Si Si7 0.401305 0.329558 0.446852
Si Si8 0.898034 0.735200 0.238794
O O1 0.085992 0.810749 0.488807
O O2 0.013732 0.606362 0.471460
O O3 0.046693 0.750163 0.889686
O O4 0.000184 0.907370 0.460396
O O5 0.176087 0.921097 0.506711
O O6 0.106140 0.057450 0.265279
O O7 0.135013 0.791612 0.068797
O O8 0.270524 0.485935 0.863638
O O9 0.310603 0.610444 0.418232
O O10 0.242397 0.745971 0.693833
O O11 0.643185 0.199566 0.540180
O O12 0.621522 0.946606 0.266277
O O13 0.607336 0.218228 0.052522
O O14 0.055152 0.314642 0.396137
O O15 0.080862 0.548287 0.165944
O O16 0.235246 0.013826 0.916398
#
# Coordination Sequence:
#
# PCOD9315056 Si02
#       8
#     4   4   4   4   4   4   4   4
#     4  11  23  43  68  95 141 181 233 294 354 428
#     4  11  26  42  69 102 136 187 244 293 368 426
#     4  12  25  41  69 103 134 187 237 301 354 435
#     4  11  23  44  68  93 141 178 237 283 365 415
#     4  10  23  42  63 101 133 182 235 282 356 421
#     4  12  27  47  71 105 149 189 244 306 371 435
#     4  10  24  42  67  98 136 189 229 302 349 434
#     4  11  23  43  67  97 132 185 227 291 345 426
#
# _framework density 26.275174
#
# number of rings (size 3 to 8) (size 9 to 14) (size 15 to 20)
#    0.000    1.000    1.250    4.500    5.250    3.000 
#    2.250    0.000    0.000    0.000    0.000    0.000 
#    0.000    0.000    0.000    0.000    0.000    0.000 
#
# Total GULP energy -178895.469442 kJ/mol
# GULP energy per Si atom -5590.483420 kJ/mol
# Density = 2.621537 g / cm^3
# Si number density = 26.275174 Si / 1000 Ang^3
#
#
#
# Elastic Constant Matrix: (Units=GPa)
#
#
# Indices 1 2 3 4 5 6 
#
# 1 65.8252 18.1071 -11.6388 0.0000 0.0000 0.0000
# 2 18.1071 140.7506 14.7924 0.0000 0.0000 0.0000
# 3 -11.6388 14.7924 80.5039 0.0000 0.0000 0.0000
# 4 0.0000 0.0000 0.0000 6.8576 0.0000 0.0000
# 5 0.0000 0.0000 0.0000 0.0000 30.6030 0.0000
# 6 0.0000 0.0000 0.0000 0.0000 0.0000 40.0388
#
#
#
# Elastic Compliance Matrix: (Units=1/GPa)
#
#
# Indices 1 2 3 4 5 6 
#
# 1 0.016347 -0.002398 0.002804 0.000000 0.000000 0.000000
# 2 -0.002398 0.007596 -0.001742 0.000000 0.000000 0.000000
# 3 0.002804 -0.001742 0.013147 0.000000 0.000000 0.000000
# 4 0.000000 0.000000 0.000000 0.145823 0.000000 0.000000
# 5 0.000000 0.000000 0.000000 0.000000 0.032677 0.000000
# 6 0.000000 0.000000 0.000000 0.000000 0.000000 0.024976
#
#
# Mechanical properties :
#
#
# Convention : Reuss Voigt Hill
#
# Bulk Modulus (GPa) = 29.05430 36.62236 32.83833
# Shear Modulus (GPa) = 19.63006 33.22114 26.42560
#
# Velocity S-wave (km/s) = 2.73627 3.55963 3.17476
# Velocity P-wave (km/s) = 4.58962 5.55544 5.09547
#
# Compressibility (1/GPa) = 0.03441832
#
# Stress axis : x y z
#
# Youngs Moduli (GPa) = 61.17305 131.64228 76.06120
#
# Poissons Ratio (x) = 0.31564 -0.21327
# Poissons Ratio (y) = 0.14667 0.13253
# Poissons Ratio (z) = -0.17153 0.22938
#
# Static dielectric constant tensor:
#      x y z
#    x 2.166440 0.000000 0.000000 
#    y 0.000000 2.080990 0.000000 
#    z 0.000000 0.000000 2.664010 
# 
# From -- ./inp_files/2336.got.cif
#   From: 2010.05.17/outbox.cif.g08.bks.cpg/sg19_2_cif.got.tgz:2336.got - 2010.06.03 22:46:19.
