data_PCOD9315065
_publ_section_title
;
Structure prediction by ZEFSAII (Michael W. Deem and Ramdas Pophale) SiO2 
 PCOD9315065
Probable space group: P 21 21 21
;
_chemical_formula_sum "Si O2"
_cell_formula_units_Z 32
_cell_length_a 29.037720
_cell_length_b 8.633231
_cell_length_c 5.122093
_cell_angle_alpha 90.000000
_cell_angle_beta 90.000000
_cell_angle_gamma 90.000000
_cell_volume 1284.054137
_symmetry_space_group_name_H-M "P 21 21 21"
_symmetry_group_IT_number 19
_symmetry_cell_setting 'orthorhombic'
loop_
_space_group_symop_operation_xyz
x,y,z
1/2-x,-y,1/2+z
1/2+x,1/2-y,-z
-x,1/2+y,1/2-z
loop_
_atom_site_type_symbol
_atom_site_label
_atom_site_fract_x
_atom_site_fract_y
_atom_site_fract_z
Si Si1 0.142692 0.598604 0.288586
Si Si2 0.874417 0.565861 0.642392
Si Si3 0.757465 0.101730 0.032181
Si Si4 0.464237 0.362346 0.306581
Si Si5 0.614833 0.069684 0.191592
Si Si6 0.275475 0.936206 0.583341
Si Si7 0.412317 0.134005 0.955368
Si Si8 0.472761 0.052454 0.569834
O O1 0.190748 0.655659 0.403557
O O2 0.122874 0.480815 0.508255
O O3 0.109835 0.746330 0.253010
O O4 0.148572 0.515059 0.012564
O O5 0.878974 0.749048 0.665683
O O6 0.921165 0.504912 0.507821
O O7 0.827548 0.521358 0.497364
O O8 0.877713 0.490382 0.929683
O O9 0.729105 0.250909 0.944092
O O10 0.740884 0.022720 0.299785
O O11 0.435314 0.509164 0.410497
O O12 0.486625 0.229167 0.488214
O O13 0.494537 0.431625 0.071689
O O14 0.424454 0.256157 0.180204
O O15 0.241654 0.011705 0.366874
O O16 0.462023 0.061238 0.878458
#
# Coordination Sequence:
#
# PCOD9315065 Si02
#       8
#     4   4   4   4   4   4   4   4
#     4  11  23  44  71  94 140 184 235 282 358 417
#     4  11  26  43  68 103 137 186 242 289 364 415
#     4  12  25  44  70 103 138 187 239 298 356 424
#     4  10  23  42  66 103 133 180 233 280 356 415
#     4  11  24  44  70 103 139 183 231 294 341 428
#     4  12  28  46  72 105 147 190 245 306 359 426
#     4  10  24  43  67  98 135 191 226 292 350 430
#     4  11  23  44  70  95 143 179 233 289 352 429
#
# _framework density 24.921068000000002
#
# number of rings (size 3 to 8) (size 9 to 14) (size 15 to 20)
#    0.000    1.000    1.250    4.500    5.250    3.000 
#    2.250    0.000    0.000    0.000    0.000    0.000 
#    0.000    0.000    0.000    0.000    0.000    0.000 
#
# Total GULP energy -178902.354158 kJ/mol
# GULP energy per Si atom -5590.698567 kJ/mol
# Density = 2.486435 g / cm^3
# Si number density = 24.921068 Si / 1000 Ang^3
#
#
#
# Elastic Constant Matrix: (Units=GPa)
#
#
# Indices 1 2 3 4 5 6 
#
# 1 67.3373 9.6346 -11.3501 0.0000 0.0000 0.0000
# 2 9.6346 94.5542 9.8116 0.0000 0.0000 0.0000
# 3 -11.3501 9.8116 72.6028 0.0000 0.0000 0.0000
# 4 0.0000 0.0000 0.0000 32.6179 0.0000 0.0000
# 5 0.0000 0.0000 0.0000 0.0000 36.3236 0.0000
# 6 0.0000 0.0000 0.0000 0.0000 0.0000 35.8079
#
#
#
# Elastic Compliance Matrix: (Units=1/GPa)
#
#
# Indices 1 2 3 4 5 6 
#
# 1 0.015570 -0.001865 0.002686 0.000000 0.000000 0.000000
# 2 -0.001865 0.010950 -0.001771 0.000000 0.000000 0.000000
# 3 0.002686 -0.001771 0.014433 0.000000 0.000000 0.000000
# 4 0.000000 0.000000 0.000000 0.030658 0.000000 0.000000
# 5 0.000000 0.000000 0.000000 0.000000 0.027530 0.000000
# 6 0.000000 0.000000 0.000000 0.000000 0.000000 0.027927
#
#
# Mechanical properties :
#
#
# Convention : Reuss Voigt Hill
#
# Bulk Modulus (GPa) = 25.60682 27.85405 26.73043
# Shear Modulus (GPa) = 35.21467 36.04311 35.62889
#
# Velocity S-wave (km/s) = 3.76313 3.80714 3.78520
# Velocity P-wave (km/s) = 5.40176 5.52512 5.46379
#
# Compressibility (1/GPa) = 0.03905210
#
# Stress axis : x y z
#
# Youngs Moduli (GPa) = 64.22502 91.32575 69.28619
#
# Poissons Ratio (x) = 0.17035 -0.18612
# Poissons Ratio (y) = 0.11980 0.12273
# Poissons Ratio (z) = -0.17252 0.16177
#
# Static dielectric constant tensor:
#      x y z
#    x 2.042620 0.000000 0.000000 
#    y 0.000000 1.965690 0.000000 
#    z 0.000000 0.000000 2.333430 
# 
# From -- ./inp_files/2309.got.cif
#   From: 2010.05.17/outbox.cif.g08.bks.cpg/sg19_2_cif.got.tgz:2309.got - 2010.06.03 22:46:19.
