data_PCOD9315014
_publ_section_title
;
Structure prediction by ZEFSAII (Michael W. Deem and Ramdas Pophale) SiO2 
 PCOD9315014
Probable space group: P 21 21 21
;
_chemical_formula_sum "Si O2"
_cell_formula_units_Z 32
_cell_length_a 5.221757
_cell_length_b 11.470919
_cell_length_c 21.536242
_cell_angle_alpha 90.000000
_cell_angle_beta 90.000000
_cell_angle_gamma 90.000000
_cell_volume 1289.985395
_symmetry_space_group_name_H-M "P 21 21 21"
_symmetry_group_IT_number 19
_symmetry_cell_setting 'orthorhombic'
loop_
_space_group_symop_operation_xyz
x,y,z
1/2-x,-y,1/2+z
1/2+x,1/2-y,-z
-x,1/2+y,1/2-z
loop_
_atom_site_type_symbol
_atom_site_label
_atom_site_fract_x
_atom_site_fract_y
_atom_site_fract_z
Si Si1 0.661485 0.028172 0.614701
Si Si2 0.057129 0.093159 0.406395
Si Si3 0.813709 0.913895 0.814036
Si Si4 0.862006 0.617687 0.649874
Si Si5 0.298811 0.266687 0.303134
Si Si6 0.527812 0.312731 0.019428
Si Si7 0.036745 0.672792 0.297828
Si Si8 0.807266 0.539667 0.961459
O O1 0.751070 0.105897 0.672670
O O2 0.422149 0.091125 0.580333
O O3 0.924013 0.016122 0.574351
O O4 0.537271 0.909672 0.642176
O O5 0.762883 0.083985 0.386472
O O6 0.169990 0.185493 0.357384
O O7 0.120694 0.113513 0.477397
O O8 0.159765 0.966478 0.385185
O O9 0.610448 0.914122 0.758936
O O10 0.919219 0.783816 0.805531
O O11 0.994198 0.025241 0.806438
O O12 0.024370 0.668967 0.592555
O O13 0.725169 0.722592 0.684119
O O14 0.202674 0.237016 0.233987
O O15 0.255979 0.281594 0.988825
O O16 0.661812 0.424912 0.988033
#
# Coordination Sequence:
#
# PCOD9315014 Si02
#       8
#     4   4   4   4   4   4   4   4
#     4  12  29  47  73 112 146 189 242 310 363 429
#     4   9  23  45  72 102 138 192 240 290 369 441
#     4  10  24  44  72 101 137 200 246 297 359 447
#     4  10  23  40  70 100 139 186 239 294 365 430
#     4  10  26  45  71  98 145 192 252 293 364 429
#     4  11  23  42  70 104 144 189 234 295 365 436
#     4  11  26  44  69 103 146 187 248 304 363 429
#     4  11  26  45  73 106 153 183 241 301 366 439
#
# _framework density 24.806483
#
# number of rings (size 3 to 8) (size 9 to 14) (size 15 to 20)
#    0.000    1.500    0.000    2.250   21.000    1.000 
#    0.000    0.000    0.000    0.000    0.000    0.000 
#    0.000    0.000    0.000    0.000    0.000    0.000 
#
# Total GULP energy -178600.597785 kJ/mol
# GULP energy per Si atom -5581.268681 kJ/mol
# Density = 2.475002 g / cm^3
# Si number density = 24.806483 Si / 1000 Ang^3
#
#
#
# Elastic Constant Matrix: (Units=GPa)
#
#
# Indices 1 2 3 4 5 6 
#
# 1 65.7961 -7.3541 37.9245 0.0000 0.0000 0.0000
# 2 -7.3541 50.7207 9.0070 0.0000 0.0000 0.0000
# 3 37.9245 9.0070 105.5142 0.0000 0.0000 0.0000
# 4 0.0000 0.0000 0.0000 24.5137 0.0000 0.0000
# 5 0.0000 0.0000 0.0000 0.0000 37.4080 0.0000
# 6 0.0000 0.0000 0.0000 0.0000 0.0000 22.4170
#
#
#
# Elastic Compliance Matrix: (Units=1/GPa)
#
#
# Indices 1 2 3 4 5 6 
#
# 1 0.020032 0.004248 -0.007563 0.000000 0.000000 0.000000
# 2 0.004248 0.020920 -0.003312 0.000000 0.000000 0.000000
# 3 -0.007563 -0.003312 0.012478 0.000000 0.000000 0.000000
# 4 0.000000 0.000000 0.000000 0.040793 0.000000 0.000000
# 5 0.000000 0.000000 0.000000 0.000000 0.026732 0.000000
# 6 0.000000 0.000000 0.000000 0.000000 0.000000 0.044609
#
#
# Mechanical properties :
#
#
# Convention : Reuss Voigt Hill
#
# Bulk Modulus (GPa) = 24.89090 33.46508 29.17799
# Shear Modulus (GPa) = 26.01290 29.03133 27.52212
#
# Velocity S-wave (km/s) = 3.24177 3.42469 3.33449
# Velocity P-wave (km/s) = 4.90591 5.39979 5.15877
#
# Compressibility (1/GPa) = 0.04017533
#
# Stress axis : x y z
#
# Youngs Moduli (GPa) = 49.91934 47.80141 80.13858
#
# Poissons Ratio (x) = -0.20304 0.60606
# Poissons Ratio (y) = -0.21203 0.26545
# Poissons Ratio (z) = 0.37753 0.15834
#
# Static dielectric constant tensor:
#      x y z
#    x 2.109580 0.000000 0.000000 
#    y 0.000000 2.007990 0.000000 
#    z 0.000000 0.000000 2.017990 
# 
# From -- ./inp_files/1150.got.cif
#   From: 2010.05.17/outbox.cif.g08.bks.cpg/sg19_1_cif.got.tgz:1150.got - 2010.06.03 22:46:19.
