data_PCOD9315384
_publ_section_title
;
Structure prediction by ZEFSAII (Michael W. Deem and Ramdas Pophale) SiO2 
 PCOD9315384
Probable space group: P 21 21 21
;
_chemical_formula_sum "Si O2"
_cell_formula_units_Z 32
_cell_length_a 9.220922
_cell_length_b 13.481029
_cell_length_c 9.510496
_cell_angle_alpha 90.000000
_cell_angle_beta 90.000000
_cell_angle_gamma 90.000000
_cell_volume 1182.226142
_symmetry_space_group_name_H-M "P 21 21 21"
_symmetry_group_IT_number 19
_symmetry_cell_setting 'orthorhombic'
loop_
_space_group_symop_operation_xyz
x,y,z
1/2-x,-y,1/2+z
1/2+x,1/2-y,-z
-x,1/2+y,1/2-z
loop_
_atom_site_type_symbol
_atom_site_label
_atom_site_fract_x
_atom_site_fract_y
_atom_site_fract_z
Si Si1 0.784394 0.341291 0.014198
Si Si2 0.351150 0.640107 0.187345
Si Si3 0.433510 0.719051 0.682581
Si Si4 0.595982 0.464334 0.458785
Si Si5 0.476414 0.963775 0.448986
Si Si6 0.582762 0.993868 0.756166
Si Si7 0.461709 0.311122 0.241675
Si Si8 0.716824 0.282344 0.569766
O O1 0.677962 0.271957 0.924296
O O2 0.862882 0.424343 0.914985
O O3 0.922248 0.128447 0.897688
O O4 0.908194 0.294527 0.112638
O O5 0.678499 0.417956 0.096678
O O6 0.295658 0.702841 0.053593
O O7 0.224166 0.574764 0.253842
O O8 0.417219 0.726505 0.284647
O O9 0.488778 0.975218 0.616459
O O10 0.381708 0.610391 0.733074
O O11 0.425725 0.778952 0.829459
O O12 0.499173 0.476957 0.597560
O O13 0.511383 0.398796 0.346140
O O14 0.727503 0.390657 0.501500
O O15 0.534413 0.061646 0.375066
O O16 0.344177 0.250002 0.328329
#
# Coordination Sequence:
#
# PCOD9315384 Si02
#       8
#     4   4   4   4   4   4   4   4
#     4  11  28  50  78 124 168 220 279 355 432 506
#     4  11  25  48  83 116 168 225 282 343 429 518
#     4  11  26  50  81 117 171 220 283 355 426 513
#     4  10  24  48  79 110 165 220 279 349 425 512
#     4  12  27  48  79 122 164 219 283 353 423 506
#     4  11  24  50  79 122 167 222 280 352 429 504
#     4  11  26  47  77 120 163 216 282 352 421 511
#     4  11  22  49  78 117 162 224 284 345 429 510
#
# _framework density 27.067578000000001
#
# number of rings (size 3 to 8) (size 9 to 14) (size 15 to 20)
#    0.000    1.000    2.500    2.250    3.500    6.000 
#    6.750    0.000    0.000    0.000    0.000    0.000 
#    0.000    0.000    0.000    0.000    0.000    0.000 
#
# Total GULP energy -179339.798026 kJ/mol
# GULP energy per Si atom -5604.368688 kJ/mol
# Density = 2.700597 g / cm^3
# Si number density = 27.067578 Si / 1000 Ang^3
#
#
#
# Elastic Constant Matrix: (Units=GPa)
#
#
# Indices 1 2 3 4 5 6 
#
# 1 95.3864 47.8643 28.4129 0.0000 0.0000 0.0000
# 2 47.8643 165.1415 58.2900 0.0000 0.0000 0.0000
# 3 28.4129 58.2900 121.7753 0.0000 0.0000 0.0000
# 4 0.0000 0.0000 0.0000 49.7122 0.0000 0.0000
# 5 0.0000 0.0000 0.0000 0.0000 36.0043 0.0000
# 6 0.0000 0.0000 0.0000 0.0000 0.0000 49.1519
#
#
#
# Elastic Compliance Matrix: (Units=1/GPa)
#
#
# Indices 1 2 3 4 5 6 
#
# 1 0.012468 -0.003113 -0.001419 0.000000 0.000000 0.000000
# 2 -0.003113 0.008064 -0.003134 0.000000 0.000000 0.000000
# 3 -0.001419 -0.003134 0.010043 0.000000 0.000000 0.000000
# 4 0.000000 0.000000 0.000000 0.020116 0.000000 0.000000
# 5 0.000000 0.000000 0.000000 0.000000 0.027774 0.000000
# 6 0.000000 0.000000 0.000000 0.000000 0.000000 0.020345
#
#
# Mechanical properties :
#
#
# Convention : Reuss Voigt Hill
#
# Bulk Modulus (GPa) = 65.60004 72.38196 68.99100
# Shear Modulus (GPa) = 41.93829 43.48940 42.71384
#
# Velocity S-wave (km/s) = 3.94050 4.01271 3.97677
# Velocity P-wave (km/s) = 6.70758 6.94755 6.82862
#
# Compressibility (1/GPa) = 0.01524389
#
# Stress axis : x y z
#
# Youngs Moduli (GPa) = 80.20255 124.01255 99.57306
#
# Poissons Ratio (x) = 0.38604 0.14130
# Poissons Ratio (y) = 0.24966 0.31201
# Poissons Ratio (z) = 0.11382 0.38860
#
# Static dielectric constant tensor:
#      x y z
#    x 2.303120 0.000000 0.000000 
#    y 0.000000 2.114730 0.000000 
#    z 0.000000 0.000000 2.063700 
# 
# From -- ./inp_files/5029.got.cif
#   From: 2010.05.17/outbox.cif.g08.bks.cpg/sg19_3_cif.got.tgz:5029.got - 2010.06.03 22:46:19.
