data_PCOD9315033
_publ_section_title
;
Structure prediction by ZEFSAII (Michael W. Deem and Ramdas Pophale) SiO2 
 PCOD9315033
Probable space group: P 21 21 21
;
_chemical_formula_sum "Si O2"
_cell_formula_units_Z 20
_cell_length_a 10.170718
_cell_length_b 12.046138
_cell_length_c 5.970520
_cell_angle_alpha 90.000000
_cell_angle_beta 90.000000
_cell_angle_gamma 90.000000
_cell_volume 731.495409
_symmetry_space_group_name_H-M "P 21 21 21"
_symmetry_group_IT_number 19
_symmetry_cell_setting 'orthorhombic'
loop_
_space_group_symop_operation_xyz
x,y,z
1/2-x,-y,1/2+z
1/2+x,1/2-y,-z
-x,1/2+y,1/2-z
loop_
_atom_site_type_symbol
_atom_site_label
_atom_site_fract_x
_atom_site_fract_y
_atom_site_fract_z
Si Si1 0.574717 0.019403 0.062357
Si Si2 0.903849 0.177821 0.295071
Si Si3 0.187285 0.011101 0.741532
Si Si4 0.646314 0.259725 0.473297
Si Si5 0.787532 0.174929 0.852883
O O1 0.648187 0.928319 0.217455
O O2 0.536393 0.943257 0.845170
O O3 0.447873 0.054855 0.198817
O O4 0.662477 0.116070 0.966049
O O5 0.750448 0.173389 0.371359
O O6 0.997768 0.257096 0.441764
O O7 0.892070 0.209695 0.038962
O O8 0.148844 0.140953 0.701117
O O9 0.234451 0.004219 0.000502
O O10 0.727163 0.275135 0.707273
#
# Coordination Sequence:
#
# PCOD9315033 Si02
#       5
#     4   4   4   4   4
#     4  10  23  41  68 102 135 188 235 291 358 430
#     4  10  23  44  67  96 143 172 243 290 360 425
#     4  11  28  46  71 102 149 191 240 299 363 433
#     4  10  26  42  68 104 133 188 235 300 356 431
#     4  11  22  41  74  98 140 183 237 300 355 435
#
# _framework density 27.341252000000001
#
# number of rings (size 3 to 8) (size 9 to 14) (size 15 to 20)
#    0.000    1.600    2.000    0.000   11.200    4.800 
#    0.000    0.000    0.000    0.000    0.000    0.000 
#    0.000    0.000    0.000    0.000    0.000    0.000 
#
# Total GULP energy -111488.196135 kJ/mol
# GULP energy per Si atom -5574.409807 kJ/mol
# Density = 2.727902 g / cm^3
# Si number density = 27.341252 Si / 1000 Ang^3
#
#
#
# Elastic Constant Matrix: (Units=GPa)
#
#
# Indices 1 2 3 4 5 6 
#
# 1 114.8136 12.5550 37.3319 0.0000 0.0000 0.0000
# 2 12.5550 40.4818 23.1333 0.0000 0.0000 0.0000
# 3 37.3319 23.1333 117.1469 0.0000 0.0000 0.0000
# 4 0.0000 0.0000 0.0000 42.9379 0.0000 0.0000
# 5 0.0000 0.0000 0.0000 0.0000 39.1793 0.0000
# 6 0.0000 0.0000 0.0000 0.0000 0.0000 29.2328
#
#
#
# Elastic Compliance Matrix: (Units=1/GPa)
#
#
# Indices 1 2 3 4 5 6 
#
# 1 0.009788 -0.001413 -0.002840 0.000000 0.000000 0.000000
# 2 -0.001413 0.028048 -0.005089 0.000000 0.000000 0.000000
# 3 -0.002840 -0.005089 0.010446 0.000000 0.000000 0.000000
# 4 0.000000 0.000000 0.000000 0.023289 0.000000 0.000000
# 5 0.000000 0.000000 0.000000 0.000000 0.025524 0.000000
# 6 0.000000 0.000000 0.000000 0.000000 0.000000 0.034208
#
#
# Mechanical properties :
#
#
# Convention : Reuss Voigt Hill
#
# Bulk Modulus (GPa) = 33.78415 46.49809 40.14112
# Shear Modulus (GPa) = 31.27874 35.56481 33.42178
#
# Velocity S-wave (km/s) = 3.38600 3.61054 3.50007
# Velocity P-wave (km/s) = 5.26022 5.86727 5.57202
#
# Compressibility (1/GPa) = 0.02959968
#
# Stress axis : x y z
#
# Youngs Moduli (GPa) = 102.16885 35.65260 95.72798
#
# Poissons Ratio (x) = 0.05036 0.27188
# Poissons Ratio (y) = 0.14432 0.48713
# Poissons Ratio (z) = 0.29018 0.18142
#
# Static dielectric constant tensor:
#      x y z
#    x 2.201280 0.000000 0.000000 
#    y 0.000000 2.119470 0.000000 
#    z 0.000000 0.000000 2.324430 
# 
# From -- ./inp_files/329.got.cif
#   From: 2010.05.17/outbox.cif.g08.bks.cpg/sg19_1_cif.got.tgz:329.got - 2010.06.03 22:46:19.
