data_PCOD9315573
_publ_section_title
;
Structure prediction by ZEFSAII (Michael W. Deem and Ramdas Pophale) SiO2 
 PCOD9315573
Probable space group: P 21 21 21
;
_chemical_formula_sum "Si O2"
_cell_formula_units_Z 28
_cell_length_a 22.769744
_cell_length_b 7.844707
_cell_length_c 6.569664
_cell_angle_alpha 90.000000
_cell_angle_beta 90.000000
_cell_angle_gamma 90.000000
_cell_volume 1173.486327
_symmetry_space_group_name_H-M "P 21 21 21"
_symmetry_group_IT_number 19
_symmetry_cell_setting 'orthorhombic'
loop_
_space_group_symop_operation_xyz
x,y,z
1/2-x,-y,1/2+z
1/2+x,1/2-y,-z
-x,1/2+y,1/2-z
loop_
_atom_site_type_symbol
_atom_site_label
_atom_site_fract_x
_atom_site_fract_y
_atom_site_fract_z
Si Si1 0.569771 0.212879 0.315521
Si Si2 0.839115 0.423204 0.426673
Si Si3 0.693446 0.159836 0.432321
Si Si4 0.946698 0.505341 0.161570
Si Si5 0.232640 0.859663 0.723586
Si Si6 0.696544 0.856914 0.669616
Si Si7 0.023569 0.637840 0.506155
O O1 0.640343 0.229195 0.298554
O O2 0.555640 0.340756 0.502139
O O3 0.551873 0.014409 0.356897
O O4 0.532409 0.287542 0.129715
O O5 0.891557 0.518235 0.317034
O O6 0.827379 0.416621 0.665769
O O7 0.777111 0.492731 0.340598
O O8 0.841986 0.232351 0.340327
O O9 0.728734 0.263385 0.604977
O O10 0.664466 0.013412 0.568505
O O11 0.743156 0.090230 0.280807
O O12 0.944687 0.316796 0.057511
O O13 0.003116 0.538650 0.302749
O O14 0.215108 0.761725 0.519622
#
# Coordination Sequence:
#
# PCOD9315573 Si02
#       7
#     4   4   4   4   4   4   4
#     4  12  26  47  76 105 139 191 242 306 368 427
#     4  11  24  40  68  95 137 179 222 279 351 421
#     4  11  24  42  69  96 140 182 222 283 355 418
#     4  12  26  48  74 105 140 188 243 307 362 432
#     4  11  22  40  63  98 137 174 219 273 332 432
#     4  11  23  43  62 102 141 176 226 281 340 438
#     4  12  27  50  72 105 142 184 252 311 360 424
#
# _framework density 23.860524999999999
#
# number of rings (size 3 to 8) (size 9 to 14) (size 15 to 20)
#    0.000    0.571    7.143    0.857    2.000    1.143 
#    5.143    0.000    0.000    0.000    0.000    0.000 
#    0.000    0.000    0.000    0.000    0.000    0.000 
#
# Total GULP energy -156303.632657 kJ/mol
# GULP energy per Si atom -5582.272595 kJ/mol
# Density = 2.380622 g / cm^3
# Si number density = 23.860525 Si / 1000 Ang^3
#
#
#
# Elastic Constant Matrix: (Units=GPa)
#
#
# Indices 1 2 3 4 5 6 
#
# 1 27.4749 -2.0340 -2.7693 0.0000 0.0000 0.0000
# 2 -2.0340 103.3766 5.5432 0.0000 0.0000 0.0000
# 3 -2.7693 5.5432 27.4612 0.0000 0.0000 0.0000
# 4 0.0000 0.0000 0.0000 49.4220 0.0000 0.0000
# 5 0.0000 0.0000 0.0000 0.0000 32.5235 0.0000
# 6 0.0000 0.0000 0.0000 0.0000 0.0000 20.5335
#
#
#
# Elastic Compliance Matrix: (Units=1/GPa)
#
#
# Indices 1 2 3 4 5 6 
#
# 1 0.036799 0.000531 0.003604 0.000000 0.000000 0.000000
# 2 0.000531 0.009787 -0.001922 0.000000 0.000000 0.000000
# 3 0.003604 -0.001922 0.037166 0.000000 0.000000 0.000000
# 4 0.000000 0.000000 0.000000 0.020234 0.000000 0.000000
# 5 0.000000 0.000000 0.000000 0.000000 0.030747 0.000000
# 6 0.000000 0.000000 0.000000 0.000000 0.000000 0.048701
#
#
# Mechanical properties :
#
#
# Convention : Reuss Voigt Hill
#
# Bulk Modulus (GPa) = 11.34068 17.75471 14.54770
# Shear Modulus (GPa) = 23.99211 31.00066 27.49638
#
# Velocity S-wave (km/s) = 3.17443 3.60841 3.39835
# Velocity P-wave (km/s) = 4.26605 4.98177 4.63774
#
# Compressibility (1/GPa) = 0.08817812
#
# Stress axis : x y z
#
# Youngs Moduli (GPa) = 27.17433 102.17765 26.90599
#
# Poissons Ratio (x) = -0.05424 -0.09697
# Poissons Ratio (y) = -0.01442 0.05171
# Poissons Ratio (z) = -0.09793 0.19639
#
# Static dielectric constant tensor:
#      x y z
#    x 1.942330 0.000000 0.000000 
#    y 0.000000 2.266580 0.000000 
#    z 0.000000 0.000000 1.867440 
# 
# From -- ./inp_files/2151.got.cif
#   From: 2010.05.17/outbox.cif.g08.bks.cpg/sg19_2_cif.got.tgz:2151.got - 2010.06.03 22:46:19.
