data_PCOD9315391
_publ_section_title
;
Structure prediction by ZEFSAII (Michael W. Deem and Ramdas Pophale) SiO2 
 PCOD9315391
Probable space group: P 21 21 21
;
_chemical_formula_sum "Si O2"
_cell_formula_units_Z 28
_cell_length_a 11.052666
_cell_length_b 12.987054
_cell_length_c 7.045351
_cell_angle_alpha 90.000000
_cell_angle_beta 90.000000
_cell_angle_gamma 90.000000
_cell_volume 1011.300745
_symmetry_space_group_name_H-M "P 21 21 21"
_symmetry_group_IT_number 19
_symmetry_cell_setting 'orthorhombic'
loop_
_space_group_symop_operation_xyz
x,y,z
1/2-x,-y,1/2+z
1/2+x,1/2-y,-z
-x,1/2+y,1/2-z
loop_
_atom_site_type_symbol
_atom_site_label
_atom_site_fract_x
_atom_site_fract_y
_atom_site_fract_z
Si Si1 0.784266 0.852160 0.547351
Si Si2 0.005789 0.954286 0.336789
Si Si3 0.774275 0.373298 0.924335
Si Si4 0.984562 0.693636 0.036853
Si Si5 0.250013 0.679677 0.029883
Si Si6 0.097341 0.948184 0.934111
Si Si7 0.910943 0.094271 0.779200
O O1 0.789367 0.732580 0.483422
O O2 0.650525 0.885515 0.478708
O O3 0.795096 0.866117 0.772096
O O4 0.883441 0.915042 0.432060
O O5 0.022461 0.077580 0.376003
O O6 0.014055 0.924372 0.115715
O O7 0.112233 0.892412 0.439846
O O8 0.688238 0.469467 0.970981
O O9 0.824070 0.378112 0.708451
O O10 0.858390 0.752020 0.053929
O O11 0.699027 0.899630 0.127290
O O12 0.120377 0.732034 0.091809
O O13 0.003974 0.683747 0.807798
O O14 0.004069 0.002573 0.791671
#
# Coordination Sequence:
#
# PCOD9315391 Si02
#       7
#     4   4   4   4   4   4   4
#     4  12  30  51  85 124 177 236 290 367 454 533
#     4  12  29  53  87 126 173 238 294 373 446 545
#     4  12  28  51  84 123 171 232 294 366 455 536
#     4  10  24  52  87 130 175 226 297 362 450 520
#     4  10  25  51  88 126 180 228 295 370 440 536
#     4  12  26  55  85 122 174 226 295 370 451 539
#     4  10  26  49  84 127 166 226 291 366 442 529
#
# _framework density 27.687113
#
# number of rings (size 3 to 8) (size 9 to 14) (size 15 to 20)
#    0.857    0.000    2.857    1.714    6.000    5.714 
#    0.000    0.000    0.000    0.000    0.000    0.000 
#    0.000    0.000    0.000    0.000    0.000    0.000 
#
# Total GULP energy -156762.076504 kJ/mol
# GULP energy per Si atom -5598.645589 kJ/mol
# Density = 2.762410 g / cm^3
# Si number density = 27.687113 Si / 1000 Ang^3
#
#
#
# Elastic Constant Matrix: (Units=GPa)
#
#
# Indices 1 2 3 4 5 6 
#
# 1 166.5585 59.9160 57.4067 0.0000 0.0000 0.0000
# 2 59.9160 98.6409 39.2804 0.0000 0.0000 0.0000
# 3 57.4067 39.2804 167.4166 0.0000 0.0000 0.0000
# 4 0.0000 0.0000 0.0000 34.2039 0.0000 0.0000
# 5 0.0000 0.0000 0.0000 0.0000 62.2148 0.0000
# 6 0.0000 0.0000 0.0000 0.0000 0.0000 66.1157
#
#
#
# Elastic Compliance Matrix: (Units=1/GPa)
#
#
# Indices 1 2 3 4 5 6 
#
# 1 0.008147 -0.004231 -0.001801 0.000000 0.000000 0.000000
# 2 -0.004231 0.013380 -0.001688 0.000000 0.000000 0.000000
# 3 -0.001801 -0.001688 0.006987 0.000000 0.000000 0.000000
# 4 0.000000 0.000000 0.000000 0.029236 0.000000 0.000000
# 5 0.000000 0.000000 0.000000 0.000000 0.016073 0.000000
# 6 0.000000 0.000000 0.000000 0.000000 0.000000 0.015125
#
#
# Mechanical properties :
#
#
# Convention : Reuss Voigt Hill
#
# Bulk Modulus (GPa) = 76.49504 82.86914 79.68209
# Shear Modulus (GPa) = 45.97822 50.90773 48.44297
#
# Velocity S-wave (km/s) = 4.07951 4.29263 4.18743
# Velocity P-wave (km/s) = 7.06245 7.38678 7.22644
#
# Compressibility (1/GPa) = 0.01307274
#
# Stress axis : x y z
#
# Youngs Moduli (GPa) = 122.74952 74.73646 143.12845
#
# Poissons Ratio (x) = 0.31624 0.25773
# Poissons Ratio (y) = 0.51940 0.24167
# Poissons Ratio (z) = 0.22103 0.12619
#
# Static dielectric constant tensor:
#      x y z
#    x 2.113770 0.000000 0.000000 
#    y 0.000000 2.315280 0.000000 
#    z 0.000000 0.000000 2.164840 
# 
# From -- ./inp_files/3677.got.cif
#   From: 2010.05.17/outbox.cif.g08.bks.cpg/sg19_2_cif.got.tgz:3677.got - 2010.06.03 22:46:19.
