data_PCOD9315742
_publ_section_title
;
Structure prediction by ZEFSAII (Michael W. Deem and Ramdas Pophale) SiO2 
 PCOD9315742
Probable space group: P 21 21 21
;
_chemical_formula_sum "Si O2"
_cell_formula_units_Z 32
_cell_length_a 12.772618
_cell_length_b 19.647203
_cell_length_c 5.077258
_cell_angle_alpha 90.000000
_cell_angle_beta 90.000000
_cell_angle_gamma 90.000000
_cell_volume 1274.118696
_symmetry_space_group_name_H-M "P 21 21 21"
_symmetry_group_IT_number 19
_symmetry_cell_setting 'orthorhombic'
loop_
_space_group_symop_operation_xyz
x,y,z
1/2-x,-y,1/2+z
1/2+x,1/2-y,-z
-x,1/2+y,1/2-z
loop_
_atom_site_type_symbol
_atom_site_label
_atom_site_fract_x
_atom_site_fract_y
_atom_site_fract_z
Si Si1 0.165449 0.904475 0.393956
Si Si2 0.831304 0.664221 0.898110
Si Si3 0.044221 0.366913 0.843779
Si Si4 0.875490 0.549345 0.298351
Si Si5 0.866074 0.151390 0.507731
Si Si6 0.638687 0.197544 0.634539
Si Si7 0.992536 0.161157 0.004068
Si Si8 0.678074 0.998308 0.122705
O O1 0.214893 0.848639 0.201581
O O2 0.266259 0.933363 0.553651
O O3 0.075518 0.874391 0.572540
O O4 0.118203 0.969569 0.243833
O O5 0.842837 0.722013 0.115704
O O6 0.904056 0.685595 0.652884
O O7 0.868681 0.593174 0.028318
O O8 0.107913 0.329568 0.079636
O O9 0.097738 0.441111 0.822433
O O10 0.051499 0.327653 0.569684
O O11 0.972299 0.582418 0.452999
O O12 0.743712 0.166849 0.501503
O O13 0.904234 0.174889 0.791202
O O14 0.875821 0.069644 0.512798
O O15 0.939452 0.181591 0.279614
O O16 0.759314 0.019157 0.890889
#
# Coordination Sequence:
#
# PCOD9315742 Si02
#       8
#     4   4   4   4   4   4   4   4
#     4  11  26  44  82 107 150 188 251 308 383 432
#     4  11  27  50  71 106 148 195 242 316 367 447
#     4  12  27  48  73 111 147 199 242 310 359 451
#     4  11  23  50  72 116 141 185 243 319 372 434
#     4  12  23  46  72 107 136 195 238 297 358 447
#     4  12  29  48  71 102 158 194 247 295 371 440
#     4  11  25  43  74 104 137 182 242 297 366 429
#     4  12  22  43  71 103 143 184 235 294 362 416
#
# _framework density 25.115397999999999
#
# number of rings (size 3 to 8) (size 9 to 14) (size 15 to 20)
#    0.000    0.500    5.000    2.250    5.250    3.000 
#    0.000    0.000    0.000    0.000    0.000    0.000 
#    0.000    0.000    0.000    0.000    0.000    0.000 
#
# Total GULP energy -179245.049498 kJ/mol
# GULP energy per Si atom -5601.407797 kJ/mol
# Density = 2.505823 g / cm^3
# Si number density = 25.115398 Si / 1000 Ang^3
#
#
#
# Elastic Constant Matrix: (Units=GPa)
#
#
# Indices 1 2 3 4 5 6 
#
# 1 50.5836 -6.4343 -4.2008 0.0000 0.0000 0.0000
# 2 -6.4343 56.5425 -6.4680 0.0000 0.0000 0.0000
# 3 -4.2008 -6.4680 102.9541 0.0000 0.0000 0.0000
# 4 0.0000 0.0000 0.0000 33.4121 0.0000 0.0000
# 5 0.0000 0.0000 0.0000 0.0000 40.5107 0.0000
# 6 0.0000 0.0000 0.0000 0.0000 0.0000 -4.5392
#
#
#
# Elastic Compliance Matrix: (Units=1/GPa)
#
#
# Indices 1 2 3 4 5 6 
#
# 1 0.020156 0.002405 0.000974 0.000000 0.000000 0.000000
# 2 0.002405 0.018101 0.001235 0.000000 0.000000 0.000000
# 3 0.000974 0.001235 0.009830 0.000000 0.000000 0.000000
# 4 0.000000 0.000000 0.000000 0.029929 0.000000 0.000000
# 5 0.000000 0.000000 0.000000 0.000000 0.024685 0.000000
# 6 0.000000 0.000000 0.000000 0.000000 0.000000 -0.220302
#
#
# Mechanical properties :
#
#
# Convention : Reuss Voigt Hill
#
# Bulk Modulus (GPa) = 17.44745 19.54155 18.49450
# Shear Modulus (GPa) = -46.41520 29.02228 -8.69646
#
# Velocity S-wave (km/s) = -4.30359 3.40304 -1.86283
# Velocity P-wave (km/s) = 4.21100 4.82063 1.65921
#
# Compressibility (1/GPa) = 0.05731496
#
# Stress axis : x y z
#
# Youngs Moduli (GPa) = 49.61293 55.24616 101.72535
#
# Poissons Ratio (x) = -0.13287 -0.09903
# Poissons Ratio (y) = -0.11932 -0.12566
# Poissons Ratio (z) = -0.04830 -0.06825
#
# Static dielectric constant tensor:
#      x y z
#    x 2.003370 0.000000 0.000000 
#    y 0.000000 1.988860 0.000000 
#    z 0.000000 0.000000 1.984100 
# 
# From -- ./inp_files/1255.got.cif
#   From: 2010.05.17/outbox.cif.g08.bks.cpg/sg19_1_cif.got.tgz:1255.got - 2010.06.03 22:46:19.
