data_PCOD9315285
_publ_section_title
;
Structure prediction by ZEFSAII (Michael W. Deem and Ramdas Pophale) SiO2 
 PCOD9315285
Probable space group: P 21 21 21
;
_chemical_formula_sum "Si O2"
_cell_formula_units_Z 28
_cell_length_a 17.519772
_cell_length_b 5.069479
_cell_length_c 12.527609
_cell_angle_alpha 90.000000
_cell_angle_beta 90.000000
_cell_angle_gamma 90.000000
_cell_volume 1112.653577
_symmetry_space_group_name_H-M "P 21 21 21"
_symmetry_group_IT_number 19
_symmetry_cell_setting 'orthorhombic'
loop_
_space_group_symop_operation_xyz
x,y,z
1/2-x,-y,1/2+z
1/2+x,1/2-y,-z
-x,1/2+y,1/2-z
loop_
_atom_site_type_symbol
_atom_site_label
_atom_site_fract_x
_atom_site_fract_y
_atom_site_fract_z
Si Si1 0.847061 0.172388 0.371019
Si Si2 0.497042 0.118784 0.509461
Si Si3 0.954700 0.899233 0.225108
Si Si4 0.700146 0.004396 0.088697
Si Si5 0.948669 0.816269 0.663309
Si Si6 0.741092 0.515129 0.227762
Si Si7 0.099125 0.063753 0.644729
O O1 0.921042 0.302156 0.426231
O O2 0.881367 0.940788 0.297990
O O3 0.790492 0.062474 0.463153
O O4 0.809500 0.379790 0.290866
O O5 0.550677 0.999111 0.603292
O O6 0.466381 0.918398 0.420012
O O7 0.554606 0.339686 0.459947
O O8 0.018501 0.097166 0.273870
O O9 0.741014 0.785364 0.161211
O O10 0.607441 0.987405 0.100868
O O11 0.719360 0.295124 0.135155
O O12 0.901523 0.804728 0.773225
O O13 0.033064 0.891227 0.698509
O O14 0.680045 0.556652 0.326283
#
# Coordination Sequence:
#
# PCOD9315285 Si02
#       7
#     4   4   4   4   4   4   4
#     4  11  24  50  69 100 141 186 232 285 358 426
#     4  11  23  40  71 104 135 189 231 288 347 410
#     4  10  24  43  67  99 130 173 233 279 328 412
#     4  11  24  45  70  97 130 188 228 273 358 411
#     4  11  20  38  70  97 139 174 237 284 338 407
#     4  11  28  43  67 104 142 177 230 293 346 416
#     4  11  21  37  64 103 137 175 235 284 337 400
#
# _framework density 25.165064999999998
#
# number of rings (size 3 to 8) (size 9 to 14) (size 15 to 20)
#    0.000    1.143    2.857    3.429    4.000    6.857 
#    2.571    0.000    0.000    0.000    0.000    0.000 
#    0.000    0.000    0.000    0.000    0.000    0.000 
#
# Total GULP energy -155955.744149 kJ/mol
# GULP energy per Si atom -5569.848005 kJ/mol
# Density = 2.510779 g / cm^3
# Si number density = 25.165065 Si / 1000 Ang^3
#
#
#
# Elastic Constant Matrix: (Units=GPa)
#
#
# Indices 1 2 3 4 5 6 
#
# 1 30.2565 2.0669 33.0826 0.0000 0.0000 0.0000
# 2 2.0669 62.5538 9.0071 0.0000 0.0000 0.0000
# 3 33.0826 9.0071 123.0868 0.0000 0.0000 0.0000
# 4 0.0000 0.0000 0.0000 20.0890 0.0000 0.0000
# 5 0.0000 0.0000 0.0000 0.0000 34.0286 0.0000
# 6 0.0000 0.0000 0.0000 0.0000 0.0000 24.2111
#
#
#
# Elastic Compliance Matrix: (Units=1/GPa)
#
#
# Indices 1 2 3 4 5 6 
#
# 1 0.046811 0.000268 -0.012601 0.000000 0.000000 0.000000
# 2 0.000268 0.016158 -0.001254 0.000000 0.000000 0.000000
# 3 -0.012601 -0.001254 0.011603 0.000000 0.000000 0.000000
# 4 0.000000 0.000000 0.000000 0.049778 0.000000 0.000000
# 5 0.000000 0.000000 0.000000 0.000000 0.029387 0.000000
# 6 0.000000 0.000000 0.000000 0.000000 0.000000 0.041303
#
#
# Mechanical properties :
#
#
# Convention : Reuss Voigt Hill
#
# Bulk Modulus (GPa) = 21.09876 33.80114 27.44995
# Shear Modulus (GPa) = 21.00714 27.11512 24.06113
#
# Velocity S-wave (km/s) = 2.89238 3.28608 3.09549
# Velocity P-wave (km/s) = 4.42231 5.27813 4.86906
#
# Compressibility (1/GPa) = 0.04739615
#
# Stress axis : x y z
#
# Youngs Moduli (GPa) = 21.36272 61.88887 86.18480
#
# Poissons Ratio (x) = -0.01657 1.08602
# Poissons Ratio (y) = -0.00572 0.10811
# Poissons Ratio (z) = 0.26919 0.07763
#
# Static dielectric constant tensor:
#      x y z
#    x 2.059800 0.000000 0.000000 
#    y 0.000000 2.234710 0.000000 
#    z 0.000000 0.000000 2.170030 
# 
# From -- ./inp_files/5339.got.cif
#   From: 2010.05.17/outbox.cif.g08.bks.cpg/sg19_3_cif.got.tgz:5339.got - 2010.06.03 22:46:19.
