data_PCOD9315385
_publ_section_title
;
Structure prediction by ZEFSAII (Michael W. Deem and Ramdas Pophale) SiO2 
 PCOD9315385
Probable space group: P 21 21 21
;
_chemical_formula_sum "Si O2"
_cell_formula_units_Z 28
_cell_length_a 5.131274
_cell_length_b 8.664784
_cell_length_c 23.146705
_cell_angle_alpha 90.000000
_cell_angle_beta 90.000000
_cell_angle_gamma 90.000000
_cell_volume 1029.134467
_symmetry_space_group_name_H-M "P 21 21 21"
_symmetry_group_IT_number 19
_symmetry_cell_setting 'orthorhombic'
loop_
_space_group_symop_operation_xyz
x,y,z
1/2-x,-y,1/2+z
1/2+x,1/2-y,-z
-x,1/2+y,1/2-z
loop_
_atom_site_type_symbol
_atom_site_label
_atom_site_fract_x
_atom_site_fract_y
_atom_site_fract_z
Si Si1 0.132612 0.746471 0.799534
Si Si2 0.352504 0.588873 0.573216
Si Si3 0.164933 0.594995 0.445049
Si Si4 0.483832 0.396380 0.767862
Si Si5 0.877982 0.067878 0.808098
Si Si6 0.992045 0.255416 0.458447
Si Si7 0.485279 0.044776 0.150510
O O1 0.428613 0.764205 0.778010
O O2 0.002884 0.671232 0.742422
O O3 0.032688 0.639112 0.849659
O O4 0.044504 0.915970 0.811618
O O5 0.195732 0.589898 0.513590
O O6 0.540913 0.738933 0.570889
O O7 0.172537 0.623180 0.628372
O O8 0.463427 0.409611 0.576741
O O9 0.024275 0.428465 0.429392
O O10 0.448600 0.592037 0.414394
O O11 0.396928 0.518163 0.719245
O O12 0.240009 0.400301 0.811922
O O13 0.729254 0.417554 0.811671
O O14 0.243749 0.235257 0.499310
#
# Coordination Sequence:
#
# PCOD9315385 Si02
#       7
#     4   4   4   4   4   4   4
#     4  11  24  48  76 113 158 207 272 344 412 492
#     4  11  26  51  82 121 173 221 283 346 427 506
#     4  11  26  50  79 124 163 226 274 349 413 514
#     4  11  24  48  72 114 152 210 264 337 406 489
#     4  11  27  47  81 118 164 216 277 351 421 505
#     4  10  24  48  79 116 162 216 274 336 404 493
#     4  11  27  44  79 110 164 208 270 335 419 489
#
# _framework density 27.207329999999999
#
# number of rings (size 3 to 8) (size 9 to 14) (size 15 to 20)
#    0.000    1.143    2.857    1.714    6.000   10.286 
#    5.143    0.000    0.000    0.000    0.000    0.000 
#    0.000    0.000    0.000    0.000    0.000    0.000 
#
# Total GULP energy -156244.612176 kJ/mol
# GULP energy per Si atom -5580.164721 kJ/mol
# Density = 2.714541 g / cm^3
# Si number density = 27.207330 Si / 1000 Ang^3
#
#
#
# Elastic Constant Matrix: (Units=GPa)
#
#
# Indices 1 2 3 4 5 6 
#
# 1 112.0379 -40.8063 -7.3947 0.0000 0.0000 0.0000
# 2 -40.8063 -60.0476 -93.0365 0.0000 0.0000 0.0000
# 3 -7.3947 -93.0365 102.8851 0.0000 0.0000 0.0000
# 4 0.0000 0.0000 0.0000 57.1433 0.0000 0.0000
# 5 0.0000 0.0000 0.0000 0.0000 29.7045 0.0000
# 6 0.0000 0.0000 0.0000 0.0000 0.0000 58.2742
#
#
#
# Elastic Compliance Matrix: (Units=1/GPa)
#
#
# Indices 1 2 3 4 5 6 
#
# 1 0.007865 -0.002591 -0.001777 0.000000 0.000000 0.000000
# 2 -0.002591 -0.006082 -0.005686 0.000000 0.000000 0.000000
# 3 -0.001777 -0.005686 0.004450 0.000000 0.000000 0.000000
# 4 0.000000 0.000000 0.000000 0.017500 0.000000 0.000000
# 5 0.000000 0.000000 0.000000 0.000000 0.033665 0.000000
# 6 0.000000 0.000000 0.000000 0.000000 0.000000 0.017160
#
#
# Mechanical properties :
#
#
# Convention : Reuss Voigt Hill
#
# Bulk Modulus (GPa) = -72.06105 -14.17773 -43.11939
# Shear Modulus (GPa) = 55.53066 48.76525 52.14796
#
# Velocity S-wave (km/s) = 4.52266 4.23822 4.38275
# Velocity P-wave (km/s) = 0.85397 4.32755 3.11905
#
# Compressibility (1/GPa) = -0.01387712
#
# Stress axis : x y z
#
# Youngs Moduli (GPa) = 127.15091 -164.40670 224.73320
#
# Poissons Ratio (x) = -0.42592 0.39944
# Poissons Ratio (y) = 0.32941 1.27793
# Poissons Ratio (z) = 0.22600 -0.93489
#
# Static dielectric constant tensor:
#      x y z
#    x 2.161180 0.000000 0.000000 
#    y 0.000000 2.420200 0.000000 
#    z 0.000000 0.000000 2.056100 
# 
# From -- ./inp_files/7260.got.cif
#   From: 2010.05.17/outbox.cif.g08.bks.cpg/sg19_4_cif.got.tgz:7260.got - 2010.06.03 22:46:19.
