data_PCOD9315404
_publ_section_title
;
Structure prediction by ZEFSAII (Michael W. Deem and Ramdas Pophale) SiO2 
 PCOD9315404
Probable space group: P 21 21 21
;
_chemical_formula_sum "Si O2"
_cell_formula_units_Z 24
_cell_length_a 5.068410
_cell_length_b 37.809342
_cell_length_c 4.883650
_cell_angle_alpha 90.000000
_cell_angle_beta 90.000000
_cell_angle_gamma 90.000000
_cell_volume 935.869707
_symmetry_space_group_name_H-M "P 21 21 21"
_symmetry_group_IT_number 19
_symmetry_cell_setting 'orthorhombic'
loop_
_space_group_symop_operation_xyz
x,y,z
1/2-x,-y,1/2+z
1/2+x,1/2-y,-z
-x,1/2+y,1/2-z
loop_
_atom_site_type_symbol
_atom_site_label
_atom_site_fract_x
_atom_site_fract_y
_atom_site_fract_z
Si Si1 0.346716 0.677639 0.028214
Si Si2 0.021037 0.922627 0.367870
Si Si3 0.799870 0.559811 0.131584
Si Si4 0.315646 0.726408 0.527312
Si Si5 0.845534 0.021105 0.963614
Si Si6 0.160091 0.132368 0.539848
O O1 0.410924 0.706817 0.800256
O O2 0.614751 0.656389 0.098610
O O3 0.102159 0.654778 0.906880
O O4 0.249802 0.697105 0.300177
O O5 0.736893 0.940399 0.338771
O O6 0.153310 0.885958 0.274912
O O7 0.055029 0.926231 0.689656
O O8 0.189073 0.948925 0.166653
O O9 0.926620 0.530731 0.321989
O O10 0.352596 0.502942 0.309140
O O11 0.951250 0.597299 0.111640
O O12 0.555446 0.750543 0.421075
#
# Coordination Sequence:
#
# PCOD9315404 Si02
#       6
#     4   4   4   4   4   4
#     4  12  26  44  78 110 140 199 246 290 360 449
#     4  10  25  43  70  98 145 185 238 323 384 429
#     4  10  25  43  70  98 145 185 238 323 384 429
#     4  12  26  47  72 106 158 192 238 294 354 422
#     4  12  26  44  72 100 140 199 262 306 396 483
#     4  10  28  43  78 106 148 182 256 302 380 438
#
# _framework density 25.644594000000001
#
# number of rings (size 3 to 8) (size 9 to 14) (size 15 to 20)
#    1.000    0.000    0.000    5.000    9.333    2.667 
#    0.000    0.000    0.000    0.000    0.000    0.000 
#    0.000    0.000    0.000    0.000    0.000    0.000 
#
# Total GULP energy -133725.343978 kJ/mol
# GULP energy per Si atom -5571.889332 kJ/mol
# Density = 2.558623 g / cm^3
# Si number density = 25.644594 Si / 1000 Ang^3
#
#
#
# Elastic Constant Matrix: (Units=GPa)
#
#
# Indices 1 2 3 4 5 6 
#
# 1 112.1897 39.7311 9.9458 0.0000 0.0000 0.0000
# 2 39.7311 72.6026 24.1831 0.0000 0.0000 0.0000
# 3 9.9458 24.1831 121.1686 0.0000 0.0000 0.0000
# 4 0.0000 0.0000 0.0000 27.9647 0.0000 0.0000
# 5 0.0000 0.0000 0.0000 0.0000 26.1224 0.0000
# 6 0.0000 0.0000 0.0000 0.0000 0.0000 40.5177
#
#
#
# Elastic Compliance Matrix: (Units=1/GPa)
#
#
# Indices 1 2 3 4 5 6 
#
# 1 0.011068 -0.006164 0.000322 0.000000 0.000000 0.000000
# 2 -0.006164 0.018187 -0.003124 0.000000 0.000000 0.000000
# 3 0.000322 -0.003124 0.008850 0.000000 0.000000 0.000000
# 4 0.000000 0.000000 0.000000 0.035759 0.000000 0.000000
# 5 0.000000 0.000000 0.000000 0.000000 0.038281 0.000000
# 6 0.000000 0.000000 0.000000 0.000000 0.000000 0.024681
#
#
# Mechanical properties :
#
#
# Convention : Reuss Voigt Hill
#
# Bulk Modulus (GPa) = 49.57131 50.40898 49.99015
# Shear Modulus (GPa) = 30.96298 34.39433 32.67866
#
# Velocity S-wave (km/s) = 3.47852 3.66620 3.57359
# Velocity P-wave (km/s) = 5.95865 6.13358 6.04675
#
# Compressibility (1/GPa) = 0.02017296
#
# Stress axis : x y z
#
# Youngs Moduli (GPa) = 90.35160 54.98336 112.99393
#
# Poissons Ratio (x) = 0.33892 -0.03635
# Poissons Ratio (y) = 0.55692 0.35298
# Poissons Ratio (z) = -0.02907 0.17176
#
# Static dielectric constant tensor:
#      x y z
#    x 2.149680 0.000000 0.000000 
#    y 0.000000 2.114180 0.000000 
#    z 0.000000 0.000000 1.987920 
# 
# From -- ./inp_files/224.got.cif
#   From: 2010.05.17/outbox.cif.g08.bks.cpg/sg19_1_cif.got.tgz:224.got - 2010.06.03 22:46:19.
