data_PCOD9315749
_publ_section_title
;
Structure prediction by ZEFSAII (Michael W. Deem and Ramdas Pophale) SiO2 
 PCOD9315749
Probable space group: P 21 21 21
;
_chemical_formula_sum "Si O2"
_cell_formula_units_Z 32
_cell_length_a 28.004685
_cell_length_b 8.598061
_cell_length_c 5.046059
_cell_angle_alpha 90.000000
_cell_angle_beta 90.000000
_cell_angle_gamma 90.000000
_cell_volume 1215.020311
_symmetry_space_group_name_H-M "P 21 21 21"
_symmetry_group_IT_number 19
_symmetry_cell_setting 'orthorhombic'
loop_
_space_group_symop_operation_xyz
x,y,z
1/2-x,-y,1/2+z
1/2+x,1/2-y,-z
-x,1/2+y,1/2-z
loop_
_atom_site_type_symbol
_atom_site_label
_atom_site_fract_x
_atom_site_fract_y
_atom_site_fract_z
Si Si1 0.405873 0.499098 0.026707
Si Si2 0.544791 0.512302 0.519483
Si Si3 0.832035 0.538287 0.622545
Si Si4 0.136754 0.808415 0.276866
Si Si5 0.134208 0.362302 0.058645
Si Si6 0.494461 0.846595 0.460099
Si Si7 0.263041 0.585184 0.829247
Si Si8 0.273579 0.129032 0.047743
O O1 0.385376 0.357507 0.847956
O O2 0.402778 0.633028 0.803743
O O3 0.458099 0.445680 0.105642
O O4 0.378555 0.534702 0.300754
O O5 0.597707 0.577875 0.580995
O O6 0.524509 0.416200 0.766339
O O7 0.511904 0.667791 0.475524
O O8 0.541766 0.396533 0.270446
O O9 0.858738 0.386615 0.512594
O O10 0.860039 0.690641 0.557333
O O11 0.812735 0.508117 0.915249
O O12 0.778182 0.560750 0.504137
O O13 0.192850 0.779337 0.345661
O O14 0.184698 0.400334 0.199598
O O15 0.236199 0.463503 0.634231
O O16 0.236087 0.747246 0.779086
#
# Coordination Sequence:
#
# PCOD9315749 Si02
#       8
#     4   4   4   4   4   4   4   4
#     4  11  26  47  73 100 144 182 233 294 352 420
#     4  11  26  47  76 106 142 183 238 286 363 437
#     4  11  26  42  69  99 143 186 236 290 355 403
#     4  11  26  44  71 101 135 189 234 282 351 430
#     4  11  25  44  67 103 136 182 239 284 341 417
#     4  11  25  49  73 109 143 187 226 300 369 422
#     4  11  24  40  65  97 132 181 235 282 339 402
#     4  11  24  43  66  93 143 184 227 294 346 405
#
# _framework density 26.337008999999998
#
# number of rings (size 3 to 8) (size 9 to 14) (size 15 to 20)
#    0.000    1.000    1.250    3.750    8.750    5.000 
#    0.000    0.000    0.000    0.000    0.000    0.000 
#    0.000    0.000    0.000    0.000    0.000    0.000 
#
# Total GULP energy -178916.156710 kJ/mol
# GULP energy per Si atom -5591.129897 kJ/mol
# Density = 2.627706 g / cm^3
# Si number density = 26.337009 Si / 1000 Ang^3
#
#
#
# Elastic Constant Matrix: (Units=GPa)
#
#
# Indices 1 2 3 4 5 6 
#
# 1 119.1026 45.6064 45.3439 0.0000 0.0000 0.0000
# 2 45.6064 79.8878 24.5905 0.0000 0.0000 0.0000
# 3 45.3439 24.5905 81.6962 0.0000 0.0000 0.0000
# 4 0.0000 0.0000 0.0000 33.9888 0.0000 0.0000
# 5 0.0000 0.0000 0.0000 0.0000 40.1178 0.0000
# 6 0.0000 0.0000 0.0000 0.0000 0.0000 46.6516
#
#
#
# Elastic Compliance Matrix: (Units=1/GPa)
#
#
# Indices 1 2 3 4 5 6 
#
# 1 0.012524 -0.005522 -0.005289 0.000000 0.000000 0.000000
# 2 -0.005522 0.016230 -0.001821 0.000000 0.000000 0.000000
# 3 -0.005289 -0.001821 0.015724 0.000000 0.000000 0.000000
# 4 0.000000 0.000000 0.000000 0.029421 0.000000 0.000000
# 5 0.000000 0.000000 0.000000 0.000000 0.024927 0.000000
# 6 0.000000 0.000000 0.000000 0.000000 0.000000 0.021435
#
#
# Mechanical properties :
#
#
# Convention : Reuss Voigt Hill
#
# Bulk Modulus (GPa) = 52.04145 56.86314 54.45230
# Shear Modulus (GPa) = 32.90984 35.16136 34.03560
#
# Velocity S-wave (km/s) = 3.53876 3.65780 3.59877
# Velocity P-wave (km/s) = 6.04150 6.28306 6.16347
#
# Compressibility (1/GPa) = 0.01921545
#
# Stress axis : x y z
#
# Youngs Moduli (GPa) = 79.84566 61.61362 63.59636
#
# Poissons Ratio (x) = 0.34021 0.33638
# Poissons Ratio (y) = 0.44088 0.11578
# Poissons Ratio (z) = 0.42232 0.11217
#
# Static dielectric constant tensor:
#      x y z
#    x 2.097900 0.000000 0.000000 
#    y 0.000000 2.358080 0.000000 
#    z 0.000000 0.000000 2.167870 
# 
# From -- ./inp_files/2348.got.cif
#   From: 2010.05.17/outbox.cif.g08.bks.cpg/sg19_2_cif.got.tgz:2348.got - 2010.06.03 22:46:19.
