data_PCOD9315965
_publ_section_title
;
Structure prediction by ZEFSAII (Michael W. Deem and Ramdas Pophale) SiO2 
 PCOD9315965
Probable space group: P 21 21 21
;
_chemical_formula_sum "Si O2"
_cell_formula_units_Z 20
_cell_length_a 9.597304
_cell_length_b 7.004183
_cell_length_c 10.077338
_cell_angle_alpha 90.000000
_cell_angle_beta 90.000000
_cell_angle_gamma 90.000000
_cell_volume 677.411494
_symmetry_space_group_name_H-M "P 21 21 21"
_symmetry_group_IT_number 19
_symmetry_cell_setting 'orthorhombic'
loop_
_space_group_symop_operation_xyz
x,y,z
1/2-x,-y,1/2+z
1/2+x,1/2-y,-z
-x,1/2+y,1/2-z
loop_
_atom_site_type_symbol
_atom_site_label
_atom_site_fract_x
_atom_site_fract_y
_atom_site_fract_z
Si Si1 0.145004 0.719186 0.083642
Si Si2 0.461905 0.855587 0.518678
Si Si3 0.740696 0.309342 0.755375
Si Si4 0.750197 0.114411 0.141923
Si Si5 0.621382 0.436695 0.482442
O O1 0.111317 0.235216 0.148714
O O2 0.153767 0.683624 0.237067
O O3 0.040639 0.575973 0.013311
O O4 0.870178 0.142875 0.026848
O O5 0.413648 0.075340 0.538131
O O6 0.379934 0.752183 0.396976
O O7 0.159119 0.932135 0.645720
O O8 0.785511 0.104183 0.692635
O O9 0.686835 0.440972 0.632740
O O10 0.809693 0.765183 0.943294
#
# Coordination Sequence:
#
# PCOD9315965 Si02
#       5
#     4   4   4   4   4
#     4  11  27  53  89 128 191 258 315 402 496 579
#     4  11  26  51  91 131 189 253 318 399 492 583
#     4  11  27  51  91 137 186 256 326 406 495 584
#     4  12  26  55  90 138 191 255 325 408 499 587
#     4  11  26  56  89 132 193 250 330 403 496 583
#
# _framework density 29.524152999999998
#
# number of rings (size 3 to 8) (size 9 to 14) (size 15 to 20)
#    0.000    0.800    4.000    0.000   14.000    3.200 
#    3.600    4.000    0.000    0.000    0.000    0.000 
#    0.000    0.000    0.000    0.000    0.000    0.000 
#
# Total GULP energy -111501.914511 kJ/mol
# GULP energy per Si atom -5575.095726 kJ/mol
# Density = 2.945695 g / cm^3
# Si number density = 29.524153 Si / 1000 Ang^3
#
#
#
# Elastic Constant Matrix: (Units=GPa)
#
#
# Indices 1 2 3 4 5 6 
#
# 1 105.9146 95.2478 56.2031 0.0000 0.0000 0.0000
# 2 95.2478 183.7096 105.6776 0.0000 0.0000 0.0000
# 3 56.2031 105.6776 163.3232 0.0000 0.0000 0.0000
# 4 0.0000 0.0000 0.0000 75.8613 0.0000 0.0000
# 5 0.0000 0.0000 0.0000 0.0000 47.2118 0.0000
# 6 0.0000 0.0000 0.0000 0.0000 0.0000 55.6985
#
#
#
# Elastic Compliance Matrix: (Units=1/GPa)
#
#
# Indices 1 2 3 4 5 6 
#
# 1 0.017695 -0.009034 -0.000244 0.000000 0.000000 0.000000
# 2 -0.009034 0.013283 -0.005486 0.000000 0.000000 0.000000
# 3 -0.000244 -0.005486 0.009756 0.000000 0.000000 0.000000
# 4 0.000000 0.000000 0.000000 0.013182 0.000000 0.000000
# 5 0.000000 0.000000 0.000000 0.000000 0.021181 0.000000
# 6 0.000000 0.000000 0.000000 0.000000 0.000000 0.017954
#
#
# Mechanical properties :
#
#
# Convention : Reuss Voigt Hill
#
# Bulk Modulus (GPa) = 89.23053 107.46714 98.34883
# Shear Modulus (GPa) = 39.58358 48.80893 44.19626
#
# Velocity S-wave (km/s) = 3.66555 4.07035 3.87324
# Velocity P-wave (km/s) = 6.94288 7.65304 7.30659
#
# Compressibility (1/GPa) = 0.01120693
#
# Stress axis : x y z
#
# Youngs Moduli (GPa) = 56.51208 75.28393 102.49773
#
# Poissons Ratio (x) = 0.68013 0.02499
# Poissons Ratio (y) = 0.51054 0.56229
# Poissons Ratio (z) = 0.01378 0.41300
#
# Static dielectric constant tensor:
#      x y z
#    x 2.333470 0.000000 0.000000 
#    y 0.000000 2.517040 0.000000 
#    z 0.000000 0.000000 2.372640 
# 
# From -- ./inp_files/4888.got.cif
#   From: 2010.05.17/outbox.cif.g08.bks.cpg/sg19_3_cif.got.tgz:4888.got - 2010.06.03 22:46:19.
