data_PCOD9315296
_publ_section_title
;
Structure prediction by ZEFSAII (Michael W. Deem and Ramdas Pophale) SiO2 
 PCOD9315296
Probable space group: P 21 21 21
;
_chemical_formula_sum "Si O2"
_cell_formula_units_Z 20
_cell_length_a 8.768190
_cell_length_b 18.914301
_cell_length_c 5.246718
_cell_angle_alpha 90.000000
_cell_angle_beta 90.000000
_cell_angle_gamma 90.000000
_cell_volume 870.137670
_symmetry_space_group_name_H-M "P 21 21 21"
_symmetry_group_IT_number 19
_symmetry_cell_setting 'orthorhombic'
loop_
_space_group_symop_operation_xyz
x,y,z
1/2-x,-y,1/2+z
1/2+x,1/2-y,-z
-x,1/2+y,1/2-z
loop_
_atom_site_type_symbol
_atom_site_label
_atom_site_fract_x
_atom_site_fract_y
_atom_site_fract_z
Si Si1 0.235323 0.309428 0.038934
Si Si2 0.550903 0.736981 0.809917
Si Si3 0.677266 0.467016 0.910648
Si Si4 0.266078 0.820279 0.858915
Si Si5 0.177131 0.531840 0.551900
O O1 0.302027 0.247823 0.216222
O O2 0.057226 0.295333 0.086905
O O3 0.311523 0.288478 0.773465
O O4 0.285732 0.386784 0.112478
O O5 0.428884 0.788841 0.949805
O O6 0.635597 0.669760 0.933297
O O7 0.726950 0.511247 0.660373
O O8 0.704617 0.385943 0.823116
O O9 0.500164 0.476733 0.981928
O O10 0.225443 0.488363 0.801436
#
# Coordination Sequence:
#
# PCOD9315296 Si02
#       5
#     4   4   4   4   4
#     4  10  25  46  75 108 144 195 253 314 373 449
#     4  10  24  43  79 101 146 189 254 315 376 441
#     4  12  29  52  77 111 159 204 255 312 386 460
#     4  10  26  46  77 107 148 193 255 311 379 443
#     4  12  28  51  78 111 157 203 255 316 384 457
#
# _framework density 22.984867000000001
#
# number of rings (size 3 to 8) (size 9 to 14) (size 15 to 20)
#    1.200    0.000    2.000    1.200   11.200    3.200 
#    0.000    0.000    0.000    0.000    0.000    0.000 
#    0.000    0.000    0.000    0.000    0.000    0.000 
#
# Total GULP energy -111499.498867 kJ/mol
# GULP energy per Si atom -5574.974943 kJ/mol
# Density = 2.293255 g / cm^3
# Si number density = 22.984867 Si / 1000 Ang^3
#
#
#
# Elastic Constant Matrix: (Units=GPa)
#
#
# Indices 1 2 3 4 5 6 
#
# 1 143.0767 59.5705 66.6673 0.0000 0.0000 0.0000
# 2 59.5705 94.0680 14.5449 0.0000 0.0000 0.0000
# 3 66.6673 14.5449 55.0371 0.0000 0.0000 0.0000
# 4 0.0000 0.0000 0.0000 40.9787 0.0000 0.0000
# 5 0.0000 0.0000 0.0000 0.0000 132.2785 0.0000
# 6 0.0000 0.0000 0.0000 0.0000 0.0000 -10.6583
#
#
#
# Elastic Compliance Matrix: (Units=1/GPa)
#
#
# Indices 1 2 3 4 5 6 
#
# 1 0.023356 -0.010860 -0.025422 0.000000 0.000000 0.000000
# 2 -0.010860 0.016133 0.008891 0.000000 0.000000 0.000000
# 3 -0.025422 0.008891 0.046614 0.000000 0.000000 0.000000
# 4 0.000000 0.000000 0.000000 0.024403 0.000000 0.000000
# 5 0.000000 0.000000 0.000000 0.000000 0.007560 0.000000
# 6 0.000000 0.000000 0.000000 0.000000 0.000000 -0.093823
#
#
# Mechanical properties :
#
#
# Convention : Reuss Voigt Hill
#
# Bulk Modulus (GPa) = 31.92630 63.74968 47.83799
# Shear Modulus (GPa) = 55.88835 42.61306 49.25071
#
# Velocity S-wave (km/s) = 4.93640 4.31044 4.63400
# Velocity P-wave (km/s) = 6.81257 7.25044 7.03491
#
# Compressibility (1/GPa) = 0.03132214
#
# Stress axis : x y z
#
# Youngs Moduli (GPa) = 42.81497 61.98392 21.45299
#
# Poissons Ratio (x) = 0.67315 0.54537
# Poissons Ratio (y) = 0.46498 -0.19075
# Poissons Ratio (z) = 1.08843 -0.55113
#
# Static dielectric constant tensor:
#      x y z
#    x 1.831370 0.000000 0.000000 
#    y 0.000000 1.564340 0.000000 
#    z 0.000000 0.000000 2.637080 
# 
# From -- ./inp_files/451.got.cif
#   From: 2010.05.17/outbox.cif.g08.bks.cpg/sg19_1_cif.got.tgz:451.got - 2010.06.03 22:46:19.
