data_PCOD9315605
_publ_section_title
;
Structure prediction by ZEFSAII (Michael W. Deem and Ramdas Pophale) SiO2 
 PCOD9315605
Probable space group: P 21 21 21
;
_chemical_formula_sum "Si O2"
_cell_formula_units_Z 28
_cell_length_a 5.461943
_cell_length_b 18.707377
_cell_length_c 9.809437
_cell_angle_alpha 90.000000
_cell_angle_beta 90.000000
_cell_angle_gamma 90.000000
_cell_volume 1002.314803
_symmetry_space_group_name_H-M "P 21 21 21"
_symmetry_group_IT_number 19
_symmetry_cell_setting 'orthorhombic'
loop_
_space_group_symop_operation_xyz
x,y,z
1/2-x,-y,1/2+z
1/2+x,1/2-y,-z
-x,1/2+y,1/2-z
loop_
_atom_site_type_symbol
_atom_site_label
_atom_site_fract_x
_atom_site_fract_y
_atom_site_fract_z
Si Si1 0.632788 0.084434 0.204423
Si Si2 0.531782 0.703352 0.820376
Si Si3 0.732927 0.558293 0.516743
Si Si4 0.014281 0.574767 0.101787
Si Si5 0.822481 0.310255 0.612537
Si Si6 0.840639 0.717688 0.567323
Si Si7 0.391893 0.544857 0.863666
O O1 0.517786 0.084604 0.056565
O O2 0.894951 0.111294 0.257855
O O3 0.453378 0.130878 0.294242
O O4 0.694372 0.999896 0.226280
O O5 0.297198 0.752029 0.789822
O O6 0.759011 0.727180 0.727004
O O7 0.478369 0.619441 0.801213
O O8 0.534247 0.719056 0.983142
O O9 0.637688 0.497985 0.621710
O O10 0.865701 0.631339 0.554072
O O11 0.895509 0.508659 0.416199
O O12 0.860223 0.636017 0.031289
O O13 0.241603 0.562231 0.002091
O O14 0.589533 0.746041 0.490506
#
# Coordination Sequence:
#
# PCOD9315605 Si02
#       7
#     4   4   4   4   4   4   4
#     4  11  24  42  79 106 160 202 266 337 416 505
#     4  12  27  52  82 118 169 209 288 347 424 512
#     4  11  25  48  78 112 159 215 278 336 425 505
#     4  11  22  43  73 114 153 201 267 330 425 488
#     4  12  26  48  77 121 159 214 262 355 440 488
#     4  12  32  56  82 119 171 229 282 343 427 514
#     4  11  24  47  75 120 151 214 267 346 407 504
#
# _framework density 27.935334999999998
#
# number of rings (size 3 to 8) (size 9 to 14) (size 15 to 20)
#    0.000    0.571    2.857    3.429    6.000    3.429 
#    2.571    0.000    0.000    0.000    0.000    0.000 
#    0.000    0.000    0.000    0.000    0.000    0.000 
#
# Total GULP energy -156463.163534 kJ/mol
# GULP energy per Si atom -5587.970126 kJ/mol
# Density = 2.787175 g / cm^3
# Si number density = 27.935335 Si / 1000 Ang^3
#
#
#
# Elastic Constant Matrix: (Units=GPa)
#
#
# Indices 1 2 3 4 5 6 
#
# 1 96.2095 48.9413 11.7475 0.0000 0.0000 0.0000
# 2 48.9413 190.7255 33.6006 0.0000 0.0000 0.0000
# 3 11.7475 33.6006 77.6280 0.0000 0.0000 0.0000
# 4 0.0000 0.0000 0.0000 34.0807 0.0000 0.0000
# 5 0.0000 0.0000 0.0000 0.0000 35.8806 0.0000
# 6 0.0000 0.0000 0.0000 0.0000 0.0000 51.3497
#
#
#
# Elastic Compliance Matrix: (Units=1/GPa)
#
#
# Indices 1 2 3 4 5 6 
#
# 1 0.011974 -0.002981 -0.000522 0.000000 0.000000 0.000000
# 2 -0.002981 0.006418 -0.002327 0.000000 0.000000 0.000000
# 3 -0.000522 -0.002327 0.013968 0.000000 0.000000 0.000000
# 4 0.000000 0.000000 0.000000 0.029342 0.000000 0.000000
# 5 0.000000 0.000000 0.000000 0.000000 0.027870 0.000000
# 6 0.000000 0.000000 0.000000 0.000000 0.000000 0.019474
#
#
# Mechanical properties :
#
#
# Convention : Reuss Voigt Hill
#
# Bulk Modulus (GPa) = 48.30648 61.46020 54.88334
# Shear Modulus (GPa) = 39.18316 42.28043 40.73179
#
# Velocity S-wave (km/s) = 3.74924 3.89461 3.82262
# Velocity P-wave (km/s) = 6.00602 6.50174 6.25879
#
# Compressibility (1/GPa) = 0.02070116
#
# Stress axis : x y z
#
# Youngs Moduli (GPa) = 83.51463 155.81371 71.59171
#
# Poissons Ratio (x) = 0.46443 0.03736
# Poissons Ratio (y) = 0.24893 0.16659
# Poissons Ratio (z) = 0.04358 0.36256
#
# Static dielectric constant tensor:
#      x y z
#    x 2.346030 0.000000 0.000000 
#    y 0.000000 2.121490 0.000000 
#    z 0.000000 0.000000 2.314870 
# 
# From -- ./inp_files/4473.got.cif
#   From: 2010.05.17/outbox.cif.g08.bks.cpg/sg19_3_cif.got.tgz:4473.got - 2010.06.03 22:46:19.
