data_PCOD9315724
_publ_section_title
;
Structure prediction by ZEFSAII (Michael W. Deem and Ramdas Pophale) SiO2 
 PCOD9315724
Probable space group: P 21 21 21
;
_chemical_formula_sum "Si O2"
_cell_formula_units_Z 20
_cell_length_a 11.176857
_cell_length_b 13.685110
_cell_length_c 5.031084
_cell_angle_alpha 90.000000
_cell_angle_beta 90.000000
_cell_angle_gamma 90.000000
_cell_volume 769.537088
_symmetry_space_group_name_H-M "P 21 21 21"
_symmetry_group_IT_number 19
_symmetry_cell_setting 'orthorhombic'
loop_
_space_group_symop_operation_xyz
x,y,z
1/2-x,-y,1/2+z
1/2+x,1/2-y,-z
-x,1/2+y,1/2-z
loop_
_atom_site_type_symbol
_atom_site_label
_atom_site_fract_x
_atom_site_fract_y
_atom_site_fract_z
Si Si1 0.258583 0.142462 0.741443
Si Si2 0.942229 0.291827 0.619535
Si Si3 0.678231 0.024002 0.878601
Si Si4 0.910710 0.755640 0.391218
Si Si5 0.932371 0.485292 0.933677
O O1 0.313916 0.217823 0.526873
O O2 0.192154 0.185587 0.998425
O O3 0.165161 0.066516 0.623310
O O4 0.373275 0.082802 0.842537
O O5 0.951617 0.408026 0.693657
O O6 0.978873 0.242144 0.898438
O O7 0.038743 0.254738 0.405234
O O8 0.644107 0.136442 0.925030
O O9 0.556521 0.970195 0.966261
O O10 0.782870 0.994467 0.079126
#
# Coordination Sequence:
#
# PCOD9315724 Si02
#       5
#     4   4   4   4   4
#     4  12  25  45  80 109 146 194 249 309 372 424
#     4  11  23  47  66 103 151 180 234 309 349 436
#     4  11  24  46  71  99 151 193 236 290 365 446
#     4  11  27  43  72 105 150 189 239 301 365 431
#     4  11  25  45  77 108 146 194 246 303 367 437
#
# _framework density 25.989650000000001
#
# number of rings (size 3 to 8) (size 9 to 14) (size 15 to 20)
#    0.000    0.800    6.000    2.400    2.800    3.200 
#    0.000    0.000    0.000    0.000    0.000    0.000 
#    0.000    0.000    0.000    0.000    0.000    0.000 
#
# Total GULP energy -112047.819928 kJ/mol
# GULP energy per Si atom -5602.390996 kJ/mol
# Density = 2.593050 g / cm^3
# Si number density = 25.989650 Si / 1000 Ang^3
#
#
#
# Elastic Constant Matrix: (Units=GPa)
#
#
# Indices 1 2 3 4 5 6 
#
# 1 117.2115 9.7649 22.9952 0.0000 0.0000 0.0000
# 2 9.7649 31.4220 15.9135 0.0000 0.0000 0.0000
# 3 22.9952 15.9135 118.0330 0.0000 0.0000 0.0000
# 4 0.0000 0.0000 0.0000 30.3951 0.0000 0.0000
# 5 0.0000 0.0000 0.0000 0.0000 49.6945 0.0000
# 6 0.0000 0.0000 0.0000 0.0000 0.0000 36.0653
#
#
#
# Elastic Compliance Matrix: (Units=1/GPa)
#
#
# Indices 1 2 3 4 5 6 
#
# 1 0.008992 -0.002047 -0.001476 0.000000 0.000000 0.000000
# 2 -0.002047 0.034623 -0.004269 0.000000 0.000000 0.000000
# 3 -0.001476 -0.004269 0.009335 0.000000 0.000000 0.000000
# 4 0.000000 0.000000 0.000000 0.032900 0.000000 0.000000
# 5 0.000000 0.000000 0.000000 0.000000 0.020123 0.000000
# 6 0.000000 0.000000 0.000000 0.000000 0.000000 0.027727
#
#
# Mechanical properties :
#
#
# Convention : Reuss Voigt Hill
#
# Bulk Modulus (GPa) = 26.76212 40.44596 33.60404
# Shear Modulus (GPa) = 30.91390 37.76384 34.33887
#
# Velocity S-wave (km/s) = 3.45261 3.81600 3.63885
# Velocity P-wave (km/s) = 5.11992 5.91709 5.53288
#
# Compressibility (1/GPa) = 0.03736625
#
# Stress axis : x y z
#
# Youngs Moduli (GPa) = 111.21438 28.88252 107.12022
#
# Poissons Ratio (x) = 0.05912 0.15809
# Poissons Ratio (y) = 0.22764 0.45732
# Poissons Ratio (z) = 0.16413 0.12330
#
# Static dielectric constant tensor:
#      x y z
#    x 2.090150 0.000000 0.000000 
#    y 0.000000 2.064360 0.000000 
#    z 0.000000 0.000000 2.036600 
# 
# From -- ./inp_files/396.got.cif
#   From: 2010.05.17/outbox.cif.g08.bks.cpg/sg19_1_cif.got.tgz:396.got - 2010.06.03 22:46:19.
