data_PCOD9315077
_publ_section_title
;
Structure prediction by ZEFSAII (Michael W. Deem and Ramdas Pophale) SiO2 
 PCOD9315077
Probable space group: P 21 21 21
;
_chemical_formula_sum "Si O2"
_cell_formula_units_Z 32
_cell_length_a 13.386241
_cell_length_b 5.536297
_cell_length_c 19.741779
_cell_angle_alpha 90.000000
_cell_angle_beta 90.000000
_cell_angle_gamma 90.000000
_cell_volume 1463.067306
_symmetry_space_group_name_H-M "P 21 21 21"
_symmetry_group_IT_number 19
_symmetry_cell_setting 'orthorhombic'
loop_
_space_group_symop_operation_xyz
x,y,z
1/2-x,-y,1/2+z
1/2+x,1/2-y,-z
-x,1/2+y,1/2-z
loop_
_atom_site_type_symbol
_atom_site_label
_atom_site_fract_x
_atom_site_fract_y
_atom_site_fract_z
Si Si1 0.430337 0.863997 0.931838
Si Si2 0.243925 0.555037 0.769731
Si Si3 0.627732 0.240261 0.318775
Si Si4 0.086776 0.927588 0.809378
Si Si5 0.459675 0.777624 0.781382
Si Si6 0.667851 0.222499 0.105012
Si Si7 0.952202 0.435500 0.928680
Si Si8 0.838739 0.142432 0.029444
O O1 0.483680 0.816118 0.860916
O O2 0.366294 0.622264 0.945005
O O3 0.374895 0.124568 0.925707
O O4 0.481804 0.907912 0.004742
O O5 0.227947 0.402122 0.700882
O O6 0.140615 0.700961 0.776262
O O7 0.341131 0.721599 0.772131
O O8 0.238749 0.391572 0.837144
O O9 0.526988 0.090002 0.330984
O O10 0.600069 0.372968 0.248393
O O11 0.625657 0.427067 0.380383
O O12 0.151939 0.000363 0.874666
O O13 0.511178 0.529331 0.755138
O O14 0.719800 0.173230 0.033733
O O15 0.555951 0.117213 0.108378
O O16 0.895104 0.203332 0.959634
#
# Coordination Sequence:
#
# PCOD9315077 Si02
#       8
#     4   4   4   4   4   4   4   4
#     4  10  23  47  70  97 139 180 239 288 355 412
#     4  11  24  40  73 100 141 186 242 292 367 433
#     4  11  21  39  63 111 142 178 225 302 368 424
#     4  11  21  36  69 101 141 180 237 285 357 443
#     4  12  27  48  78 101 138 192 251 309 344 416
#     4  11  22  40  70 101 132 194 239 283 359 437
#     4  10  25  40  69 103 146 184 229 299 360 433
#     4  10  23  42  70 100 135 186 236 288 336 442
#
# _framework density 21.871856999999999
#
# number of rings (size 3 to 8) (size 9 to 14) (size 15 to 20)
#    0.750    0.500    3.750    2.250    5.250    0.000 
#    0.000    3.750    0.000    0.000    0.000    0.000 
#    0.000    0.000    0.000    0.000    0.000    0.000 
#
# Total GULP energy -178193.547959 kJ/mol
# GULP energy per Si atom -5568.548374 kJ/mol
# Density = 2.182208 g / cm^3
# Si number density = 21.871857 Si / 1000 Ang^3
#
#
#
# Elastic Constant Matrix: (Units=GPa)
#
#
# Indices 1 2 3 4 5 6 
#
# 1 47.9428 16.2436 19.1200 0.0000 0.0000 0.0000
# 2 16.2436 93.6615 22.1850 0.0000 0.0000 0.0000
# 3 19.1200 22.1850 82.4575 0.0000 0.0000 0.0000
# 4 0.0000 0.0000 0.0000 31.8445 0.0000 0.0000
# 5 0.0000 0.0000 0.0000 0.0000 26.9015 0.0000
# 6 0.0000 0.0000 0.0000 0.0000 0.0000 32.1126
#
#
#
# Elastic Compliance Matrix: (Units=1/GPa)
#
#
# Indices 1 2 3 4 5 6 
#
# 1 0.023750 -0.003006 -0.004698 0.000000 0.000000 0.000000
# 2 -0.003006 0.011784 -0.002473 0.000000 0.000000 0.000000
# 3 -0.004698 -0.002473 0.013882 0.000000 0.000000 0.000000
# 4 0.000000 0.000000 0.000000 0.031403 0.000000 0.000000
# 5 0.000000 0.000000 0.000000 0.000000 0.037173 0.000000
# 6 0.000000 0.000000 0.000000 0.000000 0.000000 0.031140
#
#
# Mechanical properties :
#
#
# Convention : Reuss Voigt Hill
#
# Bulk Modulus (GPa) = 34.41045 37.68435 36.04740
# Shear Modulus (GPa) = 27.90564 29.27261 28.58913
#
# Velocity S-wave (km/s) = 3.57581 3.66234 3.61933
# Velocity P-wave (km/s) = 5.72848 5.92880 5.82950
#
# Compressibility (1/GPa) = 0.02906094
#
# Stress axis : x y z
#
# Youngs Moduli (GPa) = 42.10443 84.86117 72.03386
#
# Poissons Ratio (x) = 0.25510 0.33844
# Poissons Ratio (y) = 0.12657 0.17817
# Poissons Ratio (z) = 0.19782 0.20989
#
# Static dielectric constant tensor:
#      x y z
#    x 1.805490 0.000000 0.000000 
#    y 0.000000 1.898620 0.000000 
#    z 0.000000 0.000000 1.854820 
# 
# From -- ./inp_files/7165.got.cif
#   From: 2010.05.17/outbox.cif.g08.bks.cpg/sg19_4_cif.got.tgz:7165.got - 2010.06.03 22:46:19.
