data_PCOD9315715
_publ_section_title
;
Structure prediction by ZEFSAII (Michael W. Deem and Ramdas Pophale) SiO2 
 PCOD9315715
Probable space group: P 21 21 21
;
_chemical_formula_sum "Si O2"
_cell_formula_units_Z 24
_cell_length_a 6.924745
_cell_length_b 5.525755
_cell_length_c 27.190867
_cell_angle_alpha 90.000000
_cell_angle_beta 90.000000
_cell_angle_gamma 90.000000
_cell_volume 1040.443416
_symmetry_space_group_name_H-M "P 21 21 21"
_symmetry_group_IT_number 19
_symmetry_cell_setting 'orthorhombic'
loop_
_space_group_symop_operation_xyz
x,y,z
1/2-x,-y,1/2+z
1/2+x,1/2-y,-z
-x,1/2+y,1/2-z
loop_
_atom_site_type_symbol
_atom_site_label
_atom_site_fract_x
_atom_site_fract_y
_atom_site_fract_z
Si Si1 0.277228 0.499854 0.032319
Si Si2 0.423699 0.385266 0.299481
Si Si3 0.105274 0.688178 0.350375
Si Si4 0.048869 0.994541 0.055541
Si Si5 0.714133 0.734436 0.307586
Si Si6 0.068417 0.014590 0.882281
O O1 0.151659 0.740729 0.042243
O O2 0.468364 0.537435 0.066209
O O3 0.172985 0.241732 0.044555
O O4 0.354941 0.492412 0.976868
O O5 0.271654 0.590472 0.315112
O O6 0.649292 0.455321 0.303097
O O7 0.369650 0.329573 0.243703
O O8 0.395527 0.192460 0.342314
O O9 0.223266 0.862428 0.386742
O O10 0.002698 0.498624 0.386640
O O11 0.934891 0.792956 0.317152
O O12 0.593998 0.825732 0.354373
#
# Coordination Sequence:
#
# PCOD9315715 Si02
#       6
#     4   4   4   4   4   4
#     4  12  27  48  78 106 148 188 240 300 365 433
#     4  11  25  40  70  97 144 186 241 297 355 435
#     4  11  27  42  70 105 140 186 244 294 365 432
#     4  12  27  49  76 109 146 190 238 303 362 436
#     4  11  23  46  63 104 139 189 236 297 362 418
#     4  11  25  45  71  99 143 185 237 295 361 432
#
# _framework density 23.067091000000001
#
# number of rings (size 3 to 8) (size 9 to 14) (size 15 to 20)
#    0.000    0.667    3.333    3.000    9.333    1.333 
#    0.000    0.000    0.000    0.000    0.000    0.000 
#    0.000    0.000    0.000    0.000    0.000    0.000 
#
# Total GULP energy -133979.524986 kJ/mol
# GULP energy per Si atom -5582.480208 kJ/mol
# Density = 2.301459 g / cm^3
# Si number density = 23.067091 Si / 1000 Ang^3
#
#
#
# Elastic Constant Matrix: (Units=GPa)
#
#
# Indices 1 2 3 4 5 6 
#
# 1 84.2542 31.8187 -7.5788 0.0000 0.0000 0.0000
# 2 31.8187 76.0800 -7.8345 0.0000 0.0000 0.0000
# 3 -7.5788 -7.8345 52.0913 0.0000 0.0000 0.0000
# 4 0.0000 0.0000 0.0000 28.4616 0.0000 0.0000
# 5 0.0000 0.0000 0.0000 0.0000 47.0657 0.0000
# 6 0.0000 0.0000 0.0000 0.0000 0.0000 33.8143
#
#
#
# Elastic Compliance Matrix: (Units=1/GPa)
#
#
# Indices 1 2 3 4 5 6 
#
# 1 0.014167 -0.005803 0.001188 0.000000 0.000000 0.000000
# 2 -0.005803 0.015728 0.001521 0.000000 0.000000 0.000000
# 3 0.001188 0.001521 0.019599 0.000000 0.000000 0.000000
# 4 0.000000 0.000000 0.000000 0.035135 0.000000 0.000000
# 5 0.000000 0.000000 0.000000 0.000000 0.021247 0.000000
# 6 0.000000 0.000000 0.000000 0.000000 0.000000 0.029573
#
#
# Mechanical properties :
#
#
# Convention : Reuss Voigt Hill
#
# Bulk Modulus (GPa) = 23.09074 27.24844 25.16959
# Shear Modulus (GPa) = 32.03679 34.93633 33.48656
#
# Velocity S-wave (km/s) = 3.73077 3.89595 3.81426
# Velocity P-wave (km/s) = 5.34698 5.66359 5.50756
#
# Compressibility (1/GPa) = 0.04330740
#
# Stress axis : x y z
#
# Youngs Moduli (GPa) = 70.58587 63.58268 51.02364
#
# Poissons Ratio (x) = 0.36895 -0.06064
# Poissons Ratio (y) = 0.40959 -0.07762
# Poissons Ratio (z) = -0.08389 -0.09672
#
# Static dielectric constant tensor:
#      x y z
#    x 1.849390 0.000000 0.000000 
#    y 0.000000 2.024320 0.000000 
#    z 0.000000 0.000000 1.817590 
# 
# From -- ./inp_files/184.got.cif
#   From: 2010.05.17/outbox.cif.g08.bks.cpg/sg19_1_cif.got.tgz:184.got - 2010.06.03 22:46:19.
