data_PCOD9315457
_publ_section_title
;
Structure prediction by ZEFSAII (Michael W. Deem and Ramdas Pophale) SiO2 
 PCOD9315457
Probable space group: P 21 21 21
;
_chemical_formula_sum "Si O2"
_cell_formula_units_Z 32
_cell_length_a 10.742220
_cell_length_b 14.178497
_cell_length_c 8.823988
_cell_angle_alpha 90.000000
_cell_angle_beta 90.000000
_cell_angle_gamma 90.000000
_cell_volume 1343.968677
_symmetry_space_group_name_H-M "P 21 21 21"
_symmetry_group_IT_number 19
_symmetry_cell_setting 'orthorhombic'
loop_
_space_group_symop_operation_xyz
x,y,z
1/2-x,-y,1/2+z
1/2+x,1/2-y,-z
-x,1/2+y,1/2-z
loop_
_atom_site_type_symbol
_atom_site_label
_atom_site_fract_x
_atom_site_fract_y
_atom_site_fract_z
Si Si1 0.811769 0.089006 0.754207
Si Si2 0.184858 0.029347 0.404536
Si Si3 0.450193 0.796651 0.898217
Si Si4 0.657376 0.248101 0.285211
Si Si5 0.423280 0.018048 0.235040
Si Si6 0.906317 0.345608 0.217327
Si Si7 0.568310 0.728179 0.380626
Si Si8 0.301575 0.419725 0.597336
O O1 0.839341 0.192277 0.819067
O O2 0.770293 0.091301 0.579620
O O3 0.945801 0.034388 0.756027
O O4 0.715752 0.027213 0.852493
O O5 0.139605 0.017020 0.577200
O O6 0.100885 0.956867 0.306833
O O7 0.326880 0.001439 0.371725
O O8 0.164552 0.137041 0.353252
O O9 0.481030 0.703256 0.805212
O O10 0.430438 0.768729 0.071879
O O11 0.565655 0.869166 0.883937
O O12 0.778914 0.312853 0.297088
O O13 0.573470 0.265367 0.138839
O O14 0.709882 0.142896 0.300160
O O15 0.435138 0.130302 0.211991
O O16 0.902516 0.298402 0.051934
#
# Coordination Sequence:
#
# PCOD9315457 Si02
#       8
#     4   4   4   4   4   4   4   4
#     4  12  25  48  71 107 147 188 236 302 369 425
#     4  11  23  45  69  98 145 180 234 293 356 428
#     4  11  24  45  71 104 143 187 240 292 358 434
#     4  11  23  48  68 100 146 184 236 296 354 432
#     4  11  25  46  70 105 138 187 237 294 359 434
#     4  10  26  43  70 106 138 188 238 293 363 430
#     4  11  24  45  72 101 145 184 235 301 362 425
#     4  11  26  44  75 101 142 192 234 297 357 432
#
# _framework density 23.810079000000002
#
# number of rings (size 3 to 8) (size 9 to 14) (size 15 to 20)
#    0.000    1.000    3.750    1.500    5.250    5.000 
#    0.000    0.000    0.000    0.000    0.000    0.000 
#    0.000    0.000    0.000    0.000    0.000    0.000 
#
# Total GULP energy -179103.072532 kJ/mol
# GULP energy per Si atom -5596.971017 kJ/mol
# Density = 2.375589 g / cm^3
# Si number density = 23.810079 Si / 1000 Ang^3
#
#
#
# Elastic Constant Matrix: (Units=GPa)
#
#
# Indices 1 2 3 4 5 6 
#
# 1 57.7338 2.5069 5.6485 0.0000 0.0000 0.0000
# 2 2.5069 100.3640 2.2961 0.0000 0.0000 0.0000
# 3 5.6485 2.2961 46.4219 0.0000 0.0000 0.0000
# 4 0.0000 0.0000 0.0000 37.8607 0.0000 0.0000
# 5 0.0000 0.0000 0.0000 0.0000 32.1332 0.0000
# 6 0.0000 0.0000 0.0000 0.0000 0.0000 37.4048
#
#
#
# Elastic Compliance Matrix: (Units=1/GPa)
#
#
# Indices 1 2 3 4 5 6 
#
# 1 0.017545 -0.000390 -0.002116 0.000000 0.000000 0.000000
# 2 -0.000390 0.009984 -0.000446 0.000000 0.000000 0.000000
# 3 -0.002116 -0.000446 0.021821 0.000000 0.000000 0.000000
# 4 0.000000 0.000000 0.000000 0.026413 0.000000 0.000000
# 5 0.000000 0.000000 0.000000 0.000000 0.031120 0.000000
# 6 0.000000 0.000000 0.000000 0.000000 0.000000 0.026735
#
#
# Mechanical properties :
#
#
# Convention : Reuss Voigt Hill
#
# Bulk Modulus (GPa) = 23.01704 25.04695 24.03200
# Shear Modulus (GPa) = 32.46699 34.41763 33.44231
#
# Velocity S-wave (km/s) = 3.69668 3.80611 3.75179
# Velocity P-wave (km/s) = 5.28285 5.46421 5.37429
#
# Compressibility (1/GPa) = 0.04344608
#
# Stress axis : x y z
#
# Youngs Moduli (GPa) = 56.99702 100.16342 45.82730
#
# Poissons Ratio (x) = 0.03905 0.09695
# Poissons Ratio (y) = 0.02222 0.02046
# Poissons Ratio (z) = 0.12058 0.04471
#
# Static dielectric constant tensor:
#      x y z
#    x 1.936770 0.000000 0.000000 
#    y 0.000000 1.937430 0.000000 
#    z 0.000000 0.000000 1.855560 
# 
# From -- ./inp_files/3642.got.cif
#   From: 2010.05.17/outbox.cif.g08.bks.cpg/sg19_2_cif.got.tgz:3642.got - 2010.06.03 22:46:19.
