data_PCOD9315978
_publ_section_title
;
Structure prediction by ZEFSAII (Michael W. Deem and Ramdas Pophale) SiO2 
 PCOD9315978
Probable space group: P 21 21 21
;
_chemical_formula_sum "Si O2"
_cell_formula_units_Z 24
_cell_length_a 13.205542
_cell_length_b 7.509744
_cell_length_c 9.373919
_cell_angle_alpha 90.000000
_cell_angle_beta 90.000000
_cell_angle_gamma 90.000000
_cell_volume 929.613795
_symmetry_space_group_name_H-M "P 21 21 21"
_symmetry_group_IT_number 19
_symmetry_cell_setting 'orthorhombic'
loop_
_space_group_symop_operation_xyz
x,y,z
1/2-x,-y,1/2+z
1/2+x,1/2-y,-z
-x,1/2+y,1/2-z
loop_
_atom_site_type_symbol
_atom_site_label
_atom_site_fract_x
_atom_site_fract_y
_atom_site_fract_z
Si Si1 0.107459 0.306613 0.182737
Si Si2 0.869774 0.035984 0.813542
Si Si3 0.945481 0.642407 0.864501
Si Si4 0.233436 0.968387 0.208851
Si Si5 0.921020 0.198436 0.360008
Si Si6 0.272118 0.663107 0.430936
O O1 0.127022 0.517314 0.200891
O O2 0.996325 0.275088 0.241379
O O3 0.180701 0.154485 0.247139
O O4 0.126513 0.278269 0.015468
O O5 0.806603 0.001831 0.667128
O O6 0.896518 0.836773 0.861448
O O7 0.974151 0.124549 0.763609
O O8 0.807848 0.117519 0.945031
O O9 0.848441 0.513595 0.846613
O O10 0.009170 0.636337 0.009377
O O11 0.160155 0.852054 0.104117
O O12 0.237897 0.832344 0.340914
#
# Coordination Sequence:
#
# PCOD9315978 Si02
#       6
#     4   4   4   4   4   4
#     4  12  26  49  81 114 163 209 276 342 404 509
#     4  11  27  52  86 119 175 214 284 349 422 507
#     4  11  28  49  78 124 167 221 275 350 428 494
#     4  11  29  50  78 123 163 218 277 341 421 499
#     4  12  27  51  80 121 162 224 277 340 422 498
#     4  11  27  51  83 125 164 228 275 346 427 499
#
# _framework density 25.817170000000001
#
# number of rings (size 3 to 8) (size 9 to 14) (size 15 to 20)
#    0.000    0.667    3.333    2.000    9.333    5.333 
#    0.000    0.000    0.000    0.000    0.000    0.000 
#    0.000    0.000    0.000    0.000    0.000    0.000 
#
# Total GULP energy -134346.076159 kJ/mol
# GULP energy per Si atom -5597.753173 kJ/mol
# Density = 2.575841 g / cm^3
# Si number density = 25.817170 Si / 1000 Ang^3
#
#
#
# Elastic Constant Matrix: (Units=GPa)
#
#
# Indices 1 2 3 4 5 6 
#
# 1 170.4299 33.5245 60.0733 0.0000 0.0000 0.0000
# 2 33.5245 130.6106 9.4989 0.0000 0.0000 0.0000
# 3 60.0733 9.4989 81.4668 0.0000 0.0000 0.0000
# 4 0.0000 0.0000 0.0000 32.9123 0.0000 0.0000
# 5 0.0000 0.0000 0.0000 0.0000 61.6776 0.0000
# 6 0.0000 0.0000 0.0000 0.0000 0.0000 47.9318
#
#
#
# Elastic Compliance Matrix: (Units=1/GPa)
#
#
# Indices 1 2 3 4 5 6 
#
# 1 0.008285 -0.001697 -0.005911 0.000000 0.000000 0.000000
# 2 -0.001697 0.008069 0.000310 0.000000 0.000000 0.000000
# 3 -0.005911 0.000310 0.016598 0.000000 0.000000 0.000000
# 4 0.000000 0.000000 0.000000 0.030384 0.000000 0.000000
# 5 0.000000 0.000000 0.000000 0.000000 0.016213 0.000000
# 6 0.000000 0.000000 0.000000 0.000000 0.000000 0.020863
#
#
# Mechanical properties :
#
#
# Convention : Reuss Voigt Hill
#
# Bulk Modulus (GPa) = 54.47711 65.41120 59.94415
# Shear Modulus (GPa) = 41.27912 47.13171 44.20542
#
# Velocity S-wave (km/s) = 4.00297 4.27733 4.14242
# Velocity P-wave (km/s) = 6.52011 7.05588 6.79328
#
# Compressibility (1/GPa) = 0.01835633
#
# Stress axis : x y z
#
# Youngs Moduli (GPa) = 120.70124 123.92702 60.24880
#
# Poissons Ratio (x) = 0.21026 0.35616
# Poissons Ratio (y) = 0.20478 -0.01869
# Poissons Ratio (z) = 0.71352 -0.03844
#
# Static dielectric constant tensor:
#      x y z
#    x 2.130350 0.000000 0.000000 
#    y 0.000000 2.003710 0.000000 
#    z 0.000000 0.000000 2.091880 
# 
# From -- ./inp_files/4905.got.cif
#   From: 2010.05.17/outbox.cif.g08.bks.cpg/sg19_3_cif.got.tgz:4905.got - 2010.06.03 22:46:19.
