data_PCOD9315623
_publ_section_title
;
Structure prediction by ZEFSAII (Michael W. Deem and Ramdas Pophale) SiO2 
 PCOD9315623
Probable space group: P 21 21 21
;
_chemical_formula_sum "Si O2"
_cell_formula_units_Z 32
_cell_length_a 8.391934
_cell_length_b 13.095958
_cell_length_c 11.701583
_cell_angle_alpha 90.000000
_cell_angle_beta 90.000000
_cell_angle_gamma 90.000000
_cell_volume 1286.008830
_symmetry_space_group_name_H-M "P 21 21 21"
_symmetry_group_IT_number 19
_symmetry_cell_setting 'orthorhombic'
loop_
_space_group_symop_operation_xyz
x,y,z
1/2-x,-y,1/2+z
1/2+x,1/2-y,-z
-x,1/2+y,1/2-z
loop_
_atom_site_type_symbol
_atom_site_label
_atom_site_fract_x
_atom_site_fract_y
_atom_site_fract_z
Si Si1 0.057899 0.506602 0.524811
Si Si2 0.492884 0.649743 0.760072
Si Si3 0.703551 0.611535 0.166793
Si Si4 0.037992 0.828347 0.610474
Si Si5 0.280928 0.675467 0.567407
Si Si6 0.294968 0.761125 0.226744
Si Si7 0.827660 0.791419 0.027953
Si Si8 0.044537 0.576983 0.271444
O O1 0.154541 0.588683 0.596912
O O2 0.182066 0.412353 0.501237
O O3 0.902178 0.459380 0.584177
O O4 0.013386 0.566283 0.407883
O O5 0.393530 0.714073 0.669462
O O6 0.679855 0.646150 0.740116
O O7 0.476565 0.698387 0.885183
O O8 0.410747 0.540832 0.749650
O O9 0.619177 0.605281 0.291005
O O10 0.707007 0.724066 0.104986
O O11 0.888954 0.590425 0.192087
O O12 0.173100 0.772746 0.535920
O O13 0.901054 0.868496 0.527310
O O14 0.942113 0.748098 0.689647
O O15 0.181506 0.660334 0.247526
O O16 0.343230 0.762169 0.094229
#
# Coordination Sequence:
#
# PCOD9315623 Si02
#       8
#     4   4   4   4   4   4   4   4
#     4  11  26  47  73 106 151 191 253 313 376 451
#     4  11  25  44  70 108 145 196 252 310 382 452
#     4  12  26  48  73 111 147 196 263 312 382 460
#     4  12  27  45  77 102 148 203 246 308 383 453
#     4  12  26  47  72 106 152 199 251 311 381 461
#     4  12  23  46  73 105 146 195 251 312 384 446
#     4  11  22  45  72 104 144 193 247 312 373 445
#     4  11  25  46  72 104 149 195 249 316 377 450
#
# _framework density 24.883189000000002
#
# number of rings (size 3 to 8) (size 9 to 14) (size 15 to 20)
#    0.000    0.500    5.000    3.000    3.500    1.000 
#    0.000    0.000    0.000    0.000    0.000    0.000 
#    0.000    0.000    0.000    0.000    0.000    0.000 
#
# Total GULP energy -178556.123260 kJ/mol
# GULP energy per Si atom -5579.878852 kJ/mol
# Density = 2.482655 g / cm^3
# Si number density = 24.883189 Si / 1000 Ang^3
#
#
#
# Elastic Constant Matrix: (Units=GPa)
#
#
# Indices 1 2 3 4 5 6 
#
# 1 94.3098 12.1532 41.0590 0.0000 0.0000 0.0000
# 2 12.1532 64.6840 20.8683 0.0000 0.0000 0.0000
# 3 41.0590 20.8683 102.3375 0.0000 0.0000 0.0000
# 4 0.0000 0.0000 0.0000 30.7445 0.0000 0.0000
# 5 0.0000 0.0000 0.0000 0.0000 51.5212 0.0000
# 6 0.0000 0.0000 0.0000 0.0000 0.0000 35.3006
#
#
#
# Elastic Compliance Matrix: (Units=1/GPa)
#
#
# Indices 1 2 3 4 5 6 
#
# 1 0.012887 -0.000806 -0.005006 0.000000 0.000000 0.000000
# 2 -0.000806 0.016599 -0.003061 0.000000 0.000000 0.000000
# 3 -0.005006 -0.003061 0.012404 0.000000 0.000000 0.000000
# 4 0.000000 0.000000 0.000000 0.032526 0.000000 0.000000
# 5 0.000000 0.000000 0.000000 0.000000 0.019409 0.000000
# 6 0.000000 0.000000 0.000000 0.000000 0.000000 0.028328
#
#
# Mechanical properties :
#
#
# Convention : Reuss Voigt Hill
#
# Bulk Modulus (GPa) = 41.41996 45.49916 43.45956
# Shear Modulus (GPa) = 33.79565 35.99664 34.89615
#
# Velocity S-wave (km/s) = 3.68934 3.80758 3.74892
# Velocity P-wave (km/s) = 5.90171 6.13637 6.02018
#
# Compressibility (1/GPa) = 0.02414295
#
# Stress axis : x y z
#
# Youngs Moduli (GPa) = 77.59991 60.24501 80.61747
#
# Poissons Ratio (x) = 0.04857 0.40356
# Poissons Ratio (y) = 0.06256 0.24680
# Poissons Ratio (z) = 0.38845 0.18443
#
# Static dielectric constant tensor:
#      x y z
#    x 1.967980 0.000000 0.000000 
#    y 0.000000 1.997780 0.000000 
#    z 0.000000 0.000000 2.018090 
# 
# From -- ./inp_files/4701.got.cif
#   From: 2010.05.17/outbox.cif.g08.bks.cpg/sg19_3_cif.got.tgz:4701.got - 2010.06.03 22:46:19.
