data_PCOD9315234
_publ_section_title
;
Structure prediction by ZEFSAII (Michael W. Deem and Ramdas Pophale) SiO2 
 PCOD9315234
Probable space group: P 21 21 21
;
_chemical_formula_sum "Si O2"
_cell_formula_units_Z 32
_cell_length_a 12.966884
_cell_length_b 8.923584
_cell_length_c 11.427575
_cell_angle_alpha 90.000000
_cell_angle_beta 90.000000
_cell_angle_gamma 90.000000
_cell_volume 1322.297029
_symmetry_space_group_name_H-M "P 21 21 21"
_symmetry_group_IT_number 19
_symmetry_cell_setting 'orthorhombic'
loop_
_space_group_symop_operation_xyz
x,y,z
1/2-x,-y,1/2+z
1/2+x,1/2-y,-z
-x,1/2+y,1/2-z
loop_
_atom_site_type_symbol
_atom_site_label
_atom_site_fract_x
_atom_site_fract_y
_atom_site_fract_z
Si Si1 0.956037 0.485802 0.436278
Si Si2 0.237933 0.503738 0.036225
Si Si3 0.953820 0.494500 0.885744
Si Si4 0.350682 0.106172 0.325737
Si Si5 0.645489 0.514700 0.721968
Si Si6 0.366169 0.264021 0.948703
Si Si7 0.480797 0.343001 0.591892
Si Si8 0.331726 0.448844 0.287656
O O1 0.918235 0.437060 0.563701
O O2 0.855073 0.523846 0.358955
O O3 0.987702 0.329137 0.375501
O O4 0.047241 0.605787 0.440540
O O5 0.131526 0.586908 0.067810
O O6 0.298524 0.513672 0.161445
O O7 0.262559 0.329241 0.007476
O O8 0.249472 0.555754 0.897656
O O9 0.067955 0.463414 0.834915
O O10 0.879168 0.507953 0.777224
O O11 0.960895 0.637893 0.968196
O O12 0.915872 0.362593 0.969740
O O13 0.230744 0.079498 0.347340
O O14 0.366470 0.274621 0.279330
O O15 0.655927 0.684058 0.675169
O O16 0.535618 0.448756 0.683892
#
# Coordination Sequence:
#
# PCOD9315234 Si02
#       8
#     4   4   4   4   4   4   4   4
#     4  12  26  47  72 109 143 196 246 309 373 441
#     4  11  24  46  76 109 148 195 253 302 377 436
#     4  10  23  51  69 111 148 188 247 305 367 436
#     4  12  26  46  74 112 144 198 247 304 372 449
#     4  11  29  45  72 108 151 192 245 310 375 447
#     4  11  26  48  76 107 147 202 240 312 379 440
#     4  10  25  49  74 103 149 192 248 303 365 448
#     4  11  25  46  77 111 152 197 252 309 372 447
#
# _framework density 24.200310999999999
#
# number of rings (size 3 to 8) (size 9 to 14) (size 15 to 20)
#    0.000    1.000    3.750    1.500    8.750    6.000 
#    0.000    0.000    0.000    0.000    0.000    0.000 
#    0.000    0.000    0.000    0.000    0.000    0.000 
#
# Total GULP energy -178430.962086 kJ/mol
# GULP energy per Si atom -5575.967565 kJ/mol
# Density = 2.414523 g / cm^3
# Si number density = 24.200311 Si / 1000 Ang^3
#
#
#
# Elastic Constant Matrix: (Units=GPa)
#
#
# Indices 1 2 3 4 5 6 
#
# 1 36.8252 14.0912 -4.0178 0.0000 0.0000 0.0000
# 2 14.0912 75.9693 -5.4664 0.0000 0.0000 0.0000
# 3 -4.0178 -5.4664 113.2656 0.0000 0.0000 0.0000
# 4 0.0000 0.0000 0.0000 22.9595 0.0000 0.0000
# 5 0.0000 0.0000 0.0000 0.0000 16.5495 0.0000
# 6 0.0000 0.0000 0.0000 0.0000 0.0000 34.5356
#
#
#
# Elastic Compliance Matrix: (Units=1/GPa)
#
#
# Indices 1 2 3 4 5 6 
#
# 1 0.029298 -0.005378 0.000780 0.000000 0.000000 0.000000
# 2 -0.005378 0.014196 0.000494 0.000000 0.000000 0.000000
# 3 0.000780 0.000494 0.008880 0.000000 0.000000 0.000000
# 4 0.000000 0.000000 0.000000 0.043555 0.000000 0.000000
# 5 0.000000 0.000000 0.000000 0.000000 0.060425 0.000000
# 6 0.000000 0.000000 0.000000 0.000000 0.000000 0.028956
#
#
# Mechanical properties :
#
#
# Convention : Reuss Voigt Hill
#
# Bulk Modulus (GPa) = 22.64153 26.14158 24.39156
# Shear Modulus (GPa) = 24.01061 29.57245 26.79153
#
# Velocity S-wave (km/s) = 3.15328 3.49948 3.33088
# Velocity P-wave (km/s) = 4.75749 5.21096 4.98938
#
# Compressibility (1/GPa) = 0.04416662
#
# Stress axis : x y z
#
# Youngs Moduli (GPa) = 34.13149 70.44050 112.60852
#
# Poissons Ratio (x) = 0.37885 -0.08780
# Poissons Ratio (y) = 0.18357 -0.05567
# Poissons Ratio (z) = -0.02661 -0.03482
#
# Static dielectric constant tensor:
#      x y z
#    x 1.988500 0.000000 0.000000 
#    y 0.000000 1.924760 0.000000 
#    z 0.000000 0.000000 2.022230 
# 
# From -- ./inp_files/5263.got.cif
#   From: 2010.05.17/outbox.cif.g08.bks.cpg/sg19_3_cif.got.tgz:5263.got - 2010.06.03 22:46:19.
