data_PCOD9315870
_publ_section_title
;
Structure prediction by ZEFSAII (Michael W. Deem and Ramdas Pophale) SiO2 
 PCOD9315870
Probable space group: P 21 21 21
;
_chemical_formula_sum "Si O2"
_cell_formula_units_Z 28
_cell_length_a 15.810450
_cell_length_b 12.520952
_cell_length_c 5.402832
_cell_angle_alpha 90.000000
_cell_angle_beta 90.000000
_cell_angle_gamma 90.000000
_cell_volume 1069.554810
_symmetry_space_group_name_H-M "P 21 21 21"
_symmetry_group_IT_number 19
_symmetry_cell_setting 'orthorhombic'
loop_
_space_group_symop_operation_xyz
x,y,z
1/2-x,-y,1/2+z
1/2+x,1/2-y,-z
-x,1/2+y,1/2-z
loop_
_atom_site_type_symbol
_atom_site_label
_atom_site_fract_x
_atom_site_fract_y
_atom_site_fract_z
Si Si1 0.683251 0.728082 0.381647
Si Si2 0.893443 0.773797 0.054047
Si Si3 0.721358 0.836859 0.870546
Si Si4 0.709886 0.458353 0.030733
Si Si5 0.461717 0.890687 0.611771
Si Si6 0.993806 0.334557 0.832018
Si Si7 0.892164 0.975263 0.368597
O O1 0.681536 0.810081 0.605903
O O2 0.764779 0.657902 0.430697
O O3 0.602721 0.651254 0.401218
O O4 0.683299 0.774551 0.106619
O O5 0.818254 0.796141 0.861097
O O6 0.983670 0.812319 0.950503
O O7 0.912950 0.655754 0.145731
O O8 0.866709 0.862008 0.253738
O O9 0.692009 0.957853 0.923525
O O10 0.748859 0.529076 0.804103
O O11 0.608226 0.461166 0.029565
O O12 0.482730 0.780488 0.463340
O O13 0.543563 0.956688 0.696466
O O14 0.049666 0.436106 0.906355
#
# Coordination Sequence:
#
# PCOD9315870 Si02
#       7
#     4   4   4   4   4   4   4
#     4  12  26  50  76 110 149 199 245 307 379 445
#     4  11  27  45  77 108 151 202 254 309 379 457
#     4  12  27  49  76 108 154 198 249 307 380 442
#     4  12  27  45  77 108 145 191 246 305 365 445
#     4  11  24  51  69 106 151 192 243 313 376 438
#     4  11  26  45  76 104 147 199 250 305 377 449
#     4  11  27  45  75 110 149 195 253 312 370 456
#
# _framework density 26.179116
#
# number of rings (size 3 to 8) (size 9 to 14) (size 15 to 20)
#    0.000    0.571    2.857    3.429   12.000    1.143 
#    0.000    0.000    0.000    0.000    0.000    0.000 
#    0.000    0.000    0.000    0.000    0.000    0.000 
#
# Total GULP energy -156572.598519 kJ/mol
# GULP energy per Si atom -5591.878519 kJ/mol
# Density = 2.611953 g / cm^3
# Si number density = 26.179116 Si / 1000 Ang^3
#
#
#
# Elastic Constant Matrix: (Units=GPa)
#
#
# Indices 1 2 3 4 5 6 
#
# 1 87.4464 7.0510 17.6992 0.0000 0.0000 0.0000
# 2 7.0510 81.3695 16.1776 0.0000 0.0000 0.0000
# 3 17.6992 16.1776 67.6625 0.0000 0.0000 0.0000
# 4 0.0000 0.0000 0.0000 32.4142 0.0000 0.0000
# 5 0.0000 0.0000 0.0000 0.0000 20.6084 0.0000
# 6 0.0000 0.0000 0.0000 0.0000 0.0000 40.6693
#
#
#
# Elastic Compliance Matrix: (Units=1/GPa)
#
#
# Indices 1 2 3 4 5 6 
#
# 1 0.012090 -0.000440 -0.003057 0.000000 0.000000 0.000000
# 2 -0.000440 0.012919 -0.002974 0.000000 0.000000 0.000000
# 3 -0.003057 -0.002974 0.016290 0.000000 0.000000 0.000000
# 4 0.000000 0.000000 0.000000 0.030851 0.000000 0.000000
# 5 0.000000 0.000000 0.000000 0.000000 0.048524 0.000000
# 6 0.000000 0.000000 0.000000 0.000000 0.000000 0.024589
#
#
# Mechanical properties :
#
#
# Convention : Reuss Voigt Hill
#
# Bulk Modulus (GPa) = 35.26465 35.37043 35.31754
# Shear Modulus (GPa) = 29.82294 31.77507 30.79900
#
# Velocity S-wave (km/s) = 3.37885 3.48768 3.43370
# Velocity P-wave (km/s) = 5.35928 5.45516 5.40744
#
# Compressibility (1/GPa) = 0.02835701
#
# Stress axis : x y z
#
# Youngs Moduli (GPa) = 82.71408 77.40555 61.38737
#
# Poissons Ratio (x) = 0.03404 0.18768
# Poissons Ratio (y) = 0.03638 0.18255
# Poissons Ratio (z) = 0.25288 0.23019
#
# Static dielectric constant tensor:
#      x y z
#    x 2.147300 0.000000 0.000000 
#    y 0.000000 2.030180 0.000000 
#    z 0.000000 0.000000 2.166690 
# 
# From -- ./inp_files/1734.got.cif
#   From: 2010.05.17/outbox.cif.g08.bks.cpg/sg19_1_cif.got.tgz:1734.got - 2010.06.03 22:46:19.
