data_PCOD9315325
_publ_section_title
;
Structure prediction by ZEFSAII (Michael W. Deem and Ramdas Pophale) SiO2 
 PCOD9315325
Probable space group: P 21 21 21
;
_chemical_formula_sum "Si O2"
_cell_formula_units_Z 20
_cell_length_a 5.163153
_cell_length_b 28.369904
_cell_length_c 5.029251
_cell_angle_alpha 90.000000
_cell_angle_beta 90.000000
_cell_angle_gamma 90.000000
_cell_volume 736.675407
_symmetry_space_group_name_H-M "P 21 21 21"
_symmetry_group_IT_number 19
_symmetry_cell_setting 'orthorhombic'
loop_
_space_group_symop_operation_xyz
x,y,z
1/2-x,-y,1/2+z
1/2+x,1/2-y,-z
-x,1/2+y,1/2-z
loop_
_atom_site_type_symbol
_atom_site_label
_atom_site_fract_x
_atom_site_fract_y
_atom_site_fract_z
Si Si1 0.569390 0.590181 0.901072
Si Si2 0.589938 0.328701 0.551228
Si Si3 0.373660 0.249996 0.182033
Si Si4 0.925835 0.007766 0.195924
Si Si5 0.708374 0.893957 0.595105
O O1 0.807813 0.625832 0.892978
O O2 0.624307 0.534731 0.855533
O O3 0.357262 0.605098 0.681609
O O4 0.430101 0.596365 0.184207
O O5 0.830665 0.297059 0.645328
O O6 0.420903 0.293710 0.375751
O O7 0.439501 0.347815 0.808313
O O8 0.615095 0.244256 0.988424
O O9 0.988260 0.061612 0.127403
O O10 0.809058 0.003561 0.490084
#
# Coordination Sequence:
#
# PCOD9315325 Si02
#       5
#     4   4   4   4   4
#     4  10  24  44  77 113 160 208 265 327 400 483
#     4  12  30  48  78 120 152 218 274 336 412 486
#     4  12  32  54  82 114 166 214 278 350 416 482
#     4   8  16  40  68 108 156 206 254 320 392 474
#     4  10  24  44  77 113 160 208 265 327 400 483
#
# _framework density 27.148997999999999
#
# number of rings (size 3 to 8) (size 9 to 14) (size 15 to 20)
#    0.000    1.600    0.000    1.200   14.000    0.000 
#    0.000   12.000    0.000    0.000    0.000    0.000 
#    0.000    0.000    0.000    0.000    0.000    0.000 
#
# Total GULP energy -112402.696566 kJ/mol
# GULP energy per Si atom -5620.134828 kJ/mol
# Density = 2.708721 g / cm^3
# Si number density = 27.148998 Si / 1000 Ang^3
#
#
#
# Elastic Constant Matrix: (Units=GPa)
#
#
# Indices 1 2 3 4 5 6 
#
# 1 117.6858 43.0070 52.6939 0.0000 0.0000 0.0000
# 2 43.0070 153.4379 33.4439 0.0000 0.0000 0.0000
# 3 52.6939 33.4439 122.9693 0.0000 0.0000 0.0000
# 4 0.0000 0.0000 0.0000 41.2477 0.0000 0.0000
# 5 0.0000 0.0000 0.0000 0.0000 45.5174 0.0000
# 6 0.0000 0.0000 0.0000 0.0000 0.0000 49.8780
#
#
#
# Elastic Compliance Matrix: (Units=1/GPa)
#
#
# Indices 1 2 3 4 5 6 
#
# 1 0.011185 -0.002222 -0.004188 0.000000 0.000000 0.000000
# 2 -0.002222 0.007369 -0.001052 0.000000 0.000000 0.000000
# 3 -0.004188 -0.001052 0.010213 0.000000 0.000000 0.000000
# 4 0.000000 0.000000 0.000000 0.024244 0.000000 0.000000
# 5 0.000000 0.000000 0.000000 0.000000 0.021970 0.000000
# 6 0.000000 0.000000 0.000000 0.000000 0.000000 0.020049
#
#
# Mechanical properties :
#
#
# Convention : Reuss Voigt Hill
#
# Bulk Modulus (GPa) = 72.24389 72.48696 72.36543
# Shear Modulus (GPa) = 43.64207 44.99184 44.31696
#
# Velocity S-wave (km/s) = 4.01372 4.07531 4.04463
# Velocity P-wave (km/s) = 6.93886 6.99299 6.96598
#
# Compressibility (1/GPa) = 0.01384200
#
# Stress axis : x y z
#
# Youngs Moduli (GPa) = 89.40889 135.69598 97.91405
#
# Poissons Ratio (x) = 0.30152 0.41010
# Poissons Ratio (y) = 0.19867 0.10302
# Poissons Ratio (z) = 0.37448 0.14277
#
# Static dielectric constant tensor:
#      x y z
#    x 2.048120 0.000000 0.000000 
#    y 0.000000 2.133880 0.000000 
#    z 0.000000 0.000000 2.081610 
# 
# From -- ./inp_files/209.got.cif
#   From: 2010.05.17/outbox.cif.g08.bks.cpg/sg19_1_cif.got.tgz:209.got - 2010.06.03 22:46:19.
