data_PCOD9315276
_publ_section_title
;
Structure prediction by ZEFSAII (Michael W. Deem and Ramdas Pophale) SiO2 
 PCOD9315276
Probable space group: P 21 21 21
;
_chemical_formula_sum "Si O2"
_cell_formula_units_Z 28
_cell_length_a 16.354724
_cell_length_b 8.905575
_cell_length_c 7.897903
_cell_angle_alpha 90.000000
_cell_angle_beta 90.000000
_cell_angle_gamma 90.000000
_cell_volume 1150.315523
_symmetry_space_group_name_H-M "P 21 21 21"
_symmetry_group_IT_number 19
_symmetry_cell_setting 'orthorhombic'
loop_
_space_group_symop_operation_xyz
x,y,z
1/2-x,-y,1/2+z
1/2+x,1/2-y,-z
-x,1/2+y,1/2-z
loop_
_atom_site_type_symbol
_atom_site_label
_atom_site_fract_x
_atom_site_fract_y
_atom_site_fract_z
Si Si1 0.174956 0.838881 0.921020
Si Si2 0.250213 0.567971 0.794597
Si Si3 0.003201 0.938085 0.845113
Si Si4 0.427070 0.716082 0.829121
Si Si5 0.751639 0.772101 0.547070
Si Si6 0.443304 0.739597 0.457221
Si Si7 0.667524 0.510726 0.707945
O O1 0.192357 0.661014 0.922494
O O2 0.095309 0.882634 0.817800
O O3 0.251517 0.909178 0.819997
O O4 0.166695 0.912022 0.107423
O O5 0.343086 0.621030 0.825514
O O6 0.226761 0.627710 0.611010
O O7 0.244207 0.390838 0.801975
O O8 0.952910 0.891598 0.679843
O O9 0.009104 0.113463 0.891384
O O10 0.973665 0.842997 0.007806
O O11 0.469782 0.694675 0.646726
O O12 0.404380 0.893651 0.832327
O O13 0.846012 0.719115 0.526288
O O14 0.685982 0.644794 0.579436
#
# Coordination Sequence:
#
# PCOD9315276 Si02
#       7
#     4   4   4   4   4   4   4
#     4  11  23  44  71 110 140 194 246 302 369 443
#     4  10  24  42  72 107 147 187 249 306 359 435
#     4  12  27  48  74 106 157 195 245 305 383 449
#     4  10  25  50  72 108 149 194 247 307 374 447
#     4  11  23  45  74 106 146 192 248 306 371 439
#     4  11  27  50  70 111 149 196 248 305 377 458
#     4  11  21  45  75 100 144 188 255 303 359 447
#
# _framework density 24.341149999999999
#
# number of rings (size 3 to 8) (size 9 to 14) (size 15 to 20)
#    0.000    1.143    2.857    2.571    8.000    2.286 
#   10.286    0.000    0.000    0.000    0.000    0.000 
#    0.000    0.000    0.000    0.000    0.000    0.000 
#
# Total GULP energy -156751.505820 kJ/mol
# GULP energy per Si atom -5598.268065 kJ/mol
# Density = 2.428575 g / cm^3
# Si number density = 24.341150 Si / 1000 Ang^3
#
#
#
# Elastic Constant Matrix: (Units=GPa)
#
#
# Indices 1 2 3 4 5 6 
#
# 1 37.6076 9.3535 8.4206 0.0000 0.0000 0.0000
# 2 9.3535 90.4793 25.8746 0.0000 0.0000 0.0000
# 3 8.4206 25.8746 105.2289 0.0000 0.0000 0.0000
# 4 0.0000 0.0000 0.0000 36.8809 0.0000 0.0000
# 5 0.0000 0.0000 0.0000 0.0000 31.6966 0.0000
# 6 0.0000 0.0000 0.0000 0.0000 0.0000 35.9286
#
#
#
# Elastic Compliance Matrix: (Units=1/GPa)
#
#
# Indices 1 2 3 4 5 6 
#
# 1 0.027546 -0.002385 -0.001618 0.000000 0.000000 0.000000
# 2 -0.002385 0.012095 -0.002783 0.000000 0.000000 0.000000
# 3 -0.001618 -0.002783 0.010317 0.000000 0.000000 0.000000
# 4 0.000000 0.000000 0.000000 0.027114 0.000000 0.000000
# 5 0.000000 0.000000 0.000000 0.000000 0.031549 0.000000
# 6 0.000000 0.000000 0.000000 0.000000 0.000000 0.027833
#
#
# Mechanical properties :
#
#
# Convention : Reuss Voigt Hill
#
# Bulk Modulus (GPa) = 27.48340 35.62371 31.55355
# Shear Modulus (GPa) = 30.83486 33.54569 32.19027
#
# Velocity S-wave (km/s) = 3.56305 3.71637 3.64051
# Velocity P-wave (km/s) = 5.31437 5.75171 5.53736
#
# Compressibility (1/GPa) = 0.03638560
#
# Stress axis : x y z
#
# Youngs Moduli (GPa) = 36.30315 82.68085 96.92846
#
# Poissons Ratio (x) = 0.19719 0.15681
# Poissons Ratio (y) = 0.08658 0.26976
# Poissons Ratio (z) = 0.05873 0.23011
#
# Static dielectric constant tensor:
#      x y z
#    x 1.913040 0.000000 0.000000 
#    y 0.000000 1.978670 0.000000 
#    z 0.000000 0.000000 2.040210 
# 
# From -- ./inp_files/4179.got.cif
#   From: 2010.05.17/outbox.cif.g08.bks.cpg/sg19_3_cif.got.tgz:4179.got - 2010.06.03 22:46:19.
