data_PCOD9315950
_publ_section_title
;
Structure prediction by ZEFSAII (Michael W. Deem and Ramdas Pophale) SiO2 
 PCOD9315950
Probable space group: P 21 21 21
;
_chemical_formula_sum "Si O2"
_cell_formula_units_Z 20
_cell_length_a 13.001616
_cell_length_b 8.733521
_cell_length_c 7.286400
_cell_angle_alpha 90.000000
_cell_angle_beta 90.000000
_cell_angle_gamma 90.000000
_cell_volume 827.369892
_symmetry_space_group_name_H-M "P 21 21 21"
_symmetry_group_IT_number 19
_symmetry_cell_setting 'orthorhombic'
loop_
_space_group_symop_operation_xyz
x,y,z
1/2-x,-y,1/2+z
1/2+x,1/2-y,-z
-x,1/2+y,1/2-z
loop_
_atom_site_type_symbol
_atom_site_label
_atom_site_fract_x
_atom_site_fract_y
_atom_site_fract_z
Si Si1 0.976919 0.373209 0.579553
Si Si2 0.314205 0.909803 0.574187
Si Si3 0.181407 0.185627 0.483992
Si Si4 0.246565 0.653308 0.324318
Si Si5 0.627493 0.880157 0.309136
O O1 0.091476 0.970565 0.063879
O O2 0.069576 0.263233 0.512474
O O3 0.031620 0.504897 0.695965
O O4 0.904223 0.270928 0.704559
O O5 0.308197 0.824331 0.765858
O O6 0.214281 0.517931 0.790592
O O7 0.322460 0.778086 0.419708
O O8 0.211571 0.011298 0.540631
O O9 0.258236 0.280885 0.618236
O O10 0.156825 0.646283 0.476368
#
# Coordination Sequence:
#
# PCOD9315950 Si02
#       5
#     4   4   4   4   4
#     4  11  27  47  78 118 160 203 269 328 391 478
#     4  12  25  49  81 107 157 213 259 324 402 462
#     4  11  26  47  79 113 152 208 260 320 389 468
#     4  11  27  47  79 110 156 201 270 321 396 472
#     4  11  27  48  81 114 159 209 264 333 394 472
#
# _framework density 24.172986999999999
#
# number of rings (size 3 to 8) (size 9 to 14) (size 15 to 20)
#    0.000    0.800    2.000    3.600   14.000    3.200 
#    0.000    0.000    0.000    0.000    0.000    0.000 
#    0.000    0.000    0.000    0.000    0.000    0.000 
#
# Total GULP energy -111701.962339 kJ/mol
# GULP energy per Si atom -5585.098117 kJ/mol
# Density = 2.411797 g / cm^3
# Si number density = 24.172987 Si / 1000 Ang^3
#
#
#
# Elastic Constant Matrix: (Units=GPa)
#
#
# Indices 1 2 3 4 5 6 
#
# 1 87.4162 53.6739 30.6425 0.0000 0.0000 0.0000
# 2 53.6739 135.3411 71.1639 0.0000 0.0000 0.0000
# 3 30.6425 71.1639 166.3788 0.0000 0.0000 0.0000
# 4 0.0000 0.0000 0.0000 57.9319 0.0000 0.0000
# 5 0.0000 0.0000 0.0000 0.0000 22.0288 0.0000
# 6 0.0000 0.0000 0.0000 0.0000 0.0000 58.7941
#
#
#
# Elastic Compliance Matrix: (Units=1/GPa)
#
#
# Indices 1 2 3 4 5 6 
#
# 1 0.015132 -0.005852 -0.000284 0.000000 0.000000 0.000000
# 2 -0.005852 0.011796 -0.003968 0.000000 0.000000 0.000000
# 3 -0.000284 -0.003968 0.007760 0.000000 0.000000 0.000000
# 4 0.000000 0.000000 0.000000 0.017262 0.000000 0.000000
# 5 0.000000 0.000000 0.000000 0.000000 0.045395 0.000000
# 6 0.000000 0.000000 0.000000 0.000000 0.000000 0.017009
#
#
# Mechanical properties :
#
#
# Convention : Reuss Voigt Hill
#
# Bulk Modulus (GPa) = 69.05688 77.78852 73.42270
# Shear Modulus (GPa) = 35.87157 43.32802 39.59979
#
# Velocity S-wave (km/s) = 3.85639 4.23828 4.05184
# Velocity P-wave (km/s) = 6.96124 7.49670 7.23392
#
# Compressibility (1/GPa) = 0.01448082
#
# Stress axis : x y z
#
# Youngs Moduli (GPa) = 66.08468 84.77714 128.87138
#
# Poissons Ratio (x) = 0.49610 0.03660
# Poissons Ratio (y) = 0.38672 0.51130
# Poissons Ratio (z) = 0.01877 0.33635
#
# Static dielectric constant tensor:
#      x y z
#    x 2.014090 0.000000 0.000000 
#    y 0.000000 1.931940 0.000000 
#    z 0.000000 0.000000 1.898570 
# 
# From -- ./inp_files/2873.got.cif
#   From: 2010.05.17/outbox.cif.g08.bks.cpg/sg19_2_cif.got.tgz:2873.got - 2010.06.03 22:46:19.
