data_PCOD9315025
_publ_section_title
;
Structure prediction by ZEFSAII (Michael W. Deem and Ramdas Pophale) SiO2 
 PCOD9315025
Probable space group: P 21 21 21
;
_chemical_formula_sum "Si O2"
_cell_formula_units_Z 24
_cell_length_a 14.841245
_cell_length_b 5.742164
_cell_length_c 12.018749
_cell_angle_alpha 90.000000
_cell_angle_beta 90.000000
_cell_angle_gamma 90.000000
_cell_volume 1024.248159
_symmetry_space_group_name_H-M "P 21 21 21"
_symmetry_group_IT_number 19
_symmetry_cell_setting 'orthorhombic'
loop_
_space_group_symop_operation_xyz
x,y,z
1/2-x,-y,1/2+z
1/2+x,1/2-y,-z
-x,1/2+y,1/2-z
loop_
_atom_site_type_symbol
_atom_site_label
_atom_site_fract_x
_atom_site_fract_y
_atom_site_fract_z
Si Si1 0.293052 0.891196 0.082988
Si Si2 0.477658 0.871600 0.196757
Si Si3 0.475884 0.079341 0.500620
Si Si4 0.830877 0.773663 0.502243
Si Si5 0.378253 0.376105 0.666973
Si Si6 0.338016 0.531899 0.913146
O O1 0.374344 0.911265 0.166396
O O2 0.221206 0.710913 0.132069
O O3 0.323032 0.794574 0.960777
O O4 0.241864 0.130095 0.069024
O O5 0.486321 0.618920 0.258326
O O6 0.522624 0.803701 0.078912
O O7 0.444192 0.172094 0.622371
O O8 0.399769 0.913465 0.448064
O O9 0.575544 0.966001 0.507826
O O10 0.762377 0.922088 0.577152
O O11 0.892375 0.907194 0.413903
O O12 0.373975 0.463088 0.792264
#
# Coordination Sequence:
#
# PCOD9315025 Si02
#       6
#     4   4   4   4   4   4
#     4   9  23  43  61 101 134 178 242 296 356 443
#     4  11  27  44  74 104 141 194 240 299 367 427
#     4  10  25  44  64 106 140 186 246 301 357 445
#     4  10  23  44  70  94 145 177 241 307 355 449
#     4  10  23  41  65  99 136 188 243 295 374 426
#     4  10  23  42  68  98 142 187 234 302 367 432
#
# _framework density 23.431822
#
# number of rings (size 3 to 8) (size 9 to 14) (size 15 to 20)
#    0.000    2.000    0.000    0.000   14.000    6.667 
#    0.000    0.000    0.000    0.000    0.000    0.000 
#    0.000    0.000    0.000    0.000    0.000    0.000 
#
# Total GULP energy -133727.374318 kJ/mol
# GULP energy per Si atom -5571.973930 kJ/mol
# Density = 2.337849 g / cm^3
# Si number density = 23.431822 Si / 1000 Ang^3
#
#
#
# Elastic Constant Matrix: (Units=GPa)
#
#
# Indices 1 2 3 4 5 6 
#
# 1 61.3301 5.2462 -4.7712 0.0000 0.0000 0.0000
# 2 5.2462 63.7774 19.4439 0.0000 0.0000 0.0000
# 3 -4.7712 19.4439 91.2792 0.0000 0.0000 0.0000
# 4 0.0000 0.0000 0.0000 13.7757 0.0000 0.0000
# 5 0.0000 0.0000 0.0000 0.0000 29.1960 0.0000
# 6 0.0000 0.0000 0.0000 0.0000 0.0000 36.3925
#
#
#
# Elastic Compliance Matrix: (Units=1/GPa)
#
#
# Indices 1 2 3 4 5 6 
#
# 1 0.016550 -0.001738 0.001235 0.000000 0.000000 0.000000
# 2 -0.001738 0.016951 -0.003702 0.000000 0.000000 0.000000
# 3 0.001235 -0.003702 0.011808 0.000000 0.000000 0.000000
# 4 0.000000 0.000000 0.000000 0.072592 0.000000 0.000000
# 5 0.000000 0.000000 0.000000 0.000000 0.034251 0.000000
# 6 0.000000 0.000000 0.000000 0.000000 0.000000 0.027478
#
#
# Mechanical properties :
#
#
# Convention : Reuss Voigt Hill
#
# Bulk Modulus (GPa) = 27.09971 28.46939 27.78455
# Shear Modulus (GPa) = 24.95764 28.97069 26.96416
#
# Velocity S-wave (km/s) = 3.26715 3.52004 3.39595
# Velocity P-wave (km/s) = 5.08162 5.35697 5.22111
#
# Compressibility (1/GPa) = 0.03690076
#
# Stress axis : x y z
#
# Youngs Moduli (GPa) = 60.42305 58.99347 84.68486
#
# Poissons Ratio (x) = 0.10253 -0.10461
# Poissons Ratio (y) = 0.10501 0.31348
# Poissons Ratio (z) = -0.07464 0.21837
#
# Static dielectric constant tensor:
#      x y z
#    x 1.886510 0.000000 0.000000 
#    y 0.000000 2.021370 0.000000 
#    z 0.000000 0.000000 1.945890 
# 
# From -- ./inp_files/890.got.cif
#   From: 2010.05.17/outbox.cif.g08.bks.cpg/sg19_1_cif.got.tgz:890.got - 2010.06.03 22:46:19.
