data_PCOD9315746
_publ_section_title
;
Structure prediction by ZEFSAII (Michael W. Deem and Ramdas Pophale) SiO2 
 PCOD9315746
Probable space group: P 21 21 21
;
_chemical_formula_sum "Si O2"
_cell_formula_units_Z 32
_cell_length_a 9.456244
_cell_length_b 13.808579
_cell_length_c 9.361177
_cell_angle_alpha 90.000000
_cell_angle_beta 90.000000
_cell_angle_gamma 90.000000
_cell_volume 1222.357146
_symmetry_space_group_name_H-M "P 21 21 21"
_symmetry_group_IT_number 19
_symmetry_cell_setting 'orthorhombic'
loop_
_space_group_symop_operation_xyz
x,y,z
1/2-x,-y,1/2+z
1/2+x,1/2-y,-z
-x,1/2+y,1/2-z
loop_
_atom_site_type_symbol
_atom_site_label
_atom_site_fract_x
_atom_site_fract_y
_atom_site_fract_z
Si Si1 0.421773 0.606957 0.727080
Si Si2 0.037571 0.011417 0.542371
Si Si3 0.816283 0.478011 0.310990
Si Si4 0.406806 0.272752 0.455352
Si Si5 0.803988 0.697241 0.286966
Si Si6 0.831991 0.821286 0.852421
Si Si7 0.855804 0.669267 0.612129
Si Si8 0.886624 0.031578 0.818073
O O1 0.476925 0.557772 0.579247
O O2 0.525963 0.557648 0.840181
O O3 0.427173 0.722835 0.724481
O O4 0.255770 0.582393 0.740154
O O5 0.970053 0.118542 0.545405
O O6 0.206906 0.016924 0.558058
O O7 0.984189 0.978565 0.698925
O O8 0.834527 0.586088 0.247960
O O9 0.742599 0.401944 0.204876
O O10 0.319887 0.233850 0.317283
O O11 0.544450 0.209427 0.457087
O O12 0.306003 0.268270 0.589378
O O13 0.786290 0.691368 0.459033
O O14 0.866513 0.769714 0.701030
O O15 0.816912 0.935014 0.882544
O O16 0.007727 0.609898 0.606564
#
# Coordination Sequence:
#
# PCOD9315746 Si02
#       8
#     4   4   4   4   4   4   4   4
#     4  12  26  47  79 120 159 213 281 336 409 506
#     4  11  23  52  75 108 169 209 269 346 417 482
#     4  11  27  48  79 112 167 214 262 343 412 493
#     4  12  26  48  80 116 160 217 280 343 409 512
#     4  12  28  50  85 122 165 220 288 333 425 500
#     4  12  26  50  80 115 162 218 273 346 423 485
#     4  11  26  50  80 116 167 221 273 345 422 493
#     4  11  24  45  76 113 157 208 268 342 405 487
#
# _framework density 26.178927999999999
#
# number of rings (size 3 to 8) (size 9 to 14) (size 15 to 20)
#    0.000    0.500    5.000    3.000    1.750    9.000 
#    0.000    0.000    0.000    0.000    0.000    0.000 
#    0.000    0.000    0.000    0.000    0.000    0.000 
#
# Total GULP energy -178910.527622 kJ/mol
# GULP energy per Si atom -5590.953988 kJ/mol
# Density = 2.611934 g / cm^3
# Si number density = 26.178928 Si / 1000 Ang^3
#
#
#
# Elastic Constant Matrix: (Units=GPa)
#
#
# Indices 1 2 3 4 5 6 
#
# 1 88.7847 56.7583 -6.1635 0.0000 0.0000 0.0000
# 2 56.7583 190.2238 26.2813 0.0000 0.0000 0.0000
# 3 -6.1635 26.2813 78.6891 0.0000 0.0000 0.0000
# 4 0.0000 0.0000 0.0000 40.9757 0.0000 0.0000
# 5 0.0000 0.0000 0.0000 0.0000 38.3698 0.0000
# 6 0.0000 0.0000 0.0000 0.0000 0.0000 46.5750
#
#
#
# Elastic Compliance Matrix: (Units=1/GPa)
#
#
# Indices 1 2 3 4 5 6 
#
# 1 0.014443 -0.004682 0.002695 0.000000 0.000000 0.000000
# 2 -0.004682 0.007029 -0.002714 0.000000 0.000000 0.000000
# 3 0.002695 -0.002714 0.013826 0.000000 0.000000 0.000000
# 4 0.000000 0.000000 0.000000 0.024405 0.000000 0.000000
# 5 0.000000 0.000000 0.000000 0.000000 0.026062 0.000000
# 6 0.000000 0.000000 0.000000 0.000000 0.000000 0.021471
#
#
# Mechanical properties :
#
#
# Convention : Reuss Voigt Hill
#
# Bulk Modulus (GPa) = 38.61634 56.82774 47.72204
# Shear Modulus (GPa) = 39.91376 43.90553 41.90964
#
# Velocity S-wave (km/s) = 3.90892 4.09972 4.00546
# Velocity P-wave (km/s) = 5.92923 6.64567 6.29764
#
# Compressibility (1/GPa) = 0.02589578
#
# Stress axis : x y z
#
# Youngs Moduli (GPa) = 69.23609 142.26895 72.32810
#
# Poissons Ratio (x) = 0.66609 -0.19492
# Poissons Ratio (y) = 0.32416 0.19632
# Poissons Ratio (z) = -0.18659 0.38616
#
# Static dielectric constant tensor:
#      x y z
#    x 2.028550 0.000000 0.000000 
#    y 0.000000 2.111290 0.000000 
#    z 0.000000 0.000000 2.192770 
# 
# From -- ./inp_files/4703.got.cif
#   From: 2010.05.17/outbox.cif.g08.bks.cpg/sg19_3_cif.got.tgz:4703.got - 2010.06.03 22:46:19.
