data_PCOD9315507
_publ_section_title
;
Structure prediction by ZEFSAII (Michael W. Deem and Ramdas Pophale) SiO2 
 PCOD9315507
Probable space group: P 21 21 21
;
_chemical_formula_sum "Si O2"
_cell_formula_units_Z 32
_cell_length_a 12.340538
_cell_length_b 7.376194
_cell_length_c 12.620858
_cell_angle_alpha 90.000000
_cell_angle_beta 90.000000
_cell_angle_gamma 90.000000
_cell_volume 1148.828774
_symmetry_space_group_name_H-M "P 21 21 21"
_symmetry_group_IT_number 19
_symmetry_cell_setting 'orthorhombic'
loop_
_space_group_symop_operation_xyz
x,y,z
1/2-x,-y,1/2+z
1/2+x,1/2-y,-z
-x,1/2+y,1/2-z
loop_
_atom_site_type_symbol
_atom_site_label
_atom_site_fract_x
_atom_site_fract_y
_atom_site_fract_z
Si Si1 0.883395 0.079636 0.381655
Si Si2 0.291898 0.997546 0.921892
Si Si3 0.688698 0.878884 0.121095
Si Si4 0.603934 0.853310 0.655594
Si Si5 0.704386 0.378269 0.355070
Si Si6 0.057270 0.605802 0.576071
Si Si7 0.992339 0.773986 0.764015
Si Si8 0.296289 0.778846 0.586662
O O1 0.876983 0.104886 0.509648
O O2 0.947339 0.129904 0.273114
O O3 0.776655 0.201321 0.358536
O O4 0.881211 0.863507 0.375101
O O5 0.194545 0.118178 0.974312
O O6 0.347598 0.922426 0.030327
O O7 0.363093 0.144155 0.863333
O O8 0.248612 0.813807 0.875943
O O9 0.595019 0.851129 0.206052
O O10 0.782244 0.026775 0.146939
O O11 0.537570 0.916150 0.550408
O O12 0.613379 0.350924 0.271069
O O13 0.776566 0.553981 0.336194
O O14 0.025799 0.424090 0.642969
O O15 0.186180 0.657514 0.577294
O O16 0.008425 0.782728 0.636969
#
# Coordination Sequence:
#
# PCOD9315507 Si02
#       8
#     4   4   4   4   4   4   4   4
#     4  11  20  40  69  92 128 170 220 270 323 393
#     4   8  19  38  61  89 125 164 214 264 315 390
#     4  11  22  40  60 100 126 165 221 265 328 388
#     4  11  23  40  67  91 128 171 217 273 321 391
#     4   9  19  38  64  94 126 166 210 269 328 372
#     4  11  22  41  57  96 127 167 213 264 335 375
#     4  12  24  37  67  94 136 167 209 285 325 387
#     4   9  17  38  63  86 124 160 212 262 309 384
#
# _framework density 27.854457
#
# number of rings (size 3 to 8) (size 9 to 14) (size 15 to 20)
#    0.750    1.000    3.750    2.250    0.000    3.000 
#    2.250    0.000    2.750    0.000    0.000    0.000 
#    0.000    0.000    0.000    0.000    0.000    0.000 
#
# Total GULP energy -178493.397911 kJ/mol
# GULP energy per Si atom -5577.918685 kJ/mol
# Density = 2.779106 g / cm^3
# Si number density = 27.854457 Si / 1000 Ang^3
#
#
#
# Elastic Constant Matrix: (Units=GPa)
#
#
# Indices 1 2 3 4 5 6 
#
# 1 63.0564 22.7817 2.8463 0.0000 0.0000 0.0000
# 2 22.7817 160.2404 28.8637 0.0000 0.0000 0.0000
# 3 2.8463 28.8637 151.4633 0.0000 0.0000 0.0000
# 4 0.0000 0.0000 0.0000 36.0350 0.0000 0.0000
# 5 0.0000 0.0000 0.0000 0.0000 29.8309 0.0000
# 6 0.0000 0.0000 0.0000 0.0000 0.0000 29.4242
#
#
#
# Elastic Compliance Matrix: (Units=1/GPa)
#
#
# Indices 1 2 3 4 5 6 
#
# 1 0.016721 -0.002403 0.000144 0.000000 0.000000 0.000000
# 2 -0.002403 0.006808 -0.001252 0.000000 0.000000 0.000000
# 3 0.000144 -0.001252 0.006838 0.000000 0.000000 0.000000
# 4 0.000000 0.000000 0.000000 0.027751 0.000000 0.000000
# 5 0.000000 0.000000 0.000000 0.000000 0.033522 0.000000
# 6 0.000000 0.000000 0.000000 0.000000 0.000000 0.033986
#
#
# Mechanical properties :
#
#
# Convention : Reuss Voigt Hill
#
# Bulk Modulus (GPa) = 42.83851 53.74927 48.29389
# Shear Modulus (GPa) = 35.60507 40.40926 38.00716
#
# Velocity S-wave (km/s) = 3.57915 3.81298 3.69791
# Velocity P-wave (km/s) = 5.70028 6.22281 5.96727
#
# Compressibility (1/GPa) = 0.02334348
#
# Stress axis : x y z
#
# Youngs Moduli (GPa) = 59.80671 146.88972 146.23773
#
# Poissons Ratio (x) = 0.35299 -0.02102
# Poissons Ratio (y) = 0.14372 0.18312
# Poissons Ratio (z) = -0.00860 0.18393
#
# Static dielectric constant tensor:
#      x y z
#    x 2.254280 0.000000 0.000000 
#    y 0.000000 2.165710 0.000000 
#    z 0.000000 0.000000 2.329250 
# 
# From -- ./inp_files/5562.got.cif
#   From: 2010.05.17/outbox.cif.g08.bks.cpg/sg19_3_cif.got.tgz:5562.got - 2010.06.03 22:46:19.
