data_PCOD9315680
_publ_section_title
;
Structure prediction by ZEFSAII (Michael W. Deem and Ramdas Pophale) SiO2 
 PCOD9315680
Probable space group: P 21 21 21
;
_chemical_formula_sum "Si O2"
_cell_formula_units_Z 28
_cell_length_a 4.899103
_cell_length_b 22.774048
_cell_length_c 9.022263
_cell_angle_alpha 90.000000
_cell_angle_beta 90.000000
_cell_angle_gamma 90.000000
_cell_volume 1006.635598
_symmetry_space_group_name_H-M "P 21 21 21"
_symmetry_group_IT_number 19
_symmetry_cell_setting 'orthorhombic'
loop_
_space_group_symop_operation_xyz
x,y,z
1/2-x,-y,1/2+z
1/2+x,1/2-y,-z
-x,1/2+y,1/2-z
loop_
_atom_site_type_symbol
_atom_site_label
_atom_site_fract_x
_atom_site_fract_y
_atom_site_fract_z
Si Si1 0.748246 0.096714 0.411326
Si Si2 0.371309 0.283733 0.244709
Si Si3 0.746661 0.559486 0.904016
Si Si4 0.146645 0.731707 0.043874
Si Si5 0.225356 0.180514 0.036282
Si Si6 0.076542 0.559577 0.402339
Si Si7 0.590028 0.106883 0.857395
O O1 0.444777 0.093465 0.476940
O O2 0.766678 0.063971 0.253835
O O3 0.952327 0.067133 0.531168
O O4 0.832990 0.165494 0.396727
O O5 0.123783 0.268681 0.399256
O O6 0.601012 0.291124 0.109811
O O7 0.275939 0.352408 0.244604
O O8 0.235634 0.226477 0.165920
O O9 0.639426 0.492936 0.902003
O O10 0.660684 0.584460 0.742447
O O11 0.912363 0.729825 0.886095
O O12 0.511722 0.154035 0.983703
O O13 0.072500 0.121720 0.084195
O O14 0.259541 0.556484 0.551005
#
# Coordination Sequence:
#
# PCOD9315680 Si02
#       7
#     4   4   4   4   4   4   4
#     4  12  28  51  74 113 149 197 251 311 375 448
#     4  11  23  43  70 105 144 193 242 307 373 456
#     4  12  28  50  77 104 155 199 252 310 379 450
#     4  12  27  44  74 105 150 192 238 301 377 444
#     4  11  24  42  73 106 145 188 250 308 376 447
#     4  11  29  45  75 109 143 198 257 313 371 445
#     4  11  25  47  75 108 146 199 250 306 381 450
#
# _framework density 27.815428000000001
#
# number of rings (size 3 to 8) (size 9 to 14) (size 15 to 20)
#    0.000    0.571    2.857    3.429   12.000    0.000 
#    0.000    0.000    0.000    0.000    0.000    0.000 
#    0.000    0.000    0.000    0.000    0.000    0.000 
#
# Total GULP energy -156915.249599 kJ/mol
# GULP energy per Si atom -5604.116057 kJ/mol
# Density = 2.775212 g / cm^3
# Si number density = 27.815428 Si / 1000 Ang^3
#
#
#
# Elastic Constant Matrix: (Units=GPa)
#
#
# Indices 1 2 3 4 5 6 
#
# 1 138.7653 37.9074 18.4906 0.0000 0.0000 0.0000
# 2 37.9074 138.2109 59.7111 0.0000 0.0000 0.0000
# 3 18.4906 59.7111 173.8645 0.0000 0.0000 0.0000
# 4 0.0000 0.0000 0.0000 51.9681 0.0000 0.0000
# 5 0.0000 0.0000 0.0000 0.0000 35.9584 0.0000
# 6 0.0000 0.0000 0.0000 0.0000 0.0000 49.2813
#
#
#
# Elastic Compliance Matrix: (Units=1/GPa)
#
#
# Indices 1 2 3 4 5 6 
#
# 1 0.007792 -0.002089 -0.000111 0.000000 0.000000 0.000000
# 2 -0.002089 0.009056 -0.002888 0.000000 0.000000 0.000000
# 3 -0.000111 -0.002888 0.006755 0.000000 0.000000 0.000000
# 4 0.000000 0.000000 0.000000 0.019243 0.000000 0.000000
# 5 0.000000 0.000000 0.000000 0.000000 0.027810 0.000000
# 6 0.000000 0.000000 0.000000 0.000000 0.000000 0.020292
#
#
# Mechanical properties :
#
#
# Convention : Reuss Voigt Hill
#
# Bulk Modulus (GPa) = 74.47863 75.89543 75.18703
# Shear Modulus (GPa) = 47.34876 49.75698 48.55287
#
# Velocity S-wave (km/s) = 4.13031 4.23404 4.18250
# Velocity P-wave (km/s) = 7.04131 7.15873 7.10026
#
# Compressibility (1/GPa) = 0.01342667
#
# Stress axis : x y z
#
# Youngs Moduli (GPa) = 128.33818 110.42434 148.03272
#
# Poissons Ratio (x) = 0.23068 0.01646
# Poissons Ratio (y) = 0.26811 0.42751
# Poissons Ratio (z) = 0.01427 0.31890
#
# Static dielectric constant tensor:
#      x y z
#    x 2.194350 0.000000 0.000000 
#    y 0.000000 2.089040 0.000000 
#    z 0.000000 0.000000 2.339910 
# 
# From -- ./inp_files/2425.got.cif
#   From: 2010.05.17/outbox.cif.g08.bks.cpg/sg19_2_cif.got.tgz:2425.got - 2010.06.03 22:46:19.
