data_PCOD9315282
_publ_section_title
;
Structure prediction by ZEFSAII (Michael W. Deem and Ramdas Pophale) SiO2 
 PCOD9315282
Probable space group: P 21 21 21
;
_chemical_formula_sum "Si O2"
_cell_formula_units_Z 28
_cell_length_a 8.315982
_cell_length_b 6.788810
_cell_length_c 18.543740
_cell_angle_alpha 90.000000
_cell_angle_beta 90.000000
_cell_angle_gamma 90.000000
_cell_volume 1046.898371
_symmetry_space_group_name_H-M "P 21 21 21"
_symmetry_group_IT_number 19
_symmetry_cell_setting 'orthorhombic'
loop_
_space_group_symop_operation_xyz
x,y,z
1/2-x,-y,1/2+z
1/2+x,1/2-y,-z
-x,1/2+y,1/2-z
loop_
_atom_site_type_symbol
_atom_site_label
_atom_site_fract_x
_atom_site_fract_y
_atom_site_fract_z
Si Si1 0.396019 0.910272 0.843702
Si Si2 0.440474 0.504988 0.528133
Si Si3 0.943165 0.513462 0.600873
Si Si4 0.214731 0.088004 0.040875
Si Si5 0.661595 0.306691 0.336416
Si Si6 0.598481 0.820501 0.712050
Si Si7 0.862676 0.975606 0.630559
O O1 0.515886 0.851845 0.908509
O O2 0.434382 0.145092 0.841716
O O3 0.209407 0.903483 0.862179
O O4 0.447806 0.854377 0.763241
O O5 0.328808 0.685275 0.552552
O O6 0.618149 0.577309 0.503307
O O7 0.368424 0.438877 0.450788
O O8 0.918492 0.509358 0.514911
O O9 0.918358 0.744642 0.621838
O O10 0.099545 0.392846 0.624696
O O11 0.245892 0.958630 0.111205
O O12 0.763848 0.248722 0.267741
O O13 0.496942 0.424397 0.319725
O O14 0.685203 0.987984 0.665038
#
# Coordination Sequence:
#
# PCOD9315282 Si02
#       7
#     4   4   4   4   4   4   4
#     4  10  24  43  65  97 135 173 220 283 341 402
#     4   9  19  43  69  93 132 176 227 269 328 398
#     4   9  21  45  67  95 136 175 228 279 328 403
#     4   9  20  39  66 102 131 176 226 277 332 397
#     4  11  24  40  67 101 130 180 227 272 340 405
#     4  11  26  42  64 100 136 173 224 280 347 398
#     4   9  22  44  68  94 128 181 224 272 330 395
#
# _framework density 26.745673
#
# number of rings (size 3 to 8) (size 9 to 14) (size 15 to 20)
#    0.000    2.286    0.000    0.857    8.000    6.857 
#    0.000   10.000    0.000    0.000    0.000    0.000 
#    0.000    0.000    0.000    0.000    0.000    0.000 
#
# Total GULP energy -156710.777127 kJ/mol
# GULP energy per Si atom -5596.813469 kJ/mol
# Density = 2.668480 g / cm^3
# Si number density = 26.745673 Si / 1000 Ang^3
#
#
#
# Elastic Constant Matrix: (Units=GPa)
#
#
# Indices 1 2 3 4 5 6 
#
# 1 56.9000 24.3884 34.3911 0.0000 0.0000 0.0000
# 2 24.3884 70.7122 7.0962 0.0000 0.0000 0.0000
# 3 34.3911 7.0962 112.8638 0.0000 0.0000 0.0000
# 4 0.0000 0.0000 0.0000 49.9127 0.0000 0.0000
# 5 0.0000 0.0000 0.0000 0.0000 62.0896 0.0000
# 6 0.0000 0.0000 0.0000 0.0000 0.0000 59.3076
#
#
#
# Elastic Compliance Matrix: (Units=1/GPa)
#
#
# Indices 1 2 3 4 5 6 
#
# 1 0.025387 -0.008030 -0.007231 0.000000 0.000000 0.000000
# 2 -0.008030 0.016772 0.001392 0.000000 0.000000 0.000000
# 3 -0.007231 0.001392 0.010976 0.000000 0.000000 0.000000
# 4 0.000000 0.000000 0.000000 0.020035 0.000000 0.000000
# 5 0.000000 0.000000 0.000000 0.000000 0.016106 0.000000
# 6 0.000000 0.000000 0.000000 0.000000 0.000000 0.016861
#
#
# Mechanical properties :
#
#
# Convention : Reuss Voigt Hill
#
# Bulk Modulus (GPa) = 39.37418 41.35860 40.36639
# Shear Modulus (GPa) = 35.12715 45.90199 40.51457
#
# Velocity S-wave (km/s) = 3.62799 4.14725 3.89628
# Velocity P-wave (km/s) = 5.68361 6.19920 5.94699
#
# Compressibility (1/GPa) = 0.02539735
#
# Stress axis : x y z
#
# Youngs Moduli (GPa) = 39.39015 59.62422 91.10756
#
# Poissons Ratio (x) = 0.47880 0.65879
# Poissons Ratio (y) = 0.31631 -0.12686
# Poissons Ratio (z) = 0.28483 -0.08302
#
# Static dielectric constant tensor:
#      x y z
#    x 2.076370 0.000000 0.000000 
#    y 0.000000 2.175590 0.000000 
#    z 0.000000 0.000000 2.103780 
# 
# From -- ./inp_files/6578.got.cif
#   From: 2010.05.17/outbox.cif.g08.bks.cpg/sg19_4_cif.got.tgz:6578.got - 2010.06.03 22:46:19.
