data_PCOD9315366
_publ_section_title
;
Structure prediction by ZEFSAII (Michael W. Deem and Ramdas Pophale) SiO2 
 PCOD9315366
Probable space group: P 21 21 21
;
_chemical_formula_sum "Si O2"
_cell_formula_units_Z 20
_cell_length_a 5.377673
_cell_length_b 10.879569
_cell_length_c 12.494287
_cell_angle_alpha 90.000000
_cell_angle_beta 90.000000
_cell_angle_gamma 90.000000
_cell_volume 731.000307
_symmetry_space_group_name_H-M "P 21 21 21"
_symmetry_group_IT_number 19
_symmetry_cell_setting 'orthorhombic'
loop_
_space_group_symop_operation_xyz
x,y,z
1/2-x,-y,1/2+z
1/2+x,1/2-y,-z
-x,1/2+y,1/2-z
loop_
_atom_site_type_symbol
_atom_site_label
_atom_site_fract_x
_atom_site_fract_y
_atom_site_fract_z
Si Si1 0.148990 0.402972 0.530231
Si Si2 0.641815 0.352132 0.398019
Si Si3 0.516500 0.347207 0.059777
Si Si4 0.353844 0.791456 0.682084
Si Si5 0.120651 0.951931 0.290192
O O1 0.896283 0.388286 0.460655
O O2 0.135330 0.294624 0.616174
O O3 0.394914 0.380612 0.462727
O O4 0.172394 0.539096 0.575089
O O5 0.647345 0.425348 0.289267
O O6 0.424544 0.236625 0.135563
O O7 0.769641 0.413848 0.095405
O O8 0.514757 0.316142 0.933902
O O9 0.441149 0.663625 0.736032
O O10 0.418275 0.905542 0.760319
#
# Coordination Sequence:
#
# PCOD9315366 Si02
#       5
#     4   4   4   4   4
#     4  10  24  46  79 112 163 217 270 357 415 503
#     4  10  24  46  77 118 159 211 285 339 424 502
#     4  12  28  50  81 114 172 217 278 354 432 500
#     4  12  30  54  81 121 167 221 283 353 430 513
#     4  12  30  50  82 121 163 226 282 345 429 518
#
# _framework density 27.359772
#
# number of rings (size 3 to 8) (size 9 to 14) (size 15 to 20)
#    0.000    0.800    4.000    0.000   14.000    1.600 
#    0.000    0.000    0.000    0.000    0.000    0.000 
#    0.000    0.000    0.000    0.000    0.000    0.000 
#
# Total GULP energy -111803.571496 kJ/mol
# GULP energy per Si atom -5590.178575 kJ/mol
# Density = 2.729750 g / cm^3
# Si number density = 27.359772 Si / 1000 Ang^3
#
#
#
# Elastic Constant Matrix: (Units=GPa)
#
#
# Indices 1 2 3 4 5 6 
#
# 1 114.7979 62.1239 19.2506 0.0000 0.0000 0.0000
# 2 62.1239 192.2649 79.5256 0.0000 0.0000 0.0000
# 3 19.2506 79.5256 68.0301 0.0000 0.0000 0.0000
# 4 0.0000 0.0000 0.0000 44.7674 0.0000 0.0000
# 5 0.0000 0.0000 0.0000 0.0000 42.3929 0.0000
# 6 0.0000 0.0000 0.0000 0.0000 0.0000 45.6430
#
#
#
# Elastic Compliance Matrix: (Units=1/GPa)
#
#
# Indices 1 2 3 4 5 6 
#
# 1 0.010690 -0.004265 0.001961 0.000000 0.000000 0.000000
# 2 -0.004265 0.011772 -0.012554 0.000000 0.000000 0.000000
# 3 0.001961 -0.012554 0.028820 0.000000 0.000000 0.000000
# 4 0.000000 0.000000 0.000000 0.022338 0.000000 0.000000
# 5 0.000000 0.000000 0.000000 0.000000 0.023589 0.000000
# 6 0.000000 0.000000 0.000000 0.000000 0.000000 0.021909
#
#
# Mechanical properties :
#
#
# Convention : Reuss Voigt Hill
#
# Bulk Modulus (GPa) = 46.37070 77.43256 61.90163
# Shear Modulus (GPa) = 32.04623 40.84018 36.44320
#
# Velocity S-wave (km/s) = 3.42612 3.86775 3.65362
# Velocity P-wave (km/s) = 5.71283 6.95047 6.36182
#
# Compressibility (1/GPa) = 0.02156534
#
# Stress axis : x y z
#
# Youngs Moduli (GPa) = 93.54225 84.94578 34.69773
#
# Poissons Ratio (x) = 0.36233 -0.06804
# Poissons Ratio (y) = 0.39899 0.43561
# Poissons Ratio (z) = -0.18344 1.06645
#
# Static dielectric constant tensor:
#      x y z
#    x 2.248750 0.000000 0.000000 
#    y 0.000000 2.166400 0.000000 
#    z 0.000000 0.000000 2.143080 
# 
# From -- ./inp_files/4412.got.cif
#   From: 2010.05.17/outbox.cif.g08.bks.cpg/sg19_3_cif.got.tgz:4412.got - 2010.06.03 22:46:19.
