data_PCOD9315273
_publ_section_title
;
Structure prediction by ZEFSAII (Michael W. Deem and Ramdas Pophale) SiO2 
 PCOD9315273
Probable space group: P 21 21 21
;
_chemical_formula_sum "Si O2"
_cell_formula_units_Z 28
_cell_length_a 5.493053
_cell_length_b 14.026652
_cell_length_c 13.340405
_cell_angle_alpha 90.000000
_cell_angle_beta 90.000000
_cell_angle_gamma 90.000000
_cell_volume 1027.866771
_symmetry_space_group_name_H-M "P 21 21 21"
_symmetry_group_IT_number 19
_symmetry_cell_setting 'orthorhombic'
loop_
_space_group_symop_operation_xyz
x,y,z
1/2-x,-y,1/2+z
1/2+x,1/2-y,-z
-x,1/2+y,1/2-z
loop_
_atom_site_type_symbol
_atom_site_label
_atom_site_fract_x
_atom_site_fract_y
_atom_site_fract_z
Si Si1 0.570839 0.984553 0.947760
Si Si2 0.795263 0.354163 0.251272
Si Si3 0.212181 0.370881 0.389971
Si Si4 0.422796 0.911080 0.447652
Si Si5 0.575674 0.696570 0.203657
Si Si6 0.242976 0.455173 0.758462
Si Si7 0.560030 0.295614 0.871352
O O1 0.665214 0.888602 0.002790
O O2 0.557556 0.978647 0.826792
O O3 0.308366 0.024167 0.981603
O O4 0.807210 0.050134 0.968037
O O5 0.610399 0.396528 0.170089
O O6 0.650248 0.267214 0.299973
O O7 0.943008 0.396402 0.345681
O O8 0.984550 0.307078 0.170932
O O9 0.239385 0.258655 0.363019
O O10 0.342613 0.456200 0.325824
O O11 0.408474 0.813797 0.511832
O O12 0.469032 0.592318 0.189822
O O13 0.688607 0.687426 0.313849
O O14 0.369428 0.374268 0.827728
#
# Coordination Sequence:
#
# PCOD9315273 Si02
#       7
#     4   4   4   4   4   4   4
#     4  12  28  45  77 110 144 204 254 298 382 440
#     4  10  24  42  70 104 148 191 246 311 379 440
#     4  11  23  48  71 106 148 195 247 313 364 448
#     4  12  26  45  71 114 144 194 250 308 378 458
#     4  10  24  44  72 102 146 194 244 310 376 428
#     4  11  23  48  71 106 148 195 247 313 364 448
#     4  10  24  42  70 104 148 191 246 311 379 440
#
# _framework density 27.240884999999999
#
# number of rings (size 3 to 8) (size 9 to 14) (size 15 to 20)
#    0.000    1.143    2.857    1.714   10.000    1.143 
#    7.714    0.000    0.000    0.000    0.000    0.000 
#    0.000    0.000    0.000    0.000    0.000    0.000 
#
# Total GULP energy -156252.165943 kJ/mol
# GULP energy per Si atom -5580.434498 kJ/mol
# Density = 2.717888 g / cm^3
# Si number density = 27.240885 Si / 1000 Ang^3
#
#
#
# Elastic Constant Matrix: (Units=GPa)
#
#
# Indices 1 2 3 4 5 6 
#
# 1 108.2926 5.0383 17.9947 0.0000 0.0000 0.0000
# 2 5.0383 80.9922 18.8823 0.0000 0.0000 0.0000
# 3 17.9947 18.8823 86.0958 0.0000 0.0000 0.0000
# 4 0.0000 0.0000 0.0000 34.5170 0.0000 0.0000
# 5 0.0000 0.0000 0.0000 0.0000 34.7363 0.0000
# 6 0.0000 0.0000 0.0000 0.0000 0.0000 46.8166
#
#
#
# Elastic Compliance Matrix: (Units=1/GPa)
#
#
# Indices 1 2 3 4 5 6 
#
# 1 0.009568 -0.000136 -0.001970 0.000000 0.000000 0.000000
# 2 -0.000136 0.013014 -0.002826 0.000000 0.000000 0.000000
# 3 -0.001970 -0.002826 0.012646 0.000000 0.000000 0.000000
# 4 0.000000 0.000000 0.000000 0.028971 0.000000 0.000000
# 5 0.000000 0.000000 0.000000 0.000000 0.028788 0.000000
# 6 0.000000 0.000000 0.000000 0.000000 0.000000 0.021360
#
#
# Mechanical properties :
#
#
# Convention : Reuss Voigt Hill
#
# Bulk Modulus (GPa) = 39.42424 39.91235 39.66830
# Shear Modulus (GPa) = 37.68852 38.77834 38.23343
#
# Velocity S-wave (km/s) = 3.72362 3.77707 3.75044
# Velocity P-wave (km/s) = 5.74378 5.80561 5.77478
#
# Compressibility (1/GPa) = 0.02536510
#
# Stress axis : x y z
#
# Youngs Moduli (GPa) = 104.51608 76.83956 79.07357
#
# Poissons Ratio (x) = 0.01044 0.15577
# Poissons Ratio (y) = 0.01421 0.22345
# Poissons Ratio (z) = 0.20589 0.21713
#
# Static dielectric constant tensor:
#      x y z
#    x 2.207320 0.000000 0.000000 
#    y 0.000000 2.221900 0.000000 
#    z 0.000000 0.000000 2.126940 
# 
# From -- ./inp_files/5702.got.cif
#   From: 2010.05.17/outbox.cif.g08.bks.cpg/sg19_3_cif.got.tgz:5702.got - 2010.06.03 22:46:19.
