data_PCOD9315375
_publ_section_title
;
Structure prediction by ZEFSAII (Michael W. Deem and Ramdas Pophale) SiO2 
 PCOD9315375
Probable space group: P 21 21 21
;
_chemical_formula_sum "Si O2"
_cell_formula_units_Z 32
_cell_length_a 12.251164
_cell_length_b 19.383176
_cell_length_c 5.328813
_cell_angle_alpha 90.000000
_cell_angle_beta 90.000000
_cell_angle_gamma 90.000000
_cell_volume 1265.414402
_symmetry_space_group_name_H-M "P 21 21 21"
_symmetry_group_IT_number 19
_symmetry_cell_setting 'orthorhombic'
loop_
_space_group_symop_operation_xyz
x,y,z
1/2-x,-y,1/2+z
1/2+x,1/2-y,-z
-x,1/2+y,1/2-z
loop_
_atom_site_type_symbol
_atom_site_label
_atom_site_fract_x
_atom_site_fract_y
_atom_site_fract_z
Si Si1 0.424581 0.134493 0.498834
Si Si2 0.811502 0.050106 0.465277
Si Si3 0.971593 0.722658 0.098360
Si Si4 0.930405 0.993137 0.088670
Si Si5 0.801730 0.189410 0.226313
Si Si6 0.240272 0.773923 0.763023
Si Si7 0.001636 0.111971 0.783054
Si Si8 0.266686 0.954097 0.178216
O O1 0.505459 0.195439 0.590148
O O2 0.499483 0.067595 0.471593
O O3 0.356323 0.169941 0.272380
O O4 0.325089 0.106733 0.673732
O O5 0.696324 0.014732 0.511491
O O6 0.776883 0.110153 0.269344
O O7 0.881587 0.093285 0.666861
O O8 0.905076 0.995162 0.384712
O O9 0.068215 0.695432 0.271491
O O10 0.861024 0.696417 0.221922
O O11 0.984247 0.690308 0.818982
O O12 0.988979 0.065331 0.032141
O O13 0.767200 0.232207 0.473520
O O14 0.761928 0.224225 0.974141
O O15 0.112487 0.077873 0.672682
O O16 0.251804 0.000286 0.427631
#
# Coordination Sequence:
#
# PCOD9315375 Si02
#       8
#     4   4   4   4   4   4   4   4
#     4  11  25  46  75 115 145 201 252 314 371 455
#     4  11  25  43  71 106 142 201 240 315 369 449
#     4  10  24  47  75 104 150 195 248 310 373 447
#     4  12  24  45  72 107 149 189 258 305 379 447
#     4  10  26  44  74 103 145 192 247 293 376 442
#     4  11  24  50  71 111 149 195 244 312 371 438
#     4  11  24  48  70 105 146 203 242 308 378 446
#     4  12  26  49  76 109 154 198 251 309 375 452
#
# _framework density 25.288160000000001
#
# number of rings (size 3 to 8) (size 9 to 14) (size 15 to 20)
#    0.000    1.000    3.750    1.500    5.250    6.000 
#    9.000    0.000    0.000    0.000    0.000    0.000 
#    0.000    0.000    0.000    0.000    0.000    0.000 
#
# Total GULP energy -178558.734419 kJ/mol
# GULP energy per Si atom -5579.960451 kJ/mol
# Density = 2.523060 g / cm^3
# Si number density = 25.288160 Si / 1000 Ang^3
#
#
#
# Elastic Constant Matrix: (Units=GPa)
#
#
# Indices 1 2 3 4 5 6 
#
# 1 114.9143 9.9951 -0.1618 0.0000 0.0000 0.0000
# 2 9.9951 110.6640 25.1948 0.0000 0.0000 0.0000
# 3 -0.1618 25.1948 57.8133 0.0000 0.0000 0.0000
# 4 0.0000 0.0000 0.0000 28.4261 0.0000 0.0000
# 5 0.0000 0.0000 0.0000 0.0000 27.9098 0.0000
# 6 0.0000 0.0000 0.0000 0.0000 0.0000 43.6136
#
#
#
# Elastic Compliance Matrix: (Units=1/GPa)
#
#
# Indices 1 2 3 4 5 6 
#
# 1 0.008780 -0.000887 0.000411 0.000000 0.000000 0.000000
# 2 -0.000887 0.010121 -0.004413 0.000000 0.000000 0.000000
# 3 0.000411 -0.004413 0.019222 0.000000 0.000000 0.000000
# 4 0.000000 0.000000 0.000000 0.035179 0.000000 0.000000
# 5 0.000000 0.000000 0.000000 0.000000 0.035830 0.000000
# 6 0.000000 0.000000 0.000000 0.000000 0.000000 0.022929
#
#
# Mechanical properties :
#
#
# Convention : Reuss Voigt Hill
#
# Bulk Modulus (GPa) = 35.27990 39.27199 37.27594
# Shear Modulus (GPa) = 33.05001 36.54746 34.79873
#
# Velocity S-wave (km/s) = 3.61908 3.80576 3.71359
# Velocity P-wave (km/s) = 5.60759 5.90552 5.75848
#
# Compressibility (1/GPa) = 0.02834475
#
# Stress axis : x y z
#
# Youngs Moduli (GPa) = 113.89752 98.80252 52.02506
#
# Poissons Ratio (x) = 0.08759 -0.02138
# Poissons Ratio (y) = 0.10097 0.22960
# Poissons Ratio (z) = -0.04680 0.43604
#
# Static dielectric constant tensor:
#      x y z
#    x 2.018240 0.000000 0.000000 
#    y 0.000000 2.036310 0.000000 
#    z 0.000000 0.000000 2.330550 
# 
# From -- ./inp_files/1220.got.cif
#   From: 2010.05.17/outbox.cif.g08.bks.cpg/sg19_1_cif.got.tgz:1220.got - 2010.06.03 22:46:19.
