data_PCOD9315644
_publ_section_title
;
Structure prediction by ZEFSAII (Michael W. Deem and Ramdas Pophale) SiO2 
 PCOD9315644
Probable space group: P 21 21 21
;
_chemical_formula_sum "Si O2"
_cell_formula_units_Z 28
_cell_length_a 5.670137
_cell_length_b 10.274905
_cell_length_c 18.416962
_cell_angle_alpha 90.000000
_cell_angle_beta 90.000000
_cell_angle_gamma 90.000000
_cell_volume 1072.974398
_symmetry_space_group_name_H-M "P 21 21 21"
_symmetry_group_IT_number 19
_symmetry_cell_setting 'orthorhombic'
loop_
_space_group_symop_operation_xyz
x,y,z
1/2-x,-y,1/2+z
1/2+x,1/2-y,-z
-x,1/2+y,1/2-z
loop_
_atom_site_type_symbol
_atom_site_label
_atom_site_fract_x
_atom_site_fract_y
_atom_site_fract_z
Si Si1 0.626097 0.659590 0.942687
Si Si2 0.203130 0.130594 0.397067
Si Si3 0.744142 0.051245 0.103948
Si Si4 0.865478 0.438067 0.222830
Si Si5 0.873428 0.701981 0.323068
Si Si6 0.408401 0.210493 0.032796
Si Si7 0.487450 0.350100 0.320285
O O1 0.542329 0.802597 0.918931
O O2 0.422178 0.559639 0.921665
O O3 0.844395 0.636046 0.890839
O O4 0.661341 0.639984 0.027402
O O5 0.335493 0.224574 0.339546
O O6 0.168697 0.995074 0.357347
O O7 0.895111 0.175685 0.127052
O O8 0.555875 0.076633 0.040076
O O9 0.638375 0.989305 0.176484
O O10 0.081403 0.335466 0.220718
O O11 0.652684 0.348422 0.251221
O O12 0.867519 0.567191 0.275574
O O13 0.666616 0.726758 0.382046
O O14 0.645016 0.292898 0.005329
#
# Coordination Sequence:
#
# PCOD9315644 Si02
#       7
#     4   4   4   4   4   4   4
#     4  11  22  49  80 118 166 226 290 366 431 525
#     4  11  26  47  81 123 165 230 301 361 443 525
#     4  11  24  47  80 115 166 217 282 358 444 514
#     4  12  28  51  83 120 176 230 296 362 454 535
#     4  12  28  54  79 125 174 232 290 367 445 537
#     4  12  26  51  85 123 168 221 289 361 440 515
#     4  11  24  47  80 112 167 222 286 361 435 523
#
# _framework density 26.095683999999999
#
# number of rings (size 3 to 8) (size 9 to 14) (size 15 to 20)
#    0.000    0.571    5.714    0.857    4.000    3.429 
#    0.000    0.000    0.000    0.000    0.000    0.000 
#    0.000    0.000    0.000    0.000    0.000    0.000 
#
# Total GULP energy -156265.815126 kJ/mol
# GULP energy per Si atom -5580.921969 kJ/mol
# Density = 2.603629 g / cm^3
# Si number density = 26.095684 Si / 1000 Ang^3
#
#
#
# Elastic Constant Matrix: (Units=GPa)
#
#
# Indices 1 2 3 4 5 6 
#
# 1 102.4620 27.7029 35.5476 0.0000 0.0000 0.0000
# 2 27.7029 90.0862 36.4292 0.0000 0.0000 0.0000
# 3 35.5476 36.4292 112.0929 0.0000 0.0000 0.0000
# 4 0.0000 0.0000 0.0000 47.8522 0.0000 0.0000
# 5 0.0000 0.0000 0.0000 0.0000 58.9136 0.0000
# 6 0.0000 0.0000 0.0000 0.0000 0.0000 15.4813
#
#
#
# Elastic Compliance Matrix: (Units=1/GPa)
#
#
# Indices 1 2 3 4 5 6 
#
# 1 0.011382 -0.002349 -0.002846 0.000000 0.000000 0.000000
# 2 -0.002349 0.013265 -0.003566 0.000000 0.000000 0.000000
# 3 -0.002846 -0.003566 0.010983 0.000000 0.000000 0.000000
# 4 0.000000 0.000000 0.000000 0.020898 0.000000 0.000000
# 5 0.000000 0.000000 0.000000 0.000000 0.016974 0.000000
# 6 0.000000 0.000000 0.000000 0.000000 0.000000 0.064594
#
#
# Mechanical properties :
#
#
# Convention : Reuss Voigt Hill
#
# Bulk Modulus (GPa) = 55.22691 56.00006 55.61348
# Shear Modulus (GPa) = 30.93024 38.11352 34.52188
#
# Velocity S-wave (km/s) = 3.44650 3.82583 3.64111
# Velocity P-wave (km/s) = 6.08662 6.40485 6.24776
#
# Compressibility (1/GPa) = 0.01810712
#
# Stress axis : x y z
#
# Youngs Moduli (GPa) = 87.85547 75.38670 91.05264
#
# Poissons Ratio (x) = 0.17711 0.25915
# Poissons Ratio (y) = 0.20640 0.32469
# Poissons Ratio (z) = 0.25005 0.26883
#
# Static dielectric constant tensor:
#      x y z
#    x 2.244630 0.000000 0.000000 
#    y 0.000000 2.125430 0.000000 
#    z 0.000000 0.000000 2.118180 
# 
# From -- ./inp_files/6888.got.cif
#   From: 2010.05.17/outbox.cif.g08.bks.cpg/sg19_4_cif.got.tgz:6888.got - 2010.06.03 22:46:19.
