data_PCOD9315836
_publ_section_title
;
Structure prediction by ZEFSAII (Michael W. Deem and Ramdas Pophale) SiO2 
 PCOD9315836
Probable space group: P 21 21 21
;
_chemical_formula_sum "Si O2"
_cell_formula_units_Z 28
_cell_length_a 7.734777
_cell_length_b 13.437693
_cell_length_c 12.200891
_cell_angle_alpha 90.000000
_cell_angle_beta 90.000000
_cell_angle_gamma 90.000000
_cell_volume 1268.130825
_symmetry_space_group_name_H-M "P 21 21 21"
_symmetry_group_IT_number 19
_symmetry_cell_setting 'orthorhombic'
loop_
_space_group_symop_operation_xyz
x,y,z
1/2-x,-y,1/2+z
1/2+x,1/2-y,-z
-x,1/2+y,1/2-z
loop_
_atom_site_type_symbol
_atom_site_label
_atom_site_fract_x
_atom_site_fract_y
_atom_site_fract_z
Si Si1 0.486738 0.318817 0.421933
Si Si2 0.067917 0.215464 0.819971
Si Si3 0.945904 0.547948 0.516064
Si Si4 0.228428 0.168079 0.169904
Si Si5 0.453752 0.169916 0.811480
Si Si6 0.411482 0.640662 0.927359
Si Si7 0.133418 0.049122 0.382659
O O1 0.568320 0.329660 0.302476
O O2 0.283640 0.329263 0.403329
O O3 0.527474 0.211510 0.474181
O O4 0.551261 0.396820 0.512770
O O5 0.993177 0.137989 0.908645
O O6 0.273315 0.224550 0.844215
O O7 0.931270 0.306030 0.818958
O O8 0.813807 0.591708 0.426508
O O9 0.831071 0.477702 0.592550
O O10 0.080463 0.475329 0.458589
O O11 0.141873 0.121621 0.278796
O O12 0.116219 0.267063 0.146831
O O13 0.473742 0.161131 0.679831
O O14 0.452339 0.057118 0.855632
#
# Coordination Sequence:
#
# PCOD9315836 Si02
#       7
#     4   4   4   4   4   4   4
#     4  12  24  43  74 103 141 190 243 292 359 425
#     4  11  26  45  70 101 142 191 231 292 361 418
#     4  11  27  45  70 102 145 182 240 302 352 430
#     4  12  25  50  72 102 146 185 239 292 363 426
#     4  11  24  47  69 105 143 182 235 293 359 420
#     4  12  23  44  71 105 143 187 241 298 353 428
#     4  11  25  46  72 102 140 189 231 305 347 429
#
# _framework density 22.079742
#
# number of rings (size 3 to 8) (size 9 to 14) (size 15 to 20)
#    0.000    0.571    4.286    3.429    8.000    0.000 
#    2.571    0.000    0.000    0.000    0.000    0.000 
#    0.000    0.000    0.000    0.000    0.000    0.000 
#
# Total GULP energy -156568.589534 kJ/mol
# GULP energy per Si atom -5591.735340 kJ/mol
# Density = 2.202949 g / cm^3
# Si number density = 22.079742 Si / 1000 Ang^3
#
#
#
# Elastic Constant Matrix: (Units=GPa)
#
#
# Indices 1 2 3 4 5 6 
#
# 1 62.5270 5.1150 -2.6227 0.0000 0.0000 0.0000
# 2 5.1150 51.3234 15.8273 0.0000 0.0000 0.0000
# 3 -2.6227 15.8273 70.7180 0.0000 0.0000 0.0000
# 4 0.0000 0.0000 0.0000 25.9996 0.0000 0.0000
# 5 0.0000 0.0000 0.0000 0.0000 26.2582 0.0000
# 6 0.0000 0.0000 0.0000 0.0000 0.0000 27.7900
#
#
#
# Elastic Compliance Matrix: (Units=1/GPa)
#
#
# Indices 1 2 3 4 5 6 
#
# 1 0.016195 -0.001933 0.001033 0.000000 0.000000 0.000000
# 2 -0.001933 0.021159 -0.004807 0.000000 0.000000 0.000000
# 3 0.001033 -0.004807 0.015255 0.000000 0.000000 0.000000
# 4 0.000000 0.000000 0.000000 0.038462 0.000000 0.000000
# 5 0.000000 0.000000 0.000000 0.000000 0.038083 0.000000
# 6 0.000000 0.000000 0.000000 0.000000 0.000000 0.035984
#
#
# Mechanical properties :
#
#
# Convention : Reuss Voigt Hill
#
# Bulk Modulus (GPa) = 24.27462 24.57862 24.42662
# Shear Modulus (GPa) = 26.27655 27.09282 26.68468
#
# Velocity S-wave (km/s) = 3.45349 3.50672 3.48021
# Velocity P-wave (km/s) = 5.18845 5.24900 5.21882
#
# Compressibility (1/GPa) = 0.04119528
#
# Stress axis : x y z
#
# Youngs Moduli (GPa) = 61.74924 47.26029 65.55267
#
# Poissons Ratio (x) = 0.09133 -0.06773
# Poissons Ratio (y) = 0.11934 0.31513
# Poissons Ratio (z) = -0.06380 0.22720
#
# Static dielectric constant tensor:
#      x y z
#    x 1.785940 0.000000 0.000000 
#    y 0.000000 1.843980 0.000000 
#    z 0.000000 0.000000 1.859840 
# 
# From -- ./inp_files/4590.got.cif
#   From: 2010.05.17/outbox.cif.g08.bks.cpg/sg19_3_cif.got.tgz:4590.got - 2010.06.03 22:46:19.
