data_PCOD9315599
_publ_section_title
;
Structure prediction by ZEFSAII (Michael W. Deem and Ramdas Pophale) SiO2 
 PCOD9315599
Probable space group: P 21 21 21
;
_chemical_formula_sum "Si O2"
_cell_formula_units_Z 32
_cell_length_a 11.988391
_cell_length_b 5.142507
_cell_length_c 20.415134
_cell_angle_alpha 90.000000
_cell_angle_beta 90.000000
_cell_angle_gamma 90.000000
_cell_volume 1258.600864
_symmetry_space_group_name_H-M "P 21 21 21"
_symmetry_group_IT_number 19
_symmetry_cell_setting 'orthorhombic'
loop_
_space_group_symop_operation_xyz
x,y,z
1/2-x,-y,1/2+z
1/2+x,1/2-y,-z
-x,1/2+y,1/2-z
loop_
_atom_site_type_symbol
_atom_site_label
_atom_site_fract_x
_atom_site_fract_y
_atom_site_fract_z
Si Si1 0.457288 0.768529 0.733539
Si Si2 0.822631 0.002223 0.154592
Si Si3 0.339142 0.871673 0.595337
Si Si4 0.067364 0.619997 0.019715
Si Si5 0.399423 0.026322 0.403010
Si Si6 0.838948 0.476404 0.072505
Si Si7 0.897926 0.113016 0.709636
Si Si8 0.093856 0.800994 0.648067
O O1 0.553306 0.543874 0.727863
O O2 0.608878 0.062286 0.719303
O O3 0.396403 0.816537 0.665421
O O4 0.876776 0.221581 0.110605
O O5 0.698104 0.064417 0.177817
O O6 0.825905 0.740063 0.113183
O O7 0.366295 0.621708 0.550367
O O8 0.206541 0.890476 0.611882
O O9 0.394059 0.131424 0.564116
O O10 0.936540 0.548856 0.023396
O O11 0.085834 0.711463 0.945637
O O12 0.290890 0.908209 0.438932
O O13 0.380395 0.113266 0.327683
O O14 0.510970 0.854898 0.400610
O O15 0.017994 0.017675 0.684730
O O16 0.879313 0.126069 0.787220
#
# Coordination Sequence:
#
# PCOD9315599 Si02
#       8
#     4   4   4   4   4   4   4   4
#     4  12  23  41  71 103 143 188 242 300 376 441
#     4  11  22  43  70 105 138 191 237 309 369 448
#     4  12  29  48  74 112 156 202 250 319 384 458
#     4  12  29  51  73 111 152 206 260 310 376 468
#     4  11  28  47  78 110 144 209 252 324 388 457
#     4  11  24  46  75 100 148 191 252 303 372 458
#     4  11  24  46  74 115 146 191 258 319 401 453
#     4  12  25  48  79 112 157 196 257 332 392 469
#
# _framework density 25.425058
#
# number of rings (size 3 to 8) (size 9 to 14) (size 15 to 20)
#    0.000    0.500    3.750    4.500    5.250    0.000 
#    2.250    0.000    0.000    0.000    0.000    0.000 
#    0.000    0.000    0.000    0.000    0.000    0.000 
#
# Total GULP energy -178759.410894 kJ/mol
# GULP energy per Si atom -5586.231590 kJ/mol
# Density = 2.536719 g / cm^3
# Si number density = 25.425058 Si / 1000 Ang^3
#
#
#
# Elastic Constant Matrix: (Units=GPa)
#
#
# Indices 1 2 3 4 5 6 
#
# 1 181.3326 33.2080 61.6392 0.0000 0.0000 0.0000
# 2 33.2080 171.4046 57.6301 0.0000 0.0000 0.0000
# 3 61.6392 57.6301 123.7166 0.0000 0.0000 0.0000
# 4 0.0000 0.0000 0.0000 42.4019 0.0000 0.0000
# 5 0.0000 0.0000 0.0000 0.0000 36.4689 0.0000
# 6 0.0000 0.0000 0.0000 0.0000 0.0000 31.3486
#
#
#
# Elastic Compliance Matrix: (Units=1/GPa)
#
#
# Indices 1 2 3 4 5 6 
#
# 1 0.006645 -0.000207 -0.003215 0.000000 0.000000 0.000000
# 2 -0.000207 0.006924 -0.003122 0.000000 0.000000 0.000000
# 3 -0.003215 -0.003122 0.011139 0.000000 0.000000 0.000000
# 4 0.000000 0.000000 0.000000 0.023584 0.000000 0.000000
# 5 0.000000 0.000000 0.000000 0.000000 0.027421 0.000000
# 6 0.000000 0.000000 0.000000 0.000000 0.000000 0.031899
#
#
# Mechanical properties :
#
#
# Convention : Reuss Voigt Hill
#
# Bulk Modulus (GPa) = 86.05067 86.82317 86.43692
# Shear Modulus (GPa) = 40.13701 43.64230 41.88966
#
# Velocity S-wave (km/s) = 3.97752 4.14757 4.06344
# Velocity P-wave (km/s) = 7.41704 7.56037 7.48905
#
# Compressibility (1/GPa) = 0.01162106
#
# Stress axis : x y z
#
# Youngs Moduli (GPa) = 150.48239 144.42492 89.77383
#
# Poissons Ratio (x) = 0.02984 0.28859
# Poissons Ratio (y) = 0.03109 0.28031
# Poissons Ratio (z) = 0.48374 0.45096
#
# Static dielectric constant tensor:
#      x y z
#    x 2.616570 0.000000 0.000000 
#    y 0.000000 1.925260 0.000000 
#    z 0.000000 0.000000 2.031210 
# 
# From -- ./inp_files/1242.got.cif
#   From: 2010.05.17/outbox.cif.g08.bks.cpg/sg19_1_cif.got.tgz:1242.got - 2010.06.03 22:46:19.
