data_PCOD9315827
_publ_section_title
;
Structure prediction by ZEFSAII (Michael W. Deem and Ramdas Pophale) SiO2 
 PCOD9315827
Probable space group: P 21 21 21
;
_chemical_formula_sum "Si O2"
_cell_formula_units_Z 32
_cell_length_a 21.385331
_cell_length_b 12.064675
_cell_length_c 5.122802
_cell_angle_alpha 90.000000
_cell_angle_beta 90.000000
_cell_angle_gamma 90.000000
_cell_volume 1321.719125
_symmetry_space_group_name_H-M "P 21 21 21"
_symmetry_group_IT_number 19
_symmetry_cell_setting 'orthorhombic'
loop_
_space_group_symop_operation_xyz
x,y,z
1/2-x,-y,1/2+z
1/2+x,1/2-y,-z
-x,1/2+y,1/2-z
loop_
_atom_site_type_symbol
_atom_site_label
_atom_site_fract_x
_atom_site_fract_y
_atom_site_fract_z
Si Si1 0.601200 0.907967 0.546887
Si Si2 0.538714 0.142565 0.691228
Si Si3 0.038563 0.807995 0.682889
Si Si4 0.643493 0.515914 0.277079
Si Si5 0.130536 0.196072 0.452555
Si Si6 0.316997 0.430797 0.462658
Si Si7 0.293476 0.662894 0.282481
Si Si8 0.271403 0.877408 0.584463
O O1 0.556793 0.810607 0.440902
O O2 0.655831 0.914329 0.327066
O O3 0.566519 0.025427 0.592269
O O4 0.633575 0.885599 0.825936
O O5 0.500617 0.195143 0.448731
O O6 0.589606 0.238622 0.754363
O O7 0.497803 0.128498 0.950636
O O8 0.100088 0.878736 0.756894
O O9 0.607179 0.419683 0.434058
O O10 0.707183 0.557532 0.412179
O O11 0.672382 0.453497 0.026663
O O12 0.142304 0.288608 0.670575
O O13 0.200126 0.166222 0.353543
O O14 0.307986 0.563300 0.478441
O O15 0.250982 0.381858 0.552861
O O16 0.261718 0.767750 0.416245
#
# Coordination Sequence:
#
# PCOD9315827 Si02
#       8
#     4   4   4   4   4   4   4   4
#     4  12  27  50  74 108 152 193 257 319 377 454
#     4  12  29  51  75 107 149 207 263 310 383 455
#     4  12  31  48  81 109 151 206 259 324 377 456
#     4  11  26  45  76 114 148 201 250 328 387 465
#     4  11  26  47  75 103 154 201 253 313 384 461
#     4  12  25  45  73 113 154 195 244 311 386 460
#     4  11  26  40  73 111 149 201 238 307 388 469
#     4  11  24  46  75 115 157 194 254 318 404 466
#
# _framework density 24.210892000000001
#
# number of rings (size 3 to 8) (size 9 to 14) (size 15 to 20)
#    0.000    0.500    2.500    3.750   14.000    0.000 
#    0.000    0.000    0.000    0.000    0.000    0.000 
#    0.000    0.000    0.000    0.000    0.000    0.000 
#
# Total GULP energy -179055.902440 kJ/mol
# GULP energy per Si atom -5595.496951 kJ/mol
# Density = 2.415579 g / cm^3
# Si number density = 24.210892 Si / 1000 Ang^3
#
#
#
# Elastic Constant Matrix: (Units=GPa)
#
#
# Indices 1 2 3 4 5 6 
#
# 1 46.4717 15.6529 -6.1490 0.0000 0.0000 0.0000
# 2 15.6529 95.7639 -1.3990 0.0000 0.0000 0.0000
# 3 -6.1490 -1.3990 75.4123 0.0000 0.0000 0.0000
# 4 0.0000 0.0000 0.0000 38.2929 0.0000 0.0000
# 5 0.0000 0.0000 0.0000 0.0000 35.3499 0.0000
# 6 0.0000 0.0000 0.0000 0.0000 0.0000 27.4141
#
#
#
# Elastic Compliance Matrix: (Units=1/GPa)
#
#
# Indices 1 2 3 4 5 6 
#
# 1 0.023016 -0.003736 0.001807 0.000000 0.000000 0.000000
# 2 -0.003736 0.011051 -0.000100 0.000000 0.000000 0.000000
# 3 0.001807 -0.000100 0.013406 0.000000 0.000000 0.000000
# 4 0.000000 0.000000 0.000000 0.026115 0.000000 0.000000
# 5 0.000000 0.000000 0.000000 0.000000 0.028289 0.000000
# 6 0.000000 0.000000 0.000000 0.000000 0.000000 0.036478
#
#
# Mechanical properties :
#
#
# Convention : Reuss Voigt Hill
#
# Bulk Modulus (GPa) = 23.03206 25.98417 24.50812
# Shear Modulus (GPa) = 31.87102 34.18089 33.02596
#
# Velocity S-wave (km/s) = 3.63215 3.76147 3.69737
# Velocity P-wave (km/s) = 5.20805 5.44248 5.32655
#
# Compressibility (1/GPa) = 0.04341774
#
# Stress axis : x y z
#
# Youngs Moduli (GPa) = 43.44824 90.48557 74.59366
#
# Poissons Ratio (x) = 0.33802 -0.13482
# Poissons Ratio (y) = 0.16231 0.00743
# Poissons Ratio (z) = -0.07853 0.00901
#
# Static dielectric constant tensor:
#      x y z
#    x 1.973110 0.000000 0.000000 
#    y 0.000000 1.913930 0.000000 
#    z 0.000000 0.000000 1.962950 
# 
# From -- ./inp_files/2016.got.cif
#   From: 2010.05.17/outbox.cif.g08.bks.cpg/sg19_2_cif.got.tgz:2016.got - 2010.06.03 22:46:19.
