data_PCOD9315582
_publ_section_title
;
Structure prediction by ZEFSAII (Michael W. Deem and Ramdas Pophale) SiO2 
 PCOD9315582
Probable space group: P 21 21 21
;
_chemical_formula_sum "Si O2"
_cell_formula_units_Z 24
_cell_length_a 6.103981
_cell_length_b 6.694661
_cell_length_c 24.769280
_cell_angle_alpha 90.000000
_cell_angle_beta 90.000000
_cell_angle_gamma 90.000000
_cell_volume 1012.173927
_symmetry_space_group_name_H-M "P 21 21 21"
_symmetry_group_IT_number 19
_symmetry_cell_setting 'orthorhombic'
loop_
_space_group_symop_operation_xyz
x,y,z
1/2-x,-y,1/2+z
1/2+x,1/2-y,-z
-x,1/2+y,1/2-z
loop_
_atom_site_type_symbol
_atom_site_label
_atom_site_fract_x
_atom_site_fract_y
_atom_site_fract_z
Si Si1 0.909737 0.586977 0.112874
Si Si2 0.654595 0.538372 0.891311
Si Si3 0.064327 0.600543 0.842622
Si Si4 0.696956 0.113558 0.261745
Si Si5 0.443369 0.243879 0.974764
Si Si6 0.053091 0.271342 0.197959
O O1 0.738192 0.758138 0.128286
O O2 0.891061 0.456989 0.059186
O O3 0.920740 0.424499 0.160298
O O4 0.125328 0.724302 0.108505
O O5 0.509750 0.429159 0.935843
O O6 0.593906 0.427888 0.835494
O O7 0.915373 0.506820 0.890044
O O8 0.133375 0.428354 0.800524
O O9 0.941954 0.750316 0.800891
O O10 0.932218 0.218593 0.253124
O O11 0.731498 0.897306 0.288178
O O12 0.196721 0.288799 0.000119
#
# Coordination Sequence:
#
# PCOD9315582 Si02
#       6
#     4   4   4   4   4   4
#     4  11  25  47  73 104 150 190 245 314 383 447
#     4  11  25  47  73 104 150 190 245 314 383 447
#     4  12  24  40  71 108 144 206 245 298 358 432
#     4  12  22  38  66 104 152 198 260 288 340 436
#     4  11  30  52  83 114 144 190 249 322 394 473
#     4  11  22  42  62 100 152 198 250 304 360 419
#
# _framework density 23.711342999999999
#
# number of rings (size 3 to 8) (size 9 to 14) (size 15 to 20)
#    0.000    0.667    3.333    4.000    4.667    1.333 
#    0.000    0.000    0.000    0.000    0.000    0.000 
#    0.000    0.000    0.000    0.000    0.000    0.000 
#
# Total GULP energy -133739.856896 kJ/mol
# GULP energy per Si atom -5572.494037 kJ/mol
# Density = 2.365738 g / cm^3
# Si number density = 23.711343 Si / 1000 Ang^3
#
#
#
# Elastic Constant Matrix: (Units=GPa)
#
#
# Indices 1 2 3 4 5 6 
#
# 1 91.5276 14.5865 43.1627 0.0000 0.0000 0.0000
# 2 14.5865 107.4139 28.9110 0.0000 0.0000 0.0000
# 3 43.1627 28.9110 63.8343 0.0000 0.0000 0.0000
# 4 0.0000 0.0000 0.0000 39.2418 0.0000 0.0000
# 5 0.0000 0.0000 0.0000 0.0000 47.6236 0.0000
# 6 0.0000 0.0000 0.0000 0.0000 0.0000 49.6285
#
#
#
# Elastic Compliance Matrix: (Units=1/GPa)
#
#
# Indices 1 2 3 4 5 6 
#
# 1 0.016108 0.000847 -0.011275 0.000000 0.000000 0.000000
# 2 0.000847 0.010647 -0.005395 0.000000 0.000000 0.000000
# 3 -0.011275 -0.005395 0.025733 0.000000 0.000000 0.000000
# 4 0.000000 0.000000 0.000000 0.025483 0.000000 0.000000
# 5 0.000000 0.000000 0.000000 0.000000 0.020998 0.000000
# 6 0.000000 0.000000 0.000000 0.000000 0.000000 0.020150
#
#
# Mechanical properties :
#
#
# Convention : Reuss Voigt Hill
#
# Bulk Modulus (GPa) = 47.98065 48.45512 48.21789
# Shear Modulus (GPa) = 31.70338 39.03983 35.37160
#
# Velocity S-wave (km/s) = 3.66054 4.06206 3.86652
# Velocity P-wave (km/s) = 6.17619 6.51769 6.34924
#
# Compressibility (1/GPa) = 0.02084173
#
# Stress axis : x y z
#
# Youngs Moduli (GPa) = 62.08129 93.92492 38.86041
#
# Poissons Ratio (x) = -0.07960 0.43817
# Poissons Ratio (y) = -0.05261 0.20965
# Poissons Ratio (z) = 0.70000 0.50673
#
# Static dielectric constant tensor:
#      x y z
#    x 2.089860 0.000000 0.000000 
#    y 0.000000 1.848420 0.000000 
#    z 0.000000 0.000000 1.901380 
# 
# From -- ./inp_files/7515.got.cif
#   From: 2010.05.17/outbox.cif.g08.bks.cpg/sg19_4_cif.got.tgz:7515.got - 2010.06.03 22:46:19.
