data_PCOD9315389
_publ_section_title
;
Structure prediction by ZEFSAII (Michael W. Deem and Ramdas Pophale) SiO2 
 PCOD9315389
Probable space group: P 21 21 21
;
_chemical_formula_sum "Si O2"
_cell_formula_units_Z 24
_cell_length_a 9.938484
_cell_length_b 8.251878
_cell_length_c 9.657315
_cell_angle_alpha 90.000000
_cell_angle_beta 90.000000
_cell_angle_gamma 90.000000
_cell_volume 792.007581
_symmetry_space_group_name_H-M "P 21 21 21"
_symmetry_group_IT_number 19
_symmetry_cell_setting 'orthorhombic'
loop_
_space_group_symop_operation_xyz
x,y,z
1/2-x,-y,1/2+z
1/2+x,1/2-y,-z
-x,1/2+y,1/2-z
loop_
_atom_site_type_symbol
_atom_site_label
_atom_site_fract_x
_atom_site_fract_y
_atom_site_fract_z
Si Si1 0.369380 0.656892 0.489417
Si Si2 0.859540 0.539663 0.993056
Si Si3 0.679898 0.054871 0.658066
Si Si4 0.865079 0.842864 0.811197
Si Si5 0.665986 0.601467 0.173982
Si Si6 0.873250 0.526414 0.346911
O O1 0.489933 0.531995 0.492072
O O2 0.727779 0.937026 0.531413
O O3 0.870593 0.725123 0.940167
O O4 0.398523 0.786166 0.607698
O O5 0.806791 0.447469 0.843612
O O6 0.679867 0.552196 0.003068
O O7 0.127420 0.250932 0.838946
O O8 0.728546 0.940670 0.785844
O O9 0.519514 0.063447 0.660889
O O10 0.784794 0.206146 0.669417
O O11 0.005647 0.930820 0.817373
O O12 0.835610 0.523170 0.169788
#
# Coordination Sequence:
#
# PCOD9315389 Si02
#       6
#     4   4   4   4   4   4
#     4  10  24  49  72 102 144 192 240 299 369 433
#     4  12  27  46  76 106 146 199 248 294 375 449
#     4  10  26  44  73 108 138 187 241 307 362 429
#     4  10  24  51  72 102 143 195 241 296 365 442
#     4  12  28  46  72 108 147 197 241 303 368 438
#     4  12  27  44  73 110 146 188 241 317 355 435
#
# _framework density 30.302738999999999
#
# number of rings (size 3 to 8) (size 9 to 14) (size 15 to 20)
#    1.000    0.000    3.333    1.000    9.333    1.333 
#    0.000    0.000    0.000    0.000    0.000    0.000 
#    0.000    0.000    0.000    0.000    0.000    0.000 
#
# Total GULP energy -134010.989912 kJ/mol
# GULP energy per Si atom -5583.791246 kJ/mol
# Density = 3.023377 g / cm^3
# Si number density = 30.302739 Si / 1000 Ang^3
#
#
#
# Elastic Constant Matrix: (Units=GPa)
#
#
# Indices 1 2 3 4 5 6 
#
# 1 245.5545 44.3991 102.2659 0.0000 0.0000 0.0000
# 2 44.3991 91.6331 37.9258 0.0000 0.0000 0.0000
# 3 102.2659 37.9258 227.0595 0.0000 0.0000 0.0000
# 4 0.0000 0.0000 0.0000 57.7848 0.0000 0.0000
# 5 0.0000 0.0000 0.0000 0.0000 78.8436 0.0000
# 6 0.0000 0.0000 0.0000 0.0000 0.0000 48.3415
#
#
#
# Elastic Compliance Matrix: (Units=1/GPa)
#
#
# Indices 1 2 3 4 5 6 
#
# 1 0.005243 -0.001679 -0.002081 0.000000 0.000000 0.000000
# 2 -0.001679 0.012261 -0.001292 0.000000 0.000000 0.000000
# 3 -0.002081 -0.001292 0.005557 0.000000 0.000000 0.000000
# 4 0.000000 0.000000 0.000000 0.017306 0.000000 0.000000
# 5 0.000000 0.000000 0.000000 0.000000 0.012683 0.000000
# 6 0.000000 0.000000 0.000000 0.000000 0.000000 0.020686
#
#
# Mechanical properties :
#
#
# Convention : Reuss Voigt Hill
#
# Bulk Modulus (GPa) = 77.17364 103.71429 90.44397
# Shear Modulus (GPa) = 56.71609 62.30438 59.51024
#
# Velocity S-wave (km/s) = 4.33095 4.53930 4.43635
# Velocity P-wave (km/s) = 7.10861 7.85965 7.49354
#
# Compressibility (1/GPa) = 0.01295779
#
# Stress axis : x y z
#
# Youngs Moduli (GPa) = 190.74589 81.55763 179.95101
#
# Poissons Ratio (x) = 0.13693 0.37444
# Poissons Ratio (y) = 0.32026 0.23246
# Poissons Ratio (z) = 0.39690 0.10536
#
# Static dielectric constant tensor:
#      x y z
#    x 2.127560 0.000000 0.000000 
#    y 0.000000 2.283170 0.000000 
#    z 0.000000 0.000000 2.547740 
# 
# From -- ./inp_files/6993.got.cif
#   From: 2010.05.17/outbox.cif.g08.bks.cpg/sg19_4_cif.got.tgz:6993.got - 2010.06.03 22:46:19.
