data_PCOD9315146
_publ_section_title
;
Structure prediction by ZEFSAII (Michael W. Deem and Ramdas Pophale) SiO2 
 PCOD9315146
Probable space group: P 21 21 21
;
_chemical_formula_sum "Si O2"
_cell_formula_units_Z 32
_cell_length_a 5.285553
_cell_length_b 12.106157
_cell_length_c 19.644611
_cell_angle_alpha 90.000000
_cell_angle_beta 90.000000
_cell_angle_gamma 90.000000
_cell_volume 1257.014152
_symmetry_space_group_name_H-M "P 21 21 21"
_symmetry_group_IT_number 19
_symmetry_cell_setting 'orthorhombic'
loop_
_space_group_symop_operation_xyz
x,y,z
1/2-x,-y,1/2+z
1/2+x,1/2-y,-z
-x,1/2+y,1/2-z
loop_
_atom_site_type_symbol
_atom_site_label
_atom_site_fract_x
_atom_site_fract_y
_atom_site_fract_z
Si Si1 0.117172 0.572177 0.216702
Si Si2 0.367661 0.722262 0.837038
Si Si3 0.143360 0.992851 0.150464
Si Si4 0.978995 0.097382 0.753617
Si Si5 0.852960 0.379459 0.128588
Si Si6 0.722645 0.705581 0.023280
Si Si7 0.567274 0.524333 0.480579
Si Si8 0.693682 0.796208 0.534707
O O1 0.392865 0.529298 0.234687
O O2 0.084268 0.689812 0.182475
O O3 0.964556 0.564637 0.287444
O O4 0.023289 0.469339 0.168847
O O5 0.438564 0.601738 0.866332
O O6 0.230131 0.686128 0.767728
O O7 0.216276 0.787569 0.895040
O O8 0.350332 0.914342 0.187046
O O9 0.267694 0.051906 0.086305
O O10 0.115915 0.130759 0.822095
O O11 0.906314 0.253044 0.106144
O O12 0.835728 0.430929 0.053267
O O13 0.432951 0.702940 0.998974
O O14 0.881885 0.604259 0.991222
O O15 0.288649 0.577245 0.469602
O O16 0.468165 0.761486 0.483515
#
# Coordination Sequence:
#
# PCOD9315146 Si02
#       8
#     4   4   4   4   4   4   4   4
#     4  10  23  44  68 101 137 192 246 297 375 439
#     4  11  23  43  70 102 146 190 247 307 366 447
#     4  10  23  46  63 103 140 185 242 299 380 443
#     4  10  24  44  67  97 147 186 250 306 362 463
#     4  10  23  44  70 101 138 190 247 302 369 448
#     4  12  26  44  74 112 151 194 242 307 378 448
#     4  11  23  46  70 106 146 190 245 310 377 443
#     4  10  25  45  68 104 143 187 239 302 363 437
#
# _framework density 25.457151
#
# number of rings (size 3 to 8) (size 9 to 14) (size 15 to 20)
#    0.000    1.500    2.500    0.750    5.250    5.000 
#   13.500    0.000    0.000    0.000    0.000    0.000 
#    0.000    0.000    0.000    0.000    0.000    0.000 
#
# Total GULP energy -178422.822185 kJ/mol
# GULP energy per Si atom -5575.713193 kJ/mol
# Density = 2.539921 g / cm^3
# Si number density = 25.457151 Si / 1000 Ang^3
#
#
#
# Elastic Constant Matrix: (Units=GPa)
#
#
# Indices 1 2 3 4 5 6 
#
# 1 52.3347 13.4203 18.8826 0.0000 0.0000 0.0000
# 2 13.4203 69.9344 32.8359 0.0000 0.0000 0.0000
# 3 18.8826 32.8359 144.6220 0.0000 0.0000 0.0000
# 4 0.0000 0.0000 0.0000 37.0903 0.0000 0.0000
# 5 0.0000 0.0000 0.0000 0.0000 25.0351 0.0000
# 6 0.0000 0.0000 0.0000 0.0000 0.0000 22.2485
#
#
#
# Elastic Compliance Matrix: (Units=1/GPa)
#
#
# Indices 1 2 3 4 5 6 
#
# 1 0.020604 -0.003012 -0.002006 0.000000 0.000000 0.000000
# 2 -0.003012 0.016446 -0.003341 0.000000 0.000000 0.000000
# 3 -0.002006 -0.003341 0.007935 0.000000 0.000000 0.000000
# 4 0.000000 0.000000 0.000000 0.026961 0.000000 0.000000
# 5 0.000000 0.000000 0.000000 0.000000 0.039944 0.000000
# 6 0.000000 0.000000 0.000000 0.000000 0.000000 0.044947
#
#
# Mechanical properties :
#
#
# Convention : Reuss Voigt Hill
#
# Bulk Modulus (GPa) = 35.37701 44.12984 39.75342
# Shear Modulus (GPa) = 27.32588 30.32494 28.82541
#
# Velocity S-wave (km/s) = 3.27984 3.45514 3.36863
# Velocity P-wave (km/s) = 5.31696 5.76974 5.54797
#
# Compressibility (1/GPa) = 0.02826694
#
# Stress axis : x y z
#
# Youngs Moduli (GPa) = 48.53420 60.80644 126.02356
#
# Poissons Ratio (x) = 0.18314 0.25285
# Poissons Ratio (y) = 0.14618 0.42100
# Poissons Ratio (z) = 0.09738 0.20313
#
# Static dielectric constant tensor:
#      x y z
#    x 2.069390 0.000000 0.000000 
#    y 0.000000 2.169020 0.000000 
#    z 0.000000 0.000000 1.969770 
# 
# From -- ./inp_files/6956.got.cif
#   From: 2010.05.17/outbox.cif.g08.bks.cpg/sg19_4_cif.got.tgz:6956.got - 2010.06.03 22:46:19.
