data_PCOD9315435
_publ_section_title
;
Structure prediction by ZEFSAII (Michael W. Deem and Ramdas Pophale) SiO2 
 PCOD9315435
Probable space group: P 21 21 21
;
_chemical_formula_sum "Si O2"
_cell_formula_units_Z 28
_cell_length_a 8.658209
_cell_length_b 16.794271
_cell_length_c 7.741903
_cell_angle_alpha 90.000000
_cell_angle_beta 90.000000
_cell_angle_gamma 90.000000
_cell_volume 1125.737018
_symmetry_space_group_name_H-M "P 21 21 21"
_symmetry_group_IT_number 19
_symmetry_cell_setting 'orthorhombic'
loop_
_space_group_symop_operation_xyz
x,y,z
1/2-x,-y,1/2+z
1/2+x,1/2-y,-z
-x,1/2+y,1/2-z
loop_
_atom_site_type_symbol
_atom_site_label
_atom_site_fract_x
_atom_site_fract_y
_atom_site_fract_z
Si Si1 0.612414 0.667257 0.360966
Si Si2 0.192736 0.316966 0.062055
Si Si3 0.059486 0.548742 0.273971
Si Si4 0.868307 0.019520 0.856738
Si Si5 0.628056 0.492556 0.437287
Si Si6 0.977693 0.223441 0.307621
Si Si7 0.751616 0.670617 0.980396
O O1 0.431149 0.667379 0.409700
O O2 0.918001 0.789763 0.281588
O O3 0.684199 0.582871 0.420473
O O4 0.654370 0.673043 0.159066
O O5 0.306457 0.241584 0.044365
O O6 0.285450 0.394889 0.118873
O O7 0.229548 0.539036 0.192022
O O8 0.060357 0.503445 0.455303
O O9 0.033016 0.642773 0.302289
O O10 0.943169 0.518089 0.128265
O O11 0.994929 0.017462 0.707236
O O12 0.743717 0.419282 0.412497
O O13 0.819528 0.263791 0.357805
O O14 0.072481 0.193543 0.474860
#
# Coordination Sequence:
#
# PCOD9315435 Si02
#       7
#     4   4   4   4   4   4   4
#     4  11  25  50  74 115 151 202 262 315 391 463
#     4  11  25  47  76 111 150 201 257 313 388 461
#     4  11  23  45  74 111 149 196 259 307 380 464
#     4  12  24  46  80 110 152 205 254 313 389 469
#     4  11  26  51  74 113 156 202 257 324 386 457
#     4  10  25  47  71 112 152 193 260 317 383 463
#     4  10  26  48  75 108 156 201 253 325 389 453
#
# _framework density 24.872593999999999
#
# number of rings (size 3 to 8) (size 9 to 14) (size 15 to 20)
#    0.000    1.143    2.857    0.857    8.000    5.714 
#   23.143    0.000    0.000    0.000    0.000    0.000 
#    0.000    0.000    0.000    0.000    0.000    0.000 
#
# Total GULP energy -156938.360701 kJ/mol
# GULP energy per Si atom -5604.941454 kJ/mol
# Density = 2.481598 g / cm^3
# Si number density = 24.872594 Si / 1000 Ang^3
#
#
#
# Elastic Constant Matrix: (Units=GPa)
#
#
# Indices 1 2 3 4 5 6 
#
# 1 71.2140 46.6410 4.8087 0.0000 0.0000 0.0000
# 2 46.6410 81.4574 1.1721 0.0000 0.0000 0.0000
# 3 4.8087 1.1721 77.9702 0.0000 0.0000 0.0000
# 4 0.0000 0.0000 0.0000 35.7882 0.0000 0.0000
# 5 0.0000 0.0000 0.0000 0.0000 44.7655 0.0000
# 6 0.0000 0.0000 0.0000 0.0000 0.0000 51.9747
#
#
#
# Elastic Compliance Matrix: (Units=1/GPa)
#
#
# Indices 1 2 3 4 5 6 
#
# 1 0.022579 -0.012911 -0.001198 0.000000 0.000000 0.000000
# 2 -0.012911 0.019662 0.000501 0.000000 0.000000 0.000000
# 3 -0.001198 0.000501 0.012892 0.000000 0.000000 0.000000
# 4 0.000000 0.000000 0.000000 0.027942 0.000000 0.000000
# 5 0.000000 0.000000 0.000000 0.000000 0.022339 0.000000
# 6 0.000000 0.000000 0.000000 0.000000 0.000000 0.019240
#
#
# Mechanical properties :
#
#
# Convention : Reuss Voigt Hill
#
# Bulk Modulus (GPa) = 35.82306 37.32059 36.57182
# Shear Modulus (GPa) = 31.02189 38.37365 34.69777
#
# Velocity S-wave (km/s) = 3.53545 3.93212 3.73905
# Velocity P-wave (km/s) = 5.57671 5.97099 5.77722
#
# Compressibility (1/GPa) = 0.02791498
#
# Stress axis : x y z
#
# Youngs Moduli (GPa) = 44.28868 50.86000 77.56866
#
# Poissons Ratio (x) = 0.65666 0.09296
# Poissons Ratio (y) = 0.57182 -0.03884
# Poissons Ratio (z) = 0.05308 -0.02547
#
# Static dielectric constant tensor:
#      x y z
#    x 2.001130 0.000000 0.000000 
#    y 0.000000 1.933510 0.000000 
#    z 0.000000 0.000000 1.985490 
# 
# From -- ./inp_files/3020.got.cif
#   From: 2010.05.17/outbox.cif.g08.bks.cpg/sg19_2_cif.got.tgz:3020.got - 2010.06.03 22:46:19.
