data_PCOD9315339
_publ_section_title
;
Structure prediction by ZEFSAII (Michael W. Deem and Ramdas Pophale) SiO2 
 PCOD9315339
Probable space group: P 21 21 21
;
_chemical_formula_sum "Si O2"
_cell_formula_units_Z 28
_cell_length_a 19.787076
_cell_length_b 9.505054
_cell_length_c 5.801387
_cell_angle_alpha 90.000000
_cell_angle_beta 90.000000
_cell_angle_gamma 90.000000
_cell_volume 1091.108773
_symmetry_space_group_name_H-M "P 21 21 21"
_symmetry_group_IT_number 19
_symmetry_cell_setting 'orthorhombic'
loop_
_space_group_symop_operation_xyz
x,y,z
1/2-x,-y,1/2+z
1/2+x,1/2-y,-z
-x,1/2+y,1/2-z
loop_
_atom_site_type_symbol
_atom_site_label
_atom_site_fract_x
_atom_site_fract_y
_atom_site_fract_z
Si Si1 0.545680 0.104610 0.720841
Si Si2 0.710145 0.511573 0.895900
Si Si3 0.129799 0.160191 0.414278
Si Si4 0.669622 0.060896 0.035606
Si Si5 0.932698 0.095114 0.839574
Si Si6 0.743082 0.798313 0.847128
Si Si7 0.554321 0.580534 0.397477
O O1 0.563914 0.240517 0.568419
O O2 0.559023 0.955307 0.602067
O O3 0.604926 0.119863 0.907711
O O4 0.474745 0.105513 0.845010
O O5 0.755528 0.503845 0.651184
O O6 0.648963 0.409367 0.830796
O O7 0.689825 0.675224 0.880636
O O8 0.193254 0.254686 0.493182
O O9 0.116750 0.025706 0.578807
O O10 0.636549 0.974754 0.248220
O O11 0.721541 0.182343 0.101860
O O12 0.710180 0.946581 0.893879
O O13 0.933583 0.262483 0.803826
O O14 0.995371 0.009055 0.727224
#
# Coordination Sequence:
#
# PCOD9315339 Si02
#       7
#     4   4   4   4   4   4   4
#     4  11  23  46  68 101 137 187 241 300 364 437
#     4  10  24  45  70 106 147 192 249 306 372 445
#     4  11  23  45  72 102 142 190 238 308 368 439
#     4  11  25  42  72 101 145 191 236 301 369 444
#     4  11  25  47  70 103 144 184 247 300 373 439
#     4  11  24  44  71 105 146 190 246 299 379 451
#     4  11  26  43  73 102 139 188 241 304 367 439
#
# _framework density 25.661971999999999
#
# number of rings (size 3 to 8) (size 9 to 14) (size 15 to 20)
#    0.000    1.143    1.429    3.429    4.000    6.857 
#    7.714    0.000    0.000    0.000    0.000    0.000 
#    0.000    0.000    0.000    0.000    0.000    0.000 
#
# Total GULP energy -156382.842483 kJ/mol
# GULP energy per Si atom -5585.101517 kJ/mol
# Density = 2.560356 g / cm^3
# Si number density = 25.661972 Si / 1000 Ang^3
#
#
#
# Elastic Constant Matrix: (Units=GPa)
#
#
# Indices 1 2 3 4 5 6 
#
# 1 76.5810 18.8997 13.2972 0.0000 0.0000 0.0000
# 2 18.8997 127.9616 8.5527 0.0000 0.0000 0.0000
# 3 13.2972 8.5527 49.6692 0.0000 0.0000 0.0000
# 4 0.0000 0.0000 0.0000 28.2148 0.0000 0.0000
# 5 0.0000 0.0000 0.0000 0.0000 44.2492 0.0000
# 6 0.0000 0.0000 0.0000 0.0000 0.0000 23.9919
#
#
#
# Elastic Compliance Matrix: (Units=1/GPa)
#
#
# Indices 1 2 3 4 5 6 
#
# 1 0.014116 -0.001854 -0.003460 0.000000 0.000000 0.000000
# 2 -0.001854 0.008149 -0.000907 0.000000 0.000000 0.000000
# 3 -0.003460 -0.000907 0.021216 0.000000 0.000000 0.000000
# 4 0.000000 0.000000 0.000000 0.035442 0.000000 0.000000
# 5 0.000000 0.000000 0.000000 0.000000 0.022599 0.000000
# 6 0.000000 0.000000 0.000000 0.000000 0.000000 0.041681
#
#
# Mechanical properties :
#
#
# Convention : Reuss Voigt Hill
#
# Bulk Modulus (GPa) = 32.21654 37.30123 34.75889
# Shear Modulus (GPa) = 30.12198 33.52197 31.82197
#
# Velocity S-wave (km/s) = 3.42979 3.61818 3.52525
# Velocity P-wave (km/s) = 5.31658 5.65881 5.49037
#
# Compressibility (1/GPa) = 0.03103995
#
# Stress axis : x y z
#
# Youngs Moduli (GPa) = 70.83995 122.71059 47.13496
#
# Poissons Ratio (x) = 0.22747 0.16309
# Poissons Ratio (y) = 0.13132 0.04275
# Poissons Ratio (z) = 0.24510 0.11130
#
# Static dielectric constant tensor:
#      x y z
#    x 2.030430 0.000000 0.000000 
#    y 0.000000 2.071630 0.000000 
#    z 0.000000 0.000000 2.183240 
# 
# From -- ./inp_files/2131.got.cif
#   From: 2010.05.17/outbox.cif.g08.bks.cpg/sg19_2_cif.got.tgz:2131.got - 2010.06.03 22:46:19.
