data_PCOD9315757
_publ_section_title
;
Structure prediction by ZEFSAII (Michael W. Deem and Ramdas Pophale) SiO2 
 PCOD9315757
Probable space group: P 21 21 21
;
_chemical_formula_sum "Si O2"
_cell_formula_units_Z 32
_cell_length_a 13.651909
_cell_length_b 19.413164
_cell_length_c 4.909900
_cell_angle_alpha 90.000000
_cell_angle_beta 90.000000
_cell_angle_gamma 90.000000
_cell_volume 1301.254832
_symmetry_space_group_name_H-M "P 21 21 21"
_symmetry_group_IT_number 19
_symmetry_cell_setting 'orthorhombic'
loop_
_space_group_symop_operation_xyz
x,y,z
1/2-x,-y,1/2+z
1/2+x,1/2-y,-z
-x,1/2+y,1/2-z
loop_
_atom_site_type_symbol
_atom_site_label
_atom_site_fract_x
_atom_site_fract_y
_atom_site_fract_z
Si Si1 0.652739 0.344938 0.991198
Si Si2 0.007438 0.952161 0.476865
Si Si3 0.724365 0.845177 0.687831
Si Si4 0.582641 0.116735 0.478257
Si Si5 0.277137 0.044051 0.731896
Si Si6 0.012036 0.241000 0.667750
Si Si7 0.519400 0.898189 0.832077
Si Si8 0.207614 0.748253 0.803964
O O1 0.571914 0.396883 0.872089
O O2 0.725344 0.312631 0.769027
O O3 0.714346 0.387651 0.210033
O O4 0.590745 0.280995 0.108673
O O5 0.113335 0.943000 0.338660
O O6 0.994040 0.915056 0.762721
O O7 0.986839 0.033116 0.506181
O O8 0.929681 0.921767 0.260923
O O9 0.813219 0.885969 0.825771
O O10 0.624468 0.888835 0.691461
O O11 0.740707 0.815599 0.387282
O O12 0.710365 0.778303 0.886341
O O13 0.554905 0.197006 0.507734
O O14 0.267222 0.016225 0.426637
O O15 0.995052 0.170758 0.505402
O O16 0.905354 0.262066 0.775703
#
# Coordination Sequence:
#
# PCOD9315757 Si02
#       8
#     4   4   4   4   4   4   4   4
#     4  12  24  43  75 101 144 191 242 303 368 428
#     4  12  28  48  72 107 151 194 240 306 375 437
#     4  11  24  45  70 102 139 183 244 300 357 440
#     4  12  27  47  72 105 151 187 242 310 371 430
#     4  12  26  45  70 104 147 188 241 297 364 445
#     4  11  25  45  75 104 146 192 247 304 365 443
#     4  11  26  46  75 103 144 194 250 295 368 442
#     4  11  24  41  69 106 138 181 240 303 366 427
#
# _framework density 24.591646000000001
#
# number of rings (size 3 to 8) (size 9 to 14) (size 15 to 20)
#    0.000    0.500    3.750    3.750    3.500    3.000 
#    0.000    0.000    0.000    0.000    0.000    0.000 
#    0.000    0.000    0.000    0.000    0.000    0.000 
#
# Total GULP energy -179467.434026 kJ/mol
# GULP energy per Si atom -5608.357313 kJ/mol
# Density = 2.453567 g / cm^3
# Si number density = 24.591646 Si / 1000 Ang^3
#
#
#
# Elastic Constant Matrix: (Units=GPa)
#
#
# Indices 1 2 3 4 5 6 
#
# 1 134.9110 24.4390 0.1461 0.0000 0.0000 0.0000
# 2 24.4390 109.4913 22.8999 0.0000 0.0000 0.0000
# 3 0.1461 22.8999 83.7942 0.0000 0.0000 0.0000
# 4 0.0000 0.0000 0.0000 43.3590 0.0000 0.0000
# 5 0.0000 0.0000 0.0000 0.0000 28.4828 0.0000
# 6 0.0000 0.0000 0.0000 0.0000 0.0000 21.3094
#
#
#
# Elastic Compliance Matrix: (Units=1/GPa)
#
#
# Indices 1 2 3 4 5 6 
#
# 1 0.007743 -0.001830 0.000487 0.000000 0.000000 0.000000
# 2 -0.001830 0.010119 -0.002762 0.000000 0.000000 0.000000
# 3 0.000487 -0.002762 0.012688 0.000000 0.000000 0.000000
# 4 0.000000 0.000000 0.000000 0.023063 0.000000 0.000000
# 5 0.000000 0.000000 0.000000 0.000000 0.035109 0.000000
# 6 0.000000 0.000000 0.000000 0.000000 0.000000 0.046928
#
#
# Mechanical properties :
#
#
# Convention : Reuss Voigt Hill
#
# Bulk Modulus (GPa) = 44.76444 47.01849 45.89146
# Shear Modulus (GPa) = 33.04506 37.34433 35.19469
#
# Velocity S-wave (km/s) = 3.66970 3.90112 3.78718
# Velocity P-wave (km/s) = 6.01649 6.28115 6.15025
#
# Compressibility (1/GPa) = 0.02233916
#
# Stress axis : x y z
#
# Youngs Moduli (GPa) = 129.14403 98.82045 78.81434
#
# Poissons Ratio (x) = 0.18085 -0.03836
# Poissons Ratio (y) = 0.23635 0.21771
# Poissons Ratio (z) = -0.06285 0.27297
#
# Static dielectric constant tensor:
#      x y z
#    x 1.990180 0.000000 0.000000 
#    y 0.000000 1.918960 0.000000 
#    z 0.000000 0.000000 1.923740 
# 
# From -- ./inp_files/1594.got.cif
#   From: 2010.05.17/outbox.cif.g08.bks.cpg/sg19_1_cif.got.tgz:1594.got - 2010.06.03 22:46:19.
