data_PCOD9315170
_publ_section_title
;
Structure prediction by ZEFSAII (Michael W. Deem and Ramdas Pophale) SiO2 
 PCOD9315170
Probable space group: P 21 21 21
;
_chemical_formula_sum "Si O2"
_cell_formula_units_Z 32
_cell_length_a 5.102160
_cell_length_b 11.735223
_cell_length_c 22.193873
_cell_angle_alpha 90.000000
_cell_angle_beta 90.000000
_cell_angle_gamma 90.000000
_cell_volume 1328.857821
_symmetry_space_group_name_H-M "P 21 21 21"
_symmetry_group_IT_number 19
_symmetry_cell_setting 'orthorhombic'
loop_
_space_group_symop_operation_xyz
x,y,z
1/2-x,-y,1/2+z
1/2+x,1/2-y,-z
-x,1/2+y,1/2-z
loop_
_atom_site_type_symbol
_atom_site_label
_atom_site_fract_x
_atom_site_fract_y
_atom_site_fract_z
Si Si1 0.840161 0.392053 0.980235
Si Si2 0.415820 0.798114 0.410663
Si Si3 0.483678 0.394794 0.871370
Si Si4 0.705559 0.798903 0.300561
Si Si5 0.503776 0.498943 0.750047
Si Si6 0.995708 0.867131 0.792113
Si Si7 0.673517 0.900510 0.998145
Si Si8 0.330195 0.175751 0.428154
O O1 0.628876 0.435208 0.931553
O O2 0.889250 0.262082 0.958156
O O3 0.756980 0.380644 0.049346
O O4 0.084998 0.476364 0.979125
O O5 0.256175 0.689276 0.385648
O O6 0.547186 0.859529 0.354346
O O7 0.678014 0.309116 0.835901
O O8 0.436225 0.490500 0.821285
O O9 0.932069 0.878072 0.275315
O O10 0.532795 0.747684 0.247207
O O11 0.797103 0.458604 0.735570
O O12 0.297388 0.413183 0.717593
O O13 0.086286 0.843287 0.859816
O O14 0.958996 0.890391 0.969612
O O15 0.459764 0.864123 0.947332
O O16 0.648827 0.807577 0.051195
#
# Coordination Sequence:
#
# PCOD9315170 Si02
#       8
#     4   4   4   4   4   4   4   4
#     4  11  24  40  68  99 135 187 224 288 354 413
#     4  11  22  42  65  97 139 176 234 283 347 414
#     4  10  23  45  62 101 139 173 240 286 335 430
#     4  10  25  44  68  96 140 181 227 291 345 411
#     4  11  25  44  70 102 136 184 231 282 352 411
#     4  11  24  45  68 101 134 180 231 283 343 420
#     4  10  24  44  69  99 134 179 227 285 343 405
#     4  10  23  46  66  99 137 172 234 286 335 414
#
# _framework density 24.080829000000001
#
# number of rings (size 3 to 8) (size 9 to 14) (size 15 to 20)
#    0.000    1.500    2.500    0.750    5.250    2.000 
#    9.000    0.000    0.000    0.000    0.000    0.000 
#    0.000    0.000    0.000    0.000    0.000    0.000 
#
# Total GULP energy -179151.528222 kJ/mol
# GULP energy per Si atom -5598.485257 kJ/mol
# Density = 2.402602 g / cm^3
# Si number density = 24.080829 Si / 1000 Ang^3
#
#
#
# Elastic Constant Matrix: (Units=GPa)
#
#
# Indices 1 2 3 4 5 6 
#
# 1 61.2232 4.2688 9.7945 0.0000 0.0000 0.0000
# 2 4.2688 72.8863 27.0044 0.0000 0.0000 0.0000
# 3 9.7945 27.0044 99.5717 0.0000 0.0000 0.0000
# 4 0.0000 0.0000 0.0000 21.6253 0.0000 0.0000
# 5 0.0000 0.0000 0.0000 0.0000 32.1001 0.0000
# 6 0.0000 0.0000 0.0000 0.0000 0.0000 34.4430
#
#
#
# Elastic Compliance Matrix: (Units=1/GPa)
#
#
# Indices 1 2 3 4 5 6 
#
# 1 0.016606 -0.000408 -0.001523 0.000000 0.000000 0.000000
# 2 -0.000408 0.015263 -0.004099 0.000000 0.000000 0.000000
# 3 -0.001523 -0.004099 0.011305 0.000000 0.000000 0.000000
# 4 0.000000 0.000000 0.000000 0.046242 0.000000 0.000000
# 5 0.000000 0.000000 0.000000 0.000000 0.031153 0.000000
# 6 0.000000 0.000000 0.000000 0.000000 0.000000 0.029033
#
#
# Mechanical properties :
#
#
# Convention : Reuss Voigt Hill
#
# Bulk Modulus (GPa) = 32.14148 35.09073 33.61611
# Shear Modulus (GPa) = 29.06431 30.47459 29.76945
#
# Velocity S-wave (km/s) = 3.47788 3.56126 3.51982
# Velocity P-wave (km/s) = 5.43175 5.61372 5.52348
#
# Compressibility (1/GPa) = 0.03111244
#
# Stress axis : x y z
#
# Youngs Moduli (GPa) = 60.22012 65.51939 88.46028
#
# Poissons Ratio (x) = 0.02676 0.13470
# Poissons Ratio (y) = 0.02459 0.36261
# Poissons Ratio (z) = 0.09170 0.26857
#
# Static dielectric constant tensor:
#      x y z
#    x 1.950480 0.000000 0.000000 
#    y 0.000000 1.935750 0.000000 
#    z 0.000000 0.000000 1.933050 
# 
# From -- ./inp_files/1257.got.cif
#   From: 2010.05.17/outbox.cif.g08.bks.cpg/sg19_1_cif.got.tgz:1257.got - 2010.06.03 22:46:19.
