data_PCOD9315570
_publ_section_title
;
Structure prediction by ZEFSAII (Michael W. Deem and Ramdas Pophale) SiO2 
 PCOD9315570
Probable space group: P 21 21 21
;
_chemical_formula_sum "Si O2"
_cell_formula_units_Z 32
_cell_length_a 14.862423
_cell_length_b 5.239672
_cell_length_c 19.958893
_cell_angle_alpha 90.000000
_cell_angle_beta 90.000000
_cell_angle_gamma 90.000000
_cell_volume 1554.283257
_symmetry_space_group_name_H-M "P 21 21 21"
_symmetry_group_IT_number 19
_symmetry_cell_setting 'orthorhombic'
loop_
_space_group_symop_operation_xyz
x,y,z
1/2-x,-y,1/2+z
1/2+x,1/2-y,-z
-x,1/2+y,1/2-z
loop_
_atom_site_type_symbol
_atom_site_label
_atom_site_fract_x
_atom_site_fract_y
_atom_site_fract_z
Si Si1 0.620983 0.245616 0.498038
Si Si2 0.199090 0.179440 0.145087
Si Si3 0.620983 0.254385 0.998038
Si Si4 0.420657 0.245401 0.931091
Si Si5 0.920656 0.245400 0.568909
Si Si6 0.991241 0.831468 0.291956
Si Si7 0.008759 0.168532 0.708044
Si Si8 0.300910 0.679440 0.145087
O O1 0.632705 0.514060 0.534822
O O2 0.519953 0.250921 0.465841
O O3 0.684553 0.198142 0.434924
O O4 0.623077 0.014528 0.550413
O O5 0.272024 0.394193 0.163392
O O6 0.106018 0.258357 0.178807
O O7 0.227976 0.894193 0.163392
O O8 0.184553 0.198142 0.065076
O O9 0.623077 0.485474 0.050413
O O10 0.632705 0.985941 0.034822
O O11 0.519954 0.249080 0.965841
O O12 0.438537 0.198523 0.852971
O O13 0.938537 0.198523 0.647029
O O14 0.010528 0.618705 0.235685
O O15 0.106018 0.241643 0.678807
O O16 0.989472 0.381294 0.764315
#
# Coordination Sequence:
#
# PCOD9315570 Si02
#       8
#     4   4   4   4   4   4   4   4
#     4   9  17  31  53  79 104 132 170 224 287 329
#     4  11  22  37  59  85 114 147 189 247 302 347
#     4   9  17  31  53  79 104 132 170 224 287 329
#     4   9  17  31  53  79 104 132 175 229 271 319
#     4   9  17  31  53  79 104 132 175 229 271 319
#     4  11  22  37  59  85 114 157 206 236 272 343
#     4  11  22  37  59  85 114 157 206 236 272 343
#     4  11  22  37  59  85 114 147 189 247 302 347
#
# _framework density 20.588266000000001
#
# number of rings (size 3 to 8) (size 9 to 14) (size 15 to 20)
#    0.000    2.000    0.000    4.500    0.000    8.000 
#    0.000    0.000    0.000   30.000    0.000    0.000 
#    0.000    0.000    0.000    0.000    0.000    0.000 
#
# Total GULP energy -178824.872446 kJ/mol
# GULP energy per Si atom -5588.277264 kJ/mol
# Density = 2.054141 g / cm^3
# Si number density = 20.588266 Si / 1000 Ang^3
#
#
#
# Elastic Constant Matrix: (Units=GPa)
#
#
# Indices 1 2 3 4 5 6 
#
# 1 31.6827 -10.2309 -2.8878 0.0000 0.0000 0.0000
# 2 -10.2309 83.6355 -4.8833 0.0000 0.0000 0.0000
# 3 -2.8878 -4.8833 54.6271 0.0000 0.0000 0.0000
# 4 0.0000 0.0000 0.0000 36.3202 0.0000 0.0000
# 5 0.0000 0.0000 0.0000 0.0000 28.2396 0.0000
# 6 0.0000 0.0000 0.0000 0.0000 0.0000 25.8150
#
#
#
# Elastic Compliance Matrix: (Units=1/GPa)
#
#
# Indices 1 2 3 4 5 6 
#
# 1 0.033104 0.004174 0.002123 0.000000 0.000000 0.000000
# 2 0.004174 0.012546 0.001342 0.000000 0.000000 0.000000
# 3 0.002123 0.001342 0.018538 0.000000 0.000000 0.000000
# 4 0.000000 0.000000 0.000000 0.027533 0.000000 0.000000
# 5 0.000000 0.000000 0.000000 0.000000 0.035411 0.000000
# 6 0.000000 0.000000 0.000000 0.000000 0.000000 0.038737
#
#
# Mechanical properties :
#
#
# Convention : Reuss Voigt Hill
#
# Bulk Modulus (GPa) = 12.58412 14.88238 13.73325
# Shear Modulus (GPa) = 28.23580 30.60479 29.42030
#
# Velocity S-wave (km/s) = 3.70733 3.85972 3.78429
# Velocity P-wave (km/s) = 4.94482 5.20649 5.07734
#
# Compressibility (1/GPa) = 0.07946521
#
# Stress axis : x y z
#
# Youngs Moduli (GPa) = 30.20770 79.70961 53.94282
#
# Poissons Ratio (x) = -0.33267 -0.11452
# Poissons Ratio (y) = -0.12607 -0.07240
# Poissons Ratio (z) = -0.06413 -0.10698
#
# Static dielectric constant tensor:
#      x y z
#    x 1.753700 0.000000 0.000000 
#    y 0.000000 1.703750 0.000000 
#    z 0.000000 0.000000 1.711640 
# 
# From -- ./inp_files/6808.got.cif
#   From: 2010.05.17/outbox.cif.g08.bks.cpg/sg19_4_cif.got.tgz:6808.got - 2010.06.03 22:46:19.
