data_PCOD9315251
_publ_section_title
;
Structure prediction by ZEFSAII (Michael W. Deem and Ramdas Pophale) SiO2 
 PCOD9315251
Probable space group: P 21 21 21
;
_chemical_formula_sum "Si O2"
_cell_formula_units_Z 32
_cell_length_a 11.541907
_cell_length_b 9.691651
_cell_length_c 12.947179
_cell_angle_alpha 90.000000
_cell_angle_beta 90.000000
_cell_angle_gamma 90.000000
_cell_volume 1448.273185
_symmetry_space_group_name_H-M "P 21 21 21"
_symmetry_group_IT_number 19
_symmetry_cell_setting 'orthorhombic'
loop_
_space_group_symop_operation_xyz
x,y,z
1/2-x,-y,1/2+z
1/2+x,1/2-y,-z
-x,1/2+y,1/2-z
loop_
_atom_site_type_symbol
_atom_site_label
_atom_site_fract_x
_atom_site_fract_y
_atom_site_fract_z
Si Si1 0.053238 0.845443 0.381757
Si Si2 0.786802 0.496154 0.380849
Si Si3 0.874161 0.939981 0.221092
Si Si4 0.233907 0.813594 0.808492
Si Si5 0.401606 0.894446 0.992796
Si Si6 0.031940 0.344089 0.644978
Si Si7 0.013828 0.564285 0.485481
Si Si8 0.228209 0.729307 0.236348
O O1 0.181790 0.810173 0.337909
O O2 0.967395 0.847132 0.282974
O O3 0.032394 0.725400 0.464412
O O4 0.028666 0.996679 0.425689
O O5 0.792202 0.590717 0.279672
O O6 0.657925 0.494845 0.423662
O O7 0.877899 0.541150 0.465898
O O8 0.805927 0.336174 0.352882
O O9 0.761069 0.845487 0.214399
O O10 0.924534 0.983029 0.109525
O O11 0.839812 0.086261 0.269815
O O12 0.300623 0.841539 0.916071
O O13 0.097734 0.842160 0.812190
O O14 0.461376 0.769818 0.052419
O O15 0.135423 0.302695 0.722985
O O16 0.052764 0.492511 0.590858
#
# Coordination Sequence:
#
# PCOD9315251 Si02
#       8
#     4   4   4   4   4   4   4   4
#     4  11  23  42  69  98 132 175 225 282 327 404
#     4  11  22  42  68  98 134 179 225 270 344 410
#     4  11  23  39  68  98 130 171 228 277 333 396
#     4  12  23  43  69  99 136 180 224 276 345 404
#     4  11  24  42  66 100 132 183 226 272 333 411
#     4  11  26  43  69  97 140 177 223 280 342 414
#     4  11  21  40  64  98 130 170 223 280 327 400
#     4  10  24  41  65  98 134 173 218 277 339 395
#
# _framework density 22.095278
#
# number of rings (size 3 to 8) (size 9 to 14) (size 15 to 20)
#    0.000    1.000    6.250    0.000    3.500    3.000 
#    0.000    3.750    0.000    0.000    0.000    0.000 
#    0.000    0.000    0.000    0.000    0.000    0.000 
#
# Total GULP energy -178605.950260 kJ/mol
# GULP energy per Si atom -5581.435946 kJ/mol
# Density = 2.204499 g / cm^3
# Si number density = 22.095278 Si / 1000 Ang^3
#
#
#
# Elastic Constant Matrix: (Units=GPa)
#
#
# Indices 1 2 3 4 5 6 
#
# 1 40.0886 6.9694 -3.2663 0.0000 0.0000 0.0000
# 2 6.9694 84.2236 3.4152 0.0000 0.0000 0.0000
# 3 -3.2663 3.4152 23.9163 0.0000 0.0000 0.0000
# 4 0.0000 0.0000 0.0000 26.3468 0.0000 0.0000
# 5 0.0000 0.0000 0.0000 0.0000 26.6780 0.0000
# 6 0.0000 0.0000 0.0000 0.0000 0.0000 25.5797
#
#
#
# Elastic Compliance Matrix: (Units=1/GPa)
#
#
# Indices 1 2 3 4 5 6 
#
# 1 0.025653 -0.002278 0.003829 0.000000 0.000000 0.000000
# 2 -0.002278 0.012145 -0.002045 0.000000 0.000000 0.000000
# 3 0.003829 -0.002045 0.042627 0.000000 0.000000 0.000000
# 4 0.000000 0.000000 0.000000 0.037955 0.000000 0.000000
# 5 0.000000 0.000000 0.000000 0.000000 0.037484 0.000000
# 6 0.000000 0.000000 0.000000 0.000000 0.000000 0.039094
#
#
# Mechanical properties :
#
#
# Convention : Reuss Voigt Hill
#
# Bulk Modulus (GPa) = 12.58879 18.05166 15.32022
# Shear Modulus (GPa) = 22.47945 25.12823 23.80384
#
# Velocity S-wave (km/s) = 3.19311 3.37600 3.28583
# Velocity P-wave (km/s) = 4.39369 4.83571 4.61999
#
# Compressibility (1/GPa) = 0.07943575
#
# Stress axis : x y z
#
# Youngs Moduli (GPa) = 38.98216 82.34112 23.45905
#
# Poissons Ratio (x) = 0.18757 -0.08982
# Poissons Ratio (y) = 0.08880 0.04798
# Poissons Ratio (z) = -0.14925 0.16841
#
# Static dielectric constant tensor:
#      x y z
#    x 1.815660 0.000000 0.000000 
#    y 0.000000 1.811120 0.000000 
#    z 0.000000 0.000000 1.893390 
# 
# From -- ./inp_files/3614.got.cif
#   From: 2010.05.17/outbox.cif.g08.bks.cpg/sg19_2_cif.got.tgz:3614.got - 2010.06.03 22:46:19.
