data_PCOD9315066
_publ_section_title
;
Structure prediction by ZEFSAII (Michael W. Deem and Ramdas Pophale) SiO2 
 PCOD9315066
Probable space group: P 21 21 21
;
_chemical_formula_sum "Si O2"
_cell_formula_units_Z 24
_cell_length_a 5.412633
_cell_length_b 18.405653
_cell_length_c 9.244459
_cell_angle_alpha 90.000000
_cell_angle_beta 90.000000
_cell_angle_gamma 90.000000
_cell_volume 920.961153
_symmetry_space_group_name_H-M "P 21 21 21"
_symmetry_group_IT_number 19
_symmetry_cell_setting 'orthorhombic'
loop_
_space_group_symop_operation_xyz
x,y,z
1/2-x,-y,1/2+z
1/2+x,1/2-y,-z
-x,1/2+y,1/2-z
loop_
_atom_site_type_symbol
_atom_site_label
_atom_site_fract_x
_atom_site_fract_y
_atom_site_fract_z
Si Si1 0.736347 0.518109 0.967042
Si Si2 0.715416 0.839609 0.968613
Si Si3 0.233300 0.793712 0.506526
Si Si4 0.759856 0.985751 0.457411
Si Si5 0.499295 0.879856 0.251049
Si Si6 0.283644 0.151022 0.327136
O O1 0.479807 0.477933 0.940337
O O2 0.714760 0.566556 0.115516
O O3 0.972185 0.466581 0.983781
O O4 0.800338 0.576756 0.845558
O O5 0.662068 0.833764 0.138833
O O6 0.719672 0.927426 0.940640
O O7 0.471484 0.815004 0.885218
O O8 0.974896 0.815353 0.904812
O O9 0.456247 0.734462 0.530291
O O10 0.353587 0.837578 0.373652
O O11 0.208075 0.835430 0.658098
O O12 0.682158 0.938712 0.321325
#
# Coordination Sequence:
#
# PCOD9315066 Si02
#       6
#     4   4   4   4   4   4
#     4   9  21  38  61  97 129 168 213 251 328 419
#     4   9  20  39  65  98 128 169 215 253 332 421
#     4  12  28  45  65  96 129 174 235 292 345 386
#     4   9  19  33  60  96 128 159 203 255 316 395
#     4  10  23  42  67  93 136 179 219 277 331 405
#     4   9  19  41  64  88 128 163 209 278 324 382
#
# _framework density 26.059729000000001
#
# number of rings (size 3 to 8) (size 9 to 14) (size 15 to 20)
#    0.000    2.667    0.000    1.000    0.000   20.000 
#    0.000   10.000    0.000    0.000    0.000    0.000 
#    0.000    0.000    0.000    0.000    0.000    0.000 
#
# Total GULP energy -134278.605113 kJ/mol
# GULP energy per Si atom -5594.941880 kJ/mol
# Density = 2.600042 g / cm^3
# Si number density = 26.059729 Si / 1000 Ang^3
#
#
#
# Elastic Constant Matrix: (Units=GPa)
#
#
# Indices 1 2 3 4 5 6 
#
# 1 208.0135 8.9983 31.9879 0.0000 0.0000 0.0000
# 2 8.9983 74.5962 39.3254 0.0000 0.0000 0.0000
# 3 31.9879 39.3254 147.0257 0.0000 0.0000 0.0000
# 4 0.0000 0.0000 0.0000 36.4852 0.0000 0.0000
# 5 0.0000 0.0000 0.0000 0.0000 41.4307 0.0000
# 6 0.0000 0.0000 0.0000 0.0000 0.0000 12.6218
#
#
#
# Elastic Compliance Matrix: (Units=1/GPa)
#
#
# Indices 1 2 3 4 5 6 
#
# 1 0.004974 -0.000034 -0.001073 0.000000 0.000000 0.000000
# 2 -0.000034 0.015606 -0.004167 0.000000 0.000000 0.000000
# 3 -0.001073 -0.004167 0.008149 0.000000 0.000000 0.000000
# 4 0.000000 0.000000 0.000000 0.027408 0.000000 0.000000
# 5 0.000000 0.000000 0.000000 0.000000 0.024137 0.000000
# 6 0.000000 0.000000 0.000000 0.000000 0.000000 0.079228
#
#
# Mechanical properties :
#
#
# Convention : Reuss Voigt Hill
#
# Bulk Modulus (GPa) = 55.00112 65.58428 60.29270
# Shear Modulus (GPa) = 28.39112 41.39580 34.89346
#
# Velocity S-wave (km/s) = 3.30428 3.98992 3.66318
# Velocity P-wave (km/s) = 5.97573 6.81524 6.40924
#
# Compressibility (1/GPa) = 0.01818145
#
# Stress axis : x y z
#
# Youngs Moduli (GPa) = 201.05093 64.07671 122.70722
#
# Poissons Ratio (x) = 0.00220 0.13166
# Poissons Ratio (y) = 0.00690 0.51130
# Poissons Ratio (z) = 0.21572 0.26699
#
# Static dielectric constant tensor:
#      x y z
#    x 2.109440 0.000000 0.000000 
#    y 0.000000 2.140920 0.000000 
#    z 0.000000 0.000000 2.019550 
# 
# From -- ./inp_files/2412.got.cif
#   From: 2010.05.17/outbox.cif.g08.bks.cpg/sg19_2_cif.got.tgz:2412.got - 2010.06.03 22:46:19.
