data_PCOD9315662
_publ_section_title
;
Structure prediction by ZEFSAII (Michael W. Deem and Ramdas Pophale) SiO2 
 PCOD9315662
Probable space group: P 21 21 21
;
_chemical_formula_sum "Si O2"
_cell_formula_units_Z 20
_cell_length_a 5.595632
_cell_length_b 5.026566
_cell_length_c 24.686205
_cell_angle_alpha 90.000000
_cell_angle_beta 90.000000
_cell_angle_gamma 90.000000
_cell_volume 694.344286
_symmetry_space_group_name_H-M "P 21 21 21"
_symmetry_group_IT_number 19
_symmetry_cell_setting 'orthorhombic'
loop_
_space_group_symop_operation_xyz
x,y,z
1/2-x,-y,1/2+z
1/2+x,1/2-y,-z
-x,1/2+y,1/2-z
loop_
_atom_site_type_symbol
_atom_site_label
_atom_site_fract_x
_atom_site_fract_y
_atom_site_fract_z
Si Si1 0.125661 0.263070 0.066570
Si Si2 0.619989 0.287815 0.731802
Si Si3 0.134354 0.631973 0.868590
Si Si4 0.370523 0.045281 0.467327
Si Si5 0.124984 0.637379 0.667760
O O1 0.372635 0.414206 0.048678
O O2 0.875716 0.401370 0.051461
O O3 0.156344 0.255118 0.130979
O O4 0.134699 0.988522 0.032202
O O5 0.414483 0.093629 0.753811
O O6 0.651321 0.237288 0.668524
O O7 0.834107 0.180318 0.769212
O O8 0.143005 0.683999 0.932690
O O9 0.929513 0.833812 0.846748
O O10 0.082684 0.331675 0.853077
#
# Coordination Sequence:
#
# PCOD9315662 Si02
#       5
#     4   4   4   4   4
#     4   9  19  39  66  97 134 176 222 273 330 393
#     4  12  24  40  64  96 130 174 222 278 336 400
#     4  11  23  42  64  93 130 176 222 275 333 398
#     4   9  19  39  66  97 134 176 222 273 330 393
#     4  11  23  42  64  93 130 176 222 275 333 398
#
# _framework density 28.804155999999999
#
# number of rings (size 3 to 8) (size 9 to 14) (size 15 to 20)
#    0.000    1.600    0.000    4.800    0.000    3.200 
#    0.000   18.000    0.000    0.000    0.000    0.000 
#    0.000    0.000    0.000    0.000    0.000    0.000 
#
# Total GULP energy -111963.496926 kJ/mol
# GULP energy per Si atom -5598.174846 kJ/mol
# Density = 2.873860 g / cm^3
# Si number density = 28.804156 Si / 1000 Ang^3
#
#
#
# Elastic Constant Matrix: (Units=GPa)
#
#
# Indices 1 2 3 4 5 6 
#
# 1 163.6289 57.0073 51.0558 0.0000 0.0000 0.0000
# 2 57.0073 86.8749 45.7807 0.0000 0.0000 0.0000
# 3 51.0558 45.7807 53.5785 0.0000 0.0000 0.0000
# 4 0.0000 0.0000 0.0000 35.4257 0.0000 0.0000
# 5 0.0000 0.0000 0.0000 0.0000 59.7736 0.0000
# 6 0.0000 0.0000 0.0000 0.0000 0.0000 54.2790
#
#
#
# Elastic Compliance Matrix: (Units=1/GPa)
#
#
# Indices 1 2 3 4 5 6 
#
# 1 0.008991 -0.002519 -0.006415 0.000000 0.000000 0.000000
# 2 -0.002519 0.021645 -0.016094 0.000000 0.000000 0.000000
# 3 -0.006415 -0.016094 0.038529 0.000000 0.000000 0.000000
# 4 0.000000 0.000000 0.000000 0.028228 0.000000 0.000000
# 5 0.000000 0.000000 0.000000 0.000000 0.016730 0.000000
# 6 0.000000 0.000000 0.000000 0.000000 0.000000 0.018423
#
#
# Mechanical properties :
#
#
# Convention : Reuss Voigt Hill
#
# Bulk Modulus (GPa) = 52.33382 67.97443 60.15412
# Shear Modulus (GPa) = 26.45895 39.91156 33.18525
#
# Velocity S-wave (km/s) = 3.03410 3.72643 3.39794
# Velocity P-wave (km/s) = 5.52111 6.49346 6.02693
#
# Compressibility (1/GPa) = 0.01910810
#
# Stress axis : x y z
#
# Youngs Moduli (GPa) = 111.22712 46.19952 25.95455
#
# Poissons Ratio (x) = 0.11639 0.16649
# Poissons Ratio (y) = 0.28021 0.41772
# Poissons Ratio (z) = 0.71349 0.74355
#
# Static dielectric constant tensor:
#      x y z
#    x 2.298810 0.000000 0.000000 
#    y 0.000000 2.150250 0.000000 
#    z 0.000000 0.000000 2.211810 
# 
# From -- ./inp_files/163.got.cif
#   From: 2010.05.17/outbox.cif.g08.bks.cpg/sg19_1_cif.got.tgz:163.got - 2010.06.03 22:46:19.
