data_PCOD9315141
_publ_section_title
;
Structure prediction by ZEFSAII (Michael W. Deem and Ramdas Pophale) SiO2 
 PCOD9315141
Probable space group: P 21 21 21
;
_chemical_formula_sum "Si O2"
_cell_formula_units_Z 32
_cell_length_a 12.900190
_cell_length_b 12.552750
_cell_length_c 9.214356
_cell_angle_alpha 90.000000
_cell_angle_beta 90.000000
_cell_angle_gamma 90.000000
_cell_volume 1492.107020
_symmetry_space_group_name_H-M "P 21 21 21"
_symmetry_group_IT_number 19
_symmetry_cell_setting 'orthorhombic'
loop_
_space_group_symop_operation_xyz
x,y,z
1/2-x,-y,1/2+z
1/2+x,1/2-y,-z
-x,1/2+y,1/2-z
loop_
_atom_site_type_symbol
_atom_site_label
_atom_site_fract_x
_atom_site_fract_y
_atom_site_fract_z
Si Si1 0.417793 0.082835 0.781074
Si Si2 0.380168 0.893428 0.579093
Si Si3 0.915617 0.751179 0.921438
Si Si4 0.873071 0.808449 0.222603
Si Si5 0.258530 0.561792 0.546603
Si Si6 0.258336 0.765316 0.346043
Si Si7 0.464217 0.520313 0.121188
Si Si8 0.474744 0.468211 0.458435
O O1 0.528770 0.112720 0.712530
O O2 0.348222 0.187670 0.786816
O O3 0.360136 0.991506 0.688226
O O4 0.449150 0.037473 0.939126
O O5 0.408013 0.791614 0.678192
O O6 0.291934 0.847944 0.473111
O O7 0.468258 0.938514 0.472439
O O8 0.845927 0.735416 0.778528
O O9 0.987058 0.652145 0.961455
O O10 0.986027 0.855317 0.900461
O O11 0.844592 0.770022 0.063193
O O12 0.784181 0.870044 0.308943
O O13 0.249031 0.648570 0.417308
O O14 0.154483 0.498040 0.573779
O O15 0.358562 0.489591 0.514841
O O16 0.478531 0.500384 0.290985
#
# Coordination Sequence:
#
# PCOD9315141 Si02
#       8
#     4   4   4   4   4   4   4   4
#     4  11  24  43  69  95 135 185 220 284 349 399
#     4  11  23  42  66  96 139 176 222 282 347 395
#     4  12  24  42  68 103 134 169 236 275 332 421
#     4  10  23  44  66  97 134 179 226 276 341 415
#     4  10  25  46  68  98 138 176 224 285 344 396
#     4  11  25  43  67 101 136 178 232 279 340 417
#     4  12  25  44  72 101 134 181 228 287 340 407
#     4  11  25  46  68  99 140 180 222 288 341 406
#
# _framework density 21.446185
#
# number of rings (size 3 to 8) (size 9 to 14) (size 15 to 20)
#    0.000    1.000    5.000    0.750    3.500    2.000 
#    0.000    2.500    0.000    0.000    0.000    0.000 
#    0.000    0.000    0.000    0.000    0.000    0.000 
#
# Total GULP energy -178896.889610 kJ/mol
# GULP energy per Si atom -5590.527800 kJ/mol
# Density = 2.139737 g / cm^3
# Si number density = 21.446185 Si / 1000 Ang^3
#
#
#
# Elastic Constant Matrix: (Units=GPa)
#
#
# Indices 1 2 3 4 5 6 
#
# 1 25.8477 22.9398 13.1773 0.0000 0.0000 0.0000
# 2 22.9398 88.7763 16.0782 0.0000 0.0000 0.0000
# 3 13.1773 16.0782 115.5779 0.0000 0.0000 0.0000
# 4 0.0000 0.0000 0.0000 21.7272 0.0000 0.0000
# 5 0.0000 0.0000 0.0000 0.0000 8.7075 0.0000
# 6 0.0000 0.0000 0.0000 0.0000 0.0000 23.6888
#
#
#
# Elastic Compliance Matrix: (Units=1/GPa)
#
#
# Indices 1 2 3 4 5 6 
#
# 1 0.052090 -0.012705 -0.004172 0.000000 0.000000 0.000000
# 2 -0.012705 0.014654 -0.000590 0.000000 0.000000 0.000000
# 3 -0.004172 -0.000590 0.009210 0.000000 0.000000 0.000000
# 4 0.000000 0.000000 0.000000 0.046025 0.000000 0.000000
# 5 0.000000 0.000000 0.000000 0.000000 0.114844 0.000000
# 6 0.000000 0.000000 0.000000 0.000000 0.000000 0.042214
#
#
# Mechanical properties :
#
#
# Convention : Reuss Voigt Hill
#
# Bulk Modulus (GPa) = 24.37743 37.17696 30.77719
# Shear Modulus (GPa) = 15.26050 22.69180 18.97615
#
# Velocity S-wave (km/s) = 2.67042 3.25634 2.97783
# Velocity P-wave (km/s) = 4.57162 5.61347 5.11912
#
# Compressibility (1/GPa) = 0.04102156
#
# Stress axis : x y z
#
# Youngs Moduli (GPa) = 19.19751 68.24076 108.57927
#
# Poissons Ratio (x) = 0.86697 0.45294
# Poissons Ratio (y) = 0.24390 0.06407
# Poissons Ratio (z) = 0.08008 0.04027
#
# Static dielectric constant tensor:
#      x y z
#    x 1.736030 0.000000 0.000000 
#    y 0.000000 1.772630 0.000000 
#    z 0.000000 0.000000 1.816060 
# 
# From -- ./inp_files/3953.got.cif
#   From: 2010.05.17/outbox.cif.g08.bks.cpg/sg19_2_cif.got.tgz:3953.got - 2010.06.03 22:46:19.
