data_PCOD9315286
_publ_section_title
;
Structure prediction by ZEFSAII (Michael W. Deem and Ramdas Pophale) SiO2 
 PCOD9315286
Probable space group: P 21 21 21
;
_chemical_formula_sum "Si O2"
_cell_formula_units_Z 32
_cell_length_a 6.291143
_cell_length_b 12.862215
_cell_length_c 18.113498
_cell_angle_alpha 90.000000
_cell_angle_beta 90.000000
_cell_angle_gamma 90.000000
_cell_volume 1465.708645
_symmetry_space_group_name_H-M "P 21 21 21"
_symmetry_group_IT_number 19
_symmetry_cell_setting 'orthorhombic'
loop_
_space_group_symop_operation_xyz
x,y,z
1/2-x,-y,1/2+z
1/2+x,1/2-y,-z
-x,1/2+y,1/2-z
loop_
_atom_site_type_symbol
_atom_site_label
_atom_site_fract_x
_atom_site_fract_y
_atom_site_fract_z
Si Si1 0.385029 0.021865 0.249408
Si Si2 0.140730 0.221849 0.307056
Si Si3 0.657371 0.800867 0.506477
Si Si4 0.220687 0.452595 0.868555
Si Si5 0.534934 0.071260 0.761134
Si Si6 0.730631 0.797187 0.906834
Si Si7 0.899216 0.164633 0.566400
Si Si8 0.686843 0.976904 0.382809
O O1 0.267523 0.122261 0.281796
O O2 0.501192 0.060989 0.175870
O O3 0.545700 0.974889 0.309144
O O4 0.211265 0.932708 0.241379
O O5 0.129988 0.314119 0.248386
O O6 0.245702 0.271531 0.379824
O O7 0.905248 0.193827 0.333098
O O8 0.408285 0.749994 0.503916
O O9 0.647732 0.887995 0.442076
O O10 0.684009 0.857208 0.586135
O O11 0.369372 0.497185 0.803262
O O12 0.168930 0.545763 0.925629
O O13 0.580152 0.035711 0.845131
O O14 0.870018 0.694333 0.903747
O O15 0.853009 0.907051 0.913238
O O16 0.602853 0.795733 0.983081
#
# Coordination Sequence:
#
# PCOD9315286 Si02
#       8
#     4   4   4   4   4   4   4   4
#     4  11  23  45  72  99 143 193 240 315 368 443
#     4  11  23  38  67 101 135 182 240 290 370 442
#     4  12  31  53  79 113 150 208 260 314 376 454
#     4  10  25  47  68 102 147 188 250 306 376 443
#     4  10  24  43  68 104 143 194 243 308 372 443
#     4  12  21  39  67 101 133 176 232 298 373 440
#     4  11  22  40  65 101 136 172 228 296 373 436
#     4  11  25  47  70 105 143 189 249 305 374 443
#
# _framework density 21.832443999999999
#
# number of rings (size 3 to 8) (size 9 to 14) (size 15 to 20)
#    0.000    1.000    5.000    0.750    5.250    0.000 
#    2.250    0.000    0.000    0.000    0.000    0.000 
#    0.000    0.000    0.000    0.000    0.000    0.000 
#
# Total GULP energy -178229.260602 kJ/mol
# GULP energy per Si atom -5569.664394 kJ/mol
# Density = 2.178275 g / cm^3
# Si number density = 21.832444 Si / 1000 Ang^3
#
#
#
# Elastic Constant Matrix: (Units=GPa)
#
#
# Indices 1 2 3 4 5 6 
#
# 1 62.2296 11.5072 1.5757 0.0000 0.0000 0.0000
# 2 11.5072 59.6764 8.5348 0.0000 0.0000 0.0000
# 3 1.5757 8.5348 45.7641 0.0000 0.0000 0.0000
# 4 0.0000 0.0000 0.0000 27.4168 0.0000 0.0000
# 5 0.0000 0.0000 0.0000 0.0000 14.6918 0.0000
# 6 0.0000 0.0000 0.0000 0.0000 0.0000 27.8977
#
#
#
# Elastic Compliance Matrix: (Units=1/GPa)
#
#
# Indices 1 2 3 4 5 6 
#
# 1 0.016664 -0.003217 0.000026 0.000000 0.000000 0.000000
# 2 -0.003217 0.017837 -0.003216 0.000000 0.000000 0.000000
# 3 0.000026 -0.003216 0.022450 0.000000 0.000000 0.000000
# 4 0.000000 0.000000 0.000000 0.036474 0.000000 0.000000
# 5 0.000000 0.000000 0.000000 0.000000 0.068065 0.000000
# 6 0.000000 0.000000 0.000000 0.000000 0.000000 0.035845
#
#
# Mechanical properties :
#
#
# Convention : Reuss Voigt Hill
#
# Bulk Modulus (GPa) = 22.65628 23.43395 23.04511
# Shear Modulus (GPa) = 22.23593 23.73808 22.98700
#
# Velocity S-wave (km/s) = 3.19483 3.30098 3.24834
# Velocity P-wave (km/s) = 4.89991 5.02846 4.96460
#
# Compressibility (1/GPa) = 0.04413787
#
# Stress axis : x y z
#
# Youngs Moduli (GPa) = 60.01065 56.06234 44.54340
#
# Poissons Ratio (x) = 0.18035 -0.00117
# Poissons Ratio (y) = 0.19305 0.14324
# Poissons Ratio (z) = -0.00157 0.18029
#
# Static dielectric constant tensor:
#      x y z
#    x 1.977810 0.000000 0.000000 
#    y 0.000000 1.810720 0.000000 
#    z 0.000000 0.000000 1.763460 
# 
# From -- ./inp_files/6484.got.cif
#   From: 2010.05.17/outbox.cif.g08.bks.cpg/sg19_4_cif.got.tgz:6484.got - 2010.06.03 22:46:19.
