data_PCOD9315896
_publ_section_title
;
Structure prediction by ZEFSAII (Michael W. Deem and Ramdas Pophale) SiO2 
 PCOD9315896
Probable space group: P 21 21 21
;
_chemical_formula_sum "Si O2"
_cell_formula_units_Z 20
_cell_length_a 7.902869
_cell_length_b 10.692178
_cell_length_c 9.638437
_cell_angle_alpha 90.000000
_cell_angle_beta 90.000000
_cell_angle_gamma 90.000000
_cell_volume 814.437151
_symmetry_space_group_name_H-M "P 21 21 21"
_symmetry_group_IT_number 19
_symmetry_cell_setting 'orthorhombic'
loop_
_space_group_symop_operation_xyz
x,y,z
1/2-x,-y,1/2+z
1/2+x,1/2-y,-z
-x,1/2+y,1/2-z
loop_
_atom_site_type_symbol
_atom_site_label
_atom_site_fract_x
_atom_site_fract_y
_atom_site_fract_z
Si Si1 0.464796 0.049946 0.082702
Si Si2 0.435132 0.658453 0.703108
Si Si3 0.349054 0.313100 0.426278
Si Si4 0.559528 0.079906 0.392264
Si Si5 0.570376 0.427527 0.876562
O O1 0.554889 0.076739 0.228184
O O2 0.269374 0.087652 0.092402
O O3 0.486851 0.900960 0.066451
O O4 0.559407 0.116679 0.956384
O O5 0.257732 0.662478 0.785661
O O6 0.540669 0.550863 0.782609
O O7 0.494224 0.802755 0.699956
O O8 0.405175 0.171291 0.433837
O O9 0.227388 0.358902 0.547749
O O10 0.524032 0.953579 0.477808
#
# Coordination Sequence:
#
# PCOD9315896 Si02
#       5
#     4   4   4   4   4
#     4  12  25  46  78 109 151 199 257 311 387 446
#     4  11  27  49  75 115 156 198 265 311 382 457
#     4  11  25  48  71 111 147 206 248 322 372 464
#     4  11  25  46  75 103 154 197 254 305 391 443
#     4  11  26  49  77 112 156 204 248 323 376 462
#
# _framework density 24.556836000000001
#
# number of rings (size 3 to 8) (size 9 to 14) (size 15 to 20)
#    0.000    0.800    2.000    3.600    8.400    3.200 
#   14.400    0.000    0.000    0.000    0.000    0.000 
#    0.000    0.000    0.000    0.000    0.000    0.000 
#
# Total GULP energy -112021.447805 kJ/mol
# GULP energy per Si atom -5601.072390 kJ/mol
# Density = 2.450094 g / cm^3
# Si number density = 24.556836 Si / 1000 Ang^3
#
#
#
# Elastic Constant Matrix: (Units=GPa)
#
#
# Indices 1 2 3 4 5 6 
#
# 1 69.1848 30.6661 31.7038 0.0000 0.0000 0.0000
# 2 30.6661 121.2605 44.5483 0.0000 0.0000 0.0000
# 3 31.7038 44.5483 177.7255 0.0000 0.0000 0.0000
# 4 0.0000 0.0000 0.0000 30.0765 0.0000 0.0000
# 5 0.0000 0.0000 0.0000 0.0000 22.5388 0.0000
# 6 0.0000 0.0000 0.0000 0.0000 0.0000 41.1900
#
#
#
# Elastic Compliance Matrix: (Units=1/GPa)
#
#
# Indices 1 2 3 4 5 6 
#
# 1 0.016995 -0.003507 -0.002153 0.000000 0.000000 0.000000
# 2 -0.003507 0.009807 -0.001833 0.000000 0.000000 0.000000
# 3 -0.002153 -0.001833 0.006470 0.000000 0.000000 0.000000
# 4 0.000000 0.000000 0.000000 0.033249 0.000000 0.000000
# 5 0.000000 0.000000 0.000000 0.000000 0.044368 0.000000
# 6 0.000000 0.000000 0.000000 0.000000 0.000000 0.024278
#
#
# Mechanical properties :
#
#
# Convention : Reuss Voigt Hill
#
# Bulk Modulus (GPa) = 54.68267 64.66747 59.67507
# Shear Modulus (GPa) = 32.00072 36.17788 34.08930
#
# Velocity S-wave (km/s) = 3.61380 3.84243 3.72987
# Velocity P-wave (km/s) = 6.30309 6.78798 6.55002
#
# Compressibility (1/GPa) = 0.01828733
#
# Stress axis : x y z
#
# Youngs Moduli (GPa) = 58.84089 101.96918 154.55981
#
# Poissons Ratio (x) = 0.35762 0.33270
# Poissons Ratio (y) = 0.20636 0.28324
# Poissons Ratio (z) = 0.12666 0.18686
#
# Static dielectric constant tensor:
#      x y z
#    x 1.916000 0.000000 0.000000 
#    y 0.000000 1.978260 0.000000 
#    z 0.000000 0.000000 1.957870 
# 
# From -- ./inp_files/2599.got.cif
#   From: 2010.05.17/outbox.cif.g08.bks.cpg/sg19_2_cif.got.tgz:2599.got - 2010.06.03 22:46:19.
