data_PCOD9315118
_publ_section_title
;
Structure prediction by ZEFSAII (Michael W. Deem and Ramdas Pophale) SiO2 
 PCOD9315118
Probable space group: P 21 21 21
;
_chemical_formula_sum "Si O2"
_cell_formula_units_Z 16
_cell_length_a 8.210576
_cell_length_b 13.098844
_cell_length_c 5.268974
_cell_angle_alpha 90.000000
_cell_angle_beta 90.000000
_cell_angle_gamma 90.000000
_cell_volume 566.673170
_symmetry_space_group_name_H-M "P 21 21 21"
_symmetry_group_IT_number 19
_symmetry_cell_setting 'orthorhombic'
loop_
_space_group_symop_operation_xyz
x,y,z
1/2-x,-y,1/2+z
1/2+x,1/2-y,-z
-x,1/2+y,1/2-z
loop_
_atom_site_type_symbol
_atom_site_label
_atom_site_fract_x
_atom_site_fract_y
_atom_site_fract_z
Si Si1 0.848413 0.250453 0.896665
Si Si2 0.599371 0.209170 0.501208
Si Si3 0.668623 0.546605 0.651790
Si Si4 0.078974 0.606061 0.205489
O O1 0.680667 0.209534 0.782339
O O2 0.942838 0.314375 0.678208
O O3 0.825461 0.330966 0.126786
O O4 0.938413 0.152351 0.012708
O O5 0.544326 0.329537 0.527081
O O6 0.739991 0.140216 0.369832
O O7 0.746425 0.502657 0.395502
O O8 0.481670 0.508428 0.682747
#
# Coordination Sequence:
#
# PCOD9315118 Si02
#       4
#     4   4   4   4
#     4  11  24  46  76 114 150 204 259 307 392 451
#     4  10  23  43  74 107 146 205 247 316 379 453
#     4  12  28  48  78 116 151 202 260 317 380 459
#     4  11  23  45  74 107 155 195 250 316 375 451
#
# _framework density 28.234971999999999
#
# number of rings (size 3 to 8) (size 9 to 14) (size 15 to 20)
#    0.000    1.000    2.500    3.000   10.500    0.000 
#    4.500    0.000    0.000    0.000    0.000    0.000 
#    0.000    0.000    0.000    0.000    0.000    0.000 
#
# Total GULP energy -89146.700072 kJ/mol
# GULP energy per Si atom -5571.668755 kJ/mol
# Density = 2.817071 g / cm^3
# Si number density = 28.234972 Si / 1000 Ang^3
#
#
#
# Elastic Constant Matrix: (Units=GPa)
#
#
# Indices 1 2 3 4 5 6 
#
# 1 129.9949 53.3094 33.3014 0.0000 0.0000 0.0000
# 2 53.3094 101.1130 22.0524 0.0000 0.0000 0.0000
# 3 33.3014 22.0524 142.2781 0.0000 0.0000 0.0000
# 4 0.0000 0.0000 0.0000 21.6176 0.0000 0.0000
# 5 0.0000 0.0000 0.0000 0.0000 66.4102 0.0000
# 6 0.0000 0.0000 0.0000 0.0000 0.0000 54.2338
#
#
#
# Elastic Compliance Matrix: (Units=1/GPa)
#
#
# Indices 1 2 3 4 5 6 
#
# 1 0.010155 -0.005005 -0.001601 0.000000 0.000000 0.000000
# 2 -0.005005 0.012703 -0.000797 0.000000 0.000000 0.000000
# 3 -0.001601 -0.000797 0.007527 0.000000 0.000000 0.000000
# 4 0.000000 0.000000 0.000000 0.046259 0.000000 0.000000
# 5 0.000000 0.000000 0.000000 0.000000 0.015058 0.000000
# 6 0.000000 0.000000 0.000000 0.000000 0.000000 0.018439
#
#
# Mechanical properties :
#
#
# Convention : Reuss Voigt Hill
#
# Bulk Modulus (GPa) = 64.19435 65.63469 64.91452
# Shear Modulus (GPa) = 38.42035 46.10051 42.26043
#
# Velocity S-wave (km/s) = 3.69282 4.04511 3.87297
# Velocity P-wave (km/s) = 6.40060 6.71666 6.56053
#
# Compressibility (1/GPa) = 0.01557769
#
# Stress axis : x y z
#
# Youngs Moduli (GPa) = 98.47129 78.72435 132.85769
#
# Poissons Ratio (x) = 0.39401 0.21273
# Poissons Ratio (y) = 0.49284 0.10594
# Poissons Ratio (z) = 0.15767 0.06277
#
# Static dielectric constant tensor:
#      x y z
#    x 2.314590 0.000000 0.000000 
#    y 0.000000 2.117610 0.000000 
#    z 0.000000 0.000000 2.363770 
# 
# From -- ./inp_files/275.got.cif
#   From: 2010.05.17/outbox.cif.g08.bks.cpg/sg19_1_cif.got.tgz:275.got - 2010.06.03 22:46:19.
