data_PCOD9315554
_publ_section_title
;
Structure prediction by ZEFSAII (Michael W. Deem and Ramdas Pophale) SiO2 
 PCOD9315554
Probable space group: P 21 21 21
;
_chemical_formula_sum "Si O2"
_cell_formula_units_Z 28
_cell_length_a 12.381239
_cell_length_b 6.347166
_cell_length_c 16.090544
_cell_angle_alpha 90.000000
_cell_angle_beta 90.000000
_cell_angle_gamma 90.000000
_cell_volume 1264.487938
_symmetry_space_group_name_H-M "P 21 21 21"
_symmetry_group_IT_number 19
_symmetry_cell_setting 'orthorhombic'
loop_
_space_group_symop_operation_xyz
x,y,z
1/2-x,-y,1/2+z
1/2+x,1/2-y,-z
-x,1/2+y,1/2-z
loop_
_atom_site_type_symbol
_atom_site_label
_atom_site_fract_x
_atom_site_fract_y
_atom_site_fract_z
Si Si1 0.594931 0.636580 0.807089
Si Si2 0.761265 0.395029 0.924708
Si Si3 0.094526 0.224891 0.786508
Si Si4 0.494956 0.923063 0.118926
Si Si5 0.673487 0.592462 0.083829
Si Si6 0.364691 0.798935 0.823889
Si Si7 0.742712 0.021794 0.812283
O O1 0.671503 0.496115 0.864287
O O2 0.470596 0.655947 0.831770
O O3 0.603680 0.528490 0.715356
O O4 0.640611 0.870130 0.822410
O O5 0.874246 0.525965 0.914934
O O6 0.778690 0.155000 0.892741
O O7 0.702686 0.424869 0.012741
O O8 0.011842 0.152736 0.715633
O O9 0.172469 0.368727 0.731421
O O10 0.048741 0.350861 0.865158
O O11 0.151131 0.026640 0.829251
O O12 0.574029 0.757319 0.072315
O O13 0.789745 0.702398 0.095717
O O14 0.289513 0.690333 0.755878
#
# Coordination Sequence:
#
# PCOD9315554 Si02
#       7
#     4   4   4   4   4   4   4
#     4  11  22  41  71  97 137 182 220 291 339 406
#     4  11  28  44  63 106 146 179 222 285 369 413
#     4  12  22  44  74 100 131 185 245 286 329 412
#     4  12  24  44  74 101 138 180 234 292 346 414
#     4  12  27  44  67 109 140 178 234 287 350 418
#     4  11  22  41  68 104 132 175 242 272 331 418
#     4  11  21  44  67  99 138 181 233 285 334 411
#
# _framework density 22.143350999999999
#
# number of rings (size 3 to 8) (size 9 to 14) (size 15 to 20)
#    0.000    0.571    7.143    1.714    2.000    1.143 
#    0.000    0.000    0.000    0.000    0.000    0.000 
#    0.000    0.000    0.000    0.000    0.000    0.000 
#
# Total GULP energy -156060.459283 kJ/mol
# GULP energy per Si atom -5573.587832 kJ/mol
# Density = 2.209295 g / cm^3
# Si number density = 22.143351 Si / 1000 Ang^3
#
#
#
# Elastic Constant Matrix: (Units=GPa)
#
#
# Indices 1 2 3 4 5 6 
#
# 1 123.0527 25.0299 16.7214 0.0000 0.0000 0.0000
# 2 25.0299 73.2331 2.2312 0.0000 0.0000 0.0000
# 3 16.7214 2.2312 33.1914 0.0000 0.0000 0.0000
# 4 0.0000 0.0000 0.0000 21.9787 0.0000 0.0000
# 5 0.0000 0.0000 0.0000 0.0000 20.2618 0.0000
# 6 0.0000 0.0000 0.0000 0.0000 0.0000 37.9294
#
#
#
# Elastic Compliance Matrix: (Units=1/GPa)
#
#
# Indices 1 2 3 4 5 6 
#
# 1 0.009363 -0.003063 -0.004511 0.000000 0.000000 0.000000
# 2 -0.003063 0.014685 0.000556 0.000000 0.000000 0.000000
# 3 -0.004511 0.000556 0.032363 0.000000 0.000000 0.000000
# 4 0.000000 0.000000 0.000000 0.045499 0.000000 0.000000
# 5 0.000000 0.000000 0.000000 0.000000 0.049354 0.000000
# 6 0.000000 0.000000 0.000000 0.000000 0.000000 0.026365
#
#
# Mechanical properties :
#
#
# Convention : Reuss Voigt Hill
#
# Bulk Modulus (GPa) = 23.59857 35.27135 29.43496
# Shear Modulus (GPa) = 24.29677 28.40028 26.34853
#
# Velocity S-wave (km/s) = 3.31607 3.58518 3.45324
# Velocity P-wave (km/s) = 5.03409 5.75336 5.40570
#
# Compressibility (1/GPa) = 0.04237544
#
# Stress axis : x y z
#
# Youngs Moduli (GPa) = 106.80905 68.09752 30.89908
#
# Poissons Ratio (x) = 0.20855 0.13938
# Poissons Ratio (y) = 0.32710 -0.01717
# Poissons Ratio (z) = 0.48180 -0.03784
#
# Static dielectric constant tensor:
#      x y z
#    x 1.929040 0.000000 0.000000 
#    y 0.000000 1.910510 0.000000 
#    z 0.000000 0.000000 1.882350 
# 
# From -- ./inp_files/1028.got.cif
#   From: 2010.05.17/outbox.cif.g08.bks.cpg/sg19_1_cif.got.tgz:1028.got - 2010.06.03 22:46:19.
