data_PCOD9315862
_publ_section_title
;
Structure prediction by ZEFSAII (Michael W. Deem and Ramdas Pophale) SiO2 
 PCOD9315862
Probable space group: P 21 21 21
;
_chemical_formula_sum "Si O2"
_cell_formula_units_Z 20
_cell_length_a 11.962487
_cell_length_b 9.477992
_cell_length_c 6.558635
_cell_angle_alpha 90.000000
_cell_angle_beta 90.000000
_cell_angle_gamma 90.000000
_cell_volume 743.620372
_symmetry_space_group_name_H-M "P 21 21 21"
_symmetry_group_IT_number 19
_symmetry_cell_setting 'orthorhombic'
loop_
_space_group_symop_operation_xyz
x,y,z
1/2-x,-y,1/2+z
1/2+x,1/2-y,-z
-x,1/2+y,1/2-z
loop_
_atom_site_type_symbol
_atom_site_label
_atom_site_fract_x
_atom_site_fract_y
_atom_site_fract_z
Si Si1 0.937113 0.251233 0.435914
Si Si2 0.171497 0.517473 0.310373
Si Si3 0.600447 0.560978 0.552072
Si Si4 0.236015 0.191147 0.264744
Si Si5 0.915967 0.915113 0.788299
O O1 0.949323 0.340387 0.229254
O O2 0.899295 0.099137 0.357063
O O3 0.037920 0.277391 0.593883
O O4 0.830733 0.309941 0.560134
O O5 0.195092 0.353050 0.264222
O O6 0.293290 0.592181 0.309528
O O7 0.106711 0.524031 0.525456
O O8 0.643501 0.421117 0.665956
O O9 0.706647 0.637834 0.443811
O O10 0.513224 0.545916 0.366669
#
# Coordination Sequence:
#
# PCOD9315862 Si02
#       5
#     4   4   4   4   4
#     4  11  26  52  81 121 166 227 281 355 433 516
#     4  12  26  54  80 118 172 220 286 365 422 525
#     4  11  25  50  81 123 171 224 282 357 427 517
#     4  11  24  48  84 121 172 226 285 349 434 510
#     4  11  29  50  82 121 171 221 290 350 442 510
#
# _framework density 26.895446
#
# number of rings (size 3 to 8) (size 9 to 14) (size 15 to 20)
#    0.000    0.800    4.000    1.200    2.800    6.400 
#    0.000    0.000    0.000    0.000    0.000    0.000 
#    0.000    0.000    0.000    0.000    0.000    0.000 
#
# Total GULP energy -112164.150744 kJ/mol
# GULP energy per Si atom -5608.207537 kJ/mol
# Density = 2.683423 g / cm^3
# Si number density = 26.895446 Si / 1000 Ang^3
#
#
#
# Elastic Constant Matrix: (Units=GPa)
#
#
# Indices 1 2 3 4 5 6 
#
# 1 174.0679 88.1767 69.3166 0.0000 0.0000 0.0000
# 2 88.1767 164.8935 74.1740 0.0000 0.0000 0.0000
# 3 69.3166 74.1740 157.9780 0.0000 0.0000 0.0000
# 4 0.0000 0.0000 0.0000 60.2570 0.0000 0.0000
# 5 0.0000 0.0000 0.0000 0.0000 77.7481 0.0000
# 6 0.0000 0.0000 0.0000 0.0000 0.0000 41.4445
#
#
#
# Elastic Compliance Matrix: (Units=1/GPa)
#
#
# Indices 1 2 3 4 5 6 
#
# 1 0.008343 -0.003568 -0.001985 0.000000 0.000000 0.000000
# 2 -0.003568 0.009215 -0.002761 0.000000 0.000000 0.000000
# 3 -0.001985 -0.002761 0.008497 0.000000 0.000000 0.000000
# 4 0.000000 0.000000 0.000000 0.016596 0.000000 0.000000
# 5 0.000000 0.000000 0.000000 0.000000 0.012862 0.000000
# 6 0.000000 0.000000 0.000000 0.000000 0.000000 0.024129
#
#
# Mechanical properties :
#
#
# Convention : Reuss Voigt Hill
#
# Bulk Modulus (GPa) = 106.08795 106.69712 106.39253
# Shear Modulus (GPa) = 50.29566 53.57472 51.93519
#
# Velocity S-wave (km/s) = 4.32909 4.46798 4.39909
# Velocity P-wave (km/s) = 8.03233 8.14705 8.08989
#
# Compressibility (1/GPa) = 0.00942614
#
# Stress axis : x y z
#
# Youngs Moduli (GPa) = 119.85958 108.52363 117.68453
#
# Poissons Ratio (x) = 0.38726 0.23364
# Poissons Ratio (y) = 0.42771 0.32489
# Poissons Ratio (z) = 0.23796 0.29960
#
# Static dielectric constant tensor:
#      x y z
#    x 2.166870 0.000000 0.000000 
#    y 0.000000 2.137040 0.000000 
#    z 0.000000 0.000000 2.084450 
# 
# From -- ./inp_files/3297.got.cif
#   From: 2010.05.17/outbox.cif.g08.bks.cpg/sg19_2_cif.got.tgz:3297.got - 2010.06.03 22:46:19.
