data_PCOD9315203
_publ_section_title
;
Structure prediction by ZEFSAII (Michael W. Deem and Ramdas Pophale) SiO2 
 PCOD9315203
Probable space group: P 21 21 21
;
_chemical_formula_sum "Si O2"
_cell_formula_units_Z 32
_cell_length_a 6.658261
_cell_length_b 10.730323
_cell_length_c 18.978351
_cell_angle_alpha 90.000000
_cell_angle_beta 90.000000
_cell_angle_gamma 90.000000
_cell_volume 1355.913813
_symmetry_space_group_name_H-M "P 21 21 21"
_symmetry_group_IT_number 19
_symmetry_cell_setting 'orthorhombic'
loop_
_space_group_symop_operation_xyz
x,y,z
1/2-x,-y,1/2+z
1/2+x,1/2-y,-z
-x,1/2+y,1/2-z
loop_
_atom_site_type_symbol
_atom_site_label
_atom_site_fract_x
_atom_site_fract_y
_atom_site_fract_z
Si Si1 0.399252 0.087720 0.192752
Si Si2 0.538236 0.241179 0.401920
Si Si3 0.792441 0.853387 0.311764
Si Si4 0.942722 0.313808 0.446364
Si Si5 0.588337 0.485396 0.155523
Si Si6 0.242966 0.571441 0.837515
Si Si7 0.866111 0.291578 0.075203
Si Si8 0.339265 0.919791 0.551245
O O1 0.343874 0.232100 0.204865
O O2 0.252842 0.059373 0.128116
O O3 0.351340 0.010147 0.263327
O O4 0.633430 0.063504 0.170683
O O5 0.780450 0.239996 0.399780
O O6 0.503208 0.265026 0.485389
O O7 0.459062 0.348459 0.350917
O O8 0.409713 0.120871 0.379905
O O9 0.646314 0.956177 0.342468
O O10 0.858268 0.900867 0.235070
O O11 0.952225 0.827760 0.372206
O O12 0.854913 0.442205 0.478020
O O13 0.120026 0.373131 0.399407
O O14 0.690281 0.367462 0.117112
O O15 0.945598 0.150673 0.057669
O O16 0.816830 0.342469 0.996646
#
# Coordination Sequence:
#
# PCOD9315203 Si02
#       8
#     4   4   4   4   4   4   4   4
#     4  10  23  46  71  98 148 185 248 305 371 448
#     4  12  24  45  68 106 146 189 241 313 371 456
#     4  10  25  46  70 107 138 199 244 308 376 445
#     4  12  26  43  72 110 141 196 250 299 383 443
#     4  11  25  46  71 103 148 192 241 310 375 447
#     4  11  24  43  70 105 146 190 244 309 380 450
#     4  11  27  46  72 105 151 188 254 304 377 446
#     4  11  26  45  72 110 144 197 246 310 373 453
#
# _framework density 23.60032
#
# number of rings (size 3 to 8) (size 9 to 14) (size 15 to 20)
#    0.000    1.000    5.000    0.000    7.000    3.000 
#    0.000    0.000    0.000    0.000    0.000    0.000 
#    0.000    0.000    0.000    0.000    0.000    0.000 
#
# Total GULP energy -178169.175655 kJ/mol
# GULP energy per Si atom -5567.786739 kJ/mol
# Density = 2.354660 g / cm^3
# Si number density = 23.600320 Si / 1000 Ang^3
#
#
#
# Elastic Constant Matrix: (Units=GPa)
#
#
# Indices 1 2 3 4 5 6 
#
# 1 51.6096 21.3411 42.6268 0.0000 0.0000 0.0000
# 2 21.3411 62.3632 23.4333 0.0000 0.0000 0.0000
# 3 42.6268 23.4333 102.5332 0.0000 0.0000 0.0000
# 4 0.0000 0.0000 0.0000 22.9828 0.0000 0.0000
# 5 0.0000 0.0000 0.0000 0.0000 40.6976 0.0000
# 6 0.0000 0.0000 0.0000 0.0000 0.0000 35.3252
#
#
#
# Elastic Compliance Matrix: (Units=1/GPa)
#
#
# Indices 1 2 3 4 5 6 
#
# 1 0.031718 -0.006453 -0.011711 0.000000 0.000000 0.000000
# 2 -0.006453 0.018855 -0.001626 0.000000 0.000000 0.000000
# 3 -0.011711 -0.001626 0.014993 0.000000 0.000000 0.000000
# 4 0.000000 0.000000 0.000000 0.043511 0.000000 0.000000
# 5 0.000000 0.000000 0.000000 0.000000 0.024571 0.000000
# 6 0.000000 0.000000 0.000000 0.000000 0.000000 0.028308
#
#
# Mechanical properties :
#
#
# Convention : Reuss Voigt Hill
#
# Bulk Modulus (GPa) = 38.48543 43.47871 40.98207
# Shear Modulus (GPa) = 23.78693 28.40810 26.09751
#
# Velocity S-wave (km/s) = 3.17820 3.47323 3.32898
# Velocity P-wave (km/s) = 5.45990 5.87770 5.67265
#
# Compressibility (1/GPa) = 0.02598386
#
# Stress axis : x y z
#
# Youngs Moduli (GPa) = 31.52814 53.03765 66.69595
#
# Poissons Ratio (x) = 0.34227 0.78110
# Poissons Ratio (y) = 0.20346 0.10846
# Poissons Ratio (z) = 0.36924 0.08625
#
# Static dielectric constant tensor:
#      x y z
#    x 1.948840 0.000000 0.000000 
#    y 0.000000 1.988030 0.000000 
#    z 0.000000 0.000000 1.923000 
# 
# From -- ./inp_files/6946.got.cif
#   From: 2010.05.17/outbox.cif.g08.bks.cpg/sg19_4_cif.got.tgz:6946.got - 2010.06.03 22:46:19.
