data_PCOD9315883
_publ_section_title
;
Structure prediction by ZEFSAII (Michael W. Deem and Ramdas Pophale) SiO2 
 PCOD9315883
Probable space group: P 21 21 21
;
_chemical_formula_sum "Si O2"
_cell_formula_units_Z 32
_cell_length_a 8.288860
_cell_length_b 12.057524
_cell_length_c 15.622206
_cell_angle_alpha 90.000000
_cell_angle_beta 90.000000
_cell_angle_gamma 90.000000
_cell_volume 1561.332140
_symmetry_space_group_name_H-M "P 21 21 21"
_symmetry_group_IT_number 19
_symmetry_cell_setting 'orthorhombic'
loop_
_space_group_symop_operation_xyz
x,y,z
1/2-x,-y,1/2+z
1/2+x,1/2-y,-z
-x,1/2+y,1/2-z
loop_
_atom_site_type_symbol
_atom_site_label
_atom_site_fract_x
_atom_site_fract_y
_atom_site_fract_z
Si Si1 0.056973 0.490908 0.332623
Si Si2 0.047991 0.103499 0.510694
Si Si3 0.448627 0.981736 0.355424
Si Si4 0.427339 0.055159 0.852761
Si Si5 0.071934 0.463109 0.826404
Si Si6 0.447319 0.251292 0.099864
Si Si7 0.930596 0.353294 0.490090
Si Si8 0.574818 0.283280 0.909608
O O1 0.246530 0.495414 0.313241
O O2 0.962297 0.481943 0.243667
O O3 0.013065 0.396837 0.402603
O O4 0.007540 0.606562 0.375406
O O5 0.239427 0.125281 0.515581
O O6 0.964758 0.223773 0.505440
O O7 0.010931 0.030133 0.425914
O O8 0.997243 0.033871 0.594156
O O9 0.264881 0.940733 0.367809
O O10 0.559475 0.873641 0.361724
O O11 0.470522 0.026519 0.260204
O O12 0.487628 0.071567 0.429007
O O13 0.511732 0.173774 0.862546
O O14 0.061605 0.334087 0.851190
O O15 0.267024 0.204030 0.096228
O O16 0.520960 0.265704 0.006540
#
# Coordination Sequence:
#
# PCOD9315883 Si02
#       8
#     4   4   4   4   4   4   4   4
#     4  12  26  44  69  99 135 177 221 272 332 394
#     4  11  25  45  69  96 135 176 221 274 331 395
#     4  11  25  45  69  98 133 176 224 274 331 393
#     4  11  25  45  69  98 133 176 224 274 331 393
#     4  12  26  44  69  99 135 177 221 272 332 394
#     4  12  24  43  70  99 133 173 222 275 331 392
#     4  11  25  45  69  96 135 176 221 274 331 395
#     4  12  24  43  70  99 133 173 222 275 331 392
#
# _framework density 20.49532
#
# number of rings (size 3 to 8) (size 9 to 14) (size 15 to 20)
#    0.000    0.500    2.500    6.000    3.500    3.000 
#    0.000    0.000    0.000    0.000    0.000    0.000 
#    0.000    0.000    0.000    0.000    0.000    0.000 
#
# Total GULP energy -179071.631914 kJ/mol
# GULP energy per Si atom -5595.988497 kJ/mol
# Density = 2.044867 g / cm^3
# Si number density = 20.495320 Si / 1000 Ang^3
#
#
#
# Elastic Constant Matrix: (Units=GPa)
#
#
# Indices 1 2 3 4 5 6 
#
# 1 39.8845 -23.8111 -4.2769 0.0000 0.0000 0.0000
# 2 -23.8111 90.4501 33.3232 0.0000 0.0000 0.0000
# 3 -4.2769 33.3232 117.3496 0.0000 0.0000 0.0000
# 4 0.0000 0.0000 0.0000 27.6556 0.0000 0.0000
# 5 0.0000 0.0000 0.0000 0.0000 44.4737 0.0000
# 6 0.0000 0.0000 0.0000 0.0000 0.0000 37.0113
#
#
#
# Elastic Compliance Matrix: (Units=1/GPa)
#
#
# Indices 1 2 3 4 5 6 
#
# 1 0.029919 0.008348 -0.001280 0.000000 0.000000 0.000000
# 2 0.008348 0.014677 -0.003863 0.000000 0.000000 0.000000
# 3 -0.001280 -0.003863 0.009572 0.000000 0.000000 0.000000
# 4 0.000000 0.000000 0.000000 0.036159 0.000000 0.000000
# 5 0.000000 0.000000 0.000000 0.000000 0.022485 0.000000
# 6 0.000000 0.000000 0.000000 0.000000 0.000000 0.027019
#
#
# Mechanical properties :
#
#
# Convention : Reuss Voigt Hill
#
# Bulk Modulus (GPa) = 16.50819 28.68383 22.59601
# Shear Modulus (GPa) = 32.54913 37.99139 35.27026
#
# Velocity S-wave (km/s) = 3.98945 4.31009 4.15287
# Velocity P-wave (km/s) = 5.41231 6.22855 5.83472
#
# Compressibility (1/GPa) = 0.06057599
#
# Stress axis : x y z
#
# Youngs Moduli (GPa) = 33.42383 68.13505 104.47165
#
# Poissons Ratio (x) = -0.56878 0.13373
# Poissons Ratio (y) = -0.27901 0.40362
# Poissons Ratio (z) = 0.04278 0.26324
#
# Static dielectric constant tensor:
#      x y z
#    x 1.706560 0.000000 0.000000 
#    y 0.000000 1.665310 0.000000 
#    z 0.000000 0.000000 1.791840 
# 
# From -- ./inp_files/5962.got.cif
#   From: 2010.05.17/outbox.cif.g08.bks.cpg/sg19_3_cif.got.tgz:5962.got - 2010.06.03 22:46:19.
