data_PCOD9315690
_publ_section_title
;
Structure prediction by ZEFSAII (Michael W. Deem and Ramdas Pophale) SiO2 
 PCOD9315690
Probable space group: P 21 21 21
;
_chemical_formula_sum "Si O2"
_cell_formula_units_Z 16
_cell_length_a 6.754775
_cell_length_b 9.364091
_cell_length_c 13.127726
_cell_angle_alpha 90.000000
_cell_angle_beta 90.000000
_cell_angle_gamma 90.000000
_cell_volume 830.359228
_symmetry_space_group_name_H-M "P 21 21 21"
_symmetry_group_IT_number 19
_symmetry_cell_setting 'orthorhombic'
loop_
_space_group_symop_operation_xyz
x,y,z
1/2-x,-y,1/2+z
1/2+x,1/2-y,-z
-x,1/2+y,1/2-z
loop_
_atom_site_type_symbol
_atom_site_label
_atom_site_fract_x
_atom_site_fract_y
_atom_site_fract_z
Si Si1 0.598678 0.513998 0.848750
Si Si2 0.510103 0.665607 0.370097
Si Si3 0.691606 0.940667 0.468145
Si Si4 0.179778 0.660558 0.198168
O O1 0.483404 0.429691 0.759942
O O2 0.603869 0.681380 0.825473
O O3 0.818424 0.450812 0.857153
O O4 0.479612 0.483554 0.952634
O O5 0.610703 0.817308 0.393934
O O6 0.371188 0.623493 0.465374
O O7 0.370479 0.671844 0.271686
O O8 0.762742 0.074782 0.402865
#
# Coordination Sequence:
#
# PCOD9315690 Si02
#       4
#     4   4   4   4
#     4  11  25  44  69  97 135 172 218 275 323 393
#     4  11  23  44  69  94 131 181 213 277 325 380
#     4  11  24  43  68  98 134 173 222 265 332 386
#     4  11  26  43  68 101 132 174 221 267 330 395
#
# _framework density 19.26877
#
# number of rings (size 3 to 8) (size 9 to 14) (size 15 to 20)
#    0.000    1.000    2.500    3.000    7.000    4.000 
#    0.000    0.000    0.000    0.000    0.000    0.000 
#    0.000    0.000    0.000    0.000    0.000    0.000 
#
# Total GULP energy -89541.979555 kJ/mol
# GULP energy per Si atom -5596.373722 kJ/mol
# Density = 1.922491 g / cm^3
# Si number density = 19.268770 Si / 1000 Ang^3
#
#
#
# Elastic Constant Matrix: (Units=GPa)
#
#
# Indices 1 2 3 4 5 6 
#
# 1 65.8990 13.8073 -9.0221 0.0000 0.0000 0.0000
# 2 13.8073 148.5524 8.9474 0.0000 0.0000 0.0000
# 3 -9.0221 8.9474 25.2432 0.0000 0.0000 0.0000
# 4 0.0000 0.0000 0.0000 36.2385 0.0000 0.0000
# 5 0.0000 0.0000 0.0000 0.0000 6.9384 0.0000
# 6 0.0000 0.0000 0.0000 0.0000 0.0000 37.6842
#
#
#
# Elastic Compliance Matrix: (Units=1/GPa)
#
#
# Indices 1 2 3 4 5 6 
#
# 1 0.016478 -0.001927 0.006573 0.000000 0.000000 0.000000
# 2 -0.001927 0.007104 -0.003207 0.000000 0.000000 0.000000
# 3 0.006573 -0.003207 0.043100 0.000000 0.000000 0.000000
# 4 0.000000 0.000000 0.000000 0.027595 0.000000 0.000000
# 5 0.000000 0.000000 0.000000 0.000000 0.144125 0.000000
# 6 0.000000 0.000000 0.000000 0.000000 0.000000 0.026536
#
#
# Mechanical properties :
#
#
# Convention : Reuss Voigt Hill
#
# Bulk Modulus (GPa) = 14.37622 29.68444 22.03033
# Shear Modulus (GPa) = 17.52854 31.23636 24.38245
#
# Velocity S-wave (km/s) = 3.01937 4.03064 3.56109
# Velocity P-wave (km/s) = 4.43087 6.09100 5.32602
#
# Compressibility (1/GPa) = 0.06955933
#
# Stress axis : x y z
#
# Youngs Moduli (GPa) = 60.68540 140.76712 23.20168
#
# Poissons Ratio (x) = 0.27132 -0.15250
# Poissons Ratio (y) = 0.11697 0.07440
# Poissons Ratio (z) = -0.39886 0.45142
#
# Static dielectric constant tensor:
#      x y z
#    x 1.649820 0.000000 0.000000 
#    y 0.000000 1.632110 0.000000 
#    z 0.000000 0.000000 1.645370 
# 
# From -- ./inp_files/258.got.cif
#   From: 2010.05.17/outbox.cif.g08.bks.cpg/sg19_1_cif.got.tgz:258.got - 2010.06.03 22:46:19.
