data_PCOD9315929
_publ_section_title
;
Structure prediction by ZEFSAII (Michael W. Deem and Ramdas Pophale) SiO2 
 PCOD9315929
Probable space group: P 21 21 21
;
_chemical_formula_sum "Si O2"
_cell_formula_units_Z 24
_cell_length_a 7.142640
_cell_length_b 12.782482
_cell_length_c 10.328199
_cell_angle_alpha 90.000000
_cell_angle_beta 90.000000
_cell_angle_gamma 90.000000
_cell_volume 942.971460
_symmetry_space_group_name_H-M "P 21 21 21"
_symmetry_group_IT_number 19
_symmetry_cell_setting 'orthorhombic'
loop_
_space_group_symop_operation_xyz
x,y,z
1/2-x,-y,1/2+z
1/2+x,1/2-y,-z
-x,1/2+y,1/2-z
loop_
_atom_site_type_symbol
_atom_site_label
_atom_site_fract_x
_atom_site_fract_y
_atom_site_fract_z
Si Si1 0.375545 0.000473 0.019620
Si Si2 0.244667 0.795508 0.905755
Si Si3 0.741303 0.002971 0.669281
Si Si4 0.413703 0.854237 0.642551
Si Si5 0.669532 0.195461 0.335571
Si Si6 0.033174 0.843991 0.306690
O O1 0.575374 0.977916 0.083964
O O2 0.270371 0.084535 0.107173
O O3 0.393349 0.055195 0.881026
O O4 0.250211 0.898822 0.996446
O O5 0.398372 0.823331 0.796060
O O6 0.279926 0.708247 0.013656
O O7 0.050209 0.779413 0.833567
O O8 0.582492 0.930069 0.603391
O O9 0.800674 0.922451 0.784750
O O10 0.633215 0.105754 0.720381
O O11 0.444509 0.737755 0.589287
O O12 0.791129 0.280331 0.254342
#
# Coordination Sequence:
#
# PCOD9315929 Si02
#       6
#     4   4   4   4   4   4
#     4  12  28  49  80 113 158 207 260 332 404 469
#     4  12  26  50  81 112 156 210 266 328 392 484
#     4  11  25  51  74 117 156 205 264 323 396 471
#     4  11  26  49  71 115 152 200 266 317 407 471
#     4  11  26  49  80 114 156 206 268 326 397 475
#     4  11  27  48  78 115 158 204 264 328 400 476
#
# _framework density 25.451457999999999
#
# number of rings (size 3 to 8) (size 9 to 14) (size 15 to 20)
#    0.000    0.667    3.333    3.000    7.000    2.667 
#    0.000    0.000    0.000    0.000    0.000    0.000 
#    0.000    0.000    0.000    0.000    0.000    0.000 
#
# Total GULP energy -134265.402397 kJ/mol
# GULP energy per Si atom -5594.391767 kJ/mol
# Density = 2.539353 g / cm^3
# Si number density = 25.451458 Si / 1000 Ang^3
#
#
#
# Elastic Constant Matrix: (Units=GPa)
#
#
# Indices 1 2 3 4 5 6 
#
# 1 147.8624 46.4850 21.6660 0.0000 0.0000 0.0000
# 2 46.4850 109.5794 0.4120 0.0000 0.0000 0.0000
# 3 21.6660 0.4120 59.4425 0.0000 0.0000 0.0000
# 4 0.0000 0.0000 0.0000 36.3708 0.0000 0.0000
# 5 0.0000 0.0000 0.0000 0.0000 29.4839 0.0000
# 6 0.0000 0.0000 0.0000 0.0000 0.0000 47.0246
#
#
#
# Elastic Compliance Matrix: (Units=1/GPa)
#
#
# Indices 1 2 3 4 5 6 
#
# 1 0.008308 -0.003513 -0.003004 0.000000 0.000000 0.000000
# 2 -0.003513 0.010611 0.001207 0.000000 0.000000 0.000000
# 3 -0.003004 0.001207 0.017909 0.000000 0.000000 0.000000
# 4 0.000000 0.000000 0.000000 0.027495 0.000000 0.000000
# 5 0.000000 0.000000 0.000000 0.000000 0.033917 0.000000
# 6 0.000000 0.000000 0.000000 0.000000 0.000000 0.021265
#
#
# Mechanical properties :
#
#
# Convention : Reuss Voigt Hill
#
# Bulk Modulus (GPa) = 38.15470 50.44557 44.30014
# Shear Modulus (GPa) = 36.00724 39.13061 37.56892
#
# Velocity S-wave (km/s) = 3.76539 3.92530 3.84617
# Velocity P-wave (km/s) = 5.82476 6.35667 6.09652
#
# Compressibility (1/GPa) = 0.02620909
#
# Stress axis : x y z
#
# Youngs Moduli (GPa) = 120.37262 94.23764 55.83660
#
# Poissons Ratio (x) = 0.33104 0.16771
# Poissons Ratio (y) = 0.42285 -0.06739
# Poissons Ratio (z) = 0.36156 -0.11373
#
# Static dielectric constant tensor:
#      x y z
#    x 2.015050 0.000000 0.000000 
#    y 0.000000 2.159890 0.000000 
#    z 0.000000 0.000000 2.069320 
# 
# From -- ./inp_files/4573.got.cif
#   From: 2010.05.17/outbox.cif.g08.bks.cpg/sg19_3_cif.got.tgz:4573.got - 2010.06.03 22:46:19.
