data_PCOD9315542
_publ_section_title
;
Structure prediction by ZEFSAII (Michael W. Deem and Ramdas Pophale) SiO2 
 PCOD9315542
Probable space group: P 21 21 21
;
_chemical_formula_sum "Si O2"
_cell_formula_units_Z 24
_cell_length_a 14.812201
_cell_length_b 4.882390
_cell_length_c 15.406267
_cell_angle_alpha 90.000000
_cell_angle_beta 90.000000
_cell_angle_gamma 90.000000
_cell_volume 1114.164930
_symmetry_space_group_name_H-M "P 21 21 21"
_symmetry_group_IT_number 19
_symmetry_cell_setting 'orthorhombic'
loop_
_space_group_symop_operation_xyz
x,y,z
1/2-x,-y,1/2+z
1/2+x,1/2-y,-z
-x,1/2+y,1/2-z
loop_
_atom_site_type_symbol
_atom_site_label
_atom_site_fract_x
_atom_site_fract_y
_atom_site_fract_z
Si Si1 0.003668 0.257031 0.809637
Si Si2 0.670167 0.583491 0.420285
Si Si3 0.199927 0.421140 0.841420
Si Si4 0.938711 0.900829 0.249252
Si Si5 0.764274 0.059861 0.346649
Si Si6 0.311681 0.894193 0.891056
O O1 0.921269 0.346126 0.869917
O O2 0.999484 0.445271 0.722932
O O3 0.099109 0.318379 0.854501
O O4 0.730009 0.857473 0.421105
O O5 0.650257 0.470047 0.515402
O O6 0.731626 0.362475 0.369732
O O7 0.210584 0.519859 0.741667
O O8 0.269744 0.170520 0.851246
O O9 0.230391 0.675759 0.899001
O O10 0.867885 0.010711 0.320903
O O11 0.882536 0.752594 0.172628
O O12 0.005366 0.663680 0.283091
#
# Coordination Sequence:
#
# PCOD9315542 Si02
#       6
#     4   4   4   4   4   4
#     4  12  22  39  69 100 127 166 220 263 316 397
#     4  12  23  43  63 100 135 164 214 274 332 372
#     4  11  21  42  66  94 125 175 215 249 328 396
#     4  11  23  44  69  94 123 173 233 263 308 390
#     4  11  22  40  71  89 126 174 214 260 322 398
#     4  11  25  42  66  93 136 172 208 279 326 367
#
# _framework density 21.540794999999999
#
# number of rings (size 3 to 8) (size 9 to 14) (size 15 to 20)
#    0.000    0.667    3.333    7.000    0.000    0.000 
#    9.000    0.000    0.000    0.000    0.000    0.000 
#    0.000    0.000    0.000    0.000    0.000    0.000 
#
# Total GULP energy -134248.499230 kJ/mol
# GULP energy per Si atom -5593.687468 kJ/mol
# Density = 2.149177 g / cm^3
# Si number density = 21.540795 Si / 1000 Ang^3
#
#
#
# Elastic Constant Matrix: (Units=GPa)
#
#
# Indices 1 2 3 4 5 6 
#
# 1 99.9669 7.8153 7.5829 0.0000 0.0000 0.0000
# 2 7.8153 73.7333 -5.0024 0.0000 0.0000 0.0000
# 3 7.5829 -5.0024 58.0908 0.0000 0.0000 0.0000
# 4 0.0000 0.0000 0.0000 31.6528 0.0000 0.0000
# 5 0.0000 0.0000 0.0000 0.0000 18.0119 0.0000
# 6 0.0000 0.0000 0.0000 0.0000 0.0000 38.9360
#
#
#
# Elastic Compliance Matrix: (Units=1/GPa)
#
#
# Indices 1 2 3 4 5 6 
#
# 1 0.010204 -0.001179 -0.001434 0.000000 0.000000 0.000000
# 2 -0.001179 0.013778 0.001340 0.000000 0.000000 0.000000
# 3 -0.001434 0.001340 0.017517 0.000000 0.000000 0.000000
# 4 0.000000 0.000000 0.000000 0.031593 0.000000 0.000000
# 5 0.000000 0.000000 0.000000 0.000000 0.055519 0.000000
# 6 0.000000 0.000000 0.000000 0.000000 0.000000 0.025683
#
#
# Mechanical properties :
#
#
# Convention : Reuss Voigt Hill
#
# Bulk Modulus (GPa) = 25.67032 28.06473 26.86753
# Shear Modulus (GPa) = 29.44235 32.47981 30.96108
#
# Velocity S-wave (km/s) = 3.70106 3.88729 3.79532
# Velocity P-wave (km/s) = 5.49607 5.76237 5.63079
#
# Compressibility (1/GPa) = 0.03895549
#
# Stress axis : x y z
#
# Youngs Moduli (GPa) = 97.99873 72.57802 57.08749
#
# Poissons Ratio (x) = 0.08556 0.08184
# Poissons Ratio (y) = 0.11552 -0.07652
# Poissons Ratio (z) = 0.14048 -0.09728
#
# Static dielectric constant tensor:
#      x y z
#    x 1.802900 0.000000 0.000000 
#    y 0.000000 1.781280 0.000000 
#    z 0.000000 0.000000 1.788090 
# 
# From -- ./inp_files/6207.got.cif
#   From: 2010.05.17/outbox.cif.g08.bks.cpg/sg19_4_cif.got.tgz:6207.got - 2010.06.03 22:46:19.
