data_PCOD9315943
_publ_section_title
;
Structure prediction by ZEFSAII (Michael W. Deem and Ramdas Pophale) SiO2 
 PCOD9315943
Probable space group: P 21 21 21
;
_chemical_formula_sum "Si O2"
_cell_formula_units_Z 20
_cell_length_a 10.098366
_cell_length_b 11.414010
_cell_length_c 7.409192
_cell_angle_alpha 90.000000
_cell_angle_beta 90.000000
_cell_angle_gamma 90.000000
_cell_volume 854.004590
_symmetry_space_group_name_H-M "P 21 21 21"
_symmetry_group_IT_number 19
_symmetry_cell_setting 'orthorhombic'
loop_
_space_group_symop_operation_xyz
x,y,z
1/2-x,-y,1/2+z
1/2+x,1/2-y,-z
-x,1/2+y,1/2-z
loop_
_atom_site_type_symbol
_atom_site_label
_atom_site_fract_x
_atom_site_fract_y
_atom_site_fract_z
Si Si1 0.828507 0.838189 0.177844
Si Si2 0.922925 0.464158 0.883971
Si Si3 0.797552 0.928946 0.781276
Si Si4 0.282066 0.114516 0.453971
Si Si5 0.107001 0.786536 0.309633
O O1 0.780275 0.948924 0.291195
O O2 0.717853 0.741439 0.138151
O O3 0.950762 0.773193 0.272696
O O4 0.854131 0.887953 0.975285
O O5 0.853628 0.468116 0.688446
O O6 0.077593 0.453773 0.846944
O O7 0.866823 0.573030 0.998547
O O8 0.877123 0.352297 0.001216
O O9 0.698138 0.827892 0.710792
O O10 0.352502 0.127077 0.645575
#
# Coordination Sequence:
#
# PCOD9315943 Si02
#       5
#     4   4   4   4   4
#     4  11  26  48  73 110 150 195 248 316 368 446
#     4  12  25  48  73 107 147 202 249 301 380 439
#     4  11  27  47  77 108 148 202 249 307 374 451
#     4  11  26  46  72 107 150 193 248 315 368 437
#     4  11  26  47  71 108 147 192 252 313 370 439
#
# _framework density 23.419077000000001
#
# number of rings (size 3 to 8) (size 9 to 14) (size 15 to 20)
#    0.000    0.800    4.000    1.200   14.000    0.000 
#    0.000    0.000    0.000    0.000    0.000    0.000 
#    0.000    0.000    0.000    0.000    0.000    0.000 
#
# Total GULP energy -111808.389998 kJ/mol
# GULP energy per Si atom -5590.419500 kJ/mol
# Density = 2.336577 g / cm^3
# Si number density = 23.419077 Si / 1000 Ang^3
#
#
#
# Elastic Constant Matrix: (Units=GPa)
#
#
# Indices 1 2 3 4 5 6 
#
# 1 93.4013 17.8321 33.9589 0.0000 0.0000 0.0000
# 2 17.8321 53.3184 14.0471 0.0000 0.0000 0.0000
# 3 33.9589 14.0471 110.0082 0.0000 0.0000 0.0000
# 4 0.0000 0.0000 0.0000 30.8254 0.0000 0.0000
# 5 0.0000 0.0000 0.0000 0.0000 42.2303 0.0000
# 6 0.0000 0.0000 0.0000 0.0000 0.0000 25.9038
#
#
#
# Elastic Compliance Matrix: (Units=1/GPa)
#
#
# Indices 1 2 3 4 5 6 
#
# 1 0.012597 -0.003300 -0.003467 0.000000 0.000000 0.000000
# 2 -0.003300 0.020272 -0.001570 0.000000 0.000000 0.000000
# 3 -0.003467 -0.001570 0.010361 0.000000 0.000000 0.000000
# 4 0.000000 0.000000 0.000000 0.032441 0.000000 0.000000
# 5 0.000000 0.000000 0.000000 0.000000 0.023680 0.000000
# 6 0.000000 0.000000 0.000000 0.000000 0.000000 0.038604
#
#
# Mechanical properties :
#
#
# Convention : Reuss Voigt Hill
#
# Bulk Modulus (GPa) = 37.65528 43.15601 40.40564
# Shear Modulus (GPa) = 30.58451 32.51790 31.55120
#
# Velocity S-wave (km/s) = 3.61774 3.73033 3.67446
# Velocity P-wave (km/s) = 5.79349 6.08453 5.94079
#
# Compressibility (1/GPa) = 0.02655670
#
# Stress axis : x y z
#
# Youngs Moduli (GPa) = 79.38347 49.32807 96.51529
#
# Poissons Ratio (x) = 0.16276 0.33465
# Poissons Ratio (y) = 0.26193 0.15153
# Poissons Ratio (z) = 0.27525 0.07745
#
# Static dielectric constant tensor:
#      x y z
#    x 1.909110 0.000000 0.000000 
#    y 0.000000 1.858420 0.000000 
#    z 0.000000 0.000000 1.887150 
# 
# From -- ./inp_files/347.got.cif
#   From: 2010.05.17/outbox.cif.g08.bks.cpg/sg19_1_cif.got.tgz:347.got - 2010.06.03 22:46:19.
