data_PCOD9315086
_publ_section_title
;
Structure prediction by ZEFSAII (Michael W. Deem and Ramdas Pophale) SiO2 
 PCOD9315086
Probable space group: P 21 21 21
;
_chemical_formula_sum "Si O2"
_cell_formula_units_Z 28
_cell_length_a 14.509981
_cell_length_b 13.862104
_cell_length_c 6.801141
_cell_angle_alpha 90.000000
_cell_angle_beta 90.000000
_cell_angle_gamma 90.000000
_cell_volume 1367.973786
_symmetry_space_group_name_H-M "P 21 21 21"
_symmetry_group_IT_number 19
_symmetry_cell_setting 'orthorhombic'
loop_
_space_group_symop_operation_xyz
x,y,z
1/2-x,-y,1/2+z
1/2+x,1/2-y,-z
-x,1/2+y,1/2-z
loop_
_atom_site_type_symbol
_atom_site_label
_atom_site_fract_x
_atom_site_fract_y
_atom_site_fract_z
Si Si1 0.344949 0.025679 0.881273
Si Si2 0.326795 0.557541 0.094754
Si Si3 0.968293 0.457339 0.503189
Si Si4 0.121531 0.294163 0.923340
Si Si5 0.648900 0.407991 0.261895
Si Si6 0.261824 0.351122 0.238943
Si Si7 0.085651 0.808824 0.671282
O O1 0.413274 0.032981 0.698392
O O2 0.240862 0.035929 0.806540
O O3 0.364830 0.112659 0.032691
O O4 0.359623 0.928589 0.006994
O O5 0.422363 0.542189 0.977485
O O6 0.261819 0.625291 0.964022
O O7 0.355028 0.611488 0.294723
O O8 0.282454 0.454888 0.141597
O O9 0.936255 0.543971 0.646599
O O10 0.938944 0.361252 0.622666
O O11 0.156822 0.201768 0.802425
O O12 0.011380 0.284782 0.932515
O O13 0.174937 0.303358 0.127749
O O14 0.348621 0.281356 0.208508
#
# Coordination Sequence:
#
# PCOD9315086 Si02
#       7
#     4   4   4   4   4   4   4
#     4  11  21  39  64  93 127 164 203 264 325 376
#     4  11  25  43  65  92 130 173 216 271 312 389
#     4  10  23  43  62  97 131 163 217 260 326 383
#     4  11  24  44  63  96 130 164 222 267 320 389
#     4  11  22  37  67  93 126 164 206 265 319 385
#     4  12  23  43  69  93 128 176 218 260 333 378
#     4  10  24  41  66  94 130 170 210 273 319 382
#
# _framework density 20.468229000000001
#
# number of rings (size 3 to 8) (size 9 to 14) (size 15 to 20)
#    0.000    1.143    4.286    1.714    2.000    1.143 
#    2.571    1.429    0.000    0.000    0.000    0.000 
#    0.000    0.000    0.000    0.000    0.000    0.000 
#
# Total GULP energy -156552.843510 kJ/mol
# GULP energy per Si atom -5591.172982 kJ/mol
# Density = 2.042164 g / cm^3
# Si number density = 20.468229 Si / 1000 Ang^3
#
#
#
# Elastic Constant Matrix: (Units=GPa)
#
#
# Indices 1 2 3 4 5 6 
#
# 1 73.6708 -3.4391 4.4112 0.0000 0.0000 0.0000
# 2 -3.4391 37.0711 -6.6728 0.0000 0.0000 0.0000
# 3 4.4112 -6.6728 45.9853 0.0000 0.0000 0.0000
# 4 0.0000 0.0000 0.0000 24.9660 0.0000 0.0000
# 5 0.0000 0.0000 0.0000 0.0000 27.9690 0.0000
# 6 0.0000 0.0000 0.0000 0.0000 0.0000 29.8657
#
#
#
# Elastic Compliance Matrix: (Units=1/GPa)
#
#
# Indices 1 2 3 4 5 6 
#
# 1 0.013693 0.001062 -0.001159 0.000000 0.000000 0.000000
# 2 0.001062 0.027781 0.003929 0.000000 0.000000 0.000000
# 3 -0.001159 0.003929 0.022428 0.000000 0.000000 0.000000
# 4 0.000000 0.000000 0.000000 0.040054 0.000000 0.000000
# 5 0.000000 0.000000 0.000000 0.000000 0.035754 0.000000
# 6 0.000000 0.000000 0.000000 0.000000 0.000000 0.033483
#
#
# Mechanical properties :
#
#
# Convention : Reuss Voigt Hill
#
# Bulk Modulus (GPa) = 13.97344 16.14733 15.06039
# Shear Modulus (GPa) = 26.40130 27.38868 26.89499
#
# Velocity S-wave (km/s) = 3.59537 3.66198 3.62883
# Velocity P-wave (km/s) = 4.90686 5.07802 4.99317
#
# Compressibility (1/GPa) = 0.07156431
#
# Stress axis : x y z
#
# Youngs Moduli (GPa) = 73.03068 35.99588 44.58811
#
# Poissons Ratio (x) = -0.03821 0.05170
# Poissons Ratio (y) = -0.07753 -0.17520
# Poissons Ratio (z) = 0.08468 -0.14144
#
# Static dielectric constant tensor:
#      x y z
#    x 1.721060 0.000000 0.000000 
#    y 0.000000 1.721290 0.000000 
#    z 0.000000 0.000000 1.733910 
# 
# From -- ./inp_files/1503.got.cif
#   From: 2010.05.17/outbox.cif.g08.bks.cpg/sg19_1_cif.got.tgz:1503.got - 2010.06.03 22:46:19.
