data_PCOD9315898
_publ_section_title
;
Structure prediction by ZEFSAII (Michael W. Deem and Ramdas Pophale) SiO2 
 PCOD9315898
Probable space group: P 21 21 21
;
_chemical_formula_sum "Si O2"
_cell_formula_units_Z 28
_cell_length_a 5.068484
_cell_length_b 9.676881
_cell_length_c 23.695306
_cell_angle_alpha 90.000000
_cell_angle_beta 90.000000
_cell_angle_gamma 90.000000
_cell_volume 1162.186434
_symmetry_space_group_name_H-M "P 21 21 21"
_symmetry_group_IT_number 19
_symmetry_cell_setting 'orthorhombic'
loop_
_space_group_symop_operation_xyz
x,y,z
1/2-x,-y,1/2+z
1/2+x,1/2-y,-z
-x,1/2+y,1/2-z
loop_
_atom_site_type_symbol
_atom_site_label
_atom_site_fract_x
_atom_site_fract_y
_atom_site_fract_z
Si Si1 0.129842 0.690115 0.531089
Si Si2 0.587502 0.167965 0.319389
Si Si3 0.904754 0.080412 0.471218
Si Si4 0.094529 0.004406 0.353621
Si Si5 0.762517 0.209048 0.194715
Si Si6 0.254858 0.126936 0.136941
Si Si7 0.221517 0.137496 0.577906
O O1 0.347832 0.751140 0.487467
O O2 0.157459 0.524153 0.530789
O O3 0.219562 0.748465 0.591978
O O4 0.294063 0.111511 0.324988
O O5 0.663852 0.223829 0.258265
O O6 0.614809 0.283048 0.367517
O O7 0.799722 0.046416 0.333830
O O8 0.866680 0.240863 0.455737
O O9 0.090935 0.023506 0.421198
O O10 0.013935 0.076530 0.533896
O O11 0.202083 0.856462 0.335404
O O12 0.548052 0.115638 0.162117
O O13 0.054497 0.148933 0.188061
O O14 0.140897 0.997388 0.102423
#
# Coordination Sequence:
#
# PCOD9315898 Si02
#       7
#     4   4   4   4   4   4   4
#     4  12  26  46  75 109 151 195 248 302 370 448
#     4  11  27  46  73 104 146 192 253 301 380 439
#     4  11  25  46  76 107 158 188 243 308 375 449
#     4  11  25  48  72 109 140 198 245 304 378 441
#     4  12  27  47  77 101 149 198 249 321 358 445
#     4  12  27  48  73 112 144 194 253 303 372 441
#     4  11  27  45  74 114 146 199 239 311 371 451
#
# _framework density 24.092521000000001
#
# number of rings (size 3 to 8) (size 9 to 14) (size 15 to 20)
#    0.000    0.571    2.857    3.429    8.000    2.286 
#    0.000    0.000    0.000    0.000    0.000    0.000 
#    0.000    0.000    0.000    0.000    0.000    0.000 
#
# Total GULP energy -156765.426282 kJ/mol
# GULP energy per Si atom -5598.765224 kJ/mol
# Density = 2.403769 g / cm^3
# Si number density = 24.092521 Si / 1000 Ang^3
#
#
#
# Elastic Constant Matrix: (Units=GPa)
#
#
# Indices 1 2 3 4 5 6 
#
# 1 75.9318 1.1404 16.0925 0.0000 0.0000 0.0000
# 2 1.1404 71.3733 6.9376 0.0000 0.0000 0.0000
# 3 16.0925 6.9376 102.0700 0.0000 0.0000 0.0000
# 4 0.0000 0.0000 0.0000 15.8733 0.0000 0.0000
# 5 0.0000 0.0000 0.0000 0.0000 39.5854 0.0000
# 6 0.0000 0.0000 0.0000 0.0000 0.0000 3.7944
#
#
#
# Elastic Compliance Matrix: (Units=1/GPa)
#
#
# Indices 1 2 3 4 5 6 
#
# 1 0.013625 -0.000009 -0.002148 0.000000 0.000000 0.000000
# 2 -0.000009 0.014104 -0.000957 0.000000 0.000000 0.000000
# 3 -0.002148 -0.000957 0.010201 0.000000 0.000000 0.000000
# 4 0.000000 0.000000 0.000000 0.062999 0.000000 0.000000
# 5 0.000000 0.000000 0.000000 0.000000 0.025262 0.000000
# 6 0.000000 0.000000 0.000000 0.000000 0.000000 0.263544
#
#
# Mechanical properties :
#
#
# Convention : Reuss Voigt Hill
#
# Bulk Modulus (GPa) = 31.54332 33.07957 32.31145
# Shear Modulus (GPa) = 12.29922 26.86427 19.58175
#
# Velocity S-wave (km/s) = 2.26188 3.34285 2.85401
# Velocity P-wave (km/s) = 4.46570 5.35346 4.92961
#
# Compressibility (1/GPa) = 0.03170243
#
# Stress axis : x y z
#
# Youngs Moduli (GPa) = 73.39463 70.90170 98.03111
#
# Poissons Ratio (x) = 0.00064 0.21052
# Poissons Ratio (y) = 0.00066 0.09384
# Poissons Ratio (z) = 0.15762 0.06787
#
# Static dielectric constant tensor:
#      x y z
#    x 1.910370 0.000000 0.000000 
#    y 0.000000 1.926220 0.000000 
#    z 0.000000 0.000000 1.886000 
# 
# From -- ./inp_files/7271.got.cif
#   From: 2010.05.17/outbox.cif.g08.bks.cpg/sg19_4_cif.got.tgz:7271.got - 2010.06.03 22:46:19.
