data_PCOD9315618
_publ_section_title
;
Structure prediction by ZEFSAII (Michael W. Deem and Ramdas Pophale) SiO2 
 PCOD9315618
Probable space group: P 21 21 21
;
_chemical_formula_sum "Si O2"
_cell_formula_units_Z 24
_cell_length_a 7.582581
_cell_length_b 15.534539
_cell_length_c 7.423563
_cell_angle_alpha 90.000000
_cell_angle_beta 90.000000
_cell_angle_gamma 90.000000
_cell_volume 874.435593
_symmetry_space_group_name_H-M "P 21 21 21"
_symmetry_group_IT_number 19
_symmetry_cell_setting 'orthorhombic'
loop_
_space_group_symop_operation_xyz
x,y,z
1/2-x,-y,1/2+z
1/2+x,1/2-y,-z
-x,1/2+y,1/2-z
loop_
_atom_site_type_symbol
_atom_site_label
_atom_site_fract_x
_atom_site_fract_y
_atom_site_fract_z
Si Si1 0.056431 0.149691 0.835960
Si Si2 0.290131 0.436300 0.884376
Si Si3 0.649152 0.137235 0.581075
Si Si4 0.942344 0.584912 0.083049
Si Si5 0.442029 0.115315 0.930989
Si Si6 0.858592 0.295719 0.668431
O O1 0.960509 0.242348 0.821118
O O2 0.072056 0.112687 0.628732
O O3 0.249759 0.158023 0.920627
O O4 0.926084 0.093071 0.959392
O O5 0.094266 0.401555 0.919768
O O6 0.285973 0.540016 0.889574
O O7 0.374113 0.408511 0.694569
O O8 0.554548 0.157572 0.771701
O O9 0.781839 0.216257 0.551720
O O10 0.494208 0.146478 0.440276
O O11 0.891020 0.485203 0.106207
O O12 0.806662 0.642978 0.195119
#
# Coordination Sequence:
#
# PCOD9315618 Si02
#       6
#     4   4   4   4   4   4
#     4  12  25  49  83 114 165 214 275 340 410 491
#     4  11  27  49  78 120 158 215 277 335 404 500
#     4  11  22  44  77 117 159 213 274 336 407 488
#     4  11  26  47  81 119 166 216 271 340 418 487
#     4  11  24  47  79 120 158 206 278 336 396 493
#     4  12  22  46  80 116 166 216 269 341 417 487
#
# _framework density 27.446276000000001
#
# number of rings (size 3 to 8) (size 9 to 14) (size 15 to 20)
#    0.000    0.667    5.000    2.000    4.667    0.000 
#    0.000    5.000    7.333    0.000    0.000    0.000 
#    0.000    0.000    0.000    0.000    0.000    0.000 
#
# Total GULP energy -134422.975640 kJ/mol
# GULP energy per Si atom -5600.957318 kJ/mol
# Density = 2.738381 g / cm^3
# Si number density = 27.446276 Si / 1000 Ang^3
#
#
#
# Elastic Constant Matrix: (Units=GPa)
#
#
# Indices 1 2 3 4 5 6 
#
# 1 201.2055 46.0869 59.4093 0.0000 0.0000 0.0000
# 2 46.0869 72.0103 19.5154 0.0000 0.0000 0.0000
# 3 59.4093 19.5154 162.1938 0.0000 0.0000 0.0000
# 4 0.0000 0.0000 0.0000 32.9577 0.0000 0.0000
# 5 0.0000 0.0000 0.0000 0.0000 24.2793 0.0000
# 6 0.0000 0.0000 0.0000 0.0000 0.0000 65.3218
#
#
#
# Elastic Compliance Matrix: (Units=1/GPa)
#
#
# Indices 1 2 3 4 5 6 
#
# 1 0.006342 -0.003545 -0.001896 0.000000 0.000000 0.000000
# 2 -0.003545 0.016336 -0.000667 0.000000 0.000000 0.000000
# 3 -0.001896 -0.000667 0.006940 0.000000 0.000000 0.000000
# 4 0.000000 0.000000 0.000000 0.030342 0.000000 0.000000
# 5 0.000000 0.000000 0.000000 0.000000 0.041187 0.000000
# 6 0.000000 0.000000 0.000000 0.000000 0.000000 0.015309
#
#
# Mechanical properties :
#
#
# Convention : Reuss Voigt Hill
#
# Bulk Modulus (GPa) = 57.46555 76.15920 66.81238
# Shear Modulus (GPa) = 37.18173 45.20497 41.19335
#
# Velocity S-wave (km/s) = 3.68463 4.06277 3.87831
# Velocity P-wave (km/s) = 6.25179 7.05810 6.66715
#
# Compressibility (1/GPa) = 0.01740173
#
# Stress axis : x y z
#
# Youngs Moduli (GPa) = 157.67935 61.21270 144.08437
#
# Poissons Ratio (x) = 0.21700 0.27325
# Poissons Ratio (y) = 0.55896 0.09613
# Poissons Ratio (z) = 0.29903 0.04084
#
# Static dielectric constant tensor:
#      x y z
#    x 2.172180 0.000000 0.000000 
#    y 0.000000 2.094830 0.000000 
#    z 0.000000 0.000000 2.313500 
# 
# From -- ./inp_files/2902.got.cif
#   From: 2010.05.17/outbox.cif.g08.bks.cpg/sg19_2_cif.got.tgz:2902.got - 2010.06.03 22:46:19.
