data_PCOD9315677
_publ_section_title
;
Structure prediction by ZEFSAII (Michael W. Deem and Ramdas Pophale) SiO2 
 PCOD9315677
Probable space group: P 21 21 21
;
_chemical_formula_sum "Si O2"
_cell_formula_units_Z 24
_cell_length_a 23.445934
_cell_length_b 8.000559
_cell_length_c 4.760832
_cell_angle_alpha 90.000000
_cell_angle_beta 90.000000
_cell_angle_gamma 90.000000
_cell_volume 893.039620
_symmetry_space_group_name_H-M "P 21 21 21"
_symmetry_group_IT_number 19
_symmetry_cell_setting 'orthorhombic'
loop_
_space_group_symop_operation_xyz
x,y,z
1/2-x,-y,1/2+z
1/2+x,1/2-y,-z
-x,1/2+y,1/2-z
loop_
_atom_site_type_symbol
_atom_site_label
_atom_site_fract_x
_atom_site_fract_y
_atom_site_fract_z
Si Si1 0.378734 0.294814 0.666889
Si Si2 0.264192 0.119002 0.481253
Si Si3 0.104960 0.218870 0.826620
Si Si4 0.466482 0.472070 0.291288
Si Si5 0.832771 0.851163 0.183116
Si Si6 0.957631 0.488154 0.273849
O O1 0.324436 0.182629 0.592513
O O2 0.413704 0.359025 0.391190
O O3 0.353383 0.457160 0.829136
O O4 0.427128 0.183224 0.818171
O O5 0.228793 0.287005 0.408908
O O6 0.266984 0.999573 0.209102
O O7 0.052888 0.344474 0.891144
O O8 0.124601 0.239004 0.507853
O O9 0.158342 0.298579 0.995683
O O10 0.088157 0.058141 0.002634
O O11 0.520211 0.425661 0.489230
O O12 0.486462 0.502726 0.974228
#
# Coordination Sequence:
#
# PCOD9315677 Si02
#       6
#     4   4   4   4   4   4
#     4  11  27  46  75 108 148 199 252 309 379 452
#     4  12  28  50  77 112 153 197 252 316 386 461
#     4  11  23  43  67  98 143 191 240 303 370 439
#     4  11  24  41  65 102 143 191 246 303 363 441
#     4  11  25  46  70 104 143 190 245 304 371 450
#     4  12  23  42  68 102 142 190 245 303 365 437
#
# _framework density 26.874506
#
# number of rings (size 3 to 8) (size 9 to 14) (size 15 to 20)
#    0.000    0.667    0.000    8.000    0.000   12.000 
#    0.000    0.000    0.000    0.000    0.000    0.000 
#    0.000    0.000    0.000    0.000    0.000    0.000 
#
# Total GULP energy -134245.810619 kJ/mol
# GULP energy per Si atom -5593.575442 kJ/mol
# Density = 2.681334 g / cm^3
# Si number density = 26.874506 Si / 1000 Ang^3
#
#
#
# Elastic Constant Matrix: (Units=GPa)
#
#
# Indices 1 2 3 4 5 6 
#
# 1 123.8662 45.4732 5.7851 0.0000 0.0000 0.0000
# 2 45.4732 100.4038 16.9478 0.0000 0.0000 0.0000
# 3 5.7851 16.9478 132.1593 0.0000 0.0000 0.0000
# 4 0.0000 0.0000 0.0000 41.3017 0.0000 0.0000
# 5 0.0000 0.0000 0.0000 0.0000 18.7870 0.0000
# 6 0.0000 0.0000 0.0000 0.0000 0.0000 61.7232
#
#
#
# Elastic Compliance Matrix: (Units=1/GPa)
#
#
# Indices 1 2 3 4 5 6 
#
# 1 0.009686 -0.004411 0.000142 0.000000 0.000000 0.000000
# 2 -0.004411 0.012189 -0.001370 0.000000 0.000000 0.000000
# 3 0.000142 -0.001370 0.007736 0.000000 0.000000 0.000000
# 4 0.000000 0.000000 0.000000 0.024212 0.000000 0.000000
# 5 0.000000 0.000000 0.000000 0.000000 0.053228 0.000000
# 6 0.000000 0.000000 0.000000 0.000000 0.000000 0.016201
#
#
# Mechanical properties :
#
#
# Convention : Reuss Voigt Hill
#
# Bulk Modulus (GPa) = 54.54770 54.76016 54.65393
# Shear Modulus (GPa) = 35.55146 43.57725 39.56435
#
# Velocity S-wave (km/s) = 3.64107 4.03116 3.84107
# Velocity P-wave (km/s) = 6.16586 6.48749 6.32872
#
# Compressibility (1/GPa) = 0.01833258
#
# Stress axis : x y z
#
# Youngs Moduli (GPa) = 103.24366 82.04376 129.26397
#
# Poissons Ratio (x) = 0.36187 -0.01831
# Poissons Ratio (y) = 0.45537 0.17709
# Poissons Ratio (z) = -0.01462 0.11240
#
# Static dielectric constant tensor:
#      x y z
#    x 2.141130 0.000000 0.000000 
#    y 0.000000 2.137060 0.000000 
#    z 0.000000 0.000000 2.013960 
# 
# From -- ./inp_files/2099.got.cif
#   From: 2010.05.17/outbox.cif.g08.bks.cpg/sg19_2_cif.got.tgz:2099.got - 2010.06.03 22:46:19.
