data_PCOD9315192
_publ_section_title
;
Structure prediction by ZEFSAII (Michael W. Deem and Ramdas Pophale) SiO2 
 PCOD9315192
Probable space group: P 21 21 21
;
_chemical_formula_sum "Si O2"
_cell_formula_units_Z 24
_cell_length_a 5.185859
_cell_length_b 32.752077
_cell_length_c 4.962274
_cell_angle_alpha 90.000000
_cell_angle_beta 90.000000
_cell_angle_gamma 90.000000
_cell_volume 842.830594
_symmetry_space_group_name_H-M "P 21 21 21"
_symmetry_group_IT_number 19
_symmetry_cell_setting 'orthorhombic'
loop_
_space_group_symop_operation_xyz
x,y,z
1/2-x,-y,1/2+z
1/2+x,1/2-y,-z
-x,1/2+y,1/2-z
loop_
_atom_site_type_symbol
_atom_site_label
_atom_site_fract_x
_atom_site_fract_y
_atom_site_fract_z
Si Si1 0.843376 0.824819 0.915552
Si Si2 0.886658 0.741705 0.667557
Si Si3 0.674276 0.658739 0.593593
Si Si4 0.302779 0.073915 0.650886
Si Si5 0.159569 0.475414 0.050939
Si Si6 0.175920 0.591734 0.194308
O O1 0.798348 0.776510 0.878371
O O2 0.644656 0.859174 0.810370
O O3 0.083362 0.834366 0.711464
O O4 0.923079 0.833637 0.219230
O O5 0.667708 0.748213 0.440349
O O6 0.863193 0.693422 0.713216
O O7 0.751433 0.612797 0.657610
O O8 0.560316 0.083398 0.473982
O O9 0.066536 0.071109 0.448037
O O10 0.379891 0.035013 0.829390
O O11 0.315706 0.499613 0.276804
O O12 0.274392 0.430890 0.975181
#
# Coordination Sequence:
#
# PCOD9315192 Si02
#       6
#     4   4   4   4   4   4
#     4  10  23  45  73 107 154 198 258 316 381 459
#     4  10  24  44  70 108 152 202 254 314 372 448
#     4  10  23  45  73 107 154 198 258 316 381 459
#     4  11  26  51  79 114 155 206 257 324 396 472
#     4  12  26  56  80 120 158 206 266 336 402 486
#     4  11  26  51  79 114 155 206 257 324 396 472
#
# _framework density 28.475473999999998
#
# number of rings (size 3 to 8) (size 9 to 14) (size 15 to 20)
#    0.000    1.333    3.333    0.000    0.000   18.667 
#    6.000    0.000    0.000    0.000    0.000    0.000 
#    0.000    0.000    0.000    0.000    0.000    0.000 
#
# Total GULP energy -134682.274104 kJ/mol
# GULP energy per Si atom -5611.761421 kJ/mol
# Density = 2.841066 g / cm^3
# Si number density = 28.475474 Si / 1000 Ang^3
#
#
#
# Elastic Constant Matrix: (Units=GPa)
#
#
# Indices 1 2 3 4 5 6 
#
# 1 118.4186 35.0671 55.4989 0.0000 0.0000 0.0000
# 2 35.0671 124.1919 35.3499 0.0000 0.0000 0.0000
# 3 55.4989 35.3499 119.0960 0.0000 0.0000 0.0000
# 4 0.0000 0.0000 0.0000 56.2173 0.0000 0.0000
# 5 0.0000 0.0000 0.0000 0.0000 33.4147 0.0000
# 6 0.0000 0.0000 0.0000 0.0000 0.0000 45.7476
#
#
#
# Elastic Compliance Matrix: (Units=1/GPa)
#
#
# Indices 1 2 3 4 5 6 
#
# 1 0.011171 -0.001827 -0.004664 0.000000 0.000000 0.000000
# 2 -0.001827 0.009094 -0.001848 0.000000 0.000000 0.000000
# 3 -0.004664 -0.001848 0.011118 0.000000 0.000000 0.000000
# 4 0.000000 0.000000 0.000000 0.017788 0.000000 0.000000
# 5 0.000000 0.000000 0.000000 0.000000 0.029927 0.000000
# 6 0.000000 0.000000 0.000000 0.000000 0.000000 0.021859
#
#
# Mechanical properties :
#
#
# Convention : Reuss Voigt Hill
#
# Bulk Modulus (GPa) = 67.99610 68.17093 68.08351
# Shear Modulus (GPa) = 40.80414 42.79530 41.79972
#
# Velocity S-wave (km/s) = 3.78955 3.88091 3.83550
# Velocity P-wave (km/s) = 6.56340 6.63884 6.60123
#
# Compressibility (1/GPa) = 0.01470673
#
# Stress axis : x y z
#
# Youngs Moduli (GPa) = 89.51525 109.96396 89.94183
#
# Poissons Ratio (x) = 0.20089 0.41945
# Poissons Ratio (y) = 0.16354 0.16620
# Poissons Ratio (z) = 0.41746 0.20320
#
# Static dielectric constant tensor:
#      x y z
#    x 2.191390 0.000000 0.000000 
#    y 0.000000 2.325920 0.000000 
#    z 0.000000 0.000000 2.141630 
# 
# From -- ./inp_files/231.got.cif
#   From: 2010.05.17/outbox.cif.g08.bks.cpg/sg19_1_cif.got.tgz:231.got - 2010.06.03 22:46:19.
