data_PCOD9315148
_publ_section_title
;
Structure prediction by ZEFSAII (Michael W. Deem and Ramdas Pophale) SiO2 
 PCOD9315148
Probable space group: P 21 21 21
;
_chemical_formula_sum "Si O2"
_cell_formula_units_Z 16
_cell_length_a 4.759530
_cell_length_b 18.849327
_cell_length_c 5.204640
_cell_angle_alpha 90.000000
_cell_angle_beta 90.000000
_cell_angle_gamma 90.000000
_cell_volume 466.928747
_symmetry_space_group_name_H-M "P 21 21 21"
_symmetry_group_IT_number 19
_symmetry_cell_setting 'orthorhombic'
loop_
_space_group_symop_operation_xyz
x,y,z
1/2-x,-y,1/2+z
1/2+x,1/2-y,-z
-x,1/2+y,1/2-z
loop_
_atom_site_type_symbol
_atom_site_label
_atom_site_fract_x
_atom_site_fract_y
_atom_site_fract_z
Si Si1 0.640300 0.453915 0.470214
Si Si2 0.105519 0.730731 0.160454
Si Si3 0.135476 0.444058 0.236219
Si Si4 0.169236 0.143815 0.969604
O O1 0.680902 0.494265 0.754121
O O2 0.313339 0.490262 0.486140
O O3 0.919399 0.404576 0.458714
O O4 0.002168 0.654571 0.267640
O O5 0.275201 0.777835 0.364677
O O6 0.317266 0.732173 0.924168
O O7 0.970386 0.391813 0.021225
O O8 0.468325 0.403821 0.227462
#
# Coordination Sequence:
#
# PCOD9315148 Si02
#       4
#     4   4   4   4
#     4  10  23  44  68 102 143 192 237 300 377 438
#     4  12  28  48  78 114 150 208 256 304 390 450
#     4  10  23  44  68 102 143 192 237 300 377 438
#     4  10  28  50  74 112 160 186 254 330 356 464
#
# _framework density 34.266474000000002
#
# number of rings (size 3 to 8) (size 9 to 14) (size 15 to 20)
#    1.500    0.000    0.000    3.000   10.500    2.000 
#    0.000    0.000    0.000    0.000    0.000    0.000 
#    0.000    0.000    0.000    0.000    0.000    0.000 
#
# Total GULP energy -89395.396916 kJ/mol
# GULP energy per Si atom -5587.212307 kJ/mol
# Density = 3.418848 g / cm^3
# Si number density = 34.266474 Si / 1000 Ang^3
#
#
#
# Elastic Constant Matrix: (Units=GPa)
#
#
# Indices 1 2 3 4 5 6 
#
# 1 372.5674 29.9549 75.6091 0.0000 0.0000 0.0000
# 2 29.9549 76.2561 -18.8037 0.0000 0.0000 0.0000
# 3 75.6091 -18.8037 201.5543 0.0000 0.0000 0.0000
# 4 0.0000 0.0000 0.0000 55.1859 0.0000 0.0000
# 5 0.0000 0.0000 0.0000 0.0000 115.2255 0.0000
# 6 0.0000 0.0000 0.0000 0.0000 0.0000 91.9886
#
#
#
# Elastic Compliance Matrix: (Units=1/GPa)
#
#
# Indices 1 2 3 4 5 6 
#
# 1 0.003069 -0.001525 -0.001294 0.000000 0.000000 0.000000
# 2 -0.001525 0.014180 0.001895 0.000000 0.000000 0.000000
# 3 -0.001294 0.001895 0.005623 0.000000 0.000000 0.000000
# 4 0.000000 0.000000 0.000000 0.018121 0.000000 0.000000
# 5 0.000000 0.000000 0.000000 0.000000 0.008679 0.000000
# 6 0.000000 0.000000 0.000000 0.000000 0.000000 0.010871
#
#
# Mechanical properties :
#
#
# Convention : Reuss Voigt Hill
#
# Bulk Modulus (GPa) = 47.56076 91.54429 69.55253
# Shear Modulus (GPa) = 72.04822 90.05448 81.05135
#
# Velocity S-wave (km/s) = 4.59037 5.13203 4.86874
# Velocity P-wave (km/s) = 6.48114 7.86704 7.20748
#
# Compressibility (1/GPa) = 0.02102574
#
# Stress axis : x y z
#
# Youngs Moduli (GPa) = 325.81997 70.52266 177.82597
#
# Poissons Ratio (x) = 0.10752 0.23003
# Poissons Ratio (y) = 0.49675 -0.33695
# Poissons Ratio (z) = 0.42147 -0.13363
#
# Static dielectric constant tensor:
#      x y z
#    x 2.585570 0.000000 0.000000 
#    y 0.000000 2.853420 0.000000 
#    z 0.000000 0.000000 2.963860 
# 
# From -- ./inp_files/138.got.cif
#   From: 2010.05.17/outbox.cif.g08.bks.cpg/sg19_1_cif.got.tgz:138.got - 2010.06.03 22:46:19.
