data_PCOD9315027
_publ_section_title
;
Structure prediction by ZEFSAII (Michael W. Deem and Ramdas Pophale) SiO2 
 PCOD9315027
Probable space group: P 21 21 21
;
_chemical_formula_sum "Si O2"
_cell_formula_units_Z 24
_cell_length_a 11.399047
_cell_length_b 16.393683
_cell_length_c 4.971687
_cell_angle_alpha 90.000000
_cell_angle_beta 90.000000
_cell_angle_gamma 90.000000
_cell_volume 929.070898
_symmetry_space_group_name_H-M "P 21 21 21"
_symmetry_group_IT_number 19
_symmetry_cell_setting 'orthorhombic'
loop_
_space_group_symop_operation_xyz
x,y,z
1/2-x,-y,1/2+z
1/2+x,1/2-y,-z
-x,1/2+y,1/2-z
loop_
_atom_site_type_symbol
_atom_site_label
_atom_site_fract_x
_atom_site_fract_y
_atom_site_fract_z
Si Si1 0.500548 0.017973 0.503888
Si Si2 0.581639 0.426251 0.471516
Si Si3 0.864465 0.755471 0.456590
Si Si4 0.926506 0.205249 0.330629
Si Si5 0.689748 0.645189 0.142144
Si Si6 0.199367 0.365845 0.549595
O O1 0.424369 0.088079 0.350254
O O2 0.632540 0.049005 0.470487
O O3 0.461156 0.991793 0.803744
O O4 0.470574 0.942271 0.318597
O O5 0.538622 0.335066 0.533125
O O6 0.720568 0.415802 0.489327
O O7 0.768082 0.682914 0.390486
O O8 0.849766 0.802006 0.733736
O O9 0.004207 0.736416 0.430288
O O10 0.827115 0.823135 0.235022
O O11 0.858791 0.278561 0.471848
O O12 0.833787 0.131446 0.352333
#
# Coordination Sequence:
#
# PCOD9315027 Si02
#       6
#     4   4   4   4   4   4
#     4  12  25  45  68 102 146 182 230 285 366 421
#     4  11  27  45  68 103 141 183 231 293 355 424
#     4  10  23  41  66 106 130 178 239 291 334 402
#     4  10  24  45  71 102 141 181 246 288 345 420
#     4  10  23  44  74  99 140 185 242 290 345 415
#     4  11  24  40  69  98 136 185 224 287 353 408
#
# _framework density 25.832259000000001
#
# number of rings (size 3 to 8) (size 9 to 14) (size 15 to 20)
#    0.000    1.333    1.667    2.000    2.333   13.333 
#    0.000    0.000    0.000    0.000    0.000    0.000 
#    0.000    0.000    0.000    0.000    0.000    0.000 
#
# Total GULP energy -133988.877392 kJ/mol
# GULP energy per Si atom -5582.869891 kJ/mol
# Density = 2.577346 g / cm^3
# Si number density = 25.832259 Si / 1000 Ang^3
#
#
#
# Elastic Constant Matrix: (Units=GPa)
#
#
# Indices 1 2 3 4 5 6 
#
# 1 89.5282 -1.6147 12.5857 0.0000 0.0000 0.0000
# 2 -1.6147 49.4993 14.4175 0.0000 0.0000 0.0000
# 3 12.5857 14.4175 82.8064 0.0000 0.0000 0.0000
# 4 0.0000 0.0000 0.0000 31.8538 0.0000 0.0000
# 5 0.0000 0.0000 0.0000 0.0000 16.6571 0.0000
# 6 0.0000 0.0000 0.0000 0.0000 0.0000 51.4044
#
#
#
# Elastic Compliance Matrix: (Units=1/GPa)
#
#
# Indices 1 2 3 4 5 6 
#
# 1 0.011454 0.000928 -0.001902 0.000000 0.000000 0.000000
# 2 0.000928 0.021357 -0.003859 0.000000 0.000000 0.000000
# 3 -0.001902 -0.003859 0.013037 0.000000 0.000000 0.000000
# 4 0.000000 0.000000 0.000000 0.031393 0.000000 0.000000
# 5 0.000000 0.000000 0.000000 0.000000 0.060034 0.000000
# 6 0.000000 0.000000 0.000000 0.000000 0.000000 0.019454
#
#
# Mechanical properties :
#
#
# Convention : Reuss Voigt Hill
#
# Bulk Modulus (GPa) = 27.63973 30.29011 28.96492
# Shear Modulus (GPa) = 28.01784 33.07940 30.54862
#
# Velocity S-wave (km/s) = 3.29691 3.58235 3.44259
# Velocity P-wave (km/s) = 5.02153 5.37235 5.19990
#
# Compressibility (1/GPa) = 0.03617980
#
# Stress axis : x y z
#
# Youngs Moduli (GPa) = 87.30700 46.82368 76.70198
#
# Poissons Ratio (x) = -0.04344 0.14592
# Poissons Ratio (y) = -0.08100 0.29603
# Poissons Ratio (z) = 0.16609 0.18071
#
# Static dielectric constant tensor:
#      x y z
#    x 2.113910 0.000000 0.000000 
#    y 0.000000 2.165610 0.000000 
#    z 0.000000 0.000000 2.146190 
# 
# From -- ./inp_files/1010.got.cif
#   From: 2010.05.17/outbox.cif.g08.bks.cpg/sg19_1_cif.got.tgz:1010.got - 2010.06.03 22:46:19.
