data_PCOD9315352
_publ_section_title
;
Structure prediction by ZEFSAII (Michael W. Deem and Ramdas Pophale) SiO2 
 PCOD9315352
Probable space group: P 21 21 21
;
_chemical_formula_sum "Si O2"
_cell_formula_units_Z 32
_cell_length_a 5.419897
_cell_length_b 16.980060
_cell_length_c 14.617174
_cell_angle_alpha 90.000000
_cell_angle_beta 90.000000
_cell_angle_gamma 90.000000
_cell_volume 1345.221100
_symmetry_space_group_name_H-M "P 21 21 21"
_symmetry_group_IT_number 19
_symmetry_cell_setting 'orthorhombic'
loop_
_space_group_symop_operation_xyz
x,y,z
1/2-x,-y,1/2+z
1/2+x,1/2-y,-z
-x,1/2+y,1/2-z
loop_
_atom_site_type_symbol
_atom_site_label
_atom_site_fract_x
_atom_site_fract_y
_atom_site_fract_z
Si Si1 0.135624 0.604209 0.357993
Si Si2 0.444006 0.537003 0.187921
Si Si3 0.918366 0.801067 0.492241
Si Si4 0.307147 0.621495 0.692775
Si Si5 0.321898 0.024277 0.684782
Si Si6 0.817597 0.675411 0.878502
Si Si7 0.578054 0.270968 0.728190
Si Si8 0.101581 0.826210 0.930158
O O1 0.278200 0.568422 0.271158
O O2 0.329553 0.636777 0.430783
O O3 0.947064 0.534839 0.387122
O O4 0.981099 0.676292 0.315633
O O5 0.371219 0.448309 0.159841
O O6 0.710609 0.528056 0.234340
O O7 0.437947 0.603764 0.111457
O O8 0.674474 0.743958 0.485988
O O9 0.948003 0.846882 0.396525
O O10 0.476019 0.579559 0.768198
O O11 0.224684 0.703147 0.741828
O O12 0.114084 0.087293 0.653613
O O13 0.668623 0.725589 0.803170
O O14 0.002377 0.737266 0.923144
O O15 0.642007 0.655938 0.964563
O O16 0.669611 0.319617 0.640600
#
# Coordination Sequence:
#
# PCOD9315352 Si02
#       8
#     4   4   4   4   4   4   4   4
#     4  11  24  44  68 103 137 187 238 292 363 429
#     4  11  24  42  71  97 138 185 233 289 364 425
#     4  12  29  47  76 111 146 192 249 305 364 436
#     4  10  25  45  69 101 138 184 236 298 354 434
#     4  10  24  46  67 102 135 185 231 294 360 426
#     4  11  24  41  66  98 133 175 229 288 344 424
#     4  11  21  44  69  93 136 179 233 284 352 430
#     4  12  23  39  68  97 133 179 229 286 347 424
#
# _framework density 23.787911000000001
#
# number of rings (size 3 to 8) (size 9 to 14) (size 15 to 20)
#    0.000    1.000    5.000    0.750    7.000    0.000 
#    2.250    0.000    0.000    0.000    0.000    0.000 
#    0.000    0.000    0.000    0.000    0.000    0.000 
#
# Total GULP energy -178614.851819 kJ/mol
# GULP energy per Si atom -5581.714119 kJ/mol
# Density = 2.373377 g / cm^3
# Si number density = 23.787911 Si / 1000 Ang^3
#
#
#
# Elastic Constant Matrix: (Units=GPa)
#
#
# Indices 1 2 3 4 5 6 
#
# 1 46.9339 18.3101 -8.8442 0.0000 0.0000 0.0000
# 2 18.3101 122.2728 31.0965 0.0000 0.0000 0.0000
# 3 -8.8442 31.0965 60.8243 0.0000 0.0000 0.0000
# 4 0.0000 0.0000 0.0000 30.4811 0.0000 0.0000
# 5 0.0000 0.0000 0.0000 0.0000 21.4164 0.0000
# 6 0.0000 0.0000 0.0000 0.0000 0.0000 32.6995
#
#
#
# Elastic Compliance Matrix: (Units=1/GPa)
#
#
# Indices 1 2 3 4 5 6 
#
# 1 0.024541 -0.005267 0.006261 0.000000 0.000000 0.000000
# 2 -0.005267 0.010531 -0.006150 0.000000 0.000000 0.000000
# 3 0.006261 -0.006150 0.020495 0.000000 0.000000 0.000000
# 4 0.000000 0.000000 0.000000 0.032807 0.000000 0.000000
# 5 0.000000 0.000000 0.000000 0.000000 0.046693 0.000000
# 6 0.000000 0.000000 0.000000 0.000000 0.000000 0.030582
#
#
# Mechanical properties :
#
#
# Convention : Reuss Voigt Hill
#
# Bulk Modulus (GPa) = 22.09648 34.57288 28.33468
# Shear Modulus (GPa) = 26.17148 29.55064 27.86106
#
# Velocity S-wave (km/s) = 3.32053 3.52839 3.42603
# Velocity P-wave (km/s) = 4.90003 5.58254 5.25238
#
# Compressibility (1/GPa) = 0.04525608
#
# Stress axis : x y z
#
# Youngs Moduli (GPa) = 40.74745 94.95497 48.79126
#
# Poissons Ratio (x) = 0.50017 -0.30550
# Poissons Ratio (y) = 0.21463 0.30007
# Poissons Ratio (z) = -0.25514 0.58398
#
# Static dielectric constant tensor:
#      x y z
#    x 1.992960 0.000000 0.000000 
#    y 0.000000 1.977570 0.000000 
#    z 0.000000 0.000000 1.876810 
# 
# From -- ./inp_files/5741.got.cif
#   From: 2010.05.17/outbox.cif.g08.bks.cpg/sg19_3_cif.got.tgz:5741.got - 2010.06.03 22:46:19.
