data_PCOD9315577
_publ_section_title
;
Structure prediction by ZEFSAII (Michael W. Deem and Ramdas Pophale) SiO2 
 PCOD9315577
Probable space group: P 21 21 21
;
_chemical_formula_sum "Si O2"
_cell_formula_units_Z 24
_cell_length_a 5.698736
_cell_length_b 12.464512
_cell_length_c 15.761093
_cell_angle_alpha 90.000000
_cell_angle_beta 90.000000
_cell_angle_gamma 90.000000
_cell_volume 1119.541379
_symmetry_space_group_name_H-M "P 21 21 21"
_symmetry_group_IT_number 19
_symmetry_cell_setting 'orthorhombic'
loop_
_space_group_symop_operation_xyz
x,y,z
1/2-x,-y,1/2+z
1/2+x,1/2-y,-z
-x,1/2+y,1/2-z
loop_
_atom_site_type_symbol
_atom_site_label
_atom_site_fract_x
_atom_site_fract_y
_atom_site_fract_z
Si Si1 0.539362 0.019646 0.053505
Si Si2 0.129545 0.072198 0.980194
Si Si3 0.229894 0.472471 0.628362
Si Si4 0.783766 0.211471 0.096267
Si Si5 0.788923 0.254597 0.288732
Si Si6 0.722157 0.879173 0.205225
O O1 0.674423 0.952618 0.123052
O O2 0.545543 0.143947 0.083733
O O3 0.625203 0.000667 0.957079
O O4 0.265695 0.996196 0.045229
O O5 0.270762 0.167278 0.934014
O O6 0.028322 0.000062 0.905621
O O7 0.949053 0.140625 0.036529
O O8 0.262046 0.349587 0.652510
O O9 0.264923 0.549554 0.709668
O O10 0.841554 0.211613 0.194118
O O11 0.530673 0.314614 0.285089
O O12 0.031539 0.317048 0.310066
#
# Coordination Sequence:
#
# PCOD9315577 Si02
#       6
#     4   4   4   4   4   4
#     4  11  26  46  74 105 151 199 247 309 372 448
#     4  11  23  42  74 108 148 193 254 315 377 436
#     4  11  27  48  73 110 150 202 250 312 374 447
#     4  11  22  40  72 110 143 189 247 315 372 432
#     4  12  29  47  76 108 152 198 249 303 374 454
#     4  12  29  49  75 113 150 199 251 306 375 451
#
# _framework density 21.437352000000001
#
# number of rings (size 3 to 8) (size 9 to 14) (size 15 to 20)
#    0.000    0.667    5.000    1.000   11.667    1.333 
#    0.000    0.000    0.000    0.000    0.000    0.000 
#    0.000    0.000    0.000    0.000    0.000    0.000 
#
# Total GULP energy -133686.457627 kJ/mol
# GULP energy per Si atom -5570.269068 kJ/mol
# Density = 2.138856 g / cm^3
# Si number density = 21.437352 Si / 1000 Ang^3
#
#
#
# Elastic Constant Matrix: (Units=GPa)
#
#
# Indices 1 2 3 4 5 6 
#
# 1 88.5870 49.8226 42.8037 0.0000 0.0000 0.0000
# 2 49.8226 80.0511 56.1674 0.0000 0.0000 0.0000
# 3 42.8037 56.1674 123.3236 0.0000 0.0000 0.0000
# 4 0.0000 0.0000 0.0000 38.2147 0.0000 0.0000
# 5 0.0000 0.0000 0.0000 0.0000 32.9963 0.0000
# 6 0.0000 0.0000 0.0000 0.0000 0.0000 26.7164
#
#
#
# Elastic Compliance Matrix: (Units=1/GPa)
#
#
# Indices 1 2 3 4 5 6 
#
# 1 0.017592 -0.009795 -0.001645 0.000000 0.000000 0.000000
# 2 -0.009795 0.023812 -0.007446 0.000000 0.000000 0.000000
# 3 -0.001645 -0.007446 0.012071 0.000000 0.000000 0.000000
# 4 0.000000 0.000000 0.000000 0.026168 0.000000 0.000000
# 5 0.000000 0.000000 0.000000 0.000000 0.030306 0.000000
# 6 0.000000 0.000000 0.000000 0.000000 0.000000 0.037430
#
#
# Mechanical properties :
#
#
# Convention : Reuss Voigt Hill
#
# Bulk Modulus (GPa) = 63.67657 65.50545 64.59101
# Shear Modulus (GPa) = 26.26261 29.13003 27.69632
#
# Velocity S-wave (km/s) = 3.50392 3.69025 3.59829
# Velocity P-wave (km/s) = 6.79250 6.98429 6.88906
#
# Compressibility (1/GPa) = 0.01570436
#
# Stress axis : x y z
#
# Youngs Moduli (GPa) = 56.84457 41.99502 82.84500
#
# Poissons Ratio (x) = 0.41133 0.13627
# Poissons Ratio (y) = 0.55678 0.61683
# Poissons Ratio (z) = 0.09350 0.31268
#
# Static dielectric constant tensor:
#      x y z
#    x 2.059380 0.000000 0.000000 
#    y 0.000000 1.891100 0.000000 
#    z 0.000000 0.000000 1.754570 
# 
# From -- ./inp_files/1423.got.cif
#   From: 2010.05.17/outbox.cif.g08.bks.cpg/sg19_1_cif.got.tgz:1423.got - 2010.06.03 22:46:19.
