data_PCOD9315622
_publ_section_title
;
Structure prediction by ZEFSAII (Michael W. Deem and Ramdas Pophale) SiO2 
 PCOD9315622
Probable space group: P 21 21 21
;
_chemical_formula_sum "Si O2"
_cell_formula_units_Z 32
_cell_length_a 14.254352
_cell_length_b 11.541743
_cell_length_c 8.183684
_cell_angle_alpha 90.000000
_cell_angle_beta 90.000000
_cell_angle_gamma 90.000000
_cell_volume 1346.380243
_symmetry_space_group_name_H-M "P 21 21 21"
_symmetry_group_IT_number 19
_symmetry_cell_setting 'orthorhombic'
loop_
_space_group_symop_operation_xyz
x,y,z
1/2-x,-y,1/2+z
1/2+x,1/2-y,-z
-x,1/2+y,1/2-z
loop_
_atom_site_type_symbol
_atom_site_label
_atom_site_fract_x
_atom_site_fract_y
_atom_site_fract_z
Si Si1 0.939547 0.036765 0.201848
Si Si2 0.322164 0.287456 0.612018
Si Si3 0.344059 0.676728 0.645429
Si Si4 0.356028 0.906700 0.798791
Si Si5 0.864926 0.152757 0.749523
Si Si6 0.935735 0.712292 0.670897
Si Si7 0.370638 0.580654 0.130437
Si Si8 0.798260 0.557317 0.840063
O O1 0.897840 0.941881 0.325910
O O2 0.896042 0.159578 0.259647
O O3 0.906684 0.985753 0.028949
O O4 0.051233 0.043546 0.215316
O O5 0.360371 0.286516 0.426876
O O6 0.235717 0.377840 0.608898
O O7 0.276472 0.164316 0.658843
O O8 0.364334 0.768018 0.791473
O O9 0.232276 0.662705 0.652787
O O10 0.381720 0.736327 0.482953
O O11 0.261218 0.945439 0.707242
O O12 0.343484 0.950598 0.981971
O O13 0.954215 0.196516 0.849788
O O14 0.877400 0.014559 0.726277
O O15 0.924072 0.803643 0.818300
O O16 0.881796 0.594442 0.719225
#
# Coordination Sequence:
#
# PCOD9315622 Si02
#       8
#     4   4   4   4   4   4   4   4
#     4  12  26  43  77 107 143 185 245 296 364 428
#     4  11  22  45  72 103 142 186 238 301 357 423
#     4  12  25  46  69 110 141 192 246 299 355 433
#     4  12  27  47  74 104 152 191 243 297 368 438
#     4  12  24  44  75  99 144 191 238 296 357 428
#     4  11  27  44  72 105 149 188 245 294 369 436
#     4  11  23  43  69 109 143 186 239 305 353 424
#     4  11  26  48  70 103 146 191 234 304 365 434
#
# _framework density 23.767430999999998
#
# number of rings (size 3 to 8) (size 9 to 14) (size 15 to 20)
#    0.000    0.500    3.750    3.750    7.000    3.000 
#    0.000    0.000    0.000    0.000    0.000    0.000 
#    0.000    0.000    0.000    0.000    0.000    0.000 
#
# Total GULP energy -179254.779192 kJ/mol
# GULP energy per Si atom -5601.711850 kJ/mol
# Density = 2.371333 g / cm^3
# Si number density = 23.767431 Si / 1000 Ang^3
#
#
#
# Elastic Constant Matrix: (Units=GPa)
#
#
# Indices 1 2 3 4 5 6 
#
# 1 118.8654 10.1650 2.3553 0.0000 0.0000 0.0000
# 2 10.1650 49.9504 -11.3291 0.0000 0.0000 0.0000
# 3 2.3553 -11.3291 61.8722 0.0000 0.0000 0.0000
# 4 0.0000 0.0000 0.0000 40.3070 0.0000 0.0000
# 5 0.0000 0.0000 0.0000 0.0000 24.7047 0.0000
# 6 0.0000 0.0000 0.0000 0.0000 0.0000 21.9861
#
#
#
# Elastic Compliance Matrix: (Units=1/GPa)
#
#
# Indices 1 2 3 4 5 6 
#
# 1 0.008589 -0.001901 -0.000675 0.000000 0.000000 0.000000
# 2 -0.001901 0.021308 0.003974 0.000000 0.000000 0.000000
# 3 -0.000675 0.003974 0.016916 0.000000 0.000000 0.000000
# 4 0.000000 0.000000 0.000000 0.024810 0.000000 0.000000
# 5 0.000000 0.000000 0.000000 0.000000 0.040478 0.000000
# 6 0.000000 0.000000 0.000000 0.000000 0.000000 0.045483
#
#
# Mechanical properties :
#
#
# Convention : Reuss Voigt Hill
#
# Bulk Modulus (GPa) = 20.15781 25.89670 23.02726
# Shear Modulus (GPa) = 29.18453 32.69936 30.94194
#
# Velocity S-wave (km/s) = 3.50797 3.71321 3.61205
# Velocity P-wave (km/s) = 4.99074 5.41326 5.20629
#
# Compressibility (1/GPa) = 0.04960858
#
# Stress axis : x y z
#
# Youngs Moduli (GPa) = 116.43054 46.93067 59.11667
#
# Poissons Ratio (x) = 0.08921 0.03991
# Poissons Ratio (y) = 0.22133 -0.23493
# Poissons Ratio (z) = 0.07859 -0.18650
#
# Static dielectric constant tensor:
#      x y z
#    x 1.871600 0.000000 0.000000 
#    y 0.000000 1.909020 0.000000 
#    z 0.000000 0.000000 1.928050 
# 
# From -- ./inp_files/3966.got.cif
#   From: 2010.05.17/outbox.cif.g08.bks.cpg/sg19_2_cif.got.tgz:3966.got - 2010.06.03 22:46:19.
