data_PCOD9315523
_publ_section_title
;
Structure prediction by ZEFSAII (Michael W. Deem and Ramdas Pophale) SiO2 
 PCOD9315523
Probable space group: P 21 21 21
;
_chemical_formula_sum "Si O2"
_cell_formula_units_Z 32
_cell_length_a 18.830530
_cell_length_b 11.411485
_cell_length_c 6.035022
_cell_angle_alpha 90.000000
_cell_angle_beta 90.000000
_cell_angle_gamma 90.000000
_cell_volume 1296.831542
_symmetry_space_group_name_H-M "P 21 21 21"
_symmetry_group_IT_number 19
_symmetry_cell_setting 'orthorhombic'
loop_
_space_group_symop_operation_xyz
x,y,z
1/2-x,-y,1/2+z
1/2+x,1/2-y,-z
-x,1/2+y,1/2-z
loop_
_atom_site_type_symbol
_atom_site_label
_atom_site_fract_x
_atom_site_fract_y
_atom_site_fract_z
Si Si1 0.767263 0.247620 0.888281
Si Si2 0.801082 0.274287 0.378758
Si Si3 0.493453 0.225725 0.108900
Si Si4 0.939388 0.649367 0.991141
Si Si5 0.685780 0.482867 0.355163
Si Si6 0.385280 0.646414 0.705215
Si Si7 0.081418 0.929950 0.975988
Si Si8 0.049884 0.573356 0.321489
O O1 0.794867 0.217661 0.630877
O O2 0.780663 0.389244 0.890492
O O3 0.687297 0.198481 0.884940
O O4 0.791982 0.211123 0.139797
O O5 0.740335 0.376178 0.375141
O O6 0.877570 0.336939 0.374456
O O7 0.544322 0.312799 0.244571
O O8 0.449892 0.141648 0.267602
O O9 0.548150 0.152862 0.961629
O O10 0.443289 0.314664 0.977666
O O11 0.908665 0.764924 0.103509
O O12 0.014925 0.617904 0.094716
O O13 0.879734 0.550105 0.017485
O O14 0.644810 0.489999 0.120423
O O15 0.384747 0.513333 0.789424
O O16 0.015447 0.995796 0.080961
#
# Coordination Sequence:
#
# PCOD9315523 Si02
#       8
#     4   4   4   4   4   4   4   4
#     4  11  23  38  61  99 138 177 227 293 366 424
#     4  11  24  38  63 100 138 178 224 297 372 419
#     4  11  24  42  63  98 144 196 236 293 374 434
#     4  11  21  39  62  97 142 182 236 290 366 442
#     4  11  21  37  65 101 139 178 230 304 367 421
#     4  11  24  39  63 100 146 188 245 295 362 445
#     4  11  23  41  66 101 148 185 241 300 368 447
#     4  11  24  38  65  98 141 192 239 294 357 442
#
# _framework density 24.675528
#
# number of rings (size 3 to 8) (size 9 to 14) (size 15 to 20)
#    0.000    1.000    3.750    3.750    5.250    1.000 
#    0.000    0.000    0.000    0.000   13.000    0.000 
#    0.000    0.000    0.000    0.000    0.000    0.000 
#
# Total GULP energy -178760.921274 kJ/mol
# GULP energy per Si atom -5586.278790 kJ/mol
# Density = 2.461937 g / cm^3
# Si number density = 24.675528 Si / 1000 Ang^3
#
#
#
# Elastic Constant Matrix: (Units=GPa)
#
#
# Indices 1 2 3 4 5 6 
#
# 1 78.5422 27.8027 25.4507 0.0000 0.0000 0.0000
# 2 27.8027 60.3238 30.4214 0.0000 0.0000 0.0000
# 3 25.4507 30.4214 133.6779 0.0000 0.0000 0.0000
# 4 0.0000 0.0000 0.0000 23.1310 0.0000 0.0000
# 5 0.0000 0.0000 0.0000 0.0000 37.0762 0.0000
# 6 0.0000 0.0000 0.0000 0.0000 0.0000 42.7083
#
#
#
# Elastic Compliance Matrix: (Units=1/GPa)
#
#
# Indices 1 2 3 4 5 6 
#
# 1 0.015474 -0.006378 -0.001495 0.000000 0.000000 0.000000
# 2 -0.006378 0.021355 -0.003646 0.000000 0.000000 0.000000
# 3 -0.001495 -0.003646 0.008595 0.000000 0.000000 0.000000
# 4 0.000000 0.000000 0.000000 0.043232 0.000000 0.000000
# 5 0.000000 0.000000 0.000000 0.000000 0.026971 0.000000
# 6 0.000000 0.000000 0.000000 0.000000 0.000000 0.023415
#
#
# Mechanical properties :
#
#
# Convention : Reuss Voigt Hill
#
# Bulk Modulus (GPa) = 44.66753 48.87709 46.77231
# Shear Modulus (GPa) = 29.49130 33.17436 31.33283
#
# Velocity S-wave (km/s) = 3.46086 3.67062 3.56728
# Velocity P-wave (km/s) = 5.84049 6.14943 5.99695
#
# Compressibility (1/GPa) = 0.02238763
#
# Stress axis : x y z
#
# Youngs Moduli (GPa) = 64.62420 46.82682 116.34880
#
# Poissons Ratio (x) = 0.29867 0.17389
# Poissons Ratio (y) = 0.41218 0.42416
# Poissons Ratio (z) = 0.09659 0.17071
#
# Static dielectric constant tensor:
#      x y z
#    x 1.945800 0.000000 0.000000 
#    y 0.000000 1.967390 0.000000 
#    z 0.000000 0.000000 2.037270 
# 
# From -- ./inp_files/1989.got.cif
#   From: 2010.05.17/outbox.cif.g08.bks.cpg/sg19_1_cif.got.tgz:1989.got - 2010.06.03 22:46:19.
