data_PCOD9315823
_publ_section_title
;
Structure prediction by ZEFSAII (Michael W. Deem and Ramdas Pophale) SiO2 
 PCOD9315823
Probable space group: P 21 21 21
;
_chemical_formula_sum "Si O2"
_cell_formula_units_Z 16
_cell_length_a 5.092928
_cell_length_b 14.846227
_cell_length_c 7.902079
_cell_angle_alpha 90.000000
_cell_angle_beta 90.000000
_cell_angle_gamma 90.000000
_cell_volume 597.482240
_symmetry_space_group_name_H-M "P 21 21 21"
_symmetry_group_IT_number 19
_symmetry_cell_setting 'orthorhombic'
loop_
_space_group_symop_operation_xyz
x,y,z
1/2-x,-y,1/2+z
1/2+x,1/2-y,-z
-x,1/2+y,1/2-z
loop_
_atom_site_type_symbol
_atom_site_label
_atom_site_fract_x
_atom_site_fract_y
_atom_site_fract_z
Si Si1 0.171987 0.786249 0.722654
Si Si2 0.493492 0.352290 0.484434
Si Si3 0.674346 0.110615 0.982182
Si Si4 0.993167 0.459180 0.374207
O O1 0.249868 0.708666 0.590280
O O2 0.992658 0.732125 0.856887
O O3 0.025033 0.867802 0.632813
O O4 0.416443 0.820633 0.832255
O O5 0.206569 0.393479 0.463074
O O6 0.705651 0.424834 0.418876
O O7 0.549616 0.055645 0.824818
O O8 0.920997 0.055020 0.051759
#
# Coordination Sequence:
#
# PCOD9315823 Si02
#       4
#     4   4   4   4
#     4  11  24  46  74 108 142 188 240 295 353 424
#     4  11  25  47  72 101 143 188 235 291 356 421
#     4  11  25  43  72 107 144 186 238 293 354 421
#     4  11  26  46  70 104 145 188 233 293 357 422
#
# _framework density 26.779035
#
# number of rings (size 3 to 8) (size 9 to 14) (size 15 to 20)
#    0.000    1.000    0.000    6.000    0.000   12.000 
#    0.000    0.000    0.000    0.000    0.000    0.000 
#    0.000    0.000    0.000    0.000    0.000    0.000 
#
# Total GULP energy -89932.973695 kJ/mol
# GULP energy per Si atom -5620.810856 kJ/mol
# Density = 2.671808 g / cm^3
# Si number density = 26.779035 Si / 1000 Ang^3
#
#
#
# Elastic Constant Matrix: (Units=GPa)
#
#
# Indices 1 2 3 4 5 6 
#
# 1 62.7464 18.8558 39.5465 0.0000 0.0000 0.0000
# 2 18.8558 70.7162 71.5898 0.0000 0.0000 0.0000
# 3 39.5465 71.5898 125.4567 0.0000 0.0000 0.0000
# 4 0.0000 0.0000 0.0000 69.8326 0.0000 0.0000
# 5 0.0000 0.0000 0.0000 0.0000 56.3658 0.0000
# 6 0.0000 0.0000 0.0000 0.0000 0.0000 55.1918
#
#
#
# Elastic Compliance Matrix: (Units=1/GPa)
#
#
# Indices 1 2 3 4 5 6 
#
# 1 0.020072 0.002494 -0.007750 0.000000 0.000000 0.000000
# 2 0.002494 0.033794 -0.020070 0.000000 0.000000 0.000000
# 3 -0.007750 -0.020070 0.021867 0.000000 0.000000 0.000000
# 4 0.000000 0.000000 0.000000 0.014320 0.000000 0.000000
# 5 0.000000 0.000000 0.000000 0.000000 0.017741 0.000000
# 6 0.000000 0.000000 0.000000 0.000000 0.000000 0.018119
#
#
# Mechanical properties :
#
#
# Convention : Reuss Voigt Hill
#
# Bulk Modulus (GPa) = 39.87226 57.65596 48.76411
# Shear Modulus (GPa) = 27.03771 44.87319 35.95545
#
# Velocity S-wave (km/s) = 3.18096 4.09795 3.66822
# Velocity P-wave (km/s) = 5.33039 6.63083 6.01585
#
# Compressibility (1/GPa) = 0.02508009
#
# Stress axis : x y z
#
# Youngs Moduli (GPa) = 49.81950 29.59076 45.73147
#
# Poissons Ratio (x) = -0.07380 0.35444
# Poissons Ratio (y) = -0.12425 0.91785
# Poissons Ratio (z) = 0.38612 0.59390
#
# Static dielectric constant tensor:
#      x y z
#    x 2.038600 0.000000 0.000000 
#    y 0.000000 2.125530 0.000000 
#    z 0.000000 0.000000 2.067380 
# 
# From -- ./inp_files/2364.got.cif
#   From: 2010.05.17/outbox.cif.g08.bks.cpg/sg19_2_cif.got.tgz:2364.got - 2010.06.03 22:46:19.
