data_PCOD9315126
_publ_section_title
;
Structure prediction by ZEFSAII (Michael W. Deem and Ramdas Pophale) SiO2 
 PCOD9315126
Probable space group: P 21 21 21
;
_chemical_formula_sum "Si O2"
_cell_formula_units_Z 32
_cell_length_a 19.503238
_cell_length_b 5.736735
_cell_length_c 11.048212
_cell_angle_alpha 90.000000
_cell_angle_beta 90.000000
_cell_angle_gamma 90.000000
_cell_volume 1236.128184
_symmetry_space_group_name_H-M "P 21 21 21"
_symmetry_group_IT_number 19
_symmetry_cell_setting 'orthorhombic'
loop_
_space_group_symop_operation_xyz
x,y,z
1/2-x,-y,1/2+z
1/2+x,1/2-y,-z
-x,1/2+y,1/2-z
loop_
_atom_site_type_symbol
_atom_site_label
_atom_site_fract_x
_atom_site_fract_y
_atom_site_fract_z
Si Si1 0.936427 0.891207 0.187747
Si Si2 0.289935 0.826977 0.864468
Si Si3 0.418123 0.112666 0.553563
Si Si4 0.175660 0.865921 0.665721
Si Si5 0.051128 0.383701 0.023187
Si Si6 0.167416 0.764970 0.274078
Si Si7 0.528291 0.568884 0.293780
Si Si8 0.218758 0.380081 0.597668
O O1 0.870220 0.737791 0.152013
O O2 0.955395 0.865818 0.330334
O O3 0.003750 0.869280 0.107047
O O4 0.899861 0.139600 0.177933
O O5 0.243156 0.841560 0.746609
O O6 0.295814 0.104772 0.883923
O O7 0.255517 0.659349 0.961146
O O8 0.408390 0.373343 0.501007
O O9 0.363879 0.088804 0.661906
O O10 0.415357 0.864540 0.486741
O O11 0.106134 0.883800 0.739721
O O12 0.173429 0.611186 0.602963
O O13 0.181228 0.128240 0.611209
O O14 0.984637 0.408070 0.938586
O O15 0.222866 0.612702 0.200842
O O16 0.509680 0.300041 0.260538
#
# Coordination Sequence:
#
# PCOD9315126 Si02
#       8
#     4   4   4   4   4   4   4   4
#     4  11  23  40  68 109 142 174 233 288 366 418
#     4  11  25  44  71 101 143 189 231 295 347 430
#     4  11  24  38  69 105 146 175 225 294 364 418
#     4  11  27  50  67 107 141 179 250 287 340 444
#     4  11  24  42  67 102 139 178 225 295 345 416
#     4  10  23  44  62 105 148 180 243 287 346 443
#     4  12  28  51  74 101 139 192 243 289 346 418
#     4  11  26  43  72  98 140 193 228 295 362 409
#
# _framework density 25.887284000000001
#
# number of rings (size 3 to 8) (size 9 to 14) (size 15 to 20)
#    0.000    1.000    2.500    3.000    7.000    3.000 
#    0.000    0.000    0.000    0.000    0.000    0.000 
#    0.000    0.000    0.000    0.000    0.000    0.000 
#
# Total GULP energy -178353.823615 kJ/mol
# GULP energy per Si atom -5573.556988 kJ/mol
# Density = 2.582836 g / cm^3
# Si number density = 25.887284 Si / 1000 Ang^3
#
#
#
# Elastic Constant Matrix: (Units=GPa)
#
#
# Indices 1 2 3 4 5 6 
#
# 1 91.1678 24.2362 11.4834 0.0000 0.0000 0.0000
# 2 24.2362 178.6688 32.9161 0.0000 0.0000 0.0000
# 3 11.4834 32.9161 58.9103 0.0000 0.0000 0.0000
# 4 0.0000 0.0000 0.0000 35.2355 0.0000 0.0000
# 5 0.0000 0.0000 0.0000 0.0000 13.9934 0.0000
# 6 0.0000 0.0000 0.0000 0.0000 0.0000 36.9262
#
#
#
# Elastic Compliance Matrix: (Units=1/GPa)
#
#
# Indices 1 2 3 4 5 6 
#
# 1 0.011501 -0.001279 -0.001527 0.000000 0.000000 0.000000
# 2 -0.001279 0.006381 -0.003316 0.000000 0.000000 0.000000
# 3 -0.001527 -0.003316 0.019126 0.000000 0.000000 0.000000
# 4 0.000000 0.000000 0.000000 0.028381 0.000000 0.000000
# 5 0.000000 0.000000 0.000000 0.000000 0.071462 0.000000
# 6 0.000000 0.000000 0.000000 0.000000 0.000000 0.027081
#
#
# Mechanical properties :
#
#
# Convention : Reuss Voigt Hill
#
# Bulk Modulus (GPa) = 40.38242 51.77979 46.08111
# Shear Modulus (GPa) = 27.11039 34.57177 30.84108
#
# Velocity S-wave (km/s) = 3.23963 3.65838 3.45535
# Velocity P-wave (km/s) = 5.44305 6.15552 5.81022
#
# Compressibility (1/GPa) = 0.02476325
#
# Stress axis : x y z
#
# Youngs Moduli (GPa) = 86.94811 156.70616 52.28564
#
# Poissons Ratio (x) = 0.20038 0.07986
# Poissons Ratio (y) = 0.11118 0.17340
# Poissons Ratio (z) = 0.13281 0.51969
#
# Static dielectric constant tensor:
#      x y z
#    x 1.974260 0.000000 0.000000 
#    y 0.000000 2.252940 0.000000 
#    z 0.000000 0.000000 2.168930 
# 
# From -- ./inp_files/5511.got.cif
#   From: 2010.05.17/outbox.cif.g08.bks.cpg/sg19_3_cif.got.tgz:5511.got - 2010.06.03 22:46:19.
