data_PCOD9315798
_publ_section_title
;
Structure prediction by ZEFSAII (Michael W. Deem and Ramdas Pophale) SiO2 
 PCOD9315798
Probable space group: P 21 21 21
;
_chemical_formula_sum "Si O2"
_cell_formula_units_Z 20
_cell_length_a 14.551972
_cell_length_b 11.361814
_cell_length_c 4.777036
_cell_angle_alpha 90.000000
_cell_angle_beta 90.000000
_cell_angle_gamma 90.000000
_cell_volume 789.819842
_symmetry_space_group_name_H-M "P 21 21 21"
_symmetry_group_IT_number 19
_symmetry_cell_setting 'orthorhombic'
loop_
_space_group_symop_operation_xyz
x,y,z
1/2-x,-y,1/2+z
1/2+x,1/2-y,-z
-x,1/2+y,1/2-z
loop_
_atom_site_type_symbol
_atom_site_label
_atom_site_fract_x
_atom_site_fract_y
_atom_site_fract_z
Si Si1 0.966802 0.593196 0.289423
Si Si2 0.503077 0.063299 0.205610
Si Si3 0.808305 0.013344 0.842368
Si Si4 0.884434 0.238425 0.523515
Si Si5 0.769177 0.582446 0.055317
O O1 0.865447 0.628117 0.182742
O O2 0.970849 0.549790 0.607602
O O3 0.989825 0.474589 0.112991
O O4 0.046604 0.683302 0.204811
O O5 0.447143 0.175797 0.292496
O O6 0.610126 0.077113 0.280445
O O7 0.842710 0.135482 0.714261
O O8 0.718689 0.979047 0.664225
O O9 0.797762 0.317768 0.432249
O O10 0.719937 0.514998 0.313447
#
# Coordination Sequence:
#
# PCOD9315798 Si02
#       5
#     4   4   4   4   4
#     4  11  24  45  68 106 139 181 241 296 350 431
#     4  11  24  47  70 100 144 184 238 294 350 436
#     4  11  26  48  68 107 144 184 242 295 352 435
#     4  11  26  46  74 100 145 193 228 296 372 399
#     4  12  24  46  72 105 140 184 245 293 344 435
#
# _framework density 25.322230999999999
#
# number of rings (size 3 to 8) (size 9 to 14) (size 15 to 20)
#    0.000    0.800    4.000    2.400    2.800    9.600 
#    7.200    0.000    0.000    0.000    0.000    0.000 
#    0.000    0.000    0.000    0.000    0.000    0.000 
#
# Total GULP energy -112130.474957 kJ/mol
# GULP energy per Si atom -5606.523748 kJ/mol
# Density = 2.526460 g / cm^3
# Si number density = 25.322231 Si / 1000 Ang^3
#
#
#
# Elastic Constant Matrix: (Units=GPa)
#
#
# Indices 1 2 3 4 5 6 
#
# 1 158.0491 36.4535 5.3676 0.0000 0.0000 0.0000
# 2 36.4535 103.2680 12.0742 0.0000 0.0000 0.0000
# 3 5.3676 12.0742 75.5966 0.0000 0.0000 0.0000
# 4 0.0000 0.0000 0.0000 27.2321 0.0000 0.0000
# 5 0.0000 0.0000 0.0000 0.0000 40.5926 0.0000
# 6 0.0000 0.0000 0.0000 0.0000 0.0000 47.6795
#
#
#
# Elastic Compliance Matrix: (Units=1/GPa)
#
#
# Indices 1 2 3 4 5 6 
#
# 1 0.006889 -0.002420 -0.000103 0.000000 0.000000 0.000000
# 2 -0.002420 0.010718 -0.001540 0.000000 0.000000 0.000000
# 3 -0.000103 -0.001540 0.013481 0.000000 0.000000 0.000000
# 4 0.000000 0.000000 0.000000 0.036721 0.000000 0.000000
# 5 0.000000 0.000000 0.000000 0.000000 0.024635 0.000000
# 6 0.000000 0.000000 0.000000 0.000000 0.000000 0.020973
#
#
# Mechanical properties :
#
#
# Convention : Reuss Voigt Hill
#
# Bulk Modulus (GPa) = 43.54813 49.41158 46.47986
# Shear Modulus (GPa) = 38.70066 41.96873 40.33469
#
# Velocity S-wave (km/s) = 3.91362 4.07552 3.99539
# Velocity P-wave (km/s) = 6.13652 6.45770 6.29916
#
# Compressibility (1/GPa) = 0.02296310
#
# Stress axis : x y z
#
# Youngs Moduli (GPa) = 145.16464 93.30308 74.17647
#
# Poissons Ratio (x) = 0.22577 0.00761
# Poissons Ratio (y) = 0.35126 0.11423
# Poissons Ratio (z) = 0.01490 0.14369
#
# Static dielectric constant tensor:
#      x y z
#    x 2.056350 0.000000 0.000000 
#    y 0.000000 1.978090 0.000000 
#    z 0.000000 0.000000 1.901070 
# 
# From -- ./inp_files/827.got.cif
#   From: 2010.05.17/outbox.cif.g08.bks.cpg/sg19_1_cif.got.tgz:827.got - 2010.06.03 22:46:19.
