data_PCOD9315150
_publ_section_title
;
Structure prediction by ZEFSAII (Michael W. Deem and Ramdas Pophale) SiO2 
 PCOD9315150
Probable space group: P 21 21 21
;
_chemical_formula_sum "Si O2"
_cell_formula_units_Z 28
_cell_length_a 5.483271
_cell_length_b 22.426352
_cell_length_c 8.660213
_cell_angle_alpha 90.000000
_cell_angle_beta 90.000000
_cell_angle_gamma 90.000000
_cell_volume 1064.944362
_symmetry_space_group_name_H-M "P 21 21 21"
_symmetry_group_IT_number 19
_symmetry_cell_setting 'orthorhombic'
loop_
_space_group_symop_operation_xyz
x,y,z
1/2-x,-y,1/2+z
1/2+x,1/2-y,-z
-x,1/2+y,1/2-z
loop_
_atom_site_type_symbol
_atom_site_label
_atom_site_fract_x
_atom_site_fract_y
_atom_site_fract_z
Si Si1 0.279449 0.563049 0.558032
Si Si2 0.148908 0.758067 0.902459
Si Si3 0.843333 0.698650 0.663066
Si Si4 0.937694 0.882183 0.856939
Si Si5 0.986216 0.502857 0.804160
Si Si6 0.117904 0.671317 0.378498
Si Si7 0.601264 0.588287 0.829310
O O1 0.053989 0.547535 0.666183
O O2 0.300712 0.515680 0.422082
O O3 0.281714 0.629316 0.490736
O O4 0.497534 0.557380 0.677265
O O5 0.116568 0.825678 0.844196
O O6 0.093761 0.715960 0.754887
O O7 0.409708 0.750201 0.985313
O O8 0.700748 0.761073 0.648931
O O9 0.717139 0.650027 0.771032
O O10 0.882892 0.675258 0.488680
O O11 0.058106 0.938448 0.771614
O O12 0.679519 0.863103 0.780623
O O13 0.911027 0.895227 0.037702
O O14 0.785945 0.539448 0.896538
#
# Coordination Sequence:
#
# PCOD9315150 Si02
#       7
#     4   4   4   4   4   4   4
#     4  11  24  42  71  99 145 190 253 314 394 465
#     4  11  25  46  75 119 158 210 270 333 411 488
#     4  11  23  42  75 105 153 200 257 328 405 483
#     4  10  24  45  69 112 156 197 267 328 401 487
#     4  11  24  45  67 106 145 201 254 323 393 483
#     4  10  23  44  68 108 147 192 249 325 392 471
#     4  12  23  44  73 105 144 202 254 321 396 483
#
# _framework density 26.292453999999999
#
# number of rings (size 3 to 8) (size 9 to 14) (size 15 to 20)
#    0.000    1.143    2.857    2.571    2.000    3.429 
#    2.571    0.000    0.000    0.000    0.000    0.000 
#    0.000    0.000    0.000    0.000    0.000    0.000 
#
# Total GULP energy -156564.964712 kJ/mol
# GULP energy per Si atom -5591.605883 kJ/mol
# Density = 2.623261 g / cm^3
# Si number density = 26.292454 Si / 1000 Ang^3
#
#
#
# Elastic Constant Matrix: (Units=GPa)
#
#
# Indices 1 2 3 4 5 6 
#
# 1 73.2005 32.5190 39.0157 0.0000 0.0000 0.0000
# 2 32.5190 131.1666 55.6042 0.0000 0.0000 0.0000
# 3 39.0157 55.6042 145.5554 0.0000 0.0000 0.0000
# 4 0.0000 0.0000 0.0000 39.4543 0.0000 0.0000
# 5 0.0000 0.0000 0.0000 0.0000 46.2189 0.0000
# 6 0.0000 0.0000 0.0000 0.0000 0.0000 22.6699
#
#
#
# Elastic Compliance Matrix: (Units=1/GPa)
#
#
# Indices 1 2 3 4 5 6 
#
# 1 0.016689 -0.002674 -0.003452 0.000000 0.000000 0.000000
# 2 -0.002674 0.009526 -0.002922 0.000000 0.000000 0.000000
# 3 -0.003452 -0.002922 0.008912 0.000000 0.000000 0.000000
# 4 0.000000 0.000000 0.000000 0.025346 0.000000 0.000000
# 5 0.000000 0.000000 0.000000 0.000000 0.021636 0.000000
# 6 0.000000 0.000000 0.000000 0.000000 0.000000 0.044111
#
#
# Mechanical properties :
#
#
# Convention : Reuss Voigt Hill
#
# Bulk Modulus (GPa) = 58.71986 67.13336 62.92661
# Shear Modulus (GPa) = 33.33497 36.52087 34.92792
#
# Velocity S-wave (km/s) = 3.56456 3.73101 3.64873
# Velocity P-wave (km/s) = 6.27082 6.64449 6.46036
#
# Compressibility (1/GPa) = 0.01703001
#
# Stress axis : x y z
#
# Youngs Moduli (GPa) = 59.91988 104.97989 112.21123
#
# Poissons Ratio (x) = 0.28074 0.38733
# Poissons Ratio (y) = 0.16024 0.32789
# Poissons Ratio (z) = 0.20683 0.30676
#
# Static dielectric constant tensor:
#      x y z
#    x 2.094900 0.000000 0.000000 
#    y 0.000000 1.996800 0.000000 
#    z 0.000000 0.000000 2.058170 
# 
# From -- ./inp_files/2433.got.cif
#   From: 2010.05.17/outbox.cif.g08.bks.cpg/sg19_2_cif.got.tgz:2433.got - 2010.06.03 22:46:19.
