data_PCOD9315928
_publ_section_title
;
Structure prediction by ZEFSAII (Michael W. Deem and Ramdas Pophale) SiO2 
 PCOD9315928
Probable space group: P 21 21 21
;
_chemical_formula_sum "Si O2"
_cell_formula_units_Z 24
_cell_length_a 7.506120
_cell_length_b 10.863875
_cell_length_c 11.217427
_cell_angle_alpha 90.000000
_cell_angle_beta 90.000000
_cell_angle_gamma 90.000000
_cell_volume 914.731248
_symmetry_space_group_name_H-M "P 21 21 21"
_symmetry_group_IT_number 19
_symmetry_cell_setting 'orthorhombic'
loop_
_space_group_symop_operation_xyz
x,y,z
1/2-x,-y,1/2+z
1/2+x,1/2-y,-z
-x,1/2+y,1/2-z
loop_
_atom_site_type_symbol
_atom_site_label
_atom_site_fract_x
_atom_site_fract_y
_atom_site_fract_z
Si Si1 0.148075 0.918732 0.042946
Si Si2 0.028884 0.101288 0.215661
Si Si3 0.781308 0.911629 0.536791
Si Si4 0.020387 0.564228 0.662962
Si Si5 0.562910 0.674746 0.312105
Si Si6 0.041149 0.646254 0.006900
O O1 0.070113 0.790883 0.995412
O O2 0.071457 0.962312 0.169400
O O3 0.356102 0.897892 0.046576
O O4 0.107483 0.026510 0.947298
O O5 0.864685 0.138301 0.130170
O O6 0.973251 0.117931 0.351643
O O7 0.224104 0.162547 0.196993
O O8 0.703630 0.903823 0.404868
O O9 0.969139 0.845769 0.559317
O O10 0.807669 0.059642 0.549340
O O11 0.988678 0.693061 0.728296
O O12 0.482439 0.558493 0.240409
#
# Coordination Sequence:
#
# PCOD9315928 Si02
#       6
#     4   4   4   4   4   4
#     4  11  25  50  79 119 163 218 268 341 406 479
#     4  11  26  50  78 117 157 217 271 327 403 480
#     4  11  27  47  79 120 161 215 263 341 401 479
#     4  11  28  49  82 118 162 218 270 331 407 479
#     4  12  27  50  81 117 168 212 277 334 402 489
#     4  12  25  50  83 119 165 210 279 338 407 494
#
# _framework density 26.237214000000002
#
# number of rings (size 3 to 8) (size 9 to 14) (size 15 to 20)
#    0.000    0.667    3.333    3.000    7.000    6.667 
#    0.000    0.000    0.000    0.000    0.000    0.000 
#    0.000    0.000    0.000    0.000    0.000    0.000 
#
# Total GULP energy -134334.551474 kJ/mol
# GULP energy per Si atom -5597.272978 kJ/mol
# Density = 2.617750 g / cm^3
# Si number density = 26.237214 Si / 1000 Ang^3
#
#
#
# Elastic Constant Matrix: (Units=GPa)
#
#
# Indices 1 2 3 4 5 6 
#
# 1 121.0181 35.8181 58.3999 0.0000 0.0000 0.0000
# 2 35.8181 160.3884 63.9695 0.0000 0.0000 0.0000
# 3 58.3999 63.9695 88.2810 0.0000 0.0000 0.0000
# 4 0.0000 0.0000 0.0000 47.5559 0.0000 0.0000
# 5 0.0000 0.0000 0.0000 0.0000 28.7838 0.0000
# 6 0.0000 0.0000 0.0000 0.0000 0.0000 28.9440
#
#
#
# Elastic Compliance Matrix: (Units=1/GPa)
#
#
# Indices 1 2 3 4 5 6 
#
# 1 0.012193 0.000695 -0.008569 0.000000 0.000000 0.000000
# 2 0.000695 0.008809 -0.006843 0.000000 0.000000 0.000000
# 3 -0.008569 -0.006843 0.021955 0.000000 0.000000 0.000000
# 4 0.000000 0.000000 0.000000 0.021028 0.000000 0.000000
# 5 0.000000 0.000000 0.000000 0.000000 0.034742 0.000000
# 6 0.000000 0.000000 0.000000 0.000000 0.000000 0.034549
#
#
# Mechanical properties :
#
#
# Convention : Reuss Voigt Hill
#
# Bulk Modulus (GPa) = 73.95375 76.22916 75.09145
# Shear Modulus (GPa) = 29.90122 35.15673 32.52898
#
# Velocity S-wave (km/s) = 3.37953 3.66451 3.52490
# Velocity P-wave (km/s) = 6.59364 6.85724 6.72673
#
# Compressibility (1/GPa) = 0.01352197
#
# Stress axis : x y z
#
# Youngs Moduli (GPa) = 82.01484 113.52256 45.54849
#
# Poissons Ratio (x) = -0.07889 0.39032
# Poissons Ratio (y) = -0.05699 0.31167
# Poissons Ratio (z) = 0.70282 0.77680
#
# Static dielectric constant tensor:
#      x y z
#    x 2.066030 0.000000 0.000000 
#    y 0.000000 2.125250 0.000000 
#    z 0.000000 0.000000 2.164960 
# 
# From -- ./inp_files/4551.got.cif
#   From: 2010.05.17/outbox.cif.g08.bks.cpg/sg19_3_cif.got.tgz:4551.got - 2010.06.03 22:46:19.
