data_PCOD9315821
_publ_section_title
;
Structure prediction by ZEFSAII (Michael W. Deem and Ramdas Pophale) SiO2 
 PCOD9315821
Probable space group: P 21 21 21
;
_chemical_formula_sum "Si O2"
_cell_formula_units_Z 24
_cell_length_a 15.247125
_cell_length_b 10.542219
_cell_length_c 6.805285
_cell_angle_alpha 90.000000
_cell_angle_beta 90.000000
_cell_angle_gamma 90.000000
_cell_volume 1093.871513
_symmetry_space_group_name_H-M "P 21 21 21"
_symmetry_group_IT_number 19
_symmetry_cell_setting 'orthorhombic'
loop_
_space_group_symop_operation_xyz
x,y,z
1/2-x,-y,1/2+z
1/2+x,1/2-y,-z
-x,1/2+y,1/2-z
loop_
_atom_site_type_symbol
_atom_site_label
_atom_site_fract_x
_atom_site_fract_y
_atom_site_fract_z
Si Si1 0.267390 0.324445 0.101836
Si Si2 0.871203 0.426807 0.802325
Si Si3 0.022921 0.278013 0.616277
Si Si4 0.875508 0.654036 0.556406
Si Si5 0.862350 0.957948 0.113452
Si Si6 0.968155 0.552583 0.167494
O O1 0.310717 0.195098 0.177664
O O2 0.221740 0.408152 0.269300
O O3 0.187645 0.273066 0.970629
O O4 0.336939 0.410596 0.988822
O O5 0.951162 0.382446 0.664197
O O6 0.829426 0.545263 0.687398
O O7 0.910988 0.472937 0.010267
O O8 0.042572 0.200173 0.813750
O O9 0.108793 0.351098 0.541376
O O10 0.998224 0.176449 0.450505
O O11 0.908512 0.600686 0.348329
O O12 0.947638 0.977651 0.251278
#
# Coordination Sequence:
#
# PCOD9315821 Si02
#       6
#     4   4   4   4   4   4
#     4  12  28  44  70 109 150 180 239 308 372 416
#     4  11  27  43  76 103 142 188 246 296 359 430
#     4  11  24  46  74 102 138 189 247 290 352 444
#     4  11  24  47  71 104 144 186 240 298 360 427
#     4  12  26  46  72 105 146 192 235 301 371 429
#     4  11  25  48  75 103 138 195 243 289 362 448
#
# _framework density 21.940421000000001
#
# number of rings (size 3 to 8) (size 9 to 14) (size 15 to 20)
#    0.000    0.667    3.333    3.000    9.333    0.000 
#    0.000    0.000    0.000    0.000    0.000    0.000 
#    0.000    0.000    0.000    0.000    0.000    0.000 
#
# Total GULP energy -134291.087462 kJ/mol
# GULP energy per Si atom -5595.461978 kJ/mol
# Density = 2.189048 g / cm^3
# Si number density = 21.940421 Si / 1000 Ang^3
#
#
#
# Elastic Constant Matrix: (Units=GPa)
#
#
# Indices 1 2 3 4 5 6 
#
# 1 33.9578 -3.9178 18.5098 0.0000 0.0000 0.0000
# 2 -3.9178 76.8052 23.3398 0.0000 0.0000 0.0000
# 3 18.5098 23.3398 95.8044 0.0000 0.0000 0.0000
# 4 0.0000 0.0000 0.0000 45.6185 0.0000 0.0000
# 5 0.0000 0.0000 0.0000 0.0000 17.5621 0.0000
# 6 0.0000 0.0000 0.0000 0.0000 0.0000 54.4643
#
#
#
# Elastic Compliance Matrix: (Units=1/GPa)
#
#
# Indices 1 2 3 4 5 6 
#
# 1 0.034033 0.004033 -0.007558 0.000000 0.000000 0.000000
# 2 0.004033 0.014539 -0.004321 0.000000 0.000000 0.000000
# 3 -0.007558 -0.004321 0.012951 0.000000 0.000000 0.000000
# 4 0.000000 0.000000 0.000000 0.021921 0.000000 0.000000
# 5 0.000000 0.000000 0.000000 0.000000 0.056941 0.000000
# 6 0.000000 0.000000 0.000000 0.000000 0.000000 0.018361
#
#
# Mechanical properties :
#
#
# Convention : Reuss Voigt Hill
#
# Bulk Modulus (GPa) = 21.81951 31.38120 26.60035
# Shear Modulus (GPa) = 26.35542 34.77135 30.56338
#
# Velocity S-wave (km/s) = 3.46963 3.98528 3.73636
# Velocity P-wave (km/s) = 5.10075 5.95908 5.54654
#
# Compressibility (1/GPa) = 0.04583055
#
# Stress axis : x y z
#
# Youngs Moduli (GPa) = 29.38302 68.78167 77.21513
#
# Poissons Ratio (x) = -0.27738 0.58358
# Poissons Ratio (y) = -0.11849 0.33365
# Poissons Ratio (z) = 0.22207 0.29721
#
# Static dielectric constant tensor:
#      x y z
#    x 1.816230 0.000000 0.000000 
#    y 0.000000 1.780760 0.000000 
#    z 0.000000 0.000000 1.802420 
# 
# From -- ./inp_files/1431.got.cif
#   From: 2010.05.17/outbox.cif.g08.bks.cpg/sg19_1_cif.got.tgz:1431.got - 2010.06.03 22:46:19.
