data_PCOD9315024
_publ_section_title
;
Structure prediction by ZEFSAII (Michael W. Deem and Ramdas Pophale) SiO2 
 PCOD9315024
Probable space group: P 21 21 21
;
_chemical_formula_sum "Si O2"
_cell_formula_units_Z 28
_cell_length_a 9.679210
_cell_length_b 16.827023
_cell_length_c 7.101544
_cell_angle_alpha 90.000000
_cell_angle_beta 90.000000
_cell_angle_gamma 90.000000
_cell_volume 1156.644729
_symmetry_space_group_name_H-M "P 21 21 21"
_symmetry_group_IT_number 19
_symmetry_cell_setting 'orthorhombic'
loop_
_space_group_symop_operation_xyz
x,y,z
1/2-x,-y,1/2+z
1/2+x,1/2-y,-z
-x,1/2+y,1/2-z
loop_
_atom_site_type_symbol
_atom_site_label
_atom_site_fract_x
_atom_site_fract_y
_atom_site_fract_z
Si Si1 0.743187 0.092136 0.746021
Si Si2 0.396263 0.434877 0.917053
Si Si3 0.340195 0.751343 0.956954
Si Si4 0.873946 0.235928 0.254635
Si Si5 0.348500 0.022613 0.735794
Si Si6 0.154594 0.892093 0.859070
Si Si7 0.505518 0.633061 0.487064
O O1 0.723102 0.167255 0.611900
O O2 0.641195 0.114453 0.920462
O O3 0.695055 0.011721 0.643601
O O4 0.884580 0.078128 0.858221
O O5 0.361516 0.354663 0.808284
O O6 0.546935 0.458076 0.845983
O O7 0.503354 0.755152 0.912574
O O8 0.266979 0.822146 0.838755
O O9 0.275764 0.761256 0.165023
O O10 0.930204 0.287527 0.078978
O O11 0.210866 0.976077 0.783316
O O12 0.359648 0.091446 0.579998
O O13 0.402663 0.062209 0.925638
O O14 0.021742 0.869013 0.736746
#
# Coordination Sequence:
#
# PCOD9315024 Si02
#       7
#     4   4   4   4   4   4   4
#     4  10  24  42  64  95 135 174 224 281 335 414
#     4  11  23  43  64  96 134 177 224 284 340 413
#     4  11  24  44  68 100 136 179 231 279 340 411
#     4  11  23  44  68  98 140 177 228 290 335 409
#     4  11  23  40  66  97 131 168 226 281 333 403
#     4  12  22  42  69  96 131 178 219 282 343 399
#     4  10  23  41  65  96 133 171 222 281 336 399
#
# _framework density 24.207954000000001
#
# number of rings (size 3 to 8) (size 9 to 14) (size 15 to 20)
#    0.000    1.143    4.286    1.714    2.000    1.143 
#    5.143    0.000    0.000    0.000    0.000    0.000 
#    0.000    0.000    0.000    0.000    0.000    0.000 
#
# Total GULP energy -156504.638873 kJ/mol
# GULP energy per Si atom -5589.451388 kJ/mol
# Density = 2.415286 g / cm^3
# Si number density = 24.207954 Si / 1000 Ang^3
#
#
#
# Elastic Constant Matrix: (Units=GPa)
#
#
# Indices 1 2 3 4 5 6 
#
# 1 29.4193 23.2001 13.7069 0.0000 0.0000 0.0000
# 2 23.2001 88.7084 -4.8058 0.0000 0.0000 0.0000
# 3 13.7069 -4.8058 39.0900 0.0000 0.0000 0.0000
# 4 0.0000 0.0000 0.0000 18.8761 0.0000 0.0000
# 5 0.0000 0.0000 0.0000 0.0000 33.9368 0.0000
# 6 0.0000 0.0000 0.0000 0.0000 0.0000 27.5753
#
#
#
# Elastic Compliance Matrix: (Units=1/GPa)
#
#
# Indices 1 2 3 4 5 6 
#
# 1 0.056866 -0.016060 -0.021914 0.000000 0.000000 0.000000
# 2 -0.016060 0.015884 0.007584 0.000000 0.000000 0.000000
# 3 -0.021914 0.007584 0.034199 0.000000 0.000000 0.000000
# 4 0.000000 0.000000 0.000000 0.052977 0.000000 0.000000
# 5 0.000000 0.000000 0.000000 0.000000 0.029467 0.000000
# 6 0.000000 0.000000 0.000000 0.000000 0.000000 0.036264
#
#
# Mechanical properties :
#
#
# Convention : Reuss Voigt Hill
#
# Bulk Modulus (GPa) = 21.65965 24.60221 23.13093
# Shear Modulus (GPa) = 16.56584 24.41876 20.49230
#
# Velocity S-wave (km/s) = 2.61878 3.17946 2.91264
# Velocity P-wave (km/s) = 4.25567 4.86452 4.57025
#
# Compressibility (1/GPa) = 0.04616880
#
# Stress axis : x y z
#
# Youngs Moduli (GPa) = 17.58515 62.95708 29.24091
#
# Poissons Ratio (x) = 1.01106 0.64080
# Poissons Ratio (y) = 0.28241 -0.22176
# Poissons Ratio (z) = 0.38537 -0.47747
#
# Static dielectric constant tensor:
#      x y z
#    x 1.951980 0.000000 0.000000 
#    y 0.000000 1.926630 0.000000 
#    z 0.000000 0.000000 1.946660 
# 
# From -- ./inp_files/1058.got.cif
#   From: 2010.05.17/outbox.cif.g08.bks.cpg/sg19_1_cif.got.tgz:1058.got - 2010.06.03 22:46:19.
