data_PCOD9315472
_publ_section_title
;
Structure prediction by ZEFSAII (Michael W. Deem and Ramdas Pophale) SiO2 
 PCOD9315472
Probable space group: P 21 21 21
;
_chemical_formula_sum "Si O2"
_cell_formula_units_Z 24
_cell_length_a 16.462150
_cell_length_b 5.021935
_cell_length_c 10.821235
_cell_angle_alpha 90.000000
_cell_angle_beta 90.000000
_cell_angle_gamma 90.000000
_cell_volume 894.611487
_symmetry_space_group_name_H-M "P 21 21 21"
_symmetry_group_IT_number 19
_symmetry_cell_setting 'orthorhombic'
loop_
_space_group_symop_operation_xyz
x,y,z
1/2-x,-y,1/2+z
1/2+x,1/2-y,-z
-x,1/2+y,1/2-z
loop_
_atom_site_type_symbol
_atom_site_label
_atom_site_fract_x
_atom_site_fract_y
_atom_site_fract_z
Si Si1 0.703277 0.199675 0.810200
Si Si2 0.597787 0.501439 0.122654
Si Si3 0.391018 0.442044 0.870437
Si Si4 0.188985 0.208432 0.679539
Si Si5 0.434407 0.161422 0.116024
Si Si6 0.575924 0.573902 0.862815
O O1 0.682033 0.138084 0.666329
O O2 0.759413 0.961054 0.853728
O O3 0.754351 0.457145 0.843796
O O4 0.613533 0.274483 0.859623
O O5 0.670774 0.319683 0.173449
O O6 0.522831 0.294853 0.107655
O O7 0.586074 0.705414 0.238297
O O8 0.604625 0.665654 0.997663
O O9 0.479000 0.582070 0.862376
O O10 0.392384 0.229924 0.756539
O O11 0.389667 0.290919 0.999493
O O12 0.100605 0.146384 0.616371
#
# Coordination Sequence:
#
# PCOD9315472 Si02
#       6
#     4   4   4   4   4   4
#     4  12  24  48  72 108 154 188 236 304 372 438
#     4   9  23  47  72 104 142 192 251 299 361 432
#     4  11  23  46  73 107 140 196 250 302 358 440
#     4  10  26  48  70 110 146 192 236 304 372 436
#     4   9  23  47  72 104 142 192 251 299 361 432
#     4  11  23  46  73 107 140 196 250 302 358 440
#
# _framework density 26.827290000000001
#
# number of rings (size 3 to 8) (size 9 to 14) (size 15 to 20)
#    1.000    0.667    3.333    0.000    2.333    2.667 
#   12.000    0.000    0.000    0.000    0.000    0.000 
#    0.000    0.000    0.000    0.000    0.000    0.000 
#
# Total GULP energy -133844.536652 kJ/mol
# GULP energy per Si atom -5576.855694 kJ/mol
# Density = 2.676623 g / cm^3
# Si number density = 26.827290 Si / 1000 Ang^3
#
#
#
# Elastic Constant Matrix: (Units=GPa)
#
#
# Indices 1 2 3 4 5 6 
#
# 1 92.0936 28.7495 28.2083 0.0000 0.0000 0.0000
# 2 28.7495 111.9109 35.2209 0.0000 0.0000 0.0000
# 3 28.2083 35.2209 170.6620 0.0000 0.0000 0.0000
# 4 0.0000 0.0000 0.0000 27.3480 0.0000 0.0000
# 5 0.0000 0.0000 0.0000 0.0000 42.6108 0.0000
# 6 0.0000 0.0000 0.0000 0.0000 0.0000 41.4668
#
#
#
# Elastic Compliance Matrix: (Units=1/GPa)
#
#
# Indices 1 2 3 4 5 6 
#
# 1 0.012135 -0.002659 -0.001457 0.000000 0.000000 0.000000
# 2 -0.002659 0.010139 -0.001653 0.000000 0.000000 0.000000
# 3 -0.001457 -0.001653 0.006442 0.000000 0.000000 0.000000
# 4 0.000000 0.000000 0.000000 0.036566 0.000000 0.000000
# 5 0.000000 0.000000 0.000000 0.000000 0.023468 0.000000
# 6 0.000000 0.000000 0.000000 0.000000 0.000000 0.024116
#
#
# Mechanical properties :
#
#
# Convention : Reuss Voigt Hill
#
# Bulk Modulus (GPa) = 58.21529 62.11378 60.16454
# Shear Modulus (GPa) = 38.42358 41.11765 39.77061
#
# Velocity S-wave (km/s) = 3.78862 3.91919 3.85446
# Velocity P-wave (km/s) = 6.39417 6.60935 6.50265
#
# Compressibility (1/GPa) = 0.01717762
#
# Stress axis : x y z
#
# Youngs Moduli (GPa) = 82.40747 98.62949 155.24329
#
# Poissons Ratio (x) = 0.26224 0.22619
# Poissons Ratio (y) = 0.21911 0.25662
# Poissons Ratio (z) = 0.12007 0.16303
#
# Static dielectric constant tensor:
#      x y z
#    x 2.225880 0.000000 0.000000 
#    y 0.000000 2.221300 0.000000 
#    z 0.000000 0.000000 2.162870 
# 
# From -- ./inp_files/5440.got.cif
#   From: 2010.05.17/outbox.cif.g08.bks.cpg/sg19_3_cif.got.tgz:5440.got - 2010.06.03 22:46:19.
