data_PCOD9315583
_publ_section_title
;
Structure prediction by ZEFSAII (Michael W. Deem and Ramdas Pophale) SiO2 
 PCOD9315583
Probable space group: P 21 21 21
;
_chemical_formula_sum "Si O2"
_cell_formula_units_Z 24
_cell_length_a 4.911907
_cell_length_b 19.259727
_cell_length_c 11.007110
_cell_angle_alpha 90.000000
_cell_angle_beta 90.000000
_cell_angle_gamma 90.000000
_cell_volume 1041.294487
_symmetry_space_group_name_H-M "P 21 21 21"
_symmetry_group_IT_number 19
_symmetry_cell_setting 'orthorhombic'
loop_
_space_group_symop_operation_xyz
x,y,z
1/2-x,-y,1/2+z
1/2+x,1/2-y,-z
-x,1/2+y,1/2-z
loop_
_atom_site_type_symbol
_atom_site_label
_atom_site_fract_x
_atom_site_fract_y
_atom_site_fract_z
Si Si1 0.401340 0.102109 0.844635
Si Si2 0.927314 0.822770 0.680666
Si Si3 0.086572 0.598942 0.815679
Si Si4 0.670860 0.263179 0.421402
Si Si5 0.569471 0.336030 0.963974
Si Si6 0.786533 0.956866 0.573002
O O1 0.661222 0.125423 0.766205
O O2 0.166274 0.068192 0.762918
O O3 0.228128 0.163349 0.909673
O O4 0.539831 0.057349 0.951298
O O5 0.729389 0.807284 0.564434
O O6 0.901604 0.906920 0.681083
O O7 0.841314 0.784999 0.802043
O O8 0.232792 0.808113 0.639885
O O9 0.951199 0.661989 0.887614
O O10 0.208762 0.536426 0.893841
O O11 0.970934 0.267817 0.476189
O O12 0.503329 0.419113 0.947968
#
# Coordination Sequence:
#
# PCOD9315583 Si02
#       6
#     4   4   4   4   4   4
#     4  11  22  42  64 100 134 166 227 287 326 394
#     4   9  20  40  70  87 132 169 224 268 329 394
#     4  12  26  40  70  98 140 176 222 282 335 400
#     4  12  27  48  64  97 140 181 226 268 345 419
#     4   9  18  41  66  92 129 160 229 270 332 385
#     4   9  23  41  68 100 133 172 232 271 343 384
#
# _framework density 23.048234000000001
#
# number of rings (size 3 to 8) (size 9 to 14) (size 15 to 20)
#    1.000    0.667    1.667    2.000    4.667    2.667 
#    0.000   10.000    0.000    0.000    0.000    0.000 
#    0.000    0.000    0.000    0.000    0.000    0.000 
#
# Total GULP energy -133845.514337 kJ/mol
# GULP energy per Si atom -5576.896431 kJ/mol
# Density = 2.299577 g / cm^3
# Si number density = 23.048234 Si / 1000 Ang^3
#
#
#
# Elastic Constant Matrix: (Units=GPa)
#
#
# Indices 1 2 3 4 5 6 
#
# 1 122.0032 -12.0951 16.3619 0.0000 0.0000 0.0000
# 2 -12.0951 92.9006 24.5560 0.0000 0.0000 0.0000
# 3 16.3619 24.5560 75.3627 0.0000 0.0000 0.0000
# 4 0.0000 0.0000 0.0000 18.8581 0.0000 0.0000
# 5 0.0000 0.0000 0.0000 0.0000 52.2288 0.0000
# 6 0.0000 0.0000 0.0000 0.0000 0.0000 5.9221
#
#
#
# Elastic Compliance Matrix: (Units=1/GPa)
#
#
# Indices 1 2 3 4 5 6 
#
# 1 0.008705 0.001787 -0.002472 0.000000 0.000000 0.000000
# 2 0.001787 0.012145 -0.004345 0.000000 0.000000 0.000000
# 3 -0.002472 -0.004345 0.015222 0.000000 0.000000 0.000000
# 4 0.000000 0.000000 0.000000 0.053028 0.000000 0.000000
# 5 0.000000 0.000000 0.000000 0.000000 0.019147 0.000000
# 6 0.000000 0.000000 0.000000 0.000000 0.000000 0.168859
#
#
# Mechanical properties :
#
#
# Convention : Reuss Voigt Hill
#
# Bulk Modulus (GPa) = 38.44537 38.65690 38.55114
# Shear Modulus (GPa) = 16.90116 32.83137 24.86626
#
# Velocity S-wave (km/s) = 2.71088 3.77830 3.28819
# Velocity P-wave (km/s) = 5.14928 5.98687 5.58381
#
# Compressibility (1/GPa) = 0.02601093
#
# Stress axis : x y z
#
# Youngs Moduli (GPa) = 114.87393 82.33554 65.69528
#
# Poissons Ratio (x) = -0.14712 0.16241
# Poissons Ratio (y) = -0.20526 0.28547
# Poissons Ratio (z) = 0.28399 0.35778
#
# Static dielectric constant tensor:
#      x y z
#    x 1.854170 0.000000 0.000000 
#    y 0.000000 1.916890 0.000000 
#    z 0.000000 0.000000 1.908740 
# 
# From -- ./inp_files/2413.got.cif
#   From: 2010.05.17/outbox.cif.g08.bks.cpg/sg19_2_cif.got.tgz:2413.got - 2010.06.03 22:46:19.
