data_PCOD9315164
_publ_section_title
;
Structure prediction by ZEFSAII (Michael W. Deem and Ramdas Pophale) SiO2 
 PCOD9315164
Probable space group: P 21 21 21
;
_chemical_formula_sum "Si O2"
_cell_formula_units_Z 24
_cell_length_a 8.291975
_cell_length_b 7.545994
_cell_length_c 13.484689
_cell_angle_alpha 90.000000
_cell_angle_beta 90.000000
_cell_angle_gamma 90.000000
_cell_volume 843.753086
_symmetry_space_group_name_H-M "P 21 21 21"
_symmetry_group_IT_number 19
_symmetry_cell_setting 'orthorhombic'
loop_
_space_group_symop_operation_xyz
x,y,z
1/2-x,-y,1/2+z
1/2+x,1/2-y,-z
-x,1/2+y,1/2-z
loop_
_atom_site_type_symbol
_atom_site_label
_atom_site_fract_x
_atom_site_fract_y
_atom_site_fract_z
Si Si1 0.515510 0.286208 0.449848
Si Si2 0.836912 0.535270 0.213658
Si Si3 0.170185 0.432890 0.262485
Si Si4 0.705524 0.974357 0.529979
Si Si5 0.512826 0.333593 0.212280
Si Si6 0.806179 0.391463 0.920868
O O1 0.554037 0.090323 0.489316
O O2 0.352530 0.386608 0.481608
O O3 0.525257 0.285155 0.329067
O O4 0.648450 0.434814 0.481558
O O5 0.839652 0.740635 0.186115
O O6 0.675187 0.434144 0.182960
O O7 0.815837 0.552051 0.334280
O O8 0.012586 0.455906 0.196497
O O9 0.175788 0.565012 0.353966
O O10 0.340805 0.437579 0.207790
O O11 0.737315 0.784857 0.479849
O O12 0.467172 0.169173 0.141670
#
# Coordination Sequence:
#
# PCOD9315164 Si02
#       6
#     4   4   4   4   4   4
#     4  10  25  43  66 103 131 180 229 279 350 405
#     4  10  23  44  71 102 134 183 232 280 348 411
#     4  10  24  44  68 106 135 179 233 284 346 411
#     4  11  26  41  68  99 141 176 223 294 345 404
#     4   9  22  46  71  97 135 184 233 275 340 415
#     4  10  24  44  72  95 136 186 228 280 347 410
#
# _framework density 28.444341999999999
#
# number of rings (size 3 to 8) (size 9 to 14) (size 15 to 20)
#    0.000    2.000    0.000    0.000   16.333    8.000 
#    0.000    0.000    0.000    0.000    0.000    0.000 
#    0.000    0.000    0.000    0.000    0.000    0.000 
#
# Total GULP energy -134508.448346 kJ/mol
# GULP energy per Si atom -5604.518681 kJ/mol
# Density = 2.837960 g / cm^3
# Si number density = 28.444342 Si / 1000 Ang^3
#
#
#
# Elastic Constant Matrix: (Units=GPa)
#
#
# Indices 1 2 3 4 5 6 
#
# 1 178.0020 58.7797 16.9742 0.0000 0.0000 0.0000
# 2 58.7797 145.1502 17.5015 0.0000 0.0000 0.0000
# 3 16.9742 17.5015 73.8584 0.0000 0.0000 0.0000
# 4 0.0000 0.0000 0.0000 49.1331 0.0000 0.0000
# 5 0.0000 0.0000 0.0000 0.0000 31.9368 0.0000
# 6 0.0000 0.0000 0.0000 0.0000 0.0000 54.6655
#
#
#
# Elastic Compliance Matrix: (Units=1/GPa)
#
#
# Indices 1 2 3 4 5 6 
#
# 1 0.006543 -0.002541 -0.000902 0.000000 0.000000 0.000000
# 2 -0.002541 0.008079 -0.001330 0.000000 0.000000 0.000000
# 3 -0.000902 -0.001330 0.014062 0.000000 0.000000 0.000000
# 4 0.000000 0.000000 0.000000 0.020353 0.000000 0.000000
# 5 0.000000 0.000000 0.000000 0.000000 0.031312 0.000000
# 6 0.000000 0.000000 0.000000 0.000000 0.000000 0.018293
#
#
# Mechanical properties :
#
#
# Convention : Reuss Voigt Hill
#
# Bulk Modulus (GPa) = 52.25262 64.83569 58.54415
# Shear Modulus (GPa) = 43.64278 47.39743 45.52010
#
# Velocity S-wave (km/s) = 3.92129 4.08649 4.00474
# Velocity P-wave (km/s) = 6.23795 6.71634 6.48156
#
# Compressibility (1/GPa) = 0.01913780
#
# Stress axis : x y z
#
# Youngs Moduli (GPa) = 152.83635 123.78092 71.11422
#
# Poissons Ratio (x) = 0.31452 0.06412
# Poissons Ratio (y) = 0.38834 0.09461
# Poissons Ratio (z) = 0.13780 0.16468
#
# Static dielectric constant tensor:
#      x y z
#    x 2.240570 0.000000 0.000000 
#    y 0.000000 2.229530 0.000000 
#    z 0.000000 0.000000 2.261150 
# 
# From -- ./inp_files/5825.got.cif
#   From: 2010.05.17/outbox.cif.g08.bks.cpg/sg19_3_cif.got.tgz:5825.got - 2010.06.03 22:46:19.
