data_PCOD9315846
_publ_section_title
;
Structure prediction by ZEFSAII (Michael W. Deem and Ramdas Pophale) SiO2 
 PCOD9315846
Probable space group: P 21 21 21
;
_chemical_formula_sum "Si O2"
_cell_formula_units_Z 28
_cell_length_a 11.402837
_cell_length_b 8.831602
_cell_length_c 11.209177
_cell_angle_alpha 90.000000
_cell_angle_beta 90.000000
_cell_angle_gamma 90.000000
_cell_volume 1128.823735
_symmetry_space_group_name_H-M "P 21 21 21"
_symmetry_group_IT_number 19
_symmetry_cell_setting 'orthorhombic'
loop_
_space_group_symop_operation_xyz
x,y,z
1/2-x,-y,1/2+z
1/2+x,1/2-y,-z
-x,1/2+y,1/2-z
loop_
_atom_site_type_symbol
_atom_site_label
_atom_site_fract_x
_atom_site_fract_y
_atom_site_fract_z
Si Si1 0.953333 0.681085 0.159692
Si Si2 0.697450 0.954264 0.919076
Si Si3 0.100301 0.930624 0.689405
Si Si4 0.640984 0.226296 0.239230
Si Si5 0.715121 0.698087 0.067793
Si Si6 0.213994 0.207434 0.006407
Si Si7 0.068110 0.987134 0.111867
O O1 0.849578 0.653182 0.068948
O O2 0.908717 0.597896 0.278315
O O3 0.071889 0.595401 0.129619
O O4 0.972636 0.863741 0.155396
O O5 0.798734 0.881571 0.837124
O O6 0.705323 0.131722 0.930771
O O7 0.707486 0.877552 0.049764
O O8 0.152637 0.860631 0.813545
O O9 0.183574 0.876872 0.580345
O O10 0.969854 0.861872 0.683194
O O11 0.101435 0.112283 0.706153
O O12 0.734423 0.266227 0.134177
O O13 0.657717 0.630360 0.948780
O O14 0.088112 0.116780 0.010421
#
# Coordination Sequence:
#
# PCOD9315846 Si02
#       7
#     4   4   4   4   4   4   4
#     4  11  25  46  76 111 160 205 269 332 407 488
#     4  11  29  47  79 121 157 214 274 332 410 485
#     4  12  27  53  81 118 165 211 276 344 407 493
#     4  12  30  52  84 120 166 217 276 338 415 494
#     4  11  26  48  78 109 160 211 264 344 409 476
#     4  12  27  51  77 117 161 213 272 334 413 492
#     4  11  24  47  77 114 153 217 261 340 401 488
#
# _framework density 24.804580999999999
#
# number of rings (size 3 to 8) (size 9 to 14) (size 15 to 20)
#    0.000    0.571    2.857    3.429    8.000    3.429 
#    0.000    0.000    0.000    0.000    0.000    0.000 
#    0.000    0.000    0.000    0.000    0.000    0.000 
#
# Total GULP energy -156326.917778 kJ/mol
# GULP energy per Si atom -5583.104206 kJ/mol
# Density = 2.474812 g / cm^3
# Si number density = 24.804581 Si / 1000 Ang^3
#
#
#
# Elastic Constant Matrix: (Units=GPa)
#
#
# Indices 1 2 3 4 5 6 
#
# 1 84.9296 34.9856 19.4541 0.0000 0.0000 0.0000
# 2 34.9856 174.3771 34.9721 0.0000 0.0000 0.0000
# 3 19.4541 34.9721 66.8311 0.0000 0.0000 0.0000
# 4 0.0000 0.0000 0.0000 41.7101 0.0000 0.0000
# 5 0.0000 0.0000 0.0000 0.0000 16.3055 0.0000
# 6 0.0000 0.0000 0.0000 0.0000 0.0000 33.1976
#
#
#
# Elastic Compliance Matrix: (Units=1/GPa)
#
#
# Indices 1 2 3 4 5 6 
#
# 1 0.013276 -0.002110 -0.002760 0.000000 0.000000 0.000000
# 2 -0.002110 0.006742 -0.002914 0.000000 0.000000 0.000000
# 3 -0.002760 -0.002914 0.017292 0.000000 0.000000 0.000000
# 4 0.000000 0.000000 0.000000 0.023975 0.000000 0.000000
# 5 0.000000 0.000000 0.000000 0.000000 0.061329 0.000000
# 6 0.000000 0.000000 0.000000 0.000000 0.000000 0.030123
#
#
# Mechanical properties :
#
#
# Convention : Reuss Voigt Hill
#
# Bulk Modulus (GPa) = 45.99598 56.10684 51.05141
# Shear Modulus (GPa) = 28.48154 34.02439 31.25296
#
# Velocity S-wave (km/s) = 3.39224 3.70766 3.55345
# Velocity P-wave (km/s) = 5.82466 6.40294 6.12063
#
# Compressibility (1/GPa) = 0.02174103
#
# Stress axis : x y z
#
# Youngs Moduli (GPa) = 75.32431 148.31400 57.83178
#
# Poissons Ratio (x) = 0.31294 0.15964
# Poissons Ratio (y) = 0.15893 0.16853
# Poissons Ratio (z) = 0.20793 0.43220
#
# Static dielectric constant tensor:
#      x y z
#    x 2.006650 0.000000 0.000000 
#    y 0.000000 2.017040 0.000000 
#    z 0.000000 0.000000 2.035950 
# 
# From -- ./inp_files/4948.got.cif
#   From: 2010.05.17/outbox.cif.g08.bks.cpg/sg19_3_cif.got.tgz:4948.got - 2010.06.03 22:46:19.
