data_PCOD9315586
_publ_section_title
;
Structure prediction by ZEFSAII (Michael W. Deem and Ramdas Pophale) SiO2 
 PCOD9315586
Probable space group: P 21 21 21
;
_chemical_formula_sum "Si O2"
_cell_formula_units_Z 12
_cell_length_a 5.419601
_cell_length_b 16.147412
_cell_length_c 4.555737
_cell_angle_alpha 90.000000
_cell_angle_beta 90.000000
_cell_angle_gamma 90.000000
_cell_volume 398.684072
_symmetry_space_group_name_H-M "P 21 21 21"
_symmetry_group_IT_number 19
_symmetry_cell_setting 'orthorhombic'
loop_
_space_group_symop_operation_xyz
x,y,z
1/2-x,-y,1/2+z
1/2+x,1/2-y,-z
-x,1/2+y,1/2-z
loop_
_atom_site_type_symbol
_atom_site_label
_atom_site_fract_x
_atom_site_fract_y
_atom_site_fract_z
Si Si1 0.860197 0.884447 0.094032
Si Si2 0.029383 0.738956 0.679392
Si Si3 0.082077 0.973980 0.618267
O O1 0.006350 0.903120 0.389166
O O2 0.589950 0.852580 0.190952
O O3 0.979897 0.806317 0.929935
O O4 0.858987 0.960864 0.861561
O O5 0.285986 0.759789 0.517014
O O6 0.203179 0.033765 0.366994
#
# Coordination Sequence:
#
# PCOD9315586 Si02
#       3
#     4   4   4
#     4  11  22  42  70 114 148 189 250 304 372 447
#     4  12  26  46  74 122 150 192 236 312 386 438
#     4   9  20  40  70 104 146 203 248 300 358 439
#
# _framework density 30.099017
#
# number of rings (size 3 to 8) (size 9 to 14) (size 15 to 20)
#    0.000    1.333    3.333    2.000    0.000    0.000 
#    0.000    0.000    0.000   12.000    0.000    0.000 
#    0.000    0.000    0.000    0.000    0.000    0.000 
#
# Total GULP energy -67000.822922 kJ/mol
# GULP energy per Si atom -5583.401910 kJ/mol
# Density = 3.003051 g / cm^3
# Si number density = 30.099017 Si / 1000 Ang^3
#
#
#
# Elastic Constant Matrix: (Units=GPa)
#
#
# Indices 1 2 3 4 5 6 
#
# 1 192.2683 55.8597 93.6462 0.0000 0.0000 0.0000
# 2 55.8597 62.9512 61.4660 0.0000 0.0000 0.0000
# 3 93.6462 61.4660 293.9603 0.0000 0.0000 0.0000
# 4 0.0000 0.0000 0.0000 103.0454 0.0000 0.0000
# 5 0.0000 0.0000 0.0000 0.0000 54.4742 0.0000
# 6 0.0000 0.0000 0.0000 0.0000 0.0000 78.5970
#
#
#
# Elastic Compliance Matrix: (Units=1/GPa)
#
#
# Indices 1 2 3 4 5 6 
#
# 1 0.007344 -0.005318 -0.001228 0.000000 0.000000 0.000000
# 2 -0.005318 0.023812 -0.003285 0.000000 0.000000 0.000000
# 3 -0.001228 -0.003285 0.004480 0.000000 0.000000 0.000000
# 4 0.000000 0.000000 0.000000 0.009704 0.000000 0.000000
# 5 0.000000 0.000000 0.000000 0.000000 0.018357 0.000000
# 6 0.000000 0.000000 0.000000 0.000000 0.000000 0.012723
#
#
# Mechanical properties :
#
#
# Convention : Reuss Voigt Hill
#
# Bulk Modulus (GPa) = 62.59983 107.90264 85.25123
# Shear Modulus (GPa) = 49.30680 69.77052 59.53866
#
# Velocity S-wave (km/s) = 4.05180 4.81982 4.45240
# Velocity P-wave (km/s) = 6.53702 8.17932 7.40384
#
# Compressibility (1/GPa) = 0.01597448
#
# Stress axis : x y z
#
# Youngs Moduli (GPa) = 136.16491 41.99639 223.22862
#
# Poissons Ratio (x) = 0.22334 0.27403
# Poissons Ratio (y) = 0.72414 0.73325
# Poissons Ratio (z) = 0.16715 0.13795
#
# Static dielectric constant tensor:
#      x y z
#    x 2.421280 0.000000 0.000000 
#    y 0.000000 2.630530 0.000000 
#    z 0.000000 0.000000 2.223260 
# 
# From -- ./inp_files/99.got.cif
#   From: 2010.05.17/outbox.cif.g08.bks.cpg/sg19_1_cif.got.tgz:99.got - 2010.06.03 22:46:19.
