data_PCOD9315311
_publ_section_title
;
Structure prediction by ZEFSAII (Michael W. Deem and Ramdas Pophale) SiO2 
 PCOD9315311
Probable space group: P 21 21 21
;
_chemical_formula_sum "Si O2"
_cell_formula_units_Z 20
_cell_length_a 4.743304
_cell_length_b 26.176783
_cell_length_c 5.628213
_cell_angle_alpha 90.000000
_cell_angle_beta 90.000000
_cell_angle_gamma 90.000000
_cell_volume 698.823913
_symmetry_space_group_name_H-M "P 21 21 21"
_symmetry_group_IT_number 19
_symmetry_cell_setting 'orthorhombic'
loop_
_space_group_symop_operation_xyz
x,y,z
1/2-x,-y,1/2+z
1/2+x,1/2-y,-z
-x,1/2+y,1/2-z
loop_
_atom_site_type_symbol
_atom_site_label
_atom_site_fract_x
_atom_site_fract_y
_atom_site_fract_z
Si Si1 0.741473 0.333602 0.470479
Si Si2 0.041591 0.281077 0.106843
Si Si3 0.088594 0.040814 0.834278
Si Si4 0.913403 0.937067 0.040698
Si Si5 0.637403 0.357637 0.962579
O O1 0.567617 0.331307 0.713089
O O2 0.946974 0.382633 0.511712
O O3 0.550615 0.341800 0.233226
O O4 0.942661 0.287687 0.379854
O O5 0.965738 0.337813 0.000586
O O6 0.329816 0.255570 0.037992
O O7 0.053722 0.082940 0.041321
O O8 0.993349 0.983227 0.868707
O O9 0.911577 0.060912 0.608269
O O10 0.418011 0.045065 0.778016
#
# Coordination Sequence:
#
# PCOD9315311 Si02
#       5
#     4   4   4   4   4
#     4   9  22  43  69 100 137 180 227 288 336 413
#     4  10  24  44  70 102 136 182 230 288 348 404
#     4  11  23  41  66 100 141 186 233 282 344 412
#     4  11  23  41  66 100 141 186 233 282 344 412
#     4   9  22  43  69 100 137 180 227 288 336 413
#
# _framework density 28.619512
#
# number of rings (size 3 to 8) (size 9 to 14) (size 15 to 20)
#    1.200    0.800    0.000    2.400    2.800    4.800 
#    0.000    8.000    0.000    0.000    0.000    0.000 
#    0.000    0.000    0.000    0.000    0.000    0.000 
#
# Total GULP energy -111600.765953 kJ/mol
# GULP energy per Si atom -5580.038298 kJ/mol
# Density = 2.855437 g / cm^3
# Si number density = 28.619512 Si / 1000 Ang^3
#
#
#
# Elastic Constant Matrix: (Units=GPa)
#
#
# Indices 1 2 3 4 5 6 
#
# 1 69.1740 32.9142 13.1600 0.0000 0.0000 0.0000
# 2 32.9142 123.4158 23.6686 0.0000 0.0000 0.0000
# 3 13.1600 23.6686 180.3841 0.0000 0.0000 0.0000
# 4 0.0000 0.0000 0.0000 52.9809 0.0000 0.0000
# 5 0.0000 0.0000 0.0000 0.0000 31.0279 0.0000
# 6 0.0000 0.0000 0.0000 0.0000 0.0000 48.4267
#
#
#
# Elastic Compliance Matrix: (Units=1/GPa)
#
#
# Indices 1 2 3 4 5 6 
#
# 1 0.016631 -0.004311 -0.000648 0.000000 0.000000 0.000000
# 2 -0.004311 0.009429 -0.000923 0.000000 0.000000 0.000000
# 3 -0.000648 -0.000923 0.005712 0.000000 0.000000 0.000000
# 4 0.000000 0.000000 0.000000 0.018875 0.000000 0.000000
# 5 0.000000 0.000000 0.000000 0.000000 0.032229 0.000000
# 6 0.000000 0.000000 0.000000 0.000000 0.000000 0.020650
#
#
# Mechanical properties :
#
#
# Convention : Reuss Voigt Hill
#
# Bulk Modulus (GPa) = 49.97682 56.93994 53.45838
# Shear Modulus (GPa) = 40.99754 46.70252 43.85003
#
# Velocity S-wave (km/s) = 3.78895 4.04399 3.91854
# Velocity P-wave (km/s) = 6.05326 6.46095 6.26042
#
# Compressibility (1/GPa) = 0.02000928
#
# Stress axis : x y z
#
# Youngs Moduli (GPa) = 60.12933 106.05121 175.06852
#
# Poissons Ratio (x) = 0.45720 0.11338
# Poissons Ratio (y) = 0.25923 0.16154
# Poissons Ratio (z) = 0.03894 0.09786
#
# Static dielectric constant tensor:
#      x y z
#    x 2.195900 0.000000 0.000000 
#    y 0.000000 2.381630 0.000000 
#    z 0.000000 0.000000 2.293160 
# 
# From -- ./inp_files/210.got.cif
#   From: 2010.05.17/outbox.cif.g08.bks.cpg/sg19_1_cif.got.tgz:210.got - 2010.06.03 22:46:19.
