data_PCOD9315553
_publ_section_title
;
Structure prediction by ZEFSAII (Michael W. Deem and Ramdas Pophale) SiO2 
 PCOD9315553
Probable space group: P 21 21 21
;
_chemical_formula_sum "Si O2"
_cell_formula_units_Z 24
_cell_length_a 12.527948
_cell_length_b 14.809677
_cell_length_c 5.207196
_cell_angle_alpha 90.000000
_cell_angle_beta 90.000000
_cell_angle_gamma 90.000000
_cell_volume 966.116398
_symmetry_space_group_name_H-M "P 21 21 21"
_symmetry_group_IT_number 19
_symmetry_cell_setting 'orthorhombic'
loop_
_space_group_symop_operation_xyz
x,y,z
1/2-x,-y,1/2+z
1/2+x,1/2-y,-z
-x,1/2+y,1/2-z
loop_
_atom_site_type_symbol
_atom_site_label
_atom_site_fract_x
_atom_site_fract_y
_atom_site_fract_z
Si Si1 0.679684 0.507598 0.753756
Si Si2 0.910378 0.760073 0.683303
Si Si3 0.301053 0.354750 0.780136
Si Si4 0.632158 0.997696 0.392135
Si Si5 0.489890 0.634423 0.815241
Si Si6 0.004320 0.098953 0.529319
O O1 0.735819 0.486505 0.022482
O O2 0.609378 0.598740 0.779058
O O3 0.597564 0.429547 0.663606
O O4 0.782673 0.774229 0.705853
O O5 0.945272 0.659519 0.745996
O O6 0.949029 0.803864 0.417317
O O7 0.965106 0.815723 0.916789
O O8 0.229902 0.438279 0.674392
O O9 0.332638 0.394991 0.056369
O O10 0.408240 0.348797 0.615807
O O11 0.544825 0.988984 0.169988
O O12 0.578873 0.042598 0.640851
#
# Coordination Sequence:
#
# PCOD9315553 Si02
#       6
#     4   4   4   4   4   4
#     4  12  26  46  73 101 141 199 251 294 350 438
#     4  11  28  44  71 111 152 183 227 309 387 423
#     4  11  22  41  76 106 140 190 244 302 360 433
#     4  11  21  43  78 106 137 187 260 301 347 434
#     4  11  24  48  71 105 144 190 249 297 358 435
#     4  12  27  46  71 113 146 191 243 309 366 437
#
# _framework density 24.841728
#
# number of rings (size 3 to 8) (size 9 to 14) (size 15 to 20)
#    0.000    0.667    3.333    5.000    4.667    2.667 
#    0.000    0.000    0.000    0.000    0.000    0.000 
#    0.000    0.000    0.000    0.000    0.000    0.000 
#
# Total GULP energy -134430.066667 kJ/mol
# GULP energy per Si atom -5601.252778 kJ/mol
# Density = 2.478519 g / cm^3
# Si number density = 24.841728 Si / 1000 Ang^3
#
#
#
# Elastic Constant Matrix: (Units=GPa)
#
#
# Indices 1 2 3 4 5 6 
#
# 1 137.7588 43.8005 35.4321 0.0000 0.0000 0.0000
# 2 43.8005 43.7487 21.0929 0.0000 0.0000 0.0000
# 3 35.4321 21.0929 135.2187 0.0000 0.0000 0.0000
# 4 0.0000 0.0000 0.0000 36.7242 0.0000 0.0000
# 5 0.0000 0.0000 0.0000 0.0000 53.7983 0.0000
# 6 0.0000 0.0000 0.0000 0.0000 0.0000 46.9230
#
#
#
# Elastic Compliance Matrix: (Units=1/GPa)
#
#
# Indices 1 2 3 4 5 6 
#
# 1 0.010838 -0.010253 -0.001241 0.000000 0.000000 0.000000
# 2 -0.010253 0.034416 -0.002682 0.000000 0.000000 0.000000
# 3 -0.001241 -0.002682 0.008139 0.000000 0.000000 0.000000
# 4 0.000000 0.000000 0.000000 0.027230 0.000000 0.000000
# 5 0.000000 0.000000 0.000000 0.000000 0.018588 0.000000
# 6 0.000000 0.000000 0.000000 0.000000 0.000000 0.021312
#
#
# Mechanical properties :
#
#
# Convention : Reuss Voigt Hill
#
# Bulk Modulus (GPa) = 39.93282 57.48636 48.70959
# Shear Modulus (GPa) = 31.80258 41.91581 36.85920
#
# Velocity S-wave (km/s) = 3.58188 4.11215 3.85614
# Velocity P-wave (km/s) = 5.76336 6.76296 6.28307
#
# Compressibility (1/GPa) = 0.02504206
#
# Stress axis : x y z
#
# Youngs Moduli (GPa) = 92.26798 29.05648 122.86708
#
# Poissons Ratio (x) = 0.29791 0.15243
# Poissons Ratio (y) = 0.94599 0.32953
# Poissons Ratio (z) = 0.11447 0.07793
#
# Static dielectric constant tensor:
#      x y z
#    x 1.990500 0.000000 0.000000 
#    y 0.000000 2.060600 0.000000 
#    z 0.000000 0.000000 1.981610 
# 
# From -- ./inp_files/987.got.cif
#   From: 2010.05.17/outbox.cif.g08.bks.cpg/sg19_1_cif.got.tgz:987.got - 2010.06.03 22:46:19.
