data_PCOD9315129
_publ_section_title
;
Structure prediction by ZEFSAII (Michael W. Deem and Ramdas Pophale) SiO2 
 PCOD9315129
Probable space group: P 21 21 21
;
_chemical_formula_sum "Si O2"
_cell_formula_units_Z 32
_cell_length_a 7.607439
_cell_length_b 13.465167
_cell_length_c 13.587402
_cell_angle_alpha 90.000000
_cell_angle_beta 90.000000
_cell_angle_gamma 90.000000
_cell_volume 1391.831456
_symmetry_space_group_name_H-M "P 21 21 21"
_symmetry_group_IT_number 19
_symmetry_cell_setting 'orthorhombic'
loop_
_space_group_symop_operation_xyz
x,y,z
1/2-x,-y,1/2+z
1/2+x,1/2-y,-z
-x,1/2+y,1/2-z
loop_
_atom_site_type_symbol
_atom_site_label
_atom_site_fract_x
_atom_site_fract_y
_atom_site_fract_z
Si Si1 0.882476 0.405364 0.988168
Si Si2 0.842022 0.458961 0.611865
Si Si3 0.577708 0.269082 0.911865
Si Si4 0.894518 0.714243 0.872367
Si Si5 0.189562 0.643388 0.268255
Si Si6 0.545180 0.979711 0.198146
Si Si7 0.980712 0.348960 0.451168
Si Si8 0.659160 0.271636 0.696952
O O1 0.024920 0.327553 0.027894
O O2 0.952294 0.457188 0.889345
O O3 0.828350 0.485794 0.070112
O O4 0.701499 0.345632 0.968102
O O5 0.929382 0.512721 0.703123
O O6 0.975687 0.445480 0.519829
O O7 0.795104 0.347713 0.649346
O O8 0.394355 0.315907 0.870045
O O9 0.685111 0.246679 0.811155
O O10 0.837602 0.789096 0.784877
O O11 0.031085 0.633722 0.834234
O O12 0.713614 0.660721 0.906044
O O13 0.963597 0.763469 0.972166
O O14 0.271519 0.535202 0.280923
O O15 0.020356 0.660341 0.198625
O O16 0.109412 0.326855 0.362098
#
# Coordination Sequence:
#
# PCOD9315129 Si02
#       8
#     4   4   4   4   4   4   4   4
#     4  12  24  41  70  94 132 178 229 271 343 413
#     4  12  23  41  67  98 131 176 225 274 334 407
#     4  10  23  44  63  96 130 180 217 278 339 405
#     4  11  22  39  64  97 131 179 218 275 336 390
#     4   9  21  41  62  89 137 170 217 282 319 403
#     4  12  22  40  66  98 133 174 224 282 333 395
#     4  11  20  40  65  96 128 169 221 268 329 392
#     4   9  21  42  63  90 134 170 217 274 335 387
#
# _framework density 22.991291
#
# number of rings (size 3 to 8) (size 9 to 14) (size 15 to 20)
#    0.750    0.500    5.000    1.500    0.000    0.000 
#    2.250    5.000    0.000    0.000    0.000    0.000 
#    0.000    0.000    0.000    0.000    0.000    0.000 
#
# Total GULP energy -178657.967282 kJ/mol
# GULP energy per Si atom -5583.061478 kJ/mol
# Density = 2.293896 g / cm^3
# Si number density = 22.991291 Si / 1000 Ang^3
#
#
#
# Elastic Constant Matrix: (Units=GPa)
#
#
# Indices 1 2 3 4 5 6 
#
# 1 73.7501 -0.6795 18.9930 0.0000 0.0000 0.0000
# 2 -0.6795 49.3169 26.1753 0.0000 0.0000 0.0000
# 3 18.9930 26.1753 77.1243 0.0000 0.0000 0.0000
# 4 0.0000 0.0000 0.0000 28.9261 0.0000 0.0000
# 5 0.0000 0.0000 0.0000 0.0000 12.8985 0.0000
# 6 0.0000 0.0000 0.0000 0.0000 0.0000 29.3770
#
#
#
# Elastic Compliance Matrix: (Units=1/GPa)
#
#
# Indices 1 2 3 4 5 6 
#
# 1 0.014746 0.002599 -0.004513 0.000000 0.000000 0.000000
# 2 0.002599 0.025190 -0.009189 0.000000 0.000000 0.000000
# 3 -0.004513 -0.009189 0.017196 0.000000 0.000000 0.000000
# 4 0.000000 0.000000 0.000000 0.034571 0.000000 0.000000
# 5 0.000000 0.000000 0.000000 0.000000 0.077528 0.000000
# 6 0.000000 0.000000 0.000000 0.000000 0.000000 0.034040
#
#
# Mechanical properties :
#
#
# Convention : Reuss Voigt Hill
#
# Bulk Modulus (GPa) = 28.63345 32.12986 30.38165
# Shear Modulus (GPa) = 21.08634 24.62050 22.85342
#
# Velocity S-wave (km/s) = 3.03173 3.27595 3.15620
# Velocity P-wave (km/s) = 4.97355 5.32112 5.15027
#
# Compressibility (1/GPa) = 0.03492419
#
# Stress axis : x y z
#
# Youngs Moduli (GPa) = 67.81708 39.69815 58.15215
#
# Poissons Ratio (x) = -0.10316 0.26246
# Poissons Ratio (y) = -0.17623 0.53437
# Poissons Ratio (z) = 0.30608 0.36480
#
# Static dielectric constant tensor:
#      x y z
#    x 1.897030 0.000000 0.000000 
#    y 0.000000 1.864930 0.000000 
#    z 0.000000 0.000000 1.837950 
# 
# From -- ./inp_files/4706.got.cif
#   From: 2010.05.17/outbox.cif.g08.bks.cpg/sg19_3_cif.got.tgz:4706.got - 2010.06.03 22:46:19.
