data_PCOD9315260
_publ_section_title
;
Structure prediction by ZEFSAII (Michael W. Deem and Ramdas Pophale) SiO2 
 PCOD9315260
Probable space group: P 21 21 21
;
_chemical_formula_sum "Si O2"
_cell_formula_units_Z 24
_cell_length_a 5.017032
_cell_length_b 7.676856
_cell_length_c 23.474203
_cell_angle_alpha 90.000000
_cell_angle_beta 90.000000
_cell_angle_gamma 90.000000
_cell_volume 904.109685
_symmetry_space_group_name_H-M "P 21 21 21"
_symmetry_group_IT_number 19
_symmetry_cell_setting 'orthorhombic'
loop_
_space_group_symop_operation_xyz
x,y,z
1/2-x,-y,1/2+z
1/2+x,1/2-y,-z
-x,1/2+y,1/2-z
loop_
_atom_site_type_symbol
_atom_site_label
_atom_site_fract_x
_atom_site_fract_y
_atom_site_fract_z
Si Si1 0.723860 0.907393 0.142803
Si Si2 0.760612 0.482580 0.635125
Si Si3 0.929888 0.661760 0.740086
Si Si4 0.116032 0.046634 0.536066
Si Si5 0.382864 0.530708 0.029500
Si Si6 0.557504 0.284859 0.817415
O O1 0.824399 0.715803 0.123595
O O2 0.550939 0.878614 0.199476
O O3 0.531712 0.989065 0.095063
O O4 0.966278 0.033882 0.156785
O O5 0.976840 0.530115 0.587314
O O6 0.531963 0.627004 0.641332
O O7 0.887834 0.494405 0.698561
O O8 0.144791 0.766328 0.702692
O O9 0.641806 0.753951 0.737132
O O10 0.125074 0.257893 0.533125
O O11 0.913679 0.978272 0.487437
O O12 0.410766 0.984066 0.521252
#
# Coordination Sequence:
#
# PCOD9315260 Si02
#       6
#     4   4   4   4   4   4
#     4  11  22  44  66  95 131 174 216 264 334 387
#     4   9  23  42  68  92 126 178 205 269 328 378
#     4  10  24  42  63  95 134 164 214 266 323 383
#     4   9  20  34  60  92 118 164 209 270 307 381
#     4   9  18  37  58  89 124 154 219 258 316 379
#     4  10  25  41  59  99 127 164 215 269 306 396
#
# _framework density 26.545452000000001
#
# number of rings (size 3 to 8) (size 9 to 14) (size 15 to 20)
#    1.000    1.333    0.000    1.000    4.667    2.667 
#    6.000    1.667    0.000    0.000    0.000    0.000 
#    0.000    0.000    0.000    0.000    0.000    0.000 
#
# Total GULP energy -134402.789780 kJ/mol
# GULP energy per Si atom -5600.116241 kJ/mol
# Density = 2.648503 g / cm^3
# Si number density = 26.545452 Si / 1000 Ang^3
#
#
#
# Elastic Constant Matrix: (Units=GPa)
#
#
# Indices 1 2 3 4 5 6 
#
# 1 108.2235 27.1275 0.1336 0.0000 0.0000 0.0000
# 2 27.1275 102.4003 12.1965 0.0000 0.0000 0.0000
# 3 0.1336 12.1965 107.2408 0.0000 0.0000 0.0000
# 4 0.0000 0.0000 0.0000 17.0525 0.0000 0.0000
# 5 0.0000 0.0000 0.0000 0.0000 37.5843 0.0000
# 6 0.0000 0.0000 0.0000 0.0000 0.0000 25.0939
#
#
#
# Elastic Compliance Matrix: (Units=1/GPa)
#
#
# Indices 1 2 3 4 5 6 
#
# 1 0.009906 -0.002659 0.000290 0.000000 0.000000 0.000000
# 2 -0.002659 0.010613 -0.001204 0.000000 0.000000 0.000000
# 3 0.000290 -0.001204 0.009461 0.000000 0.000000 0.000000
# 4 0.000000 0.000000 0.000000 0.058642 0.000000 0.000000
# 5 0.000000 0.000000 0.000000 0.000000 0.026607 0.000000
# 6 0.000000 0.000000 0.000000 0.000000 0.000000 0.039850
#
#
# Mechanical properties :
#
#
# Convention : Reuss Voigt Hill
#
# Bulk Modulus (GPa) = 43.79086 44.08666 43.93876
# Shear Modulus (GPa) = 29.43991 34.50663 31.97327
#
# Velocity S-wave (km/s) = 3.33383 3.60933 3.47432
# Velocity P-wave (km/s) = 5.59925 5.83213 5.71688
#
# Compressibility (1/GPa) = 0.02283582
#
# Stress axis : x y z
#
# Youngs Moduli (GPa) = 100.94629 94.22100 105.69322
#
# Poissons Ratio (x) = 0.25052 -0.03066
# Poissons Ratio (y) = 0.26840 0.12723
# Poissons Ratio (z) = -0.02928 0.11342
#
# Static dielectric constant tensor:
#      x y z
#    x 2.008780 0.000000 0.000000 
#    y 0.000000 2.123030 0.000000 
#    z 0.000000 0.000000 2.097080 
# 
# From -- ./inp_files/7439.got.cif
#   From: 2010.05.17/outbox.cif.g08.bks.cpg/sg19_4_cif.got.tgz:7439.got - 2010.06.03 22:46:19.
