data_PCOD9315383
_publ_section_title
;
Structure prediction by ZEFSAII (Michael W. Deem and Ramdas Pophale) SiO2 
 PCOD9315383
Probable space group: P 21 21 21
;
_chemical_formula_sum "Si O2"
_cell_formula_units_Z 16
_cell_length_a 8.859831
_cell_length_b 7.947550
_cell_length_c 8.332156
_cell_angle_alpha 90.000000
_cell_angle_beta 90.000000
_cell_angle_gamma 90.000000
_cell_volume 586.700015
_symmetry_space_group_name_H-M "P 21 21 21"
_symmetry_group_IT_number 19
_symmetry_cell_setting 'orthorhombic'
loop_
_space_group_symop_operation_xyz
x,y,z
1/2-x,-y,1/2+z
1/2+x,1/2-y,-z
-x,1/2+y,1/2-z
loop_
_atom_site_type_symbol
_atom_site_label
_atom_site_fract_x
_atom_site_fract_y
_atom_site_fract_z
Si Si1 0.077086 0.917791 0.533620
Si Si2 0.919426 0.604272 0.535044
Si Si3 0.127046 0.493821 0.266858
Si Si4 0.113861 0.306106 0.589187
O O1 0.242922 0.870150 0.471744
O O2 0.013783 0.751249 0.621138
O O3 0.099712 0.105845 0.601718
O O4 0.951406 0.935389 0.395619
O O5 0.995598 0.596084 0.358331
O O6 0.962380 0.419002 0.596683
O O7 0.167840 0.356432 0.404152
O O8 0.265323 0.607463 0.207573
#
# Coordination Sequence:
#
# PCOD9315383 Si02
#       4
#     4   4   4   4
#     4  12  22  46  74 111 153 202 240 321 375 443
#     4  10  26  42  74 110 151 192 255 305 369 466
#     4  10  24  50  74 112 150 192 258 304 378 454
#     4  10  24  48  78 109 154 196 251 318 378 445
#
# _framework density 27.271177000000002
#
# number of rings (size 3 to 8) (size 9 to 14) (size 15 to 20)
#    1.500    0.000    0.000    4.500    3.500    0.000 
#    4.500    2.500    0.000    0.000    0.000    0.000 
#    0.000    0.000    0.000    0.000    0.000    0.000 
#
# Total GULP energy -89527.492523 kJ/mol
# GULP energy per Si atom -5595.468283 kJ/mol
# Density = 2.720911 g / cm^3
# Si number density = 27.271177 Si / 1000 Ang^3
#
#
#
# Elastic Constant Matrix: (Units=GPa)
#
#
# Indices 1 2 3 4 5 6 
#
# 1 144.2299 63.5413 3.2809 0.0000 0.0000 0.0000
# 2 63.5413 208.7013 34.3782 0.0000 0.0000 0.0000
# 3 3.2809 34.3782 80.0979 0.0000 0.0000 0.0000
# 4 0.0000 0.0000 0.0000 55.8598 0.0000 0.0000
# 5 0.0000 0.0000 0.0000 0.0000 37.1247 0.0000
# 6 0.0000 0.0000 0.0000 0.0000 0.0000 55.0977
#
#
#
# Elastic Compliance Matrix: (Units=1/GPa)
#
#
# Indices 1 2 3 4 5 6 
#
# 1 0.008052 -0.002580 0.000777 0.000000 0.000000 0.000000
# 2 -0.002580 0.005982 -0.002462 0.000000 0.000000 0.000000
# 3 0.000777 -0.002462 0.013510 0.000000 0.000000 0.000000
# 4 0.000000 0.000000 0.000000 0.017902 0.000000 0.000000
# 5 0.000000 0.000000 0.000000 0.000000 0.026936 0.000000
# 6 0.000000 0.000000 0.000000 0.000000 0.000000 0.018150
#
#
# Mechanical properties :
#
#
# Convention : Reuss Voigt Hill
#
# Bulk Modulus (GPa) = 52.58828 70.60332 61.59580
# Shear Modulus (GPa) = 47.43871 51.73835 49.58853
#
# Velocity S-wave (km/s) = 4.17528 4.36039 4.26884
# Velocity P-wave (km/s) = 6.52451 7.16214 6.85075
#
# Compressibility (1/GPa) = 0.01901564
#
# Stress axis : x y z
#
# Youngs Moduli (GPa) = 124.19032 167.15465 74.02151
#
# Poissons Ratio (x) = 0.43119 -0.05754
# Poissons Ratio (y) = 0.32036 0.18224
# Poissons Ratio (z) = -0.09654 0.41154
#
# Static dielectric constant tensor:
#      x y z
#    x 1.992010 0.000000 0.000000 
#    y 0.000000 2.219440 0.000000 
#    z 0.000000 0.000000 2.484460 
# 
# From -- ./inp_files/2556.got.cif
#   From: 2010.05.17/outbox.cif.g08.bks.cpg/sg19_2_cif.got.tgz:2556.got - 2010.06.03 22:46:19.
