data_PCOD9315774
_publ_section_title
;
Structure prediction by ZEFSAII (Michael W. Deem and Ramdas Pophale) SiO2 
 PCOD9315774
Probable space group: P 21 21 21
;
_chemical_formula_sum "Si O2"
_cell_formula_units_Z 28
_cell_length_a 17.972404
_cell_length_b 5.199154
_cell_length_c 11.182153
_cell_angle_alpha 90.000000
_cell_angle_beta 90.000000
_cell_angle_gamma 90.000000
_cell_volume 1044.874870
_symmetry_space_group_name_H-M "P 21 21 21"
_symmetry_group_IT_number 19
_symmetry_cell_setting 'orthorhombic'
loop_
_space_group_symop_operation_xyz
x,y,z
1/2-x,-y,1/2+z
1/2+x,1/2-y,-z
-x,1/2+y,1/2-z
loop_
_atom_site_type_symbol
_atom_site_label
_atom_site_fract_x
_atom_site_fract_y
_atom_site_fract_z
Si Si1 0.758658 0.148015 0.447841
Si Si2 0.842564 0.495498 0.093449
Si Si3 0.277647 0.661270 0.306397
Si Si4 0.466842 0.218730 0.052055
Si Si5 0.973012 0.847931 0.182772
Si Si6 0.924675 0.519089 0.715742
Si Si7 0.078467 0.693815 0.998954
O O1 0.707094 0.386022 0.486607
O O2 0.730609 0.027416 0.323181
O O3 0.845106 0.216833 0.431366
O O4 0.760813 0.980929 0.569251
O O5 0.784811 0.385215 0.189111
O O6 0.894167 0.718150 0.152008
O O7 0.899156 0.276138 0.041950
O O8 0.358786 0.784710 0.311734
O O9 0.496828 0.405342 0.155578
O O10 0.434083 0.001921 0.144059
O O11 0.538873 0.081017 0.994765
O O12 0.018189 0.613630 0.247004
O O13 0.017231 0.884397 0.057719
O O14 0.903615 0.270621 0.636958
#
# Coordination Sequence:
#
# PCOD9315774 Si02
#       7
#     4   4   4   4   4   4   4
#     4  12  27  48  75 112 151 206 263 330 414 477
#     4  11  27  47  75 110 154 201 265 330 402 480
#     4  12  28  48  78 114 158 204 267 336 407 488
#     4  11  24  43  72 108 143 199 255 321 392 475
#     4  11  28  50  76 111 158 209 266 329 405 487
#     4  12  23  44  75 107 149 199 261 328 394 483
#     4  11  25  44  71 106 145 200 259 318 398 474
#
# _framework density 26.797467000000001
#
# number of rings (size 3 to 8) (size 9 to 14) (size 15 to 20)
#    0.000    0.571    5.714    0.857    8.000    4.571 
#    0.000    0.000    0.000    0.000    0.000    0.000 
#    0.000    0.000    0.000    0.000    0.000    0.000 
#
# Total GULP energy -156662.293829 kJ/mol
# GULP energy per Si atom -5595.081922 kJ/mol
# Density = 2.673647 g / cm^3
# Si number density = 26.797467 Si / 1000 Ang^3
#
#
#
# Elastic Constant Matrix: (Units=GPa)
#
#
# Indices 1 2 3 4 5 6 
#
# 1 124.9356 8.4234 10.2723 0.0000 0.0000 0.0000
# 2 8.4234 22.1089 -12.0960 0.0000 0.0000 0.0000
# 3 10.2723 -12.0960 134.2303 0.0000 0.0000 0.0000
# 4 0.0000 0.0000 0.0000 43.5577 0.0000 0.0000
# 5 0.0000 0.0000 0.0000 0.0000 48.9673 0.0000
# 6 0.0000 0.0000 0.0000 0.0000 0.0000 33.6418
#
#
#
# Elastic Compliance Matrix: (Units=1/GPa)
#
#
# Indices 1 2 3 4 5 6 
#
# 1 0.008334 -0.003707 -0.000972 0.000000 0.000000 0.000000
# 2 -0.003707 0.049225 0.004720 0.000000 0.000000 0.000000
# 3 -0.000972 0.004720 0.007950 0.000000 0.000000 0.000000
# 4 0.000000 0.000000 0.000000 0.022958 0.000000 0.000000
# 5 0.000000 0.000000 0.000000 0.000000 0.020422 0.000000
# 6 0.000000 0.000000 0.000000 0.000000 0.000000 0.029725
#
#
# Mechanical properties :
#
#
# Convention : Reuss Voigt Hill
#
# Bulk Modulus (GPa) = 15.24621 32.71937 23.98279
# Shear Modulus (GPa) = 31.17306 43.54505 37.35905
#
# Velocity S-wave (km/s) = 3.41439 4.03546 3.73785
# Velocity P-wave (km/s) = 4.60933 5.82663 5.25336
#
# Compressibility (1/GPa) = 0.06559007
#
# Stress axis : x y z
#
# Youngs Moduli (GPa) = 119.99113 20.31490 125.79335
#
# Poissons Ratio (x) = 0.07530 0.12225
# Poissons Ratio (y) = 0.44479 -0.59368
# Poissons Ratio (z) = 0.11661 -0.09588
#
# Static dielectric constant tensor:
#      x y z
#    x 2.055430 0.000000 0.000000 
#    y 0.000000 2.305350 0.000000 
#    z 0.000000 0.000000 2.170250 
# 
# From -- ./inp_files/1061.got.cif
#   From: 2010.05.17/outbox.cif.g08.bks.cpg/sg19_1_cif.got.tgz:1061.got - 2010.06.03 22:46:19.
