data_PCOD9315349
_publ_section_title
;
Structure prediction by ZEFSAII (Michael W. Deem and Ramdas Pophale) SiO2 
 PCOD9315349
Probable space group: P 21 21 21
;
_chemical_formula_sum "Si O2"
_cell_formula_units_Z 32
_cell_length_a 8.706349
_cell_length_b 8.307275
_cell_length_c 16.368283
_cell_angle_alpha 90.000000
_cell_angle_beta 90.000000
_cell_angle_gamma 90.000000
_cell_volume 1183.853016
_symmetry_space_group_name_H-M "P 21 21 21"
_symmetry_group_IT_number 19
_symmetry_cell_setting 'orthorhombic'
loop_
_space_group_symop_operation_xyz
x,y,z
1/2-x,-y,1/2+z
1/2+x,1/2-y,-z
-x,1/2+y,1/2-z
loop_
_atom_site_type_symbol
_atom_site_label
_atom_site_fract_x
_atom_site_fract_y
_atom_site_fract_z
Si Si1 0.208065 0.133346 0.319567
Si Si2 0.703566 0.860868 0.684872
Si Si3 0.653945 0.046270 0.399267
Si Si4 0.361289 0.966771 0.477529
Si Si5 0.992824 0.169839 0.757834
Si Si6 0.004657 0.383869 0.250028
Si Si7 0.142491 0.080981 0.604866
Si Si8 0.635019 0.086694 0.025567
O O1 0.358677 0.227653 0.286692
O O2 0.067918 0.263638 0.320731
O O3 0.254975 0.042476 0.403734
O O4 0.141189 0.004636 0.253395
O O5 0.924686 0.065784 0.831349
O O6 0.646837 0.991556 0.751419
O O7 0.559044 0.738404 0.680995
O O8 0.742320 0.939534 0.598577
O O9 0.640842 0.229785 0.211464
O O10 0.686919 0.232545 0.383949
O O11 0.519947 0.058051 0.467397
O O12 0.795251 0.955903 0.438929
O O13 0.394841 0.777191 0.468823
O O14 0.285795 0.992769 0.565375
O O15 0.058526 0.047936 0.689923
O O16 0.008318 0.027295 0.542656
#
# Coordination Sequence:
#
# PCOD9315349 Si02
#       8
#     4   4   4   4   4   4   4   4
#     4  11  24  49  81 118 170 214 279 340 415 498
#     4  11  25  49  79 120 165 213 276 338 421 495
#     4  12  28  52  82 119 165 213 281 343 419 495
#     4  12  26  54  76 118 165 214 272 341 414 501
#     4  12  28  53  88 125 165 219 287 354 415 499
#     4  10  24  45  74 118 165 220 269 344 410 499
#     4  12  30  50  86 120 162 216 277 345 418 499
#     4  12  27  54  80 116 163 217 269 343 418 496
#
# _framework density 27.030380999999998
#
# number of rings (size 3 to 8) (size 9 to 14) (size 15 to 20)
#    0.000    0.500    3.750    2.250    5.250    2.000 
#    9.000    0.000    0.000    0.000    0.000    0.000 
#    0.000    0.000    0.000    0.000    0.000    0.000 
#
# Total GULP energy -178910.220334 kJ/mol
# GULP energy per Si atom -5590.944385 kJ/mol
# Density = 2.696886 g / cm^3
# Si number density = 27.030381 Si / 1000 Ang^3
#
#
#
# Elastic Constant Matrix: (Units=GPa)
#
#
# Indices 1 2 3 4 5 6 
#
# 1 81.3126 35.6586 26.9835 0.0000 0.0000 0.0000
# 2 35.6586 129.9163 30.3577 0.0000 0.0000 0.0000
# 3 26.9835 30.3577 105.5032 0.0000 0.0000 0.0000
# 4 0.0000 0.0000 0.0000 44.7557 0.0000 0.0000
# 5 0.0000 0.0000 0.0000 0.0000 52.3781 0.0000
# 6 0.0000 0.0000 0.0000 0.0000 0.0000 73.3076
#
#
#
# Elastic Compliance Matrix: (Units=1/GPa)
#
#
# Indices 1 2 3 4 5 6 
#
# 1 0.014708 -0.003386 -0.002788 0.000000 0.000000 0.000000
# 2 -0.003386 0.009031 -0.001733 0.000000 0.000000 0.000000
# 3 -0.002788 -0.001733 0.010690 0.000000 0.000000 0.000000
# 4 0.000000 0.000000 0.000000 0.022344 0.000000 0.000000
# 5 0.000000 0.000000 0.000000 0.000000 0.019092 0.000000
# 6 0.000000 0.000000 0.000000 0.000000 0.000000 0.013641
#
#
# Mechanical properties :
#
#
# Convention : Reuss Voigt Hill
#
# Bulk Modulus (GPa) = 53.71306 55.85906 54.78606
# Shear Modulus (GPa) = 44.83355 49.00376 46.91866
#
# Velocity S-wave (km/s) = 4.07705 4.26245 4.17078
# Velocity P-wave (km/s) = 6.48673 6.70334 6.59593
#
# Compressibility (1/GPa) = 0.01861745
#
# Stress axis : x y z
#
# Youngs Moduli (GPa) = 67.99040 110.72443 93.54598
#
# Poissons Ratio (x) = 0.37487 0.26076
# Poissons Ratio (y) = 0.23019 0.16210
# Poissons Ratio (z) = 0.18953 0.19187
#
# Static dielectric constant tensor:
#      x y z
#    x 2.107240 0.000000 0.000000 
#    y 0.000000 2.123560 0.000000 
#    z 0.000000 0.000000 2.209420 
# 
# From -- ./inp_files/7420.got.cif
#   From: 2010.05.17/outbox.cif.g08.bks.cpg/sg19_4_cif.got.tgz:7420.got - 2010.06.03 22:46:19.
