data_PCOD9315962
_publ_section_title
;
Structure prediction by ZEFSAII (Michael W. Deem and Ramdas Pophale) SiO2 
 PCOD9315962
Probable space group: P 21 21 21
;
_chemical_formula_sum "Si O2"
_cell_formula_units_Z 24
_cell_length_a 11.698871
_cell_length_b 14.850504
_cell_length_c 5.583434
_cell_angle_alpha 90.000000
_cell_angle_beta 90.000000
_cell_angle_gamma 90.000000
_cell_volume 970.033052
_symmetry_space_group_name_H-M "P 21 21 21"
_symmetry_group_IT_number 19
_symmetry_cell_setting 'orthorhombic'
loop_
_space_group_symop_operation_xyz
x,y,z
1/2-x,-y,1/2+z
1/2+x,1/2-y,-z
-x,1/2+y,1/2-z
loop_
_atom_site_type_symbol
_atom_site_label
_atom_site_fract_x
_atom_site_fract_y
_atom_site_fract_z
Si Si1 0.933539 0.602611 0.636383
Si Si2 0.995891 0.907645 0.686033
Si Si3 0.232402 0.806469 0.602674
Si Si4 0.604482 0.810698 0.723307
Si Si5 0.182241 0.510374 0.074310
Si Si6 0.396303 0.739197 0.989168
O O1 0.958806 0.500558 0.701508
O O2 0.824658 0.616852 0.461825
O O3 0.043692 0.641238 0.501046
O O4 0.906811 0.669092 0.855759
O O5 0.107870 0.847295 0.646795
O O6 0.921404 0.939332 0.458217
O O7 0.912164 0.849790 0.854197
O O8 0.213787 0.741017 0.376606
O O9 0.286412 0.750690 0.820562
O O10 0.510275 0.743300 0.825459
O O11 0.752779 0.995960 0.174097
O O12 0.367875 0.389493 0.593376
#
# Coordination Sequence:
#
# PCOD9315962 Si02
#       6
#     4   4   4   4   4   4
#     4  11  26  51  77 122 161 221 286 354 423 525
#     4  12  28  52  86 120 166 228 280 364 430 521
#     4  11  29  48  82 121 167 226 286 360 438 520
#     4  11  26  52  76 114 172 211 281 358 426 507
#     4  12  30  52  83 123 167 221 292 344 432 522
#     4  11  27  53  78 118 169 217 287 354 439 507
#
# _framework density 24.741426000000001
#
# number of rings (size 3 to 8) (size 9 to 14) (size 15 to 20)
#    0.000    0.667    3.333    1.000    7.000    6.667 
#    0.000    0.000    0.000    0.000    0.000    0.000 
#    0.000    0.000    0.000    0.000    0.000    0.000 
#
# Total GULP energy -134602.342846 kJ/mol
# GULP energy per Si atom -5608.430952 kJ/mol
# Density = 2.468511 g / cm^3
# Si number density = 24.741426 Si / 1000 Ang^3
#
#
#
# Elastic Constant Matrix: (Units=GPa)
#
#
# Indices 1 2 3 4 5 6 
#
# 1 148.1410 62.9124 51.1867 0.0000 0.0000 0.0000
# 2 62.9124 155.3169 55.1519 0.0000 0.0000 0.0000
# 3 51.1867 55.1519 87.4842 0.0000 0.0000 0.0000
# 4 0.0000 0.0000 0.0000 54.2208 0.0000 0.0000
# 5 0.0000 0.0000 0.0000 0.0000 43.0512 0.0000
# 6 0.0000 0.0000 0.0000 0.0000 0.0000 31.3344
#
#
#
# Elastic Compliance Matrix: (Units=1/GPa)
#
#
# Indices 1 2 3 4 5 6 
#
# 1 0.009058 -0.002302 -0.003848 0.000000 0.000000 0.000000
# 2 -0.002302 0.008881 -0.004251 0.000000 0.000000 0.000000
# 3 -0.003848 -0.004251 0.016362 0.000000 0.000000 0.000000
# 4 0.000000 0.000000 0.000000 0.018443 0.000000 0.000000
# 5 0.000000 0.000000 0.000000 0.000000 0.023228 0.000000
# 6 0.000000 0.000000 0.000000 0.000000 0.000000 0.031914
#
#
# Mechanical properties :
#
#
# Convention : Reuss Voigt Hill
#
# Bulk Modulus (GPa) = 74.09181 81.04934 77.57058
# Shear Modulus (GPa) = 37.54064 40.50068 39.02066
#
# Velocity S-wave (km/s) = 3.89950 4.05032 3.97563
# Velocity P-wave (km/s) = 7.09128 7.39616 7.24533
#
# Compressibility (1/GPa) = 0.01349677
#
# Stress axis : x y z
#
# Youngs Moduli (GPa) = 110.40237 112.60320 61.11589
#
# Poissons Ratio (x) = 0.25927 0.23518
# Poissons Ratio (y) = 0.25420 0.25983
# Poissons Ratio (z) = 0.42484 0.47873
#
# Static dielectric constant tensor:
#      x y z
#    x 1.977730 0.000000 0.000000 
#    y 0.000000 1.905070 0.000000 
#    z 0.000000 0.000000 2.006180 
# 
# From -- ./inp_files/929.got.cif
#   From: 2010.05.17/outbox.cif.g08.bks.cpg/sg19_1_cif.got.tgz:929.got - 2010.06.03 22:46:19.
