data_PCOD9315685
_publ_section_title
;
Structure prediction by ZEFSAII (Michael W. Deem and Ramdas Pophale) SiO2 
 PCOD9315685
Probable space group: P 21 21 21
;
_chemical_formula_sum "Si O2"
_cell_formula_units_Z 28
_cell_length_a 11.774893
_cell_length_b 9.293502
_cell_length_c 11.317540
_cell_angle_alpha 90.000000
_cell_angle_beta 90.000000
_cell_angle_gamma 90.000000
_cell_volume 1238.478308
_symmetry_space_group_name_H-M "P 21 21 21"
_symmetry_group_IT_number 19
_symmetry_cell_setting 'orthorhombic'
loop_
_space_group_symop_operation_xyz
x,y,z
1/2-x,-y,1/2+z
1/2+x,1/2-y,-z
-x,1/2+y,1/2-z
loop_
_atom_site_type_symbol
_atom_site_label
_atom_site_fract_x
_atom_site_fract_y
_atom_site_fract_z
Si Si1 0.996409 0.821783 0.679182
Si Si2 0.931135 0.620272 0.867679
Si Si3 0.254930 0.754792 0.746695
Si Si4 0.727449 0.593380 0.014682
Si Si5 0.433745 0.845320 0.544495
Si Si6 0.441668 0.289002 0.601013
Si Si7 0.420702 0.526292 0.792990
O O1 0.123489 0.766143 0.711760
O O2 0.913306 0.740792 0.769546
O O3 0.965783 0.776890 0.546953
O O4 0.995497 0.992828 0.688363
O O5 0.822605 0.541556 0.923873
O O6 0.986140 0.693920 0.981902
O O7 0.271155 0.864274 0.856551
O O8 0.343329 0.793346 0.642638
O O9 0.297325 0.599009 0.792465
O O10 0.628653 0.476228 0.023303
O O11 0.677949 0.733965 0.949058
O O12 0.544954 0.912538 0.606119
O O13 0.438392 0.436803 0.673041
O O14 0.493767 0.160711 0.681993
#
# Coordination Sequence:
#
# PCOD9315685 Si02
#       7
#     4   4   4   4   4   4   4
#     4  12  28  47  73 110 149 191 248 313 375 439
#     4  12  25  48  74 104 150 194 243 302 372 447
#     4  12  23  46  71 103 144 191 240 304 370 437
#     4  11  24  46  75 102 146 200 237 300 380 439
#     4  11  25  46  73 104 143 191 253 296 366 454
#     4  11  24  44  73 103 144 188 248 300 358 439
#     4  11  23  43  73 102 142 187 243 301 357 433
#
# _framework density 22.608391000000001
#
# number of rings (size 3 to 8) (size 9 to 14) (size 15 to 20)
#    0.000    0.571    5.714    1.714    2.000    2.286 
#    5.143    0.000    0.000    0.000    0.000    0.000 
#    0.000    0.000    0.000    0.000    0.000    0.000 
#
# Total GULP energy -156521.698021 kJ/mol
# GULP energy per Si atom -5590.060644 kJ/mol
# Density = 2.255693 g / cm^3
# Si number density = 22.608391 Si / 1000 Ang^3
#
#
#
# Elastic Constant Matrix: (Units=GPa)
#
#
# Indices 1 2 3 4 5 6 
#
# 1 35.4590 -5.7134 6.9301 0.0000 0.0000 0.0000
# 2 -5.7134 75.5509 27.2942 0.0000 0.0000 0.0000
# 3 6.9301 27.2942 92.1982 0.0000 0.0000 0.0000
# 4 0.0000 0.0000 0.0000 30.5071 0.0000 0.0000
# 5 0.0000 0.0000 0.0000 0.0000 36.4629 0.0000
# 6 0.0000 0.0000 0.0000 0.0000 0.0000 24.3372
#
#
#
# Elastic Compliance Matrix: (Units=1/GPa)
#
#
# Indices 1 2 3 4 5 6 
#
# 1 0.029373 0.003380 -0.003209 0.000000 0.000000 0.000000
# 2 0.003380 0.015210 -0.004757 0.000000 0.000000 0.000000
# 3 -0.003209 -0.004757 0.012496 0.000000 0.000000 0.000000
# 4 0.000000 0.000000 0.000000 0.032779 0.000000 0.000000
# 5 0.000000 0.000000 0.000000 0.000000 0.027425 0.000000
# 6 0.000000 0.000000 0.000000 0.000000 0.000000 0.041089
#
#
# Mechanical properties :
#
#
# Convention : Reuss Voigt Hill
#
# Bulk Modulus (GPa) = 20.87285 28.91444 24.89364
# Shear Modulus (GPa) = 27.24603 29.90789 28.57696
#
# Velocity S-wave (km/s) = 3.47526 3.64107 3.55913
# Velocity P-wave (km/s) = 5.03544 5.52210 5.28437
#
# Compressibility (1/GPa) = 0.04790914
#
# Stress axis : x y z
#
# Youngs Moduli (GPa) = 34.04442 65.74503 80.02812
#
# Poissons Ratio (x) = -0.22225 0.25678
# Poissons Ratio (y) = -0.11509 0.38069
# Poissons Ratio (z) = 0.10924 0.31274
#
# Static dielectric constant tensor:
#      x y z
#    x 1.918660 0.000000 0.000000 
#    y 0.000000 1.833390 0.000000 
#    z 0.000000 0.000000 1.821510 
# 
# From -- ./inp_files/4580.got.cif
#   From: 2010.05.17/outbox.cif.g08.bks.cpg/sg19_3_cif.got.tgz:4580.got - 2010.06.03 22:46:19.
