data_PCOD9315307
_publ_section_title
;
Structure prediction by ZEFSAII (Michael W. Deem and Ramdas Pophale) SiO2 
 PCOD9315307
Probable space group: P 21 21 21
;
_chemical_formula_sum "Si O2"
_cell_formula_units_Z 28
_cell_length_a 5.229013
_cell_length_b 21.654103
_cell_length_c 9.258051
_cell_angle_alpha 90.000000
_cell_angle_beta 90.000000
_cell_angle_gamma 90.000000
_cell_volume 1048.285283
_symmetry_space_group_name_H-M "P 21 21 21"
_symmetry_group_IT_number 19
_symmetry_cell_setting 'orthorhombic'
loop_
_space_group_symop_operation_xyz
x,y,z
1/2-x,-y,1/2+z
1/2+x,1/2-y,-z
-x,1/2+y,1/2-z
loop_
_atom_site_type_symbol
_atom_site_label
_atom_site_fract_x
_atom_site_fract_y
_atom_site_fract_z
Si Si1 0.745639 0.560772 0.253536
Si Si2 0.936597 0.019827 0.522941
Si Si3 0.919556 0.626562 0.805639
Si Si4 0.767866 0.766877 0.146988
Si Si5 0.908548 0.097698 0.003180
Si Si6 0.932536 0.784396 0.449049
Si Si7 0.542090 0.647932 0.048854
O O1 0.628340 0.511561 0.362324
O O2 0.515910 0.595839 0.169119
O O3 0.919610 0.603741 0.355270
O O4 0.923533 0.532901 0.128010
O O5 0.712515 0.970616 0.503193
O O6 0.875745 0.084388 0.603526
O O7 0.015901 0.696810 0.802422
O O8 0.920862 0.604952 0.641081
O O9 0.672710 0.620580 0.905503
O O10 0.960382 0.781850 0.276410
O O11 0.747422 0.695062 0.119822
O O12 0.836064 0.802289 0.999897
O O13 0.683519 0.149111 0.994673
O O14 0.700008 0.736721 0.483801
#
# Coordination Sequence:
#
# PCOD9315307 Si02
#       7
#     4   4   4   4   4   4   4
#     4  11  26  45  73 109 145 197 253 320 392 469
#     4  11  25  45  71 105 145 193 251 321 384 474
#     4  10  24  44  68 104 139 197 245 316 383 460
#     4  11  24  43  73 100 150 194 253 315 385 461
#     4  11  25  44  73 102 148 194 253 314 390 453
#     4  11  28  47  75 113 156 203 258 317 388 461
#     4  11  24  44  71 103 143 194 247 313 384 462
#
# _framework density 26.710283
#
# number of rings (size 3 to 8) (size 9 to 14) (size 15 to 20)
#    0.000    1.143    1.429    2.571    8.000   11.429 
#    0.000    0.000    0.000    0.000    0.000    0.000 
#    0.000    0.000    0.000    0.000    0.000    0.000 
#
# Total GULP energy -156925.537294 kJ/mol
# GULP energy per Si atom -5604.483475 kJ/mol
# Density = 2.664949 g / cm^3
# Si number density = 26.710283 Si / 1000 Ang^3
#
#
#
# Elastic Constant Matrix: (Units=GPa)
#
#
# Indices 1 2 3 4 5 6 
#
# 1 78.3580 15.0022 41.3336 0.0000 0.0000 0.0000
# 2 15.0022 110.9945 40.2484 0.0000 0.0000 0.0000
# 3 41.3336 40.2484 185.1810 0.0000 0.0000 0.0000
# 4 0.0000 0.0000 0.0000 52.0502 0.0000 0.0000
# 5 0.0000 0.0000 0.0000 0.0000 20.2342 0.0000
# 6 0.0000 0.0000 0.0000 0.0000 0.0000 39.1294
#
#
#
# Elastic Compliance Matrix: (Units=1/GPa)
#
#
# Indices 1 2 3 4 5 6 
#
# 1 0.014540 -0.000856 -0.003059 0.000000 0.000000 0.000000
# 2 -0.000856 0.009831 -0.001946 0.000000 0.000000 0.000000
# 3 -0.003059 -0.001946 0.006506 0.000000 0.000000 0.000000
# 4 0.000000 0.000000 0.000000 0.019212 0.000000 0.000000
# 5 0.000000 0.000000 0.000000 0.000000 0.049421 0.000000
# 6 0.000000 0.000000 0.000000 0.000000 0.000000 0.025556
#
#
# Mechanical properties :
#
#
# Convention : Reuss Voigt Hill
#
# Bulk Modulus (GPa) = 52.20696 63.07796 57.64246
# Shear Modulus (GPa) = 34.92300 40.81273 37.86787
#
# Velocity S-wave (km/s) = 3.61982 3.91318 3.76936
# Velocity P-wave (km/s) = 6.08760 6.63959 6.36958
#
# Compressibility (1/GPa) = 0.01915454
#
# Stress axis : x y z
#
# Youngs Moduli (GPa) = 68.77779 101.72269 153.70768
#
# Poissons Ratio (x) = 0.08706 0.47024
# Poissons Ratio (y) = 0.05886 0.29906
# Poissons Ratio (z) = 0.21041 0.19791
#
# Static dielectric constant tensor:
#      x y z
#    x 2.146110 0.000000 0.000000 
#    y 0.000000 2.119100 0.000000 
#    z 0.000000 0.000000 2.065460 
# 
# From -- ./inp_files/2414.got.cif
#   From: 2010.05.17/outbox.cif.g08.bks.cpg/sg19_2_cif.got.tgz:2414.got - 2010.06.03 22:46:19.
