data_PCOD9315197
_publ_section_title
;
Structure prediction by ZEFSAII (Michael W. Deem and Ramdas Pophale) SiO2 
 PCOD9315197
Probable space group: P 21 21 21
;
_chemical_formula_sum "Si O2"
_cell_formula_units_Z 28
_cell_length_a 19.642362
_cell_length_b 7.574534
_cell_length_c 7.989381
_cell_angle_alpha 90.000000
_cell_angle_beta 90.000000
_cell_angle_gamma 90.000000
_cell_volume 1188.673997
_symmetry_space_group_name_H-M "P 21 21 21"
_symmetry_group_IT_number 19
_symmetry_cell_setting 'orthorhombic'
loop_
_space_group_symop_operation_xyz
x,y,z
1/2-x,-y,1/2+z
1/2+x,1/2-y,-z
-x,1/2+y,1/2-z
loop_
_atom_site_type_symbol
_atom_site_label
_atom_site_fract_x
_atom_site_fract_y
_atom_site_fract_z
Si Si1 0.310020 0.713936 0.375657
Si Si2 0.611843 0.667754 0.840902
Si Si3 0.702794 0.809208 0.135783
Si Si4 0.935009 0.701902 0.416606
Si Si5 0.966019 0.909739 0.112106
Si Si6 0.662510 0.288866 0.491407
Si Si7 0.172055 0.812582 0.506085
O O1 0.296512 0.511733 0.420482
O O2 0.386429 0.762594 0.428306
O O3 0.300603 0.734768 0.179469
O O4 0.252457 0.828374 0.465445
O O5 0.603746 0.454841 0.813418
O O6 0.534435 0.711452 0.895330
O O7 0.638844 0.753482 0.668825
O O8 0.659715 0.704322 0.997591
O O9 0.669415 0.791448 0.319678
O O10 0.780607 0.741813 0.133739
O O11 0.944861 0.876129 0.305879
O O12 0.006070 0.599712 0.447413
O O13 0.903066 0.832934 0.012790
O O14 0.643458 0.492349 0.466270
#
# Coordination Sequence:
#
# PCOD9315197 Si02
#       7
#     4   4   4   4   4   4   4
#     4  12  27  45  71 111 148 193 248 316 364 448
#     4  10  24  48  71 108 144 194 246 304 372 440
#     4  12  27  45  76 110 151 190 252 310 370 444
#     4  10  23  46  69 103 141 199 241 298 369 442
#     4  10  24  44  70 104 146 197 240 300 369 443
#     4  12  23  48  72 108 147 194 250 310 374 438
#     4  12  24  46  79 106 145 193 245 310 380 431
#
# _framework density 23.555658999999999
#
# number of rings (size 3 to 8) (size 9 to 14) (size 15 to 20)
#    0.857    0.000    2.857    4.286    2.000    2.286 
#    5.143    0.000    0.000    0.000    0.000    0.000 
#    0.000    0.000    0.000    0.000    0.000    0.000 
#
# Total GULP energy -156385.902804 kJ/mol
# GULP energy per Si atom -5585.210814 kJ/mol
# Density = 2.350204 g / cm^3
# Si number density = 23.555659 Si / 1000 Ang^3
#
#
#
# Elastic Constant Matrix: (Units=GPa)
#
#
# Indices 1 2 3 4 5 6 
#
# 1 91.9838 -12.9703 49.7281 0.0000 0.0000 0.0000
# 2 -12.9703 52.2345 4.5570 0.0000 0.0000 0.0000
# 3 49.7281 4.5570 89.4709 0.0000 0.0000 0.0000
# 4 0.0000 0.0000 0.0000 23.1593 0.0000 0.0000
# 5 0.0000 0.0000 0.0000 0.0000 37.9139 0.0000
# 6 0.0000 0.0000 0.0000 0.0000 0.0000 36.7541
#
#
#
# Elastic Compliance Matrix: (Units=1/GPa)
#
#
# Indices 1 2 3 4 5 6 
#
# 1 0.016744 0.004992 -0.009561 0.000000 0.000000 0.000000
# 2 0.004992 0.020718 -0.003830 0.000000 0.000000 0.000000
# 3 -0.009561 -0.003830 0.016686 0.000000 0.000000 0.000000
# 4 0.000000 0.000000 0.000000 0.043179 0.000000 0.000000
# 5 0.000000 0.000000 0.000000 0.000000 0.026376 0.000000
# 6 0.000000 0.000000 0.000000 0.000000 0.000000 0.027208
#
#
# Mechanical properties :
#
#
# Convention : Reuss Voigt Hill
#
# Bulk Modulus (GPa) = 26.77324 35.14654 30.95989
# Shear Modulus (GPa) = 27.75349 32.39041 30.07195
#
# Velocity S-wave (km/s) = 3.43623 3.71220 3.57688
# Velocity P-wave (km/s) = 5.20905 5.77295 5.49823
#
# Compressibility (1/GPa) = 0.03735073
#
# Stress axis : x y z
#
# Youngs Moduli (GPa) = 59.72304 48.26709 59.93173
#
# Poissons Ratio (x) = -0.24094 0.57298
# Poissons Ratio (y) = -0.29812 0.22952
# Poissons Ratio (z) = 0.57099 0.18485
#
# Static dielectric constant tensor:
#      x y z
#    x 1.895860 0.000000 0.000000 
#    y 0.000000 1.908770 0.000000 
#    z 0.000000 0.000000 1.857290 
# 
# From -- ./inp_files/4187.got.cif
#   From: 2010.05.17/outbox.cif.g08.bks.cpg/sg19_3_cif.got.tgz:4187.got - 2010.06.03 22:46:19.
