data_PCOD9315365
_publ_section_title
;
Structure prediction by ZEFSAII (Michael W. Deem and Ramdas Pophale) SiO2 
 PCOD9315365
Probable space group: P 21 21 21
;
_chemical_formula_sum "Si O2"
_cell_formula_units_Z 24
_cell_length_a 5.413696
_cell_length_b 9.928479
_cell_length_c 17.416798
_cell_angle_alpha 90.000000
_cell_angle_beta 90.000000
_cell_angle_gamma 90.000000
_cell_volume 936.148835
_symmetry_space_group_name_H-M "P 21 21 21"
_symmetry_group_IT_number 19
_symmetry_cell_setting 'orthorhombic'
loop_
_space_group_symop_operation_xyz
x,y,z
1/2-x,-y,1/2+z
1/2+x,1/2-y,-z
-x,1/2+y,1/2-z
loop_
_atom_site_type_symbol
_atom_site_label
_atom_site_fract_x
_atom_site_fract_y
_atom_site_fract_z
Si Si1 0.413968 0.845502 0.200220
Si Si2 0.247542 0.879347 0.769847
Si Si3 0.547113 0.522495 0.591077
Si Si4 0.728353 0.836431 0.510613
Si Si5 0.252884 0.826240 0.026061
Si Si6 0.349005 0.303981 0.834842
O O1 0.668163 0.763809 0.193434
O O2 0.285567 0.850469 0.117271
O O3 0.293235 0.734520 0.258148
O O4 0.415411 0.988476 0.245106
O O5 0.439498 0.933911 0.833160
O O6 0.380046 0.844346 0.690441
O O7 0.281065 0.552125 0.554452
O O8 0.711730 0.461273 0.523567
O O9 0.648175 0.662987 0.621504
O O10 0.471557 0.759812 0.495852
O O11 0.740335 0.899759 0.596592
O O12 0.492079 0.740382 0.996613
#
# Coordination Sequence:
#
# PCOD9315365 Si02
#       6
#     4   4   4   4   4   4
#     4  11  27  45  81 111 158 210 269 329 410 480
#     4  11  25  51  76 118 160 211 270 336 402 482
#     4  10  24  48  75 106 160 205 265 326 395 476
#     4  10  24  46  76 115 153 198 260 328 397 467
#     4  12  27  48  73 108 155 207 261 321 399 481
#     4  10  25  46  77 112 158 205 267 336 401 476
#
# _framework density 25.636948
#
# number of rings (size 3 to 8) (size 9 to 14) (size 15 to 20)
#    0.000    1.333    1.667    1.000    7.000   10.667 
#    6.000    0.000    0.000    0.000    0.000    0.000 
#    0.000    0.000    0.000    0.000    0.000    0.000 
#
# Total GULP energy -133952.606807 kJ/mol
# GULP energy per Si atom -5581.358617 kJ/mol
# Density = 2.557860 g / cm^3
# Si number density = 25.636948 Si / 1000 Ang^3
#
#
#
# Elastic Constant Matrix: (Units=GPa)
#
#
# Indices 1 2 3 4 5 6 
#
# 1 80.3210 40.1408 10.6140 0.0000 0.0000 0.0000
# 2 40.1408 117.1368 38.1779 0.0000 0.0000 0.0000
# 3 10.6140 38.1779 156.8364 0.0000 0.0000 0.0000
# 4 0.0000 0.0000 0.0000 37.8847 0.0000 0.0000
# 5 0.0000 0.0000 0.0000 0.0000 44.3347 0.0000
# 6 0.0000 0.0000 0.0000 0.0000 0.0000 27.8442
#
#
#
# Elastic Compliance Matrix: (Units=1/GPa)
#
#
# Indices 1 2 3 4 5 6 
#
# 1 0.015032 -0.005235 0.000257 0.000000 0.000000 0.000000
# 2 -0.005235 0.011096 -0.002347 0.000000 0.000000 0.000000
# 3 0.000257 -0.002347 0.006930 0.000000 0.000000 0.000000
# 4 0.000000 0.000000 0.000000 0.026396 0.000000 0.000000
# 5 0.000000 0.000000 0.000000 0.000000 0.022556 0.000000
# 6 0.000000 0.000000 0.000000 0.000000 0.000000 0.035914
#
#
# Mechanical properties :
#
#
# Convention : Reuss Voigt Hill
#
# Bulk Modulus (GPa) = 54.32262 59.12887 56.72574
# Shear Modulus (GPa) = 36.04652 39.70348 37.87500
#
# Velocity S-wave (km/s) = 3.75379 3.93960 3.84781
# Velocity P-wave (km/s) = 6.32638 6.61875 6.47422
#
# Compressibility (1/GPa) = 0.01840854
#
# Stress axis : x y z
#
# Youngs Moduli (GPa) = 66.52327 90.12370 144.30170
#
# Poissons Ratio (x) = 0.47181 -0.03709
# Poissons Ratio (y) = 0.34826 0.33864
# Poissons Ratio (z) = -0.01710 0.21150
#
# Static dielectric constant tensor:
#      x y z
#    x 2.266530 0.000000 0.000000 
#    y 0.000000 2.126960 0.000000 
#    z 0.000000 0.000000 2.106650 
# 
# From -- ./inp_files/6393.got.cif
#   From: 2010.05.17/outbox.cif.g08.bks.cpg/sg19_4_cif.got.tgz:6393.got - 2010.06.03 22:46:19.
