data_PCOD9315302
_publ_section_title
;
Structure prediction by ZEFSAII (Michael W. Deem and Ramdas Pophale) SiO2 
 PCOD9315302
Probable space group: P 21 21 21
;
_chemical_formula_sum "Si O2"
_cell_formula_units_Z 20
_cell_length_a 6.590124
_cell_length_b 13.670261
_cell_length_c 7.838766
_cell_angle_alpha 90.000000
_cell_angle_beta 90.000000
_cell_angle_gamma 90.000000
_cell_volume 706.184357
_symmetry_space_group_name_H-M "P 21 21 21"
_symmetry_group_IT_number 19
_symmetry_cell_setting 'orthorhombic'
loop_
_space_group_symop_operation_xyz
x,y,z
1/2-x,-y,1/2+z
1/2+x,1/2-y,-z
-x,1/2+y,1/2-z
loop_
_atom_site_type_symbol
_atom_site_label
_atom_site_fract_x
_atom_site_fract_y
_atom_site_fract_z
Si Si1 0.089069 0.004921 0.633236
Si Si2 0.063977 0.154667 0.078282
Si Si3 0.243692 0.470026 0.127899
Si Si4 0.166723 0.291377 0.347634
Si Si5 0.873128 0.728413 0.774639
O O1 0.266810 0.927781 0.613497
O O2 0.949012 0.015516 0.465024
O O3 0.165973 0.113036 0.679620
O O4 0.926252 0.972868 0.778314
O O5 0.153507 0.225651 0.930608
O O6 0.870114 0.096363 0.006282
O O7 0.013829 0.220833 0.244076
O O8 0.151349 0.400171 0.275365
O O9 0.383118 0.256355 0.280070
O O10 0.177300 0.283044 0.548801
#
# Coordination Sequence:
#
# PCOD9315302 Si02
#       5
#     4   4   4   4   4
#     4  10  24  44  66  99 135 176 227 276 344 400
#     4  10  24  44  68  98 132 184 220 274 348 404
#     4  10  26  43  65 106 130 179 231 278 340 408
#     4  10  24  44  66  99 135 176 227 276 344 400
#     4  10  26  43  65 106 130 179 231 278 340 408
#
# _framework density 28.321216
#
# number of rings (size 3 to 8) (size 9 to 14) (size 15 to 20)
#    0.000    2.400    0.000    0.000   16.800    3.200 
#    0.000    0.000    0.000    0.000    0.000    0.000 
#    0.000    0.000    0.000    0.000    0.000    0.000 
#
# Total GULP energy -111988.972541 kJ/mol
# GULP energy per Si atom -5599.448627 kJ/mol
# Density = 2.825676 g / cm^3
# Si number density = 28.321216 Si / 1000 Ang^3
#
#
#
# Elastic Constant Matrix: (Units=GPa)
#
#
# Indices 1 2 3 4 5 6 
#
# 1 33.7203 14.8589 34.6852 0.0000 0.0000 0.0000
# 2 14.8589 65.4917 74.0270 0.0000 0.0000 0.0000
# 3 34.6852 74.0270 175.4215 0.0000 0.0000 0.0000
# 4 0.0000 0.0000 0.0000 71.0919 0.0000 0.0000
# 5 0.0000 0.0000 0.0000 0.0000 72.6123 0.0000
# 6 0.0000 0.0000 0.0000 0.0000 0.0000 34.6087
#
#
#
# Elastic Compliance Matrix: (Units=1/GPa)
#
#
# Indices 1 2 3 4 5 6 
#
# 1 0.037229 -0.000241 -0.007259 0.000000 0.000000 0.000000
# 2 -0.000241 0.029196 -0.012273 0.000000 0.000000 0.000000
# 3 -0.007259 -0.012273 0.012315 0.000000 0.000000 0.000000
# 4 0.000000 0.000000 0.000000 0.014066 0.000000 0.000000
# 5 0.000000 0.000000 0.000000 0.000000 0.013772 0.000000
# 6 0.000000 0.000000 0.000000 0.000000 0.000000 0.028894
#
#
# Mechanical properties :
#
#
# Convention : Reuss Voigt Hill
#
# Bulk Modulus (GPa) = 25.51452 57.97507 41.74480
# Shear Modulus (GPa) = 26.58379 45.73342 36.15860
#
# Velocity S-wave (km/s) = 3.06707 4.02283 3.57702
# Velocity P-wave (km/s) = 4.64447 6.48788 5.64197
#
# Compressibility (1/GPa) = 0.03919337
#
# Stress axis : x y z
#
# Youngs Moduli (GPa) = 26.86071 34.25089 81.20151
#
# Poissons Ratio (x) = 0.00826 0.58947
# Poissons Ratio (y) = 0.00648 0.99659
# Poissons Ratio (z) = 0.19499 0.42036
#
# Static dielectric constant tensor:
#      x y z
#    x 2.295340 0.000000 0.000000 
#    y 0.000000 2.220420 0.000000 
#    z 0.000000 0.000000 2.267330 
# 
# From -- ./inp_files/2758.got.cif
#   From: 2010.05.17/outbox.cif.g08.bks.cpg/sg19_2_cif.got.tgz:2758.got - 2010.06.03 22:46:19.
