data_PCOD9315646
_publ_section_title
;
Structure prediction by ZEFSAII (Michael W. Deem and Ramdas Pophale) SiO2 
 PCOD9315646
Probable space group: P 21 21 21
;
_chemical_formula_sum "Si O2"
_cell_formula_units_Z 24
_cell_length_a 5.492083
_cell_length_b 21.532846
_cell_length_c 7.896114
_cell_angle_alpha 90.000000
_cell_angle_beta 90.000000
_cell_angle_gamma 90.000000
_cell_volume 933.795843
_symmetry_space_group_name_H-M "P 21 21 21"
_symmetry_group_IT_number 19
_symmetry_cell_setting 'orthorhombic'
loop_
_space_group_symop_operation_xyz
x,y,z
1/2-x,-y,1/2+z
1/2+x,1/2-y,-z
-x,1/2+y,1/2-z
loop_
_atom_site_type_symbol
_atom_site_label
_atom_site_fract_x
_atom_site_fract_y
_atom_site_fract_z
Si Si1 0.224161 0.634662 0.836536
Si Si2 0.514837 0.164231 0.340421
Si Si3 0.039595 0.501500 0.331606
Si Si4 0.658759 0.431649 0.521818
Si Si5 0.232788 0.225688 0.077851
Si Si6 0.624744 0.870518 0.537227
O O1 0.319988 0.563271 0.833148
O O2 0.223564 0.654644 0.642297
O O3 0.375400 0.673302 0.973121
O O4 0.957926 0.624490 0.915257
O O5 0.365244 0.100464 0.363937
O O6 0.344728 0.218475 0.266022
O O7 0.725096 0.153303 0.200159
O O8 0.772754 0.481081 0.394859
O O9 0.021707 0.534874 0.150890
O O10 0.132653 0.555413 0.455188
O O11 0.464303 0.245629 0.962828
O O12 0.153352 0.153539 0.042207
#
# Coordination Sequence:
#
# PCOD9315646 Si02
#       6
#     4   4   4   4   4   4
#     4  11  25  42  70 112 153 194 250 298 379 469
#     4  11  24  47  73 102 148 193 244 314 380 440
#     4  11  23  36  67 107 154 200 245 295 374 458
#     4  11  23  40  64 105 153 197 243 302 364 462
#     4  12  26  50  86 108 140 202 264 324 392 442
#     4  12  25  45  78 108 152 200 250 311 379 453
#
# _framework density 25.701553000000001
#
# number of rings (size 3 to 8) (size 9 to 14) (size 15 to 20)
#    0.000    0.667    5.000    2.000    7.000    2.667 
#    0.000    0.000   11.000    0.000    0.000    0.000 
#    0.000    0.000    0.000    0.000    0.000    0.000 
#
# Total GULP energy -134147.027449 kJ/mol
# GULP energy per Si atom -5589.459477 kJ/mol
# Density = 2.564306 g / cm^3
# Si number density = 25.701553 Si / 1000 Ang^3
#
#
#
# Elastic Constant Matrix: (Units=GPa)
#
#
# Indices 1 2 3 4 5 6 
#
# 1 113.7534 40.4875 62.2571 0.0000 0.0000 0.0000
# 2 40.4875 38.8111 12.3297 0.0000 0.0000 0.0000
# 3 62.2571 12.3297 161.4138 0.0000 0.0000 0.0000
# 4 0.0000 0.0000 0.0000 36.1565 0.0000 0.0000
# 5 0.0000 0.0000 0.0000 0.0000 38.7093 0.0000
# 6 0.0000 0.0000 0.0000 0.0000 0.0000 53.6875
#
#
#
# Elastic Compliance Matrix: (Units=1/GPa)
#
#
# Indices 1 2 3 4 5 6 
#
# 1 0.017849 -0.016842 -0.005598 0.000000 0.000000 0.000000
# 2 -0.016842 0.042298 0.003265 0.000000 0.000000 0.000000
# 3 -0.005598 0.003265 0.008105 0.000000 0.000000 0.000000
# 4 0.000000 0.000000 0.000000 0.027658 0.000000 0.000000
# 5 0.000000 0.000000 0.000000 0.000000 0.025834 0.000000
# 6 0.000000 0.000000 0.000000 0.000000 0.000000 0.018626
#
#
# Mechanical properties :
#
#
# Convention : Reuss Voigt Hill
#
# Bulk Modulus (GPa) = 33.44216 60.45855 46.95035
# Shear Modulus (GPa) = 26.49911 38.97091 32.73501
#
# Velocity S-wave (km/s) = 3.21445 3.89818 3.57271
# Velocity P-wave (km/s) = 5.17850 6.62083 5.94358
#
# Compressibility (1/GPa) = 0.02990237
#
# Stress axis : x y z
#
# Youngs Moduli (GPa) = 56.02573 23.64199 123.38128
#
# Poissons Ratio (x) = 0.39817 0.69067
# Poissons Ratio (y) = 0.94356 -0.40282
# Poissons Ratio (z) = 0.31362 -0.07719
#
# Static dielectric constant tensor:
#      x y z
#    x 2.068010 0.000000 0.000000 
#    y 0.000000 2.126810 0.000000 
#    z 0.000000 0.000000 1.993170 
# 
# From -- ./inp_files/2406.got.cif
#   From: 2010.05.17/outbox.cif.g08.bks.cpg/sg19_2_cif.got.tgz:2406.got - 2010.06.03 22:46:19.
