data_PCOD9315686
_publ_section_title
;
Structure prediction by ZEFSAII (Michael W. Deem and Ramdas Pophale) SiO2 
 PCOD9315686
Probable space group: P 21 21 21
;
_chemical_formula_sum "Si O2"
_cell_formula_units_Z 20
_cell_length_a 5.530878
_cell_length_b 8.278380
_cell_length_c 15.195870
_cell_angle_alpha 90.000000
_cell_angle_beta 90.000000
_cell_angle_gamma 90.000000
_cell_volume 695.768890
_symmetry_space_group_name_H-M "P 21 21 21"
_symmetry_group_IT_number 19
_symmetry_cell_setting 'orthorhombic'
loop_
_space_group_symop_operation_xyz
x,y,z
1/2-x,-y,1/2+z
1/2+x,1/2-y,-z
-x,1/2+y,1/2-z
loop_
_atom_site_type_symbol
_atom_site_label
_atom_site_fract_x
_atom_site_fract_y
_atom_site_fract_z
Si Si1 0.178062 0.367517 0.032100
Si Si2 0.677272 0.884621 0.203058
Si Si3 0.069872 0.162170 0.521061
Si Si4 0.124574 0.114578 0.878104
Si Si5 0.025901 0.181950 0.191725
O O1 0.428308 0.460462 0.050024
O O2 0.664294 0.220614 0.060757
O O3 0.176552 0.224481 0.104152
O O4 0.951765 0.494202 0.036799
O O5 0.494126 0.874898 0.122235
O O6 0.552815 0.928016 0.294524
O O7 0.808300 0.712697 0.222484
O O8 0.880720 0.018127 0.186093
O O9 0.829952 0.259111 0.490217
O O10 0.346589 0.164746 0.812765
#
# Coordination Sequence:
#
# PCOD9315686 Si02
#       5
#     4   4   4   4   4
#     4  11  24  48  78 111 154 229 268 338 418 518
#     4  11  28  46  76 121 157 215 276 351 416 496
#     4  12  31  52  82 120 168 213 282 351 418 498
#     4  11  23  43  78 108 156 209 276 324 412 490
#     4  11  26  49  76 112 163 210 280 340 422 502
#
# _framework density 28.745180999999999
#
# number of rings (size 3 to 8) (size 9 to 14) (size 15 to 20)
#    0.000    0.800    4.000    0.000   11.200    6.400 
#    0.000    0.000    0.000    0.000    0.000    0.000 
#    0.000    0.000    0.000    0.000    0.000    0.000 
#
# Total GULP energy -111388.766519 kJ/mol
# GULP energy per Si atom -5569.438326 kJ/mol
# Density = 2.867976 g / cm^3
# Si number density = 28.745181 Si / 1000 Ang^3
#
#
#
# Elastic Constant Matrix: (Units=GPa)
#
#
# Indices 1 2 3 4 5 6 
#
# 1 55.3506 13.5448 -56.1131 0.0000 0.0000 0.0000
# 2 13.5448 87.7415 24.6976 0.0000 0.0000 0.0000
# 3 -56.1131 24.6976 98.6350 0.0000 0.0000 0.0000
# 4 0.0000 0.0000 0.0000 32.3325 0.0000 0.0000
# 5 0.0000 0.0000 0.0000 0.0000 173.5520 0.0000
# 6 0.0000 0.0000 0.0000 0.0000 0.0000 64.6505
#
#
#
# Elastic Compliance Matrix: (Units=1/GPa)
#
#
# Indices 1 2 3 4 5 6 
#
# 1 0.070967 -0.024012 0.046385 0.000000 0.000000 0.000000
# 2 -0.024012 0.020386 -0.018765 0.000000 0.000000 0.000000
# 3 0.046385 -0.018765 0.041225 0.000000 0.000000 0.000000
# 4 0.000000 0.000000 0.000000 0.030929 0.000000 0.000000
# 5 0.000000 0.000000 0.000000 0.000000 0.005762 0.000000
# 6 0.000000 0.000000 0.000000 0.000000 0.000000 0.015468
#
#
# Mechanical properties :
#
#
# Convention : Reuss Voigt Hill
#
# Bulk Modulus (GPa) = 7.15333 22.88730 15.02031
# Shear Modulus (GPa) = 22.30972 71.41351 46.86162
#
# Velocity S-wave (km/s) = 2.78892 4.98975 4.04201
# Velocity P-wave (km/s) = 3.58674 6.41687 5.19812
#
# Compressibility (1/GPa) = 0.13979511
#
# Stress axis : x y z
#
# Youngs Moduli (GPa) = 14.09110 49.05372 24.25692
#
# Poissons Ratio (x) = 1.17787 -1.12516
# Poissons Ratio (y) = 0.33835 0.45518
# Poissons Ratio (z) = -0.65362 0.92048
#
# Static dielectric constant tensor:
#      x y z
#    x 2.770970 0.000000 0.000000 
#    y 0.000000 1.571480 0.000000 
#    z 0.000000 0.000000 2.333360 
# 
# From -- ./inp_files/360.got.cif
#   From: 2010.05.17/outbox.cif.g08.bks.cpg/sg19_1_cif.got.tgz:360.got - 2010.06.03 22:46:19.
