data_PCOD9315215
_publ_section_title
;
Structure prediction by ZEFSAII (Michael W. Deem and Ramdas Pophale) SiO2 
 PCOD9315215
Probable space group: P 21 21 21
;
_chemical_formula_sum "Si O2"
_cell_formula_units_Z 28
_cell_length_a 10.319298
_cell_length_b 12.014467
_cell_length_c 9.332164
_cell_angle_alpha 90.000000
_cell_angle_beta 90.000000
_cell_angle_gamma 90.000000
_cell_volume 1157.009768
_symmetry_space_group_name_H-M "P 21 21 21"
_symmetry_group_IT_number 19
_symmetry_cell_setting 'orthorhombic'
loop_
_space_group_symop_operation_xyz
x,y,z
1/2-x,-y,1/2+z
1/2+x,1/2-y,-z
-x,1/2+y,1/2-z
loop_
_atom_site_type_symbol
_atom_site_label
_atom_site_fract_x
_atom_site_fract_y
_atom_site_fract_z
Si Si1 0.686369 0.636490 0.955248
Si Si2 0.453873 0.921467 0.606366
Si Si3 0.310558 0.182881 0.227566
Si Si4 0.614347 0.925736 0.348127
Si Si5 0.300845 0.269098 0.819791
Si Si6 0.663268 0.037572 0.046207
Si Si7 0.605158 0.551356 0.513503
O O1 0.650561 0.688703 0.107120
O O2 0.803852 0.555014 0.002646
O O3 0.580069 0.553366 0.883426
O O4 0.724210 0.729805 0.841530
O O5 0.331733 0.861615 0.681601
O O6 0.478010 0.915233 0.432658
O O7 0.578333 0.855936 0.668402
O O8 0.330103 0.301832 0.158157
O O9 0.403254 0.095519 0.149313
O O10 0.708616 0.993713 0.456211
O O11 0.633220 0.967319 0.187655
O O12 0.186036 0.337200 0.894484
O O13 0.334014 0.153923 0.900649
O O14 0.540791 0.028742 0.941193
#
# Coordination Sequence:
#
# PCOD9315215 Si02
#       7
#     4   4   4   4   4   4   4
#     4  11  26  45  73 109 139 188 254 291 362 436
#     4  10  23  47  70 104 145 192 242 296 368 428
#     4  11  23  44  72 103 144 184 245 297 360 437
#     4  11  25  44  72 103 146 191 239 301 366 439
#     4  11  25  47  75 101 149 190 236 307 364 434
#     4  11  26  45  71 104 145 188 245 294 379 433
#     4  11  22  44  71 102 136 195 229 304 357 443
#
# _framework density 24.200313999999999
#
# number of rings (size 3 to 8) (size 9 to 14) (size 15 to 20)
#    0.000    1.143    2.857    3.429    4.000    9.143 
#    2.571    0.000    0.000    0.000    0.000    0.000 
#    0.000    0.000    0.000    0.000    0.000    0.000 
#
# Total GULP energy -156376.211629 kJ/mol
# GULP energy per Si atom -5584.864701 kJ/mol
# Density = 2.414523 g / cm^3
# Si number density = 24.200314 Si / 1000 Ang^3
#
#
#
# Elastic Constant Matrix: (Units=GPa)
#
#
# Indices 1 2 3 4 5 6 
#
# 1 94.0883 12.6135 -5.2871 0.0000 0.0000 0.0000
# 2 12.6135 73.4638 24.0263 0.0000 0.0000 0.0000
# 3 -5.2871 24.0263 101.8942 0.0000 0.0000 0.0000
# 4 0.0000 0.0000 0.0000 41.7077 0.0000 0.0000
# 5 0.0000 0.0000 0.0000 0.0000 21.9598 0.0000
# 6 0.0000 0.0000 0.0000 0.0000 0.0000 13.2938
#
#
#
# Elastic Compliance Matrix: (Units=1/GPa)
#
#
# Indices 1 2 3 4 5 6 
#
# 1 0.010991 -0.002247 0.001100 0.000000 0.000000 0.000000
# 2 -0.002247 0.015209 -0.003703 0.000000 0.000000 0.000000
# 3 0.001100 -0.003703 0.010744 0.000000 0.000000 0.000000
# 4 0.000000 0.000000 0.000000 0.023976 0.000000 0.000000
# 5 0.000000 0.000000 0.000000 0.000000 0.045538 0.000000
# 6 0.000000 0.000000 0.000000 0.000000 0.000000 0.075223
#
#
# Mechanical properties :
#
#
# Convention : Reuss Voigt Hill
#
# Bulk Modulus (GPa) = 36.70354 36.90574 36.80464
# Shear Modulus (GPa) = 24.94231 31.26517 28.10374
#
# Velocity S-wave (km/s) = 3.21387 3.59825 3.41148
# Velocity P-wave (km/s) = 5.38251 5.70494 5.54607
#
# Compressibility (1/GPa) = 0.02724533
#
# Stress axis : x y z
#
# Youngs Moduli (GPa) = 90.98047 65.75071 93.07260
#
# Poissons Ratio (x) = 0.14774 -0.10239
# Poissons Ratio (y) = 0.20443 0.34463
# Poissons Ratio (z) = -0.10009 0.24346
#
# Static dielectric constant tensor:
#      x y z
#    x 2.021400 0.000000 0.000000 
#    y 0.000000 1.892550 0.000000 
#    z 0.000000 0.000000 2.011850 
# 
# From -- ./inp_files/3435.got.cif
#   From: 2010.05.17/outbox.cif.g08.bks.cpg/sg19_2_cif.got.tgz:3435.got - 2010.06.03 22:46:19.
