data_PCOD9315119
_publ_section_title
;
Structure prediction by ZEFSAII (Michael W. Deem and Ramdas Pophale) SiO2 
 PCOD9315119
Probable space group: P 21 21 21
;
_chemical_formula_sum "Si O2"
_cell_formula_units_Z 28
_cell_length_a 9.683052
_cell_length_b 17.550277
_cell_length_c 6.595034
_cell_angle_alpha 90.000000
_cell_angle_beta 90.000000
_cell_angle_gamma 90.000000
_cell_volume 1120.761692
_symmetry_space_group_name_H-M "P 21 21 21"
_symmetry_group_IT_number 19
_symmetry_cell_setting 'orthorhombic'
loop_
_space_group_symop_operation_xyz
x,y,z
1/2-x,-y,1/2+z
1/2+x,1/2-y,-z
-x,1/2+y,1/2-z
loop_
_atom_site_type_symbol
_atom_site_label
_atom_site_fract_x
_atom_site_fract_y
_atom_site_fract_z
Si Si1 0.118733 0.517813 0.784963
Si Si2 0.563517 0.226395 0.775696
Si Si3 0.665609 0.737269 0.042478
Si Si4 0.969630 0.665678 0.662288
Si Si5 0.614540 0.579224 0.236755
Si Si6 0.424090 0.549413 0.699370
Si Si7 0.713528 0.572897 0.693827
O O1 0.282264 0.524050 0.802408
O O2 0.059808 0.587396 0.652102
O O3 0.048060 0.439747 0.710616
O O4 0.062902 0.512541 0.016481
O O5 0.680498 0.235387 0.600557
O O6 0.591802 0.139907 0.854093
O O7 0.437673 0.283412 0.308573
O O8 0.566450 0.287743 0.958141
O O9 0.587296 0.738550 0.826523
O O10 0.659475 0.651535 0.116721
O O11 0.824686 0.636378 0.754727
O O12 0.657309 0.594352 0.470955
O O13 0.700748 0.504405 0.184290
O O14 0.571823 0.551643 0.807796
#
# Coordination Sequence:
#
# PCOD9315119 Si02
#       7
#     4   4   4   4   4   4   4
#     4  10  24  46  75 107 156 200 262 320 395 457
#     4  12  29  49  79 114 160 207 263 326 399 469
#     4  12  28  50  75 120 153 209 263 318 404 472
#     4  11  24  52  76 112 154 203 257 324 392 476
#     4  10  23  45  69 106 143 195 255 313 378 466
#     4  11  25  47  73 115 151 207 259 330 388 467
#     4  10  23  43  75 102 147 199 253 315 388 455
#
# _framework density 24.983008999999999
#
# number of rings (size 3 to 8) (size 9 to 14) (size 15 to 20)
#    0.000    1.143    2.857    1.714    6.000    3.429 
#    7.714    0.000    0.000    0.000    0.000    0.000 
#    0.000    0.000    0.000    0.000    0.000    0.000 
#
# Total GULP energy -156376.532519 kJ/mol
# GULP energy per Si atom -5584.876161 kJ/mol
# Density = 2.492615 g / cm^3
# Si number density = 24.983009 Si / 1000 Ang^3
#
#
#
# Elastic Constant Matrix: (Units=GPa)
#
#
# Indices 1 2 3 4 5 6 
#
# 1 156.2151 30.0920 1.5633 0.0000 0.0000 0.0000
# 2 30.0920 80.6582 22.5142 0.0000 0.0000 0.0000
# 3 1.5633 22.5142 49.3448 0.0000 0.0000 0.0000
# 4 0.0000 0.0000 0.0000 36.3395 0.0000 0.0000
# 5 0.0000 0.0000 0.0000 0.0000 46.2597 0.0000
# 6 0.0000 0.0000 0.0000 0.0000 0.0000 37.6095
#
#
#
# Elastic Compliance Matrix: (Units=1/GPa)
#
#
# Indices 1 2 3 4 5 6 
#
# 1 0.006949 -0.002901 0.001103 0.000000 0.000000 0.000000
# 2 -0.002901 0.015418 -0.006943 0.000000 0.000000 0.000000
# 3 0.001103 -0.006943 0.023398 0.000000 0.000000 0.000000
# 4 0.000000 0.000000 0.000000 0.027518 0.000000 0.000000
# 5 0.000000 0.000000 0.000000 0.000000 0.021617 0.000000
# 6 0.000000 0.000000 0.000000 0.000000 0.000000 0.026589
#
#
# Mechanical properties :
#
#
# Convention : Reuss Voigt Hill
#
# Bulk Modulus (GPa) = 35.35397 43.83970 39.59684
# Shear Modulus (GPa) = 33.69304 39.51165 36.60235
#
# Velocity S-wave (km/s) = 3.67637 3.98117 3.83180
# Velocity P-wave (km/s) = 5.67475 6.22245 5.95490
#
# Compressibility (1/GPa) = 0.02828536
#
# Stress axis : x y z
#
# Youngs Moduli (GPa) = 143.90301 64.85884 42.73803
#
# Poissons Ratio (x) = 0.18813 -0.04715
# Poissons Ratio (y) = 0.41740 0.29672
# Poissons Ratio (z) = -0.15876 0.45030
#
# Static dielectric constant tensor:
#      x y z
#    x 1.990560 0.000000 0.000000 
#    y 0.000000 1.961270 0.000000 
#    z 0.000000 0.000000 2.083870 
# 
# From -- ./inp_files/3014.got.cif
#   From: 2010.05.17/outbox.cif.g08.bks.cpg/sg19_2_cif.got.tgz:3014.got - 2010.06.03 22:46:19.
