data_PCOD9315776
_publ_section_title
;
Structure prediction by ZEFSAII (Michael W. Deem and Ramdas Pophale) SiO2 
 PCOD9315776
Probable space group: P 21 21 21
;
_chemical_formula_sum "Si O2"
_cell_formula_units_Z 28
_cell_length_a 7.928721
_cell_length_b 7.945841
_cell_length_c 17.753243
_cell_angle_alpha 90.000000
_cell_angle_beta 90.000000
_cell_angle_gamma 90.000000
_cell_volume 1118.460636
_symmetry_space_group_name_H-M "P 21 21 21"
_symmetry_group_IT_number 19
_symmetry_cell_setting 'orthorhombic'
loop_
_space_group_symop_operation_xyz
x,y,z
1/2-x,-y,1/2+z
1/2+x,1/2-y,-z
-x,1/2+y,1/2-z
loop_
_atom_site_type_symbol
_atom_site_label
_atom_site_fract_x
_atom_site_fract_y
_atom_site_fract_z
Si Si1 0.707132 0.000650 0.835553
Si Si2 0.914654 0.705649 0.085153
Si Si3 0.041897 0.986979 0.543527
Si Si4 0.934912 0.417776 0.642705
Si Si5 0.941982 0.040162 0.176181
Si Si6 0.307961 0.122942 0.192609
Si Si7 0.741956 0.269520 0.072041
O O1 0.685824 0.980306 0.745276
O O2 0.758960 0.195876 0.842111
O O3 0.866231 0.901968 0.869899
O O4 0.536295 0.929776 0.872631
O O5 0.716801 0.681763 0.102660
O O6 0.954606 0.886409 0.118298
O O7 0.953546 0.664162 0.998898
O O8 0.100647 0.986366 0.629305
O O9 0.173647 0.874066 0.495082
O O10 0.864558 0.888890 0.541740
O O11 0.911727 0.376159 0.730962
O O12 0.881621 0.608788 0.619329
O O13 0.884116 0.199290 0.127858
O O14 0.125246 0.050509 0.212709
#
# Coordination Sequence:
#
# PCOD9315776 Si02
#       7
#     4   4   4   4   4   4   4
#     4  12  23  44  72 104 139 187 233 302 357 421
#     4  11  26  46  69 106 146 184 238 297 356 429
#     4  11  24  46  70  99 144 193 237 290 360 433
#     4  11  24  43  73 106 136 181 246 294 351 429
#     4  12  25  42  73 102 145 182 237 297 358 421
#     4  12  24  45  70 106 138 189 241 294 358 427
#     4  11  24  44  73 105 140 190 238 292 360 432
#
# _framework density 25.034410999999999
#
# number of rings (size 3 to 8) (size 9 to 14) (size 15 to 20)
#    0.000    0.571    4.286    4.286    2.000    1.143 
#    2.571    0.000    0.000    0.000    0.000    0.000 
#    0.000    0.000    0.000    0.000    0.000    0.000 
#
# Total GULP energy -156823.517039 kJ/mol
# GULP energy per Si atom -5600.839894 kJ/mol
# Density = 2.497743 g / cm^3
# Si number density = 25.034411 Si / 1000 Ang^3
#
#
#
# Elastic Constant Matrix: (Units=GPa)
#
#
# Indices 1 2 3 4 5 6 
#
# 1 123.7638 7.6339 20.0308 0.0000 0.0000 0.0000
# 2 7.6339 67.1737 14.8172 0.0000 0.0000 0.0000
# 3 20.0308 14.8172 93.9270 0.0000 0.0000 0.0000
# 4 0.0000 0.0000 0.0000 30.6952 0.0000 0.0000
# 5 0.0000 0.0000 0.0000 0.0000 38.4597 0.0000
# 6 0.0000 0.0000 0.0000 0.0000 0.0000 20.8676
#
#
#
# Elastic Compliance Matrix: (Units=1/GPa)
#
#
# Indices 1 2 3 4 5 6 
#
# 1 0.008390 -0.000579 -0.001698 0.000000 0.000000 0.000000
# 2 -0.000579 0.015463 -0.002316 0.000000 0.000000 0.000000
# 3 -0.001698 -0.002316 0.011374 0.000000 0.000000 0.000000
# 4 0.000000 0.000000 0.000000 0.032578 0.000000 0.000000
# 5 0.000000 0.000000 0.000000 0.000000 0.026001 0.000000
# 6 0.000000 0.000000 0.000000 0.000000 0.000000 0.047921
#
#
# Mechanical properties :
#
#
# Convention : Reuss Voigt Hill
#
# Bulk Modulus (GPa) = 38.39939 41.09204 39.74572
# Shear Modulus (GPa) = 31.32926 34.16334 32.74630
#
# Velocity S-wave (km/s) = 3.54142 3.69813 3.62062
# Velocity P-wave (km/s) = 5.66517 5.88938 5.77836
#
# Compressibility (1/GPa) = 0.02604208
#
# Stress axis : x y z
#
# Youngs Moduli (GPa) = 119.18329 64.66874 87.91964
#
# Poissons Ratio (x) = 0.03744 0.14929
# Poissons Ratio (y) = 0.06900 0.20361
# Poissons Ratio (z) = 0.20237 0.14977
#
# Static dielectric constant tensor:
#      x y z
#    x 1.935810 0.000000 0.000000 
#    y 0.000000 2.012820 0.000000 
#    z 0.000000 0.000000 1.959780 
# 
# From -- ./inp_files/6613.got.cif
#   From: 2010.05.17/outbox.cif.g08.bks.cpg/sg19_4_cif.got.tgz:6613.got - 2010.06.03 22:46:19.
