data_PCOD9315490
_publ_section_title
;
Structure prediction by ZEFSAII (Michael W. Deem and Ramdas Pophale) SiO2 
 PCOD9315490
Probable space group: P 21 21 21
;
_chemical_formula_sum "Si O2"
_cell_formula_units_Z 24
_cell_length_a 9.925989
_cell_length_b 11.800283
_cell_length_c 8.048087
_cell_angle_alpha 90.000000
_cell_angle_beta 90.000000
_cell_angle_gamma 90.000000
_cell_volume 942.668239
_symmetry_space_group_name_H-M "P 21 21 21"
_symmetry_group_IT_number 19
_symmetry_cell_setting 'orthorhombic'
loop_
_space_group_symop_operation_xyz
x,y,z
1/2-x,-y,1/2+z
1/2+x,1/2-y,-z
-x,1/2+y,1/2-z
loop_
_atom_site_type_symbol
_atom_site_label
_atom_site_fract_x
_atom_site_fract_y
_atom_site_fract_z
Si Si1 0.412576 0.688842 0.370782
Si Si2 0.825735 0.549741 0.043137
Si Si3 0.232063 0.495912 0.716297
Si Si4 0.555371 0.515316 0.188659
Si Si5 0.494958 0.629732 0.717587
Si Si6 0.777123 0.248455 0.390501
O O1 0.320391 0.573870 0.380910
O O2 0.588170 0.958356 0.350947
O O3 0.478622 0.704161 0.548149
O O4 0.311161 0.772699 0.279505
O O5 0.890607 0.521005 0.867570
O O6 0.798280 0.684620 0.037281
O O7 0.674002 0.502708 0.059605
O O8 0.917528 0.483252 0.173567
O O9 0.347208 0.583497 0.756225
O O10 0.280355 0.387033 0.607708
O O11 0.516901 0.647511 0.228610
O O12 0.577439 0.699807 0.852145
#
# Coordination Sequence:
#
# PCOD9315490 Si02
#       6
#     4   4   4   4   4   4
#     4   7  20  41  52  85 128 159 201 258 311 372
#     4  11  18  36  64  91 120 164 209 258 305 376
#     4   8  21  40  55  88 129 165 201 259 316 367
#     4   8  19  36  58  87 122 163 201 260 308 365
#     4  11  19  40  65  86 126 170 210 256 321 373
#     4   9  21  39  58  93 127 153 218 259 297 387
#
# _framework density 25.459647
#
# number of rings (size 3 to 8) (size 9 to 14) (size 15 to 20)
#    2.000    0.667    1.667    0.000    0.000    4.000 
#    6.000    0.000    3.667    0.000    0.000    0.000 
#    0.000    0.000    0.000    0.000    0.000    0.000 
#
# Total GULP energy -133684.978964 kJ/mol
# GULP energy per Si atom -5570.207457 kJ/mol
# Density = 2.540170 g / cm^3
# Si number density = 25.459647 Si / 1000 Ang^3
#
#
#
# Elastic Constant Matrix: (Units=GPa)
#
#
# Indices 1 2 3 4 5 6 
#
# 1 193.0020 43.8220 29.6199 0.0000 0.0000 0.0000
# 2 43.8220 82.6486 21.7785 0.0000 0.0000 0.0000
# 3 29.6199 21.7785 59.6734 0.0000 0.0000 0.0000
# 4 0.0000 0.0000 0.0000 25.4151 0.0000 0.0000
# 5 0.0000 0.0000 0.0000 0.0000 24.1772 0.0000
# 6 0.0000 0.0000 0.0000 0.0000 0.0000 18.1090
#
#
#
# Elastic Compliance Matrix: (Units=1/GPa)
#
#
# Indices 1 2 3 4 5 6 
#
# 1 0.006108 -0.002699 -0.002047 0.000000 0.000000 0.000000
# 2 -0.002699 0.014580 -0.003981 0.000000 0.000000 0.000000
# 3 -0.002047 -0.003981 0.019227 0.000000 0.000000 0.000000
# 4 0.000000 0.000000 0.000000 0.039347 0.000000 0.000000
# 5 0.000000 0.000000 0.000000 0.000000 0.041361 0.000000
# 6 0.000000 0.000000 0.000000 0.000000 0.000000 0.055221
#
#
# Mechanical properties :
#
#
# Convention : Reuss Voigt Hill
#
# Bulk Modulus (GPa) = 44.52323 58.41831 51.47077
# Shear Modulus (GPa) = 24.90220 29.54716 27.22468
#
# Velocity S-wave (km/s) = 3.13086 3.41038 3.27360
# Velocity P-wave (km/s) = 5.53131 6.20507 5.87785
#
# Compressibility (1/GPa) = 0.02246019
#
# Stress axis : x y z
#
# Youngs Moduli (GPa) = 163.71091 68.58816 52.01068
#
# Poissons Ratio (x) = 0.18515 0.10645
# Poissons Ratio (y) = 0.44192 0.20706
# Poissons Ratio (z) = 0.33508 0.27306
#
# Static dielectric constant tensor:
#      x y z
#    x 2.078690 0.000000 0.000000 
#    y 0.000000 2.066230 0.000000 
#    z 0.000000 0.000000 2.062010 
# 
# From -- ./inp_files/3362.got.cif
#   From: 2010.05.17/outbox.cif.g08.bks.cpg/sg19_2_cif.got.tgz:3362.got - 2010.06.03 22:46:19.
