data_PCOD9315820
_publ_section_title
;
Structure prediction by ZEFSAII (Michael W. Deem and Ramdas Pophale) SiO2 
 PCOD9315820
Probable space group: P 21 21 21
;
_chemical_formula_sum "Si O2"
_cell_formula_units_Z 32
_cell_length_a 9.345939
_cell_length_b 24.956957
_cell_length_c 5.524482
_cell_angle_alpha 90.000000
_cell_angle_beta 90.000000
_cell_angle_gamma 90.000000
_cell_volume 1288.564421
_symmetry_space_group_name_H-M "P 21 21 21"
_symmetry_group_IT_number 19
_symmetry_cell_setting 'orthorhombic'
loop_
_space_group_symop_operation_xyz
x,y,z
1/2-x,-y,1/2+z
1/2+x,1/2-y,-z
-x,1/2+y,1/2-z
loop_
_atom_site_type_symbol
_atom_site_label
_atom_site_fract_x
_atom_site_fract_y
_atom_site_fract_z
Si Si1 0.655804 0.197059 0.478978
Si Si2 0.328272 0.583586 0.050489
Si Si3 0.616967 0.009352 0.088694
Si Si4 0.603176 0.669939 0.367635
Si Si5 0.909368 0.569131 0.724623
Si Si6 0.906927 0.633901 0.221795
Si Si7 0.414376 0.069702 0.759450
Si Si8 0.081249 0.742009 0.270197
O O1 0.727386 0.140162 0.541725
O O2 0.548722 0.180698 0.259971
O O3 0.547836 0.221701 0.670369
O O4 0.780621 0.236811 0.401002
O O5 0.321595 0.566861 0.330836
O O6 0.239816 0.533881 0.946174
O O7 0.494422 0.584866 0.974761
O O8 0.514934 0.980901 0.283026
O O9 0.507818 0.022694 0.876932
O O10 0.741362 0.653888 0.208012
O O11 0.590784 0.622150 0.566059
O O12 0.635814 0.727109 0.493884
O O13 0.914762 0.597695 0.464025
O O14 0.746668 0.551581 0.774703
O O15 0.943605 0.605373 0.965102
O O16 0.012040 0.683331 0.281926
#
# Coordination Sequence:
#
# PCOD9315820 Si02
#       8
#     4   4   4   4   4   4   4   4
#     4  12  26  46  74 107 148 198 256 315 386 461
#     4  12  25  47  69 106 149 194 255 308 385 453
#     4  12  27  46  75 108 148 202 250 318 381 457
#     4  11  24  46  73 105 148 199 252 312 385 453
#     4  11  29  48  78 111 154 199 258 317 381 455
#     4  11  27  51  73 115 154 200 258 318 381 458
#     4  11  25  44  73 103 149 195 250 308 383 454
#     4  12  27  44  75 109 150 203 257 316 384 455
#
# _framework density 24.833839000000001
#
# number of rings (size 3 to 8) (size 9 to 14) (size 15 to 20)
#    0.000    0.500    3.750    3.000   12.250    2.000 
#    2.250    0.000    0.000    0.000    0.000    0.000 
#    0.000    0.000    0.000    0.000    0.000    0.000 
#
# Total GULP energy -178949.911738 kJ/mol
# GULP energy per Si atom -5592.184742 kJ/mol
# Density = 2.477732 g / cm^3
# Si number density = 24.833839 Si / 1000 Ang^3
#
#
#
# Elastic Constant Matrix: (Units=GPa)
#
#
# Indices 1 2 3 4 5 6 
#
# 1 103.4958 12.0758 10.0357 0.0000 0.0000 0.0000
# 2 12.0758 84.3186 25.2693 0.0000 0.0000 0.0000
# 3 10.0357 25.2693 69.0426 0.0000 0.0000 0.0000
# 4 0.0000 0.0000 0.0000 42.0858 0.0000 0.0000
# 5 0.0000 0.0000 0.0000 0.0000 33.5327 0.0000
# 6 0.0000 0.0000 0.0000 0.0000 0.0000 39.9423
#
#
#
# Elastic Compliance Matrix: (Units=1/GPa)
#
#
# Indices 1 2 3 4 5 6 
#
# 1 0.009892 -0.001107 -0.001033 0.000000 0.000000 0.000000
# 2 -0.001107 0.013445 -0.004760 0.000000 0.000000 0.000000
# 3 -0.001033 -0.004760 0.016376 0.000000 0.000000 0.000000
# 4 0.000000 0.000000 0.000000 0.023761 0.000000 0.000000
# 5 0.000000 0.000000 0.000000 0.000000 0.029822 0.000000
# 6 0.000000 0.000000 0.000000 0.000000 0.000000 0.025036
#
#
# Mechanical properties :
#
#
# Convention : Reuss Voigt Hill
#
# Bulk Modulus (GPa) = 38.59037 39.06874 38.82956
# Shear Modulus (GPa) = 35.51947 37.07724 36.29835
#
# Velocity S-wave (km/s) = 3.78601 3.86814 3.82730
# Velocity P-wave (km/s) = 5.88940 5.97631 5.93301
#
# Compressibility (1/GPa) = 0.02591320
#
# Stress axis : x y z
#
# Youngs Moduli (GPa) = 101.09652 74.37820 61.06507
#
# Poissons Ratio (x) = 0.08235 0.06305
# Poissons Ratio (y) = 0.11193 0.29066
# Poissons Ratio (z) = 0.10439 0.35403
#
# Static dielectric constant tensor:
#      x y z
#    x 1.914400 0.000000 0.000000 
#    y 0.000000 2.019010 0.000000 
#    z 0.000000 0.000000 2.039340 
# 
# From -- ./inp_files/739.got.cif
#   From: 2010.05.17/outbox.cif.g08.bks.cpg/sg19_1_cif.got.tgz:739.got - 2010.06.03 22:46:19.
