data_PCOD9315982
_publ_section_title
;
Structure prediction by ZEFSAII (Michael W. Deem and Ramdas Pophale) SiO2 
 PCOD9315982
Probable space group: P 21 21 21
;
_chemical_formula_sum "Si O2"
_cell_formula_units_Z 20
_cell_length_a 5.334863
_cell_length_b 8.676629
_cell_length_c 16.199693
_cell_angle_alpha 90.000000
_cell_angle_beta 90.000000
_cell_angle_gamma 90.000000
_cell_volume 749.861547
_symmetry_space_group_name_H-M "P 21 21 21"
_symmetry_group_IT_number 19
_symmetry_cell_setting 'orthorhombic'
loop_
_space_group_symop_operation_xyz
x,y,z
1/2-x,-y,1/2+z
1/2+x,1/2-y,-z
-x,1/2+y,1/2-z
loop_
_atom_site_type_symbol
_atom_site_label
_atom_site_fract_x
_atom_site_fract_y
_atom_site_fract_z
Si Si1 0.154440 0.026905 0.223637
Si Si2 0.216484 0.072726 0.401064
Si Si3 0.177839 0.706064 0.396025
Si Si4 0.151043 0.568416 0.817945
Si Si5 0.281462 0.562043 0.001727
O O1 0.233593 0.120529 0.305067
O O2 0.367396 0.899411 0.205628
O O3 0.888217 0.939890 0.242231
O O4 0.072064 0.132263 0.146005
O O5 0.206481 0.885276 0.395826
O O6 0.461198 0.103477 0.455198
O O7 0.954621 0.109578 0.444520
O O8 0.382367 0.617499 0.339234
O O9 0.212546 0.622972 0.484479
O O10 0.245915 0.624220 0.907863
#
# Coordination Sequence:
#
# PCOD9315982 Si02
#       5
#     4   4   4   4   4
#     4   9  19  31  45  68 103 131 156 188 237 298
#     4  12  18  29  51  78  93 126 168 190 234 302
#     4   8  21  30  48  67 110 122 151 196 254 273
#     4   8  18  34  43  63 107 129 146 191 256 278
#     4   9  20  28  49  74  99 122 153 201 251 287
#
# _framework density 26.671590999999999
#
# number of rings (size 3 to 8) (size 9 to 14) (size 15 to 20)
#    2.400    0.000    0.000    4.800    2.800    0.000 
#    0.000    0.000    0.000    0.000    0.000   16.800 
#    0.000    0.000    0.000    0.000    0.000    0.000 
#
# Total GULP energy -111598.784766 kJ/mol
# GULP energy per Si atom -5579.939238 kJ/mol
# Density = 2.661088 g / cm^3
# Si number density = 26.671591 Si / 1000 Ang^3
#
#
#
# Elastic Constant Matrix: (Units=GPa)
#
#
# Indices 1 2 3 4 5 6 
#
# 1 188.4347 -0.8128 67.1546 0.0000 0.0000 0.0000
# 2 -0.8128 55.3103 3.5512 0.0000 0.0000 0.0000
# 3 67.1546 3.5512 140.2158 0.0000 0.0000 0.0000
# 4 0.0000 0.0000 0.0000 48.7244 0.0000 0.0000
# 5 0.0000 0.0000 0.0000 0.0000 84.0279 0.0000
# 6 0.0000 0.0000 0.0000 0.0000 0.0000 587.7855
#
#
#
# Elastic Compliance Matrix: (Units=1/GPa)
#
#
# Indices 1 2 3 4 5 6 
#
# 1 0.006404 0.000291 -0.003074 0.000000 0.000000 0.000000
# 2 0.000291 0.018123 -0.000599 0.000000 0.000000 0.000000
# 3 -0.003074 -0.000599 0.008619 0.000000 0.000000 0.000000
# 4 0.000000 0.000000 0.000000 0.020524 0.000000 0.000000
# 5 0.000000 0.000000 0.000000 0.000000 0.011901 0.000000
# 6 0.000000 0.000000 0.000000 0.000000 0.000000 0.001701
#
#
# Mechanical properties :
#
#
# Convention : Reuss Voigt Hill
#
# Bulk Modulus (GPa) = 37.90350 58.19411 48.04880
# Shear Modulus (GPa) = 60.36550 165.04541 112.70545
#
# Velocity S-wave (km/s) = 4.76256 7.87496 6.50757
# Velocity P-wave (km/s) = 6.66969 10.22510 8.63242
#
# Compressibility (1/GPa) = 0.02638279
#
# Stress axis : x y z
#
# Youngs Moduli (GPa) = 156.15747 55.17995 116.01641
#
# Poissons Ratio (x) = -0.01608 0.35668
# Poissons Ratio (y) = -0.04552 0.06945
# Poissons Ratio (z) = 0.48009 0.03303
#
# Static dielectric constant tensor:
#      x y z
#    x 2.096150 0.000000 0.000000 
#    y 0.000000 -3.600420 0.000000 
#    z 0.000000 0.000000 2.068370 
# 
# From -- ./inp_files/6399.got.cif
#   From: 2010.05.17/outbox.cif.g08.bks.cpg/sg19_4_cif.got.tgz:6399.got - 2010.06.03 22:46:19.
