data_PCOD9315034
_publ_section_title
;
Structure prediction by ZEFSAII (Michael W. Deem and Ramdas Pophale) SiO2 
 PCOD9315034
Probable space group: P 21 21 21
;
_chemical_formula_sum "Si O2"
_cell_formula_units_Z 28
_cell_length_a 5.830928
_cell_length_b 22.118883
_cell_length_c 8.065940
_cell_angle_alpha 90.000000
_cell_angle_beta 90.000000
_cell_angle_gamma 90.000000
_cell_volume 1040.293434
_symmetry_space_group_name_H-M "P 21 21 21"
_symmetry_group_IT_number 19
_symmetry_cell_setting 'orthorhombic'
loop_
_space_group_symop_operation_xyz
x,y,z
1/2-x,-y,1/2+z
1/2+x,1/2-y,-z
-x,1/2+y,1/2-z
loop_
_atom_site_type_symbol
_atom_site_label
_atom_site_fract_x
_atom_site_fract_y
_atom_site_fract_z
Si Si1 0.777900 0.923043 0.922582
Si Si2 0.874467 0.577184 0.348868
Si Si3 0.766447 0.118299 0.942375
Si Si4 0.746239 0.239498 0.080025
Si Si5 0.024403 0.695922 0.838609
Si Si6 0.475582 0.511583 0.370989
Si Si7 0.674591 0.667699 0.104074
O O1 0.569748 0.926886 0.789544
O O2 0.941823 0.966940 0.816823
O O3 0.937544 0.864456 0.954318
O O4 0.675730 0.954441 0.085247
O O5 0.748214 0.513589 0.376401
O O6 0.729027 0.633776 0.277515
O O7 0.979397 0.594168 0.524030
O O8 0.800217 0.158530 0.778027
O O9 0.733921 0.167322 0.091507
O O10 0.599672 0.063413 0.992503
O O11 0.699405 0.281962 0.234869
O O12 0.506895 0.250781 0.979791
O O13 0.138589 0.760469 0.881084
O O14 0.903352 0.661213 0.989883
#
# Coordination Sequence:
#
# PCOD9315034 Si02
#       7
#     4   4   4   4   4   4   4
#     4  10  24  48  72 102 146 189 243 307 378 441
#     4  10  23  45  69 104 144 186 243 306 371 443
#     4  10  24  42  71 106 135 197 250 301 367 459
#     4  10  23  41  68 103 145 190 248 314 367 450
#     4  11  26  43  72 104 146 195 248 303 387 453
#     4  10  23  45  75 102 141 186 243 303 373 449
#     4  11  27  46  65 105 151 191 237 320 373 453
#
# _framework density 26.915481
#
# number of rings (size 3 to 8) (size 9 to 14) (size 15 to 20)
#    0.000    1.714    0.000    2.571   16.000    6.857 
#    0.000    1.429    0.000    0.000    0.000    0.000 
#    0.000    0.000    0.000    0.000    0.000    0.000 
#
# Total GULP energy -156208.186155 kJ/mol
# GULP energy per Si atom -5578.863791 kJ/mol
# Density = 2.685422 g / cm^3
# Si number density = 26.915481 Si / 1000 Ang^3
#
#
#
# Elastic Constant Matrix: (Units=GPa)
#
#
# Indices 1 2 3 4 5 6 
#
# 1 96.2141 16.0898 17.0957 0.0000 0.0000 0.0000
# 2 16.0898 110.6014 25.5532 0.0000 0.0000 0.0000
# 3 17.0957 25.5532 77.3783 0.0000 0.0000 0.0000
# 4 0.0000 0.0000 0.0000 46.7662 0.0000 0.0000
# 5 0.0000 0.0000 0.0000 0.0000 47.2442 0.0000
# 6 0.0000 0.0000 0.0000 0.0000 0.0000 49.4066
#
#
#
# Elastic Compliance Matrix: (Units=1/GPa)
#
#
# Indices 1 2 3 4 5 6 
#
# 1 0.010945 -0.001119 -0.002049 0.000000 0.000000 0.000000
# 2 -0.001119 0.009903 -0.003023 0.000000 0.000000 0.000000
# 3 -0.002049 -0.003023 0.014374 0.000000 0.000000 0.000000
# 4 0.000000 0.000000 0.000000 0.021383 0.000000 0.000000
# 5 0.000000 0.000000 0.000000 0.000000 0.021167 0.000000
# 6 0.000000 0.000000 0.000000 0.000000 0.000000 0.020240
#
#
# Mechanical properties :
#
#
# Convention : Reuss Voigt Hill
#
# Bulk Modulus (GPa) = 43.78138 44.63014 44.20576
# Shear Modulus (GPa) = 42.37071 43.71374 43.04223
#
# Velocity S-wave (km/s) = 3.97194 4.03440 4.00329
# Velocity P-wave (km/s) = 6.11037 6.19027 6.15045
#
# Compressibility (1/GPa) = 0.02284076
#
# Stress axis : x y z
#
# Youngs Moduli (GPa) = 91.36933 100.98270 69.56792
#
# Poissons Ratio (x) = 0.11299 0.14252
# Poissons Ratio (y) = 0.10223 0.21031
# Poissons Ratio (z) = 0.18718 0.30527
#
# Static dielectric constant tensor:
#      x y z
#    x 2.244860 0.000000 0.000000 
#    y 0.000000 2.162600 0.000000 
#    z 0.000000 0.000000 2.213590 
# 
# From -- ./inp_files/2427.got.cif
#   From: 2010.05.17/outbox.cif.g08.bks.cpg/sg19_2_cif.got.tgz:2427.got - 2010.06.03 22:46:19.
