data_PCOD9315213
_publ_section_title
;
Structure prediction by ZEFSAII (Michael W. Deem and Ramdas Pophale) SiO2 
 PCOD9315213
Probable space group: P 21 21 21
;
_chemical_formula_sum "Si O2"
_cell_formula_units_Z 32
_cell_length_a 21.561648
_cell_length_b 5.122289
_cell_length_c 12.771880
_cell_angle_alpha 90.000000
_cell_angle_beta 90.000000
_cell_angle_gamma 90.000000
_cell_volume 1410.590189
_symmetry_space_group_name_H-M "P 21 21 21"
_symmetry_group_IT_number 19
_symmetry_cell_setting 'orthorhombic'
loop_
_space_group_symop_operation_xyz
x,y,z
1/2-x,-y,1/2+z
1/2+x,1/2-y,-z
-x,1/2+y,1/2-z
loop_
_atom_site_type_symbol
_atom_site_label
_atom_site_fract_x
_atom_site_fract_y
_atom_site_fract_z
Si Si1 0.862488 0.919626 0.315953
Si Si2 0.386405 0.503628 0.261731
Si Si3 0.596552 0.920594 0.587116
Si Si4 0.973028 0.835124 0.470480
Si Si5 0.333151 0.179096 0.091138
Si Si6 0.552561 0.298925 0.403941
Si Si7 0.701494 0.584167 0.898211
Si Si8 0.118132 0.000607 0.904075
O O1 0.883435 0.976593 0.198718
O O2 0.811954 0.129965 0.353701
O O3 0.921176 0.949696 0.394016
O O4 0.836727 0.628392 0.330277
O O5 0.337037 0.420536 0.171860
O O6 0.446141 0.601695 0.194150
O O7 0.366652 0.743038 0.335410
O O8 0.392979 0.245903 0.331004
O O9 0.535411 0.738538 0.591790
O O10 0.652511 0.777797 0.526165
O O11 0.574690 0.143890 0.506791
O O12 0.941418 0.586870 0.526852
O O13 0.994454 0.029494 0.561847
O O14 0.271684 0.012108 0.100363
O O15 0.392885 0.004921 0.119464
O O16 0.672566 0.564084 0.014408
#
# Coordination Sequence:
#
# PCOD9315213 Si02
#       8
#     4   4   4   4   4   4   4   4
#     4  11  27  46  72 107 136 185 236 279 362 412
#     4  11  23  46  69  97 140 176 238 271 352 414
#     4  10  25  43  73 104 139 184 233 286 350 416
#     4  10  25  44  71 100 149 174 234 288 347 417
#     4  10  24  48  68 103 142 180 238 290 344 412
#     4  10  23  47  68 105 136 184 225 291 339 414
#     4  11  27  46  71 100 144 181 233 297 339 419
#     4  11  24  46  68 104 136 186 227 286 353 412
#
# _framework density 22.68554
#
# number of rings (size 3 to 8) (size 9 to 14) (size 15 to 20)
#    0.000    1.500    1.250    1.500   14.000    2.000 
#    6.750    0.000    0.000    0.000    0.000    0.000 
#    0.000    0.000    0.000    0.000    0.000    0.000 
#
# Total GULP energy -179100.058350 kJ/mol
# GULP energy per Si atom -5596.876823 kJ/mol
# Density = 2.263391 g / cm^3
# Si number density = 22.685540 Si / 1000 Ang^3
#
#
#
# Elastic Constant Matrix: (Units=GPa)
#
#
# Indices 1 2 3 4 5 6 
#
# 1 54.6808 -6.7625 27.1194 0.0000 0.0000 0.0000
# 2 -6.7625 91.1204 31.5552 0.0000 0.0000 0.0000
# 3 27.1194 31.5552 124.8804 0.0000 0.0000 0.0000
# 4 0.0000 0.0000 0.0000 38.4360 0.0000 0.0000
# 5 0.0000 0.0000 0.0000 0.0000 11.7304 0.0000
# 6 0.0000 0.0000 0.0000 0.0000 0.0000 20.4116
#
#
#
# Elastic Compliance Matrix: (Units=1/GPa)
#
#
# Indices 1 2 3 4 5 6 
#
# 1 0.021477 0.003517 -0.005553 0.000000 0.000000 0.000000
# 2 0.003517 0.012603 -0.003948 0.000000 0.000000 0.000000
# 3 -0.005553 -0.003948 0.010211 0.000000 0.000000 0.000000
# 4 0.000000 0.000000 0.000000 0.026017 0.000000 0.000000
# 5 0.000000 0.000000 0.000000 0.000000 0.085248 0.000000
# 6 0.000000 0.000000 0.000000 0.000000 0.000000 0.048992
#
#
# Mechanical properties :
#
#
# Convention : Reuss Voigt Hill
#
# Bulk Modulus (GPa) = 30.93815 41.61176 36.27496
# Shear Modulus (GPa) = 21.99831 28.70025 25.34928
#
# Velocity S-wave (km/s) = 3.11739 3.56073 3.34641
# Velocity P-wave (km/s) = 5.15993 5.94035 5.56384
#
# Compressibility (1/GPa) = 0.03232255
#
# Stress axis : x y z
#
# Youngs Moduli (GPa) = 46.56201 79.34765 97.93242
#
# Poissons Ratio (x) = -0.27905 0.54378
# Poissons Ratio (y) = -0.16375 0.38666
# Poissons Ratio (z) = 0.25854 0.31328
#
# Static dielectric constant tensor:
#      x y z
#    x 1.851530 0.000000 0.000000 
#    y 0.000000 1.885630 0.000000 
#    z 0.000000 0.000000 1.812720 
# 
# From -- ./inp_files/5513.got.cif
#   From: 2010.05.17/outbox.cif.g08.bks.cpg/sg19_3_cif.got.tgz:5513.got - 2010.06.03 22:46:19.
