data_PCOD9315168
_publ_section_title
;
Structure prediction by ZEFSAII (Michael W. Deem and Ramdas Pophale) SiO2 
 PCOD9315168
Probable space group: P 21 21 21
;
_chemical_formula_sum "Si O2"
_cell_formula_units_Z 28
_cell_length_a 5.439710
_cell_length_b 18.062294
_cell_length_c 11.444139
_cell_angle_alpha 90.000000
_cell_angle_beta 90.000000
_cell_angle_gamma 90.000000
_cell_volume 1124.428328
_symmetry_space_group_name_H-M "P 21 21 21"
_symmetry_group_IT_number 19
_symmetry_cell_setting 'orthorhombic'
loop_
_space_group_symop_operation_xyz
x,y,z
1/2-x,-y,1/2+z
1/2+x,1/2-y,-z
-x,1/2+y,1/2-z
loop_
_atom_site_type_symbol
_atom_site_label
_atom_site_fract_x
_atom_site_fract_y
_atom_site_fract_z
Si Si1 0.724287 0.052164 0.050267
Si Si2 0.404886 0.915121 0.980228
Si Si3 0.607831 0.388810 0.138521
Si Si4 0.885266 0.484129 0.333236
Si Si5 0.047745 0.199706 0.300945
Si Si6 0.324910 0.143801 0.093335
Si Si7 0.974335 0.716181 0.842511
O O1 0.914095 0.071966 0.946972
O O2 0.617243 0.130035 0.100011
O O3 0.547310 0.991904 0.991840
O O4 0.832192 0.006772 0.160907
O O5 0.151223 0.934367 0.048289
O O6 0.489804 0.846634 0.059518
O O7 0.446549 0.883449 0.852151
O O8 0.763806 0.442297 0.224783
O O9 0.488758 0.328410 0.222027
O O10 0.780738 0.349121 0.043956
O O11 0.752983 0.561732 0.360903
O O12 0.153192 0.196694 0.168669
O O13 0.288864 0.233589 0.364904
O O14 0.790516 0.241645 0.327895
#
# Coordination Sequence:
#
# PCOD9315168 Si02
#       7
#     4   4   4   4   4   4   4
#     4  10  23  44  77 109 146 194 248 336 387 456
#     4  10  24  46  73 110 142 193 256 316 390 437
#     4  10  24  46  70 104 148 196 252 307 391 451
#     4   9  22  42  68 105 143 186 243 319 385 440
#     4  12  28  46  72 108 151 201 252 304 366 466
#     4  10  25  41  68 106 140 193 245 308 378 448
#     4  11  28  47  76 102 150 207 250 310 365 460
#
# _framework density 24.901541999999999
#
# number of rings (size 3 to 8) (size 9 to 14) (size 15 to 20)
#    0.000    1.714    0.000    0.857   18.000    3.429 
#    5.143    0.000    0.000    0.000    0.000    0.000 
#    0.000    0.000    0.000    0.000    0.000    0.000 
#
# Total GULP energy -156024.665561 kJ/mol
# GULP energy per Si atom -5572.309484 kJ/mol
# Density = 2.484487 g / cm^3
# Si number density = 24.901542 Si / 1000 Ang^3
#
#
#
# Elastic Constant Matrix: (Units=GPa)
#
#
# Indices 1 2 3 4 5 6 
#
# 1 93.8871 35.0939 19.2252 0.0000 0.0000 0.0000
# 2 35.0939 53.4227 15.5849 0.0000 0.0000 0.0000
# 3 19.2252 15.5849 108.5765 0.0000 0.0000 0.0000
# 4 0.0000 0.0000 0.0000 45.1862 0.0000 0.0000
# 5 0.0000 0.0000 0.0000 0.0000 20.7644 0.0000
# 6 0.0000 0.0000 0.0000 0.0000 0.0000 30.4423
#
#
#
# Elastic Compliance Matrix: (Units=1/GPa)
#
#
# Indices 1 2 3 4 5 6 
#
# 1 0.014274 -0.009017 -0.001233 0.000000 0.000000 0.000000
# 2 -0.009017 0.025233 -0.002025 0.000000 0.000000 0.000000
# 3 -0.001233 -0.002025 0.009719 0.000000 0.000000 0.000000
# 4 0.000000 0.000000 0.000000 0.022131 0.000000 0.000000
# 5 0.000000 0.000000 0.000000 0.000000 0.048159 0.000000
# 6 0.000000 0.000000 0.000000 0.000000 0.000000 0.032849
#
#
# Mechanical properties :
#
#
# Convention : Reuss Voigt Hill
#
# Bulk Modulus (GPa) = 40.52665 43.96604 42.24635
# Shear Modulus (GPa) = 27.00643 31.67739 29.34191
#
# Velocity S-wave (km/s) = 3.29679 3.57053 3.43639
# Velocity P-wave (km/s) = 5.54994 5.89003 5.72252
#
# Compressibility (1/GPa) = 0.02467512
#
# Stress axis : x y z
#
# Youngs Moduli (GPa) = 70.05718 39.63092 102.88960
#
# Poissons Ratio (x) = 0.35735 0.12688
# Poissons Ratio (y) = 0.63171 0.20838
# Poissons Ratio (z) = 0.08639 0.08026
#
# Static dielectric constant tensor:
#      x y z
#    x 2.310220 0.000000 0.000000 
#    y 0.000000 2.044190 0.000000 
#    z 0.000000 0.000000 2.125380 
# 
# From -- ./inp_files/4474.got.cif
#   From: 2010.05.17/outbox.cif.g08.bks.cpg/sg19_3_cif.got.tgz:4474.got - 2010.06.03 22:46:19.
