data_PCOD9315833
_publ_section_title
;
Structure prediction by ZEFSAII (Michael W. Deem and Ramdas Pophale) SiO2 
 PCOD9315833
Probable space group: P 21 21 21
;
_chemical_formula_sum "Si O2"
_cell_formula_units_Z 28
_cell_length_a 16.334314
_cell_length_b 12.222203
_cell_length_c 6.734366
_cell_angle_alpha 90.000000
_cell_angle_beta 90.000000
_cell_angle_gamma 90.000000
_cell_volume 1344.457594
_symmetry_space_group_name_H-M "P 21 21 21"
_symmetry_group_IT_number 19
_symmetry_cell_setting 'orthorhombic'
loop_
_space_group_symop_operation_xyz
x,y,z
1/2-x,-y,1/2+z
1/2+x,1/2-y,-z
-x,1/2+y,1/2-z
loop_
_atom_site_type_symbol
_atom_site_label
_atom_site_fract_x
_atom_site_fract_y
_atom_site_fract_z
Si Si1 0.139946 0.394197 0.465920
Si Si2 0.654923 0.599700 0.272695
Si Si3 0.769661 0.625316 0.616441
Si Si4 0.562917 0.921087 0.805666
Si Si5 0.295421 0.278079 0.542681
Si Si6 0.916516 0.716931 0.351174
Si Si7 0.532075 0.094874 0.145407
O O1 0.110715 0.500352 0.346384
O O2 0.237366 0.379369 0.483751
O O3 0.108903 0.289375 0.339249
O O4 0.098413 0.397484 0.680755
O O5 0.684837 0.613801 0.498076
O O6 0.699174 0.491696 0.190667
O O7 0.557844 0.587795 0.261958
O O8 0.683260 0.702993 0.144134
O O9 0.755553 0.705792 0.800324
O O10 0.836603 0.671037 0.461927
O O11 0.621422 0.820448 0.859548
O O12 0.478420 0.877771 0.714247
O O13 0.546754 0.991079 0.003842
O O14 0.960443 0.798598 0.505884
#
# Coordination Sequence:
#
# PCOD9315833 Si02
#       7
#     4   4   4   4   4   4   4
#     4  11  25  45  69 101 140 183 234 289 347 423
#     4  12  26  43  71 103 136 180 236 286 353 420
#     4  12  25  42  72 102 138 182 230 292 346 417
#     4  11  28  43  72 103 142 182 240 290 346 434
#     4  12  26  46  70 103 143 187 234 288 358 414
#     4  11  24  47  67 101 141 180 232 293 348 417
#     4  11  26  46  71 101 140 186 232 288 362 415
#
# _framework density 20.826243000000002
#
# number of rings (size 3 to 8) (size 9 to 14) (size 15 to 20)
#    0.000    0.571    4.286    2.571    6.000    6.857 
#    0.000    0.000    0.000    0.000    0.000    0.000 
#    0.000    0.000    0.000    0.000    0.000    0.000 
#
# Total GULP energy -156780.210309 kJ/mol
# GULP energy per Si atom -5599.293225 kJ/mol
# Density = 2.077884 g / cm^3
# Si number density = 20.826243 Si / 1000 Ang^3
#
#
#
# Elastic Constant Matrix: (Units=GPa)
#
#
# Indices 1 2 3 4 5 6 
#
# 1 60.8257 -9.2976 0.3547 0.0000 0.0000 0.0000
# 2 -9.2976 36.2529 5.5985 0.0000 0.0000 0.0000
# 3 0.3547 5.5985 82.8465 0.0000 0.0000 0.0000
# 4 0.0000 0.0000 0.0000 17.1193 0.0000 0.0000
# 5 0.0000 0.0000 0.0000 0.0000 34.1976 0.0000
# 6 0.0000 0.0000 0.0000 0.0000 0.0000 31.2842
#
#
#
# Elastic Compliance Matrix: (Units=1/GPa)
#
#
# Indices 1 2 3 4 5 6 
#
# 1 0.017123 0.004449 -0.000374 0.000000 0.000000 0.000000
# 2 0.004449 0.029031 -0.001981 0.000000 0.000000 0.000000
# 3 -0.000374 -0.001981 0.012206 0.000000 0.000000 0.000000
# 4 0.000000 0.000000 0.000000 0.058413 0.000000 0.000000
# 5 0.000000 0.000000 0.000000 0.000000 0.029242 0.000000
# 6 0.000000 0.000000 0.000000 0.000000 0.000000 0.031965
#
#
# Mechanical properties :
#
#
# Convention : Reuss Voigt Hill
#
# Bulk Modulus (GPa) = 15.98768 19.24847 17.61808
# Shear Modulus (GPa) = 25.68836 28.73819 27.21328
#
# Velocity S-wave (km/s) = 3.51588 3.71873 3.61873
# Velocity P-wave (km/s) = 4.91683 5.26319 5.09295
#
# Compressibility (1/GPa) = 0.06254816
#
# Stress axis : x y z
#
# Youngs Moduli (GPa) = 58.40210 34.44602 81.92707
#
# Poissons Ratio (x) = -0.15325 0.03064
# Poissons Ratio (y) = -0.25984 0.16229
# Poissons Ratio (z) = 0.02184 0.06823
#
# Static dielectric constant tensor:
#      x y z
#    x 1.727560 0.000000 0.000000 
#    y 0.000000 1.720000 0.000000 
#    z 0.000000 0.000000 1.722900 
# 
# From -- ./inp_files/1051.got.cif
#   From: 2010.05.17/outbox.cif.g08.bks.cpg/sg19_1_cif.got.tgz:1051.got - 2010.06.03 22:46:19.
