data_PCOD9315811
_publ_section_title
;
Structure prediction by ZEFSAII (Michael W. Deem and Ramdas Pophale) SiO2 
 PCOD9315811
Probable space group: P 21 21 21
;
_chemical_formula_sum "Si O2"
_cell_formula_units_Z 16
_cell_length_a 15.820869
_cell_length_b 6.716462
_cell_length_c 6.716487
_cell_angle_alpha 90.000000
_cell_angle_beta 90.000000
_cell_angle_gamma 90.000000
_cell_volume 713.695691
_symmetry_space_group_name_H-M "P 21 21 21"
_symmetry_group_IT_number 19
_symmetry_cell_setting 'orthorhombic'
loop_
_space_group_symop_operation_xyz
x,y,z
1/2-x,-y,1/2+z
1/2+x,1/2-y,-z
-x,1/2+y,1/2-z
loop_
_atom_site_type_symbol
_atom_site_label
_atom_site_fract_x
_atom_site_fract_y
_atom_site_fract_z
Si Si1 0.638486 0.552735 0.137272
Si Si2 0.312193 0.784936 0.706155
Si Si3 0.437807 0.043840 0.965060
Si Si4 0.611515 0.887268 0.802739
O O1 0.722092 0.613852 0.258389
O O2 0.564538 0.530089 0.297511
O O3 0.654718 0.355647 0.009046
O O4 0.625000 0.725612 0.975616
O O5 0.314537 0.547506 0.719906
O O6 0.375001 0.878675 0.871319
O O7 0.404717 0.259041 0.894348
O O8 0.527910 0.008387 0.863853
#
# Coordination Sequence:
#
# PCOD9315811 Si02
#       4
#     4   4   4   4
#     4  11  26  41  68  97 130 177 218 272 327 388
#     4  11  24  46  64  95 136 172 218 271 327 390
#     4  11  24  46  64  95 136 172 218 271 327 390
#     4  11  26  41  68  97 130 177 218 272 327 388
#
# _framework density 22.418517999999999
#
# number of rings (size 3 to 8) (size 9 to 14) (size 15 to 20)
#    0.000    1.000    5.000    0.000    7.000    2.000 
#    0.000    0.000    0.000    0.000    0.000    0.000 
#    0.000    0.000    0.000    0.000    0.000    0.000 
#
# Total GULP energy -89560.656102 kJ/mol
# GULP energy per Si atom -5597.541006 kJ/mol
# Density = 2.236749 g / cm^3
# Si number density = 22.418518 Si / 1000 Ang^3
#
#
#
# Elastic Constant Matrix: (Units=GPa)
#
#
# Indices 1 2 3 4 5 6 
#
# 1 21.0941 -11.5906 -11.5910 0.0000 0.0000 0.0000
# 2 -11.5906 78.5894 20.6256 0.0000 0.0000 0.0000
# 3 -11.5910 20.6256 78.5894 0.0000 0.0000 0.0000
# 4 0.0000 0.0000 0.0000 12.5735 0.0000 0.0000
# 5 0.0000 0.0000 0.0000 0.0000 33.1584 0.0000
# 6 0.0000 0.0000 0.0000 0.0000 0.0000 33.1580
#
#
#
# Elastic Compliance Matrix: (Units=1/GPa)
#
#
# Indices 1 2 3 4 5 6 
#
# 1 0.054389 0.006354 0.006354 0.000000 0.000000 0.000000
# 2 0.006354 0.014408 -0.002844 0.000000 0.000000 0.000000
# 3 0.006354 -0.002844 0.014408 0.000000 0.000000 0.000000
# 4 0.000000 0.000000 0.000000 0.079532 0.000000 0.000000
# 5 0.000000 0.000000 0.000000 0.000000 0.030158 0.000000
# 6 0.000000 0.000000 0.000000 0.000000 0.000000 0.030159
#
#
# Mechanical properties :
#
#
# Convention : Reuss Voigt Hill
#
# Bulk Modulus (GPa) = 9.71505 19.24011 14.47758
# Shear Modulus (GPa) = 21.04043 27.83325 24.43684
#
# Velocity S-wave (km/s) = 3.06687 3.52736 3.30514
# Velocity P-wave (km/s) = 4.10899 5.01902 4.58663
#
# Compressibility (1/GPa) = 0.10293308
#
# Stress axis : x y z
#
# Youngs Moduli (GPa) = 18.38592 69.40632 69.40590
#
# Poissons Ratio (x) = -0.44100 -0.44102
# Poissons Ratio (y) = -0.11682 0.19741
# Poissons Ratio (z) = -0.11683 0.19741
#
# Static dielectric constant tensor:
#      x y z
#    x 1.832980 0.000000 0.000000 
#    y 0.000000 1.817040 0.000000 
#    z 0.000000 0.000000 1.817040 
# 
# From -- ./inp_files/94.got.cif
#   From: 2010.05.17/outbox.cif.g08.bks.cpg/sg19_1_cif.got.tgz:94.got - 2010.06.03 22:46:19.
