data_PCOD9315888
_publ_section_title
;
Structure prediction by ZEFSAII (Michael W. Deem and Ramdas Pophale) SiO2 
 PCOD9315888
Probable space group: P 21 21 21
;
_chemical_formula_sum "Si O2"
_cell_formula_units_Z 16
_cell_length_a 5.918591
_cell_length_b 9.611191
_cell_length_c 10.284366
_cell_angle_alpha 90.000000
_cell_angle_beta 90.000000
_cell_angle_gamma 90.000000
_cell_volume 585.023163
_symmetry_space_group_name_H-M "P 21 21 21"
_symmetry_group_IT_number 19
_symmetry_cell_setting 'orthorhombic'
loop_
_space_group_symop_operation_xyz
x,y,z
1/2-x,-y,1/2+z
1/2+x,1/2-y,-z
-x,1/2+y,1/2-z
loop_
_atom_site_type_symbol
_atom_site_label
_atom_site_fract_x
_atom_site_fract_y
_atom_site_fract_z
Si Si1 0.622007 0.672848 0.500983
Si Si2 0.014446 0.472799 0.257414
Si Si3 0.962549 0.090908 0.637617
Si Si4 0.157471 0.721500 0.134112
O O1 0.869781 0.750095 0.498939
O O2 0.622880 0.588034 0.637257
O O3 0.595182 0.553422 0.389719
O O4 0.281430 0.439093 0.251951
O O5 0.022475 0.637850 0.243990
O O6 0.946653 0.376135 0.378346
O O7 0.093046 0.232690 0.670441
O O8 0.865528 0.132047 0.495099
#
# Coordination Sequence:
#
# PCOD9315888 Si02
#       4
#     4   4   4   4
#     4  11  28  49  75 114 155 196 260 320 374 464
#     4  11  26  44  74 108 147 209 248 314 394 450
#     4  11  25  45  75 106 156 197 258 316 388 448
#     4  11  25  46  72 106 150 200 258 314 380 466
#
# _framework density 27.349345
#
# number of rings (size 3 to 8) (size 9 to 14) (size 15 to 20)
#    0.000    1.000    2.500    1.500   14.000    0.000 
#    0.000    0.000    0.000    0.000    0.000    0.000 
#    0.000    0.000    0.000    0.000    0.000    0.000 
#
# Total GULP energy -89159.082242 kJ/mol
# GULP energy per Si atom -5572.442640 kJ/mol
# Density = 2.728710 g / cm^3
# Si number density = 27.349345 Si / 1000 Ang^3
#
#
#
# Elastic Constant Matrix: (Units=GPa)
#
#
# Indices 1 2 3 4 5 6 
#
# 1 95.1433 56.1810 5.2200 0.0000 0.0000 0.0000
# 2 56.1810 143.9086 18.0574 0.0000 0.0000 0.0000
# 3 5.2200 18.0574 52.2519 0.0000 0.0000 0.0000
# 4 0.0000 0.0000 0.0000 5.0897 0.0000 0.0000
# 5 0.0000 0.0000 0.0000 0.0000 43.8365 0.0000
# 6 0.0000 0.0000 0.0000 0.0000 0.0000 44.2712
#
#
#
# Elastic Compliance Matrix: (Units=1/GPa)
#
#
# Indices 1 2 3 4 5 6 
#
# 1 0.013672 -0.005400 0.000500 0.000000 0.000000 0.000000
# 2 -0.005400 0.009397 -0.002708 0.000000 0.000000 0.000000
# 3 0.000500 -0.002708 0.020024 0.000000 0.000000 0.000000
# 4 0.000000 0.000000 0.000000 0.196477 0.000000 0.000000
# 5 0.000000 0.000000 0.000000 0.000000 0.022812 0.000000
# 6 0.000000 0.000000 0.000000 0.000000 0.000000 0.022588
#
#
# Mechanical properties :
#
#
# Convention : Reuss Voigt Hill
#
# Bulk Modulus (GPa) = 35.87171 50.02448 42.94809
# Shear Modulus (GPa) = 16.15629 32.76251 24.45940
#
# Velocity S-wave (km/s) = 2.43315 3.46486 2.99378
# Velocity P-wave (km/s) = 4.58674 5.85983 5.26193
#
# Compressibility (1/GPa) = 0.02787712
#
# Stress axis : x y z
#
# Youngs Moduli (GPa) = 73.14364 106.41901 49.94036
#
# Poissons Ratio (x) = 0.57468 -0.02499
# Poissons Ratio (y) = 0.39499 0.13523
# Poissons Ratio (z) = -0.03660 0.28817
#
# Static dielectric constant tensor:
#      x y z
#    x 2.519610 0.000000 0.000000 
#    y 0.000000 2.124060 0.000000 
#    z 0.000000 0.000000 2.172000 
# 
# From -- ./inp_files/259.got.cif
#   From: 2010.05.17/outbox.cif.g08.bks.cpg/sg19_1_cif.got.tgz:259.got - 2010.06.03 22:46:19.
