data_PCOD9315596
_publ_section_title
;
Structure prediction by ZEFSAII (Michael W. Deem and Ramdas Pophale) SiO2 
 PCOD9315596
Probable space group: P 21 21 21
;
_chemical_formula_sum "Si O2"
_cell_formula_units_Z 32
_cell_length_a 13.699850
_cell_length_b 10.568750
_cell_length_c 10.664203
_cell_angle_alpha 90.000000
_cell_angle_beta 90.000000
_cell_angle_gamma 90.000000
_cell_volume 1544.073042
_symmetry_space_group_name_H-M "P 21 21 21"
_symmetry_group_IT_number 19
_symmetry_cell_setting 'orthorhombic'
loop_
_space_group_symop_operation_xyz
x,y,z
1/2-x,-y,1/2+z
1/2+x,1/2-y,-z
-x,1/2+y,1/2-z
loop_
_atom_site_type_symbol
_atom_site_label
_atom_site_fract_x
_atom_site_fract_y
_atom_site_fract_z
Si Si1 0.583802 0.701527 0.050669
Si Si2 0.024899 0.498343 0.147842
Si Si3 0.823400 0.030860 0.544578
Si Si4 0.419841 0.237627 0.733142
Si Si5 0.685902 0.489557 0.215370
Si Si6 0.794470 0.791180 0.700653
Si Si7 0.353644 0.670400 0.023960
Si Si8 0.161444 0.037604 0.494394
O O1 0.616136 0.844115 0.089956
O O2 0.623042 0.598049 0.147955
O O3 0.469573 0.673048 0.031650
O O4 0.619387 0.696420 0.905287
O O5 0.018788 0.632172 0.220473
O O6 0.989581 0.374714 0.220159
O O7 0.133910 0.502503 0.093932
O O8 0.951669 0.506509 0.028818
O O9 0.709725 0.071313 0.554436
O O10 0.835059 0.897394 0.610620
O O11 0.322068 0.267065 0.812137
O O12 0.650860 0.344500 0.197327
O O13 0.694493 0.507028 0.366423
O O14 0.782993 0.490056 0.129486
O O15 0.813613 0.846153 0.837207
O O16 0.325477 0.812042 0.985455
#
# Coordination Sequence:
#
# PCOD9315596 Si02
#       8
#     4   4   4   4   4   4   4   4
#     4  11  23  42  72  97 128 186 232 272 352 431
#     4  11  24  44  69 101 139 185 233 290 346 420
#     4  11  24  44  63  99 140 176 226 289 352 401
#     4  11  23  45  69  98 137 183 236 283 345 417
#     4  11  24  44  69 100 138 183 233 285 350 414
#     4  11  24  42  64  94 144 171 222 301 339 400
#     4  11  22  43  68  93 136 184 224 277 355 415
#     4  11  22  44  72 100 138 182 228 291 343 418
#
# _framework density 20.724406999999999
#
# number of rings (size 3 to 8) (size 9 to 14) (size 15 to 20)
#    0.000    1.000    7.500    0.750    3.500    1.000 
#    2.250    0.000    0.000    0.000    0.000    0.000 
#    0.000    0.000    0.000    0.000    0.000    0.000 
#
# Total GULP energy -178249.385237 kJ/mol
# GULP energy per Si atom -5570.293289 kJ/mol
# Density = 2.067724 g / cm^3
# Si number density = 20.724407 Si / 1000 Ang^3
#
#
#
# Elastic Constant Matrix: (Units=GPa)
#
#
# Indices 1 2 3 4 5 6 
#
# 1 95.8760 22.8685 11.0886 0.0000 0.0000 0.0000
# 2 22.8685 110.4689 46.8530 0.0000 0.0000 0.0000
# 3 11.0886 46.8530 43.3656 0.0000 0.0000 0.0000
# 4 0.0000 0.0000 0.0000 31.9997 0.0000 0.0000
# 5 0.0000 0.0000 0.0000 0.0000 27.0871 0.0000
# 6 0.0000 0.0000 0.0000 0.0000 0.0000 33.8891
#
#
#
# Elastic Compliance Matrix: (Units=1/GPa)
#
#
# Indices 1 2 3 4 5 6 
#
# 1 0.010982 -0.001998 -0.000649 0.000000 0.000000 0.000000
# 2 -0.001998 0.017072 -0.017934 0.000000 0.000000 0.000000
# 3 -0.000649 -0.017934 0.042603 0.000000 0.000000 0.000000
# 4 0.000000 0.000000 0.000000 0.031250 0.000000 0.000000
# 5 0.000000 0.000000 0.000000 0.000000 0.036918 0.000000
# 6 0.000000 0.000000 0.000000 0.000000 0.000000 0.029508
#
#
# Mechanical properties :
#
#
# Convention : Reuss Voigt Hill
#
# Bulk Modulus (GPa) = 33.90634 45.70341 39.80488
# Shear Modulus (GPa) = 22.79694 29.85523 26.32609
#
# Velocity S-wave (km/s) = 3.32023 3.79962 3.56798
# Velocity P-wave (km/s) = 5.57626 6.43042 6.01851
#
# Compressibility (1/GPa) = 0.02949301
#
# Stress axis : x y z
#
# Youngs Moduli (GPa) = 91.05979 58.57395 23.47279
#
# Poissons Ratio (x) = 0.11703 0.01525
# Poissons Ratio (y) = 0.18193 0.42097
# Poissons Ratio (z) = 0.05914 1.05049
#
# Static dielectric constant tensor:
#      x y z
#    x 1.865100 0.000000 0.000000 
#    y 0.000000 1.776290 0.000000 
#    z 0.000000 0.000000 1.781130 
# 
# From -- ./inp_files/5265.got.cif
#   From: 2010.05.17/outbox.cif.g08.bks.cpg/sg19_3_cif.got.tgz:5265.got - 2010.06.03 22:46:19.
