data_PCOD9315337
_publ_section_title
;
Structure prediction by ZEFSAII (Michael W. Deem and Ramdas Pophale) SiO2 
 PCOD9315337
Probable space group: P 21 21 21
;
_chemical_formula_sum "Si O2"
_cell_formula_units_Z 32
_cell_length_a 15.530343
_cell_length_b 10.648974
_cell_length_c 8.514730
_cell_angle_alpha 90.000000
_cell_angle_beta 90.000000
_cell_angle_gamma 90.000000
_cell_volume 1408.184940
_symmetry_space_group_name_H-M "P 21 21 21"
_symmetry_group_IT_number 19
_symmetry_cell_setting 'orthorhombic'
loop_
_space_group_symop_operation_xyz
x,y,z
1/2-x,-y,1/2+z
1/2+x,1/2-y,-z
-x,1/2+y,1/2-z
loop_
_atom_site_type_symbol
_atom_site_label
_atom_site_fract_x
_atom_site_fract_y
_atom_site_fract_z
Si Si1 0.248681 0.892820 0.320258
Si Si2 0.389254 0.738831 0.185704
Si Si3 0.459053 0.464621 0.679278
Si Si4 0.067675 0.789245 0.311981
Si Si5 0.673781 0.114303 0.629298
Si Si6 0.142280 0.503405 0.864246
Si Si7 0.424891 0.276807 0.175411
Si Si8 0.743750 0.343162 0.812593
O O1 0.332531 0.862339 0.216339
O O2 0.169073 0.802355 0.274624
O O3 0.267208 0.872666 0.503940
O O4 0.220886 0.035323 0.288279
O O5 0.351957 0.639222 0.311560
O O6 0.489241 0.754285 0.225153
O O7 0.371070 0.681361 0.016415
O O8 0.478265 0.319322 0.712067
O O9 0.529052 0.572109 0.709168
O O10 0.381939 0.503777 0.796146
O O11 0.425486 0.479948 0.502975
O O12 0.057012 0.748368 0.493220
O O13 0.766501 0.058666 0.582153
O O14 0.691331 0.220494 0.760860
O O15 0.109039 0.584041 0.715485
O O16 0.344405 0.188333 0.218766
#
# Coordination Sequence:
#
# PCOD9315337 Si02
#       8
#     4   4   4   4   4   4   4   4
#     4  11  24  42  72  97 148 180 245 285 365 414
#     4  12  24  42  70 100 134 190 225 290 346 425
#     4  12  26  44  74 103 145 182 239 295 353 421
#     4  11  26  47  67 107 141 185 234 297 355 422
#     4  11  24  43  69 100 138 181 241 279 358 412
#     4  11  23  44  71  97 138 180 235 284 353 417
#     4  10  25  45  68  99 139 181 234 286 354 420
#     4  10  24  45  69 103 139 189 231 300 346 433
#
# _framework density 22.724287
#
# number of rings (size 3 to 8) (size 9 to 14) (size 15 to 20)
#    0.000    1.000    1.250    4.500    5.250    3.000 
#    0.000    0.000    0.000    0.000    0.000    0.000 
#    0.000    0.000    0.000    0.000    0.000    0.000 
#
# Total GULP energy -179188.660569 kJ/mol
# GULP energy per Si atom -5599.645643 kJ/mol
# Density = 2.267257 g / cm^3
# Si number density = 22.724287 Si / 1000 Ang^3
#
#
#
# Elastic Constant Matrix: (Units=GPa)
#
#
# Indices 1 2 3 4 5 6 
#
# 1 63.7188 25.3756 18.6414 0.0000 0.0000 0.0000
# 2 25.3756 75.9614 9.0537 0.0000 0.0000 0.0000
# 3 18.6414 9.0537 45.5603 0.0000 0.0000 0.0000
# 4 0.0000 0.0000 0.0000 37.4939 0.0000 0.0000
# 5 0.0000 0.0000 0.0000 0.0000 20.7425 0.0000
# 6 0.0000 0.0000 0.0000 0.0000 0.0000 33.5509
#
#
#
# Elastic Compliance Matrix: (Units=1/GPa)
#
#
# Indices 1 2 3 4 5 6 
#
# 1 0.020097 -0.005873 -0.007056 0.000000 0.000000 0.000000
# 2 -0.005873 0.015200 -0.000618 0.000000 0.000000 0.000000
# 3 -0.007056 -0.000618 0.024959 0.000000 0.000000 0.000000
# 4 0.000000 0.000000 0.000000 0.026671 0.000000 0.000000
# 5 0.000000 0.000000 0.000000 0.000000 0.048210 0.000000
# 6 0.000000 0.000000 0.000000 0.000000 0.000000 0.029805
#
#
# Mechanical properties :
#
#
# Convention : Reuss Voigt Hill
#
# Bulk Modulus (GPa) = 30.15381 32.37575 31.26478
# Shear Modulus (GPa) = 24.61977 27.16878 25.89427
#
# Velocity S-wave (km/s) = 3.29509 3.46147 3.37931
# Velocity P-wave (km/s) = 5.27021 5.50035 5.38651
#
# Compressibility (1/GPa) = 0.03316331
#
# Stress axis : x y z
#
# Youngs Moduli (GPa) = 49.75895 65.78955 40.06632
#
# Poissons Ratio (x) = 0.38635 0.28270
# Poissons Ratio (y) = 0.29221 0.02475
# Poissons Ratio (z) = 0.35109 0.04064
#
# Static dielectric constant tensor:
#      x y z
#    x 1.835380 0.000000 0.000000 
#    y 0.000000 1.826310 0.000000 
#    z 0.000000 0.000000 1.803400 
# 
# From -- ./inp_files/4004.got.cif
#   From: 2010.05.17/outbox.cif.g08.bks.cpg/sg19_3_cif.got.tgz:4004.got - 2010.06.03 22:46:19.
