data_PCOD9315277
_publ_section_title
;
Structure prediction by ZEFSAII (Michael W. Deem and Ramdas Pophale) SiO2 
 PCOD9315277
Probable space group: P 21 21 21
;
_chemical_formula_sum "Si O2"
_cell_formula_units_Z 20
_cell_length_a 9.008187
_cell_length_b 4.946462
_cell_length_c 17.575784
_cell_angle_alpha 90.000000
_cell_angle_beta 90.000000
_cell_angle_gamma 90.000000
_cell_volume 783.153290
_symmetry_space_group_name_H-M "P 21 21 21"
_symmetry_group_IT_number 19
_symmetry_cell_setting 'orthorhombic'
loop_
_space_group_symop_operation_xyz
x,y,z
1/2-x,-y,1/2+z
1/2+x,1/2-y,-z
-x,1/2+y,1/2-z
loop_
_atom_site_type_symbol
_atom_site_label
_atom_site_fract_x
_atom_site_fract_y
_atom_site_fract_z
Si Si1 0.253274 0.766267 0.977646
Si Si2 0.581311 0.178671 0.782381
Si Si3 0.542465 0.515643 0.430997
Si Si4 0.421459 0.368411 0.219036
Si Si5 0.994980 0.592960 0.444974
O O1 0.396072 0.659919 0.929307
O O2 0.126793 0.567982 0.943499
O O3 0.339594 0.768159 0.060858
O O4 0.134547 0.000922 0.998269
O O5 0.528996 0.432495 0.732666
O O6 0.748638 0.091466 0.764087
O O7 0.569583 0.281370 0.868894
O O8 0.562293 0.704724 0.359311
O O9 0.583627 0.679197 0.508535
O O10 0.506549 0.653363 0.221553
#
# Coordination Sequence:
#
# PCOD9315277 Si02
#       5
#     4   4   4   4   4
#     4  10  24  42  72 108 136 182 240 306 362 436
#     4  12  30  50  75 109 155 202 250 306 377 452
#     4  11  25  44  75 104 145 185 249 301 370 431
#     4  12  30  50  75 109 155 202 250 306 377 452
#     4  11  25  44  75 104 145 185 249 301 370 431
#
# _framework density 25.537787999999999
#
# number of rings (size 3 to 8) (size 9 to 14) (size 15 to 20)
#    0.000    0.800    2.000    2.400   16.800    0.000 
#    0.000    0.000    0.000    0.000    0.000    0.000 
#    0.000    0.000    0.000    0.000    0.000    0.000 
#
# Total GULP energy -111592.213038 kJ/mol
# GULP energy per Si atom -5579.610652 kJ/mol
# Density = 2.547966 g / cm^3
# Si number density = 25.537788 Si / 1000 Ang^3
#
#
#
# Elastic Constant Matrix: (Units=GPa)
#
#
# Indices 1 2 3 4 5 6 
#
# 1 115.6834 2.5940 -12.7944 0.0000 0.0000 0.0000
# 2 2.5940 55.8319 8.8083 0.0000 0.0000 0.0000
# 3 -12.7944 8.8083 58.8185 0.0000 0.0000 0.0000
# 4 0.0000 0.0000 0.0000 36.0137 0.0000 0.0000
# 5 0.0000 0.0000 0.0000 0.0000 28.2316 0.0000
# 6 0.0000 0.0000 0.0000 0.0000 0.0000 17.3608
#
#
#
# Elastic Compliance Matrix: (Units=1/GPa)
#
#
# Indices 1 2 3 4 5 6 
#
# 1 0.008887 -0.000735 0.002043 0.000000 0.000000 0.000000
# 2 -0.000735 0.018405 -0.002916 0.000000 0.000000 0.000000
# 3 0.002043 -0.002916 0.017883 0.000000 0.000000 0.000000
# 4 0.000000 0.000000 0.000000 0.027767 0.000000 0.000000
# 5 0.000000 0.000000 0.000000 0.000000 0.035421 0.000000
# 6 0.000000 0.000000 0.000000 0.000000 0.000000 0.057601
#
#
# Mechanical properties :
#
#
# Convention : Reuss Voigt Hill
#
# Bulk Modulus (GPa) = 23.83331 25.28326 24.55829
# Shear Modulus (GPa) = 27.29757 31.76961 29.53359
#
# Velocity S-wave (km/s) = 3.27296 3.53090 3.40437
# Velocity P-wave (km/s) = 4.86168 5.15217 5.00903
#
# Compressibility (1/GPa) = 0.04195808
#
# Stress axis : x y z
#
# Youngs Moduli (GPa) = 112.52716 54.33265 55.92027
#
# Poissons Ratio (x) = 0.03995 -0.11426
# Poissons Ratio (y) = 0.08273 0.16307
# Poissons Ratio (z) = -0.22991 0.15844
#
# Static dielectric constant tensor:
#      x y z
#    x 2.142780 0.000000 0.000000 
#    y 0.000000 2.103080 0.000000 
#    z 0.000000 0.000000 2.047830 
# 
# From -- ./inp_files/369.got.cif
#   From: 2010.05.17/outbox.cif.g08.bks.cpg/sg19_1_cif.got.tgz:369.got - 2010.06.03 22:46:19.
