data_PCOD9315387
_publ_section_title
;
Structure prediction by ZEFSAII (Michael W. Deem and Ramdas Pophale) SiO2 
 PCOD9315387
Probable space group: P 21 21 21
;
_chemical_formula_sum "Si O2"
_cell_formula_units_Z 20
_cell_length_a 9.867724
_cell_length_b 10.318239
_cell_length_c 6.632441
_cell_angle_alpha 90.000000
_cell_angle_beta 90.000000
_cell_angle_gamma 90.000000
_cell_volume 675.298791
_symmetry_space_group_name_H-M "P 21 21 21"
_symmetry_group_IT_number 19
_symmetry_cell_setting 'orthorhombic'
loop_
_space_group_symop_operation_xyz
x,y,z
1/2-x,-y,1/2+z
1/2+x,1/2-y,-z
-x,1/2+y,1/2-z
loop_
_atom_site_type_symbol
_atom_site_label
_atom_site_fract_x
_atom_site_fract_y
_atom_site_fract_z
Si Si1 0.020988 0.920639 0.194687
Si Si2 0.750000 0.913800 0.750001
Si Si3 0.664604 0.296075 0.554977
Si Si4 0.479013 0.920638 0.305314
Si Si5 0.335395 0.203925 0.054976
O O1 0.249999 0.163265 0.250000
O O2 0.886235 0.001368 0.252702
O O3 0.074337 0.000001 0.000000
O O4 0.969959 0.777763 0.132034
O O5 0.756623 0.819819 0.941847
O O6 0.743378 0.819819 0.558153
O O7 0.886234 0.998634 0.747302
O O8 0.620189 0.394124 0.379791
O O9 0.879808 0.394124 0.120211
O O10 0.530042 0.777761 0.367967
#
# Coordination Sequence:
#
# PCOD9315387 Si02
#       5
#     4   4   4   4   4
#     4  10  24  48  84 133 171 235 302 362 446 541
#     4  10  24  52  84 120 172 234 296 356 452 526
#     4  11  25  46  84 132 173 231 298 365 440 538
#     4  10  24  48  84 133 171 235 302 362 446 541
#     4  11  25  46  84 132 173 231 298 365 440 538
#
# _framework density 29.616519
#
# number of rings (size 3 to 8) (size 9 to 14) (size 15 to 20)
#    0.000    1.600    2.000    0.000    5.600    0.000 
#    0.000    0.000    0.000   52.800    5.200    0.000 
#    0.000    0.000    0.000    0.000    0.000    0.000 
#
# Total GULP energy -112469.937535 kJ/mol
# GULP energy per Si atom -5623.496877 kJ/mol
# Density = 2.954911 g / cm^3
# Si number density = 29.616519 Si / 1000 Ang^3
#
#
#
# Elastic Constant Matrix: (Units=GPa)
#
#
# Indices 1 2 3 4 5 6 
#
# 1 171.8469 110.9722 143.0643 0.0000 0.0000 0.0000
# 2 110.9722 148.1018 144.5442 0.0000 0.0000 0.0000
# 3 143.0643 144.5442 323.4770 0.0000 0.0000 0.0000
# 4 0.0000 0.0000 0.0000 114.0654 0.0000 0.0000
# 5 0.0000 0.0000 0.0000 0.0000 89.6204 0.0000
# 6 0.0000 0.0000 0.0000 0.0000 0.0000 73.8738
#
#
#
# Elastic Compliance Matrix: (Units=1/GPa)
#
#
# Indices 1 2 3 4 5 6 
#
# 1 0.012184 -0.006864 -0.002322 0.000000 0.000000 0.000000
# 2 -0.006864 0.015841 -0.004043 0.000000 0.000000 0.000000
# 3 -0.002322 -0.004043 0.005925 0.000000 0.000000 0.000000
# 4 0.000000 0.000000 0.000000 0.008767 0.000000 0.000000
# 5 0.000000 0.000000 0.000000 0.000000 0.011158 0.000000
# 6 0.000000 0.000000 0.000000 0.000000 0.000000 0.013537
#
#
# Mechanical properties :
#
#
# Convention : Reuss Voigt Hill
#
# Bulk Modulus (GPa) = 133.45113 160.06522 146.75817
# Shear Modulus (GPa) = 51.88577 71.83490 61.86034
#
# Velocity S-wave (km/s) = 4.19014 4.93028 4.57520
# Velocity P-wave (km/s) = 8.28053 9.30449 8.80740
#
# Compressibility (1/GPa) = 0.00749338
#
# Stress axis : x y z
#
# Youngs Moduli (GPa) = 82.07257 63.12871 168.78415
#
# Poissons Ratio (x) = 0.43330 0.39188
# Poissons Ratio (y) = 0.56332 0.68235
# Poissons Ratio (z) = 0.19055 0.25521
#
# Static dielectric constant tensor:
#      x y z
#    x 2.284120 0.000000 0.000000 
#    y 0.000000 2.280800 0.000000 
#    z 0.000000 0.000000 2.264590 
# 
# From -- ./inp_files/3332.got.cif
#   From: 2010.05.17/outbox.cif.g08.bks.cpg/sg19_2_cif.got.tgz:3332.got - 2010.06.03 22:46:19.
