data_PCOD9315358
_publ_section_title
;
Structure prediction by ZEFSAII (Michael W. Deem and Ramdas Pophale) SiO2 
 PCOD9315358
Probable space group: P 21 21 21
;
_chemical_formula_sum "Si O2"
_cell_formula_units_Z 24
_cell_length_a 4.939184
_cell_length_b 5.918132
_cell_length_c 29.716275
_cell_angle_alpha 90.000000
_cell_angle_beta 90.000000
_cell_angle_gamma 90.000000
_cell_volume 868.628794
_symmetry_space_group_name_H-M "P 21 21 21"
_symmetry_group_IT_number 19
_symmetry_cell_setting 'orthorhombic'
loop_
_space_group_symop_operation_xyz
x,y,z
1/2-x,-y,1/2+z
1/2+x,1/2-y,-z
-x,1/2+y,1/2-z
loop_
_atom_site_type_symbol
_atom_site_label
_atom_site_fract_x
_atom_site_fract_y
_atom_site_fract_z
Si Si1 0.625694 0.385774 0.761942
Si Si2 0.689311 0.374339 0.930486
Si Si3 0.525650 0.624479 0.013815
Si Si4 0.811099 0.625657 0.597137
Si Si5 0.024405 0.883230 0.819264
Si Si6 0.028985 0.877720 0.153085
O O1 0.485697 0.631163 0.748280
O O2 0.902156 0.403421 0.733059
O O3 0.629012 0.415794 0.815612
O O4 0.500126 0.171387 0.913165
O O5 0.588188 0.576324 0.898601
O O6 0.000686 0.328243 0.920515
O O7 0.627044 0.421663 0.982119
O O8 0.586049 0.577229 0.065573
O O9 0.215218 0.672964 0.003449
O O10 0.874343 0.584554 0.649086
O O11 0.218562 0.680101 0.837114
O O12 0.716409 0.826776 0.829582
#
# Coordination Sequence:
#
# PCOD9315358 Si02
#       6
#     4   4   4   4   4   4
#     4  10  24  46  72 104 142 186 236 292 354 420
#     4  12  24  41  65  95 130 170 222 280 344 414
#     4  12  24  42  64  90 128 172 222 278 344 416
#     4  12  24  41  65  95 130 170 222 280 344 414
#     4  11  24  43  67  97 134 177 225 278 344 416
#     4  11  24  43  67  97 134 177 225 278 344 416
#
# _framework density 27.629750000000001
#
# number of rings (size 3 to 8) (size 9 to 14) (size 15 to 20)
#    0.000    0.667    0.000    8.000    0.000    9.333 
#    0.000    0.000    0.000    0.000    0.000    0.000 
#    0.000    0.000    0.000    0.000    0.000    0.000 
#
# Total GULP energy -134480.081581 kJ/mol
# GULP energy per Si atom -5603.336733 kJ/mol
# Density = 2.756686 g / cm^3
# Si number density = 27.629750 Si / 1000 Ang^3
#
#
#
# Elastic Constant Matrix: (Units=GPa)
#
#
# Indices 1 2 3 4 5 6 
#
# 1 84.0767 39.1678 30.7064 0.0000 0.0000 0.0000
# 2 39.1678 99.1767 29.7515 0.0000 0.0000 0.0000
# 3 30.7064 29.7515 76.1847 0.0000 0.0000 0.0000
# 4 0.0000 0.0000 0.0000 68.4495 0.0000 0.0000
# 5 0.0000 0.0000 0.0000 0.0000 37.3152 0.0000
# 6 0.0000 0.0000 0.0000 0.0000 0.0000 57.6988
#
#
#
# Elastic Compliance Matrix: (Units=1/GPa)
#
#
# Indices 1 2 3 4 5 6 
#
# 1 0.015806 -0.004906 -0.004455 0.000000 0.000000 0.000000
# 2 -0.004906 0.012944 -0.003077 0.000000 0.000000 0.000000
# 3 -0.004455 -0.003077 0.016123 0.000000 0.000000 0.000000
# 4 0.000000 0.000000 0.000000 0.014609 0.000000 0.000000
# 5 0.000000 0.000000 0.000000 0.000000 0.026799 0.000000
# 6 0.000000 0.000000 0.000000 0.000000 0.000000 0.017331
#
#
# Mechanical properties :
#
#
# Convention : Reuss Voigt Hill
#
# Bulk Modulus (GPa) = 50.00792 50.96553 50.48673
# Shear Modulus (GPa) = 36.99450 43.34684 40.17067
#
# Velocity S-wave (km/s) = 3.66312 3.96516 3.81713
# Velocity P-wave (km/s) = 6.00249 6.28087 6.14325
#
# Compressibility (1/GPa) = 0.01999683
#
# Stress axis : x y z
#
# Youngs Moduli (GPa) = 63.26535 77.25754 62.02192
#
# Poissons Ratio (x) = 0.37903 0.27630
# Poissons Ratio (y) = 0.31038 0.19086
# Poissons Ratio (z) = 0.28184 0.23775
#
# Static dielectric constant tensor:
#      x y z
#    x 2.026680 0.000000 0.000000 
#    y 0.000000 2.225480 0.000000 
#    z 0.000000 0.000000 2.088730 
# 
# From -- ./inp_files/229.got.cif
#   From: 2010.05.17/outbox.cif.g08.bks.cpg/sg19_1_cif.got.tgz:229.got - 2010.06.03 22:46:19.
