data_PCOD9315708
_publ_section_title
;
Structure prediction by ZEFSAII (Michael W. Deem and Ramdas Pophale) SiO2 
 PCOD9315708
Probable space group: P 21 21 21
;
_chemical_formula_sum "Si O2"
_cell_formula_units_Z 32
_cell_length_a 13.320423
_cell_length_b 12.142333
_cell_length_c 9.432524
_cell_angle_alpha 90.000000
_cell_angle_beta 90.000000
_cell_angle_gamma 90.000000
_cell_volume 1525.625975
_symmetry_space_group_name_H-M "P 21 21 21"
_symmetry_group_IT_number 19
_symmetry_cell_setting 'orthorhombic'
loop_
_space_group_symop_operation_xyz
x,y,z
1/2-x,-y,1/2+z
1/2+x,1/2-y,-z
-x,1/2+y,1/2-z
loop_
_atom_site_type_symbol
_atom_site_label
_atom_site_fract_x
_atom_site_fract_y
_atom_site_fract_z
Si Si1 0.932919 0.120388 0.030262
Si Si2 0.379477 0.377066 0.642283
Si Si3 0.154643 0.818441 0.638717
Si Si4 0.341695 0.906461 0.468245
Si Si5 0.981368 0.997719 0.593886
Si Si6 0.862489 0.677969 0.834089
Si Si7 0.354282 0.571228 0.155490
Si Si8 0.673980 0.665713 0.030971
O O1 0.910040 0.131415 0.195265
O O2 0.865825 0.205812 0.942665
O O3 0.050245 0.144400 0.004151
O O4 0.904091 0.001177 0.967130
O O5 0.447306 0.466032 0.561156
O O6 0.264356 0.417417 0.635135
O O7 0.382577 0.257864 0.563608
O O8 0.254519 0.875805 0.577486
O O9 0.168478 0.799468 0.805586
O O10 0.059441 0.897432 0.606407
O O11 0.310814 0.859081 0.313648
O O12 0.358888 0.038073 0.469196
O O13 0.042234 0.100564 0.655695
O O14 0.885594 0.978994 0.693458
O O15 0.894128 0.804251 0.837685
O O16 0.785756 0.661962 0.963667
#
# Coordination Sequence:
#
# PCOD9315708 Si02
#       8
#     4   4   4   4   4   4   4   4
#     4  12  27  45  70 107 143 200 242 307 374 449
#     4  11  28  44  71 106 150 192 253 302 367 456
#     4  12  26  45  73 108 147 193 244 306 382 442
#     4  12  24  45  72 105 148 187 245 312 370 444
#     4  12  24  44  74 103 145 191 245 300 375 438
#     4  11  24  44  72 107 138 192 240 303 371 446
#     4  11  24  48  70 100 145 193 247 303 372 440
#     4  11  23  45  72 104 142 192 240 307 367 445
#
# _framework density 20.974996999999998
#
# number of rings (size 3 to 8) (size 9 to 14) (size 15 to 20)
#    0.000    0.500    3.750    3.750    5.250    4.000 
#    0.000    0.000    0.000    0.000    0.000    0.000 
#    0.000    0.000    0.000    0.000    0.000    0.000 
#
# Total GULP energy -179037.939142 kJ/mol
# GULP energy per Si atom -5594.935598 kJ/mol
# Density = 2.092726 g / cm^3
# Si number density = 20.974997 Si / 1000 Ang^3
#
#
#
# Elastic Constant Matrix: (Units=GPa)
#
#
# Indices 1 2 3 4 5 6 
#
# 1 49.0996 19.2111 29.2705 0.0000 0.0000 0.0000
# 2 19.2111 110.8650 68.2095 0.0000 0.0000 0.0000
# 3 29.2705 68.2095 165.2240 0.0000 0.0000 0.0000
# 4 0.0000 0.0000 0.0000 30.0520 0.0000 0.0000
# 5 0.0000 0.0000 0.0000 0.0000 29.0221 0.0000
# 6 0.0000 0.0000 0.0000 0.0000 0.0000 29.6045
#
#
#
# Elastic Compliance Matrix: (Units=1/GPa)
#
#
# Indices 1 2 3 4 5 6 
#
# 1 0.023095 -0.001990 -0.003270 0.000000 0.000000 0.000000
# 2 -0.001990 0.012263 -0.004710 0.000000 0.000000 0.000000
# 3 -0.003270 -0.004710 0.008576 0.000000 0.000000 0.000000
# 4 0.000000 0.000000 0.000000 0.033276 0.000000 0.000000
# 5 0.000000 0.000000 0.000000 0.000000 0.034457 0.000000
# 6 0.000000 0.000000 0.000000 0.000000 0.000000 0.033779
#
#
# Mechanical properties :
#
#
# Convention : Reuss Voigt Hill
#
# Bulk Modulus (GPa) = 41.67752 62.06342 51.87047
# Shear Modulus (GPa) = 28.83814 31.63555 30.23685
#
# Velocity S-wave (km/s) = 3.71196 3.88783 3.80092
# Velocity P-wave (km/s) = 6.18747 7.05742 6.63671
#
# Compressibility (1/GPa) = 0.02399375
#
# Stress axis : x y z
#
# Youngs Moduli (GPa) = 43.29988 81.54924 116.60477
#
# Poissons Ratio (x) = 0.16230 0.38127
# Poissons Ratio (y) = 0.08618 0.54918
# Poissons Ratio (z) = 0.14158 0.38408
#
# Static dielectric constant tensor:
#      x y z
#    x 1.741430 0.000000 0.000000 
#    y 0.000000 1.788260 0.000000 
#    z 0.000000 0.000000 1.729920 
# 
# From -- ./inp_files/3968.got.cif
#   From: 2010.05.17/outbox.cif.g08.bks.cpg/sg19_2_cif.got.tgz:3968.got - 2010.06.03 22:46:19.
