data_PCOD9315392
_publ_section_title
;
Structure prediction by ZEFSAII (Michael W. Deem and Ramdas Pophale) SiO2 
 PCOD9315392
Probable space group: P 21 21 21
;
_chemical_formula_sum "Si O2"
_cell_formula_units_Z 32
_cell_length_a 5.092541
_cell_length_b 12.634508
_cell_length_c 20.226932
_cell_angle_alpha 90.000000
_cell_angle_beta 90.000000
_cell_angle_gamma 90.000000
_cell_volume 1301.436202
_symmetry_space_group_name_H-M "P 21 21 21"
_symmetry_group_IT_number 19
_symmetry_cell_setting 'orthorhombic'
loop_
_space_group_symop_operation_xyz
x,y,z
1/2-x,-y,1/2+z
1/2+x,1/2-y,-z
-x,1/2+y,1/2-z
loop_
_atom_site_type_symbol
_atom_site_label
_atom_site_fract_x
_atom_site_fract_y
_atom_site_fract_z
Si Si1 0.904503 0.891674 0.356441
Si Si2 0.660417 0.278107 0.961237
Si Si3 0.201175 0.286704 0.274006
Si Si4 0.694462 0.545108 0.219025
Si Si5 0.809355 0.610842 0.831224
Si Si6 0.903818 0.929732 0.912634
Si Si7 0.445030 0.280267 0.471464
Si Si8 0.291728 0.982230 0.032619
O O1 0.957281 0.785741 0.398765
O O2 0.729668 0.844771 0.295751
O O3 0.808223 0.976473 0.411150
O O4 0.125158 0.959449 0.318950
O O5 0.782775 0.394566 0.951350
O O6 0.412155 0.285170 0.010422
O O7 0.189901 0.160877 0.268657
O O8 0.416649 0.325810 0.327071
O O9 0.914626 0.324039 0.294855
O O10 0.628512 0.494589 0.289160
O O11 0.470738 0.564656 0.165261
O O12 0.689680 0.577000 0.901419
O O13 0.883491 0.804200 0.927154
O O14 0.122282 0.964836 0.966493
O O15 0.150128 0.238529 0.467449
O O16 0.445600 0.408356 0.469787
#
# Coordination Sequence:
#
# PCOD9315392 Si02
#       8
#     4   4   4   4   4   4   4   4
#     4  11  25  46  73 106 146 197 255 303 372 452
#     4  12  27  45  71 104 145 193 245 308 372 445
#     4  11  26  46  74 104 146 195 250 300 377 441
#     4  11  25  45  74 103 147 196 245 311 365 450
#     4  11  26  46  67 108 143 190 244 310 367 443
#     4  11  23  44  73 104 144 193 245 301 371 445
#     4  10  25  40  66 104 141 183 236 299 363 431
#     4  11  25  46  70 105 148 189 246 306 375 433
#
# _framework density 24.588218000000001
#
# number of rings (size 3 to 8) (size 9 to 14) (size 15 to 20)
#    0.000    1.000    2.500    2.250    8.750    5.000 
#    0.000    0.000    0.000    0.000    0.000    0.000 
#    0.000    0.000    0.000    0.000    0.000    0.000 
#
# Total GULP energy -178251.824408 kJ/mol
# GULP energy per Si atom -5570.369513 kJ/mol
# Density = 2.453225 g / cm^3
# Si number density = 24.588218 Si / 1000 Ang^3
#
#
#
# Elastic Constant Matrix: (Units=GPa)
#
#
# Indices 1 2 3 4 5 6 
#
# 1 83.1268 19.5135 0.2094 0.0000 0.0000 0.0000
# 2 19.5135 146.1703 14.1988 0.0000 0.0000 0.0000
# 3 0.2094 14.1988 59.9649 0.0000 0.0000 0.0000
# 4 0.0000 0.0000 0.0000 51.4184 0.0000 0.0000
# 5 0.0000 0.0000 0.0000 0.0000 28.0834 0.0000
# 6 0.0000 0.0000 0.0000 0.0000 0.0000 22.6209
#
#
#
# Elastic Compliance Matrix: (Units=1/GPa)
#
#
# Indices 1 2 3 4 5 6 
#
# 1 0.012426 -0.001694 0.000358 0.000000 0.000000 0.000000
# 2 -0.001694 0.007233 -0.001707 0.000000 0.000000 0.000000
# 3 0.000358 -0.001707 0.017079 0.000000 0.000000 0.000000
# 4 0.000000 0.000000 0.000000 0.019448 0.000000 0.000000
# 5 0.000000 0.000000 0.000000 0.000000 0.035608 0.000000
# 6 0.000000 0.000000 0.000000 0.000000 0.000000 0.044207
#
#
# Mechanical properties :
#
#
# Convention : Reuss Voigt Hill
#
# Bulk Modulus (GPa) = 32.62282 39.67838 36.15060
# Shear Modulus (GPa) = 32.82866 37.44723 35.13795
#
# Velocity S-wave (km/s) = 3.65792 3.90676 3.78439
# Velocity P-wave (km/s) = 5.58005 6.04339 5.81634
#
# Compressibility (1/GPa) = 0.03065339
#
# Stress axis : x y z
#
# Youngs Moduli (GPa) = 80.47329 138.25081 58.55033
#
# Poissons Ratio (x) = 0.23415 -0.02094
# Poissons Ratio (y) = 0.13629 0.09993
# Poissons Ratio (z) = -0.02878 0.23597
#
# Static dielectric constant tensor:
#      x y z
#    x 2.101190 0.000000 0.000000 
#    y 0.000000 2.018700 0.000000 
#    z 0.000000 0.000000 2.268200 
# 
# From -- ./inp_files/6960.got.cif
#   From: 2010.05.17/outbox.cif.g08.bks.cpg/sg19_4_cif.got.tgz:6960.got - 2010.06.03 22:46:19.
