data_PCOD9315638
_publ_section_title
;
Structure prediction by ZEFSAII (Michael W. Deem and Ramdas Pophale) SiO2 
 PCOD9315638
Probable space group: P 21 21 21
;
_chemical_formula_sum "Si O2"
_cell_formula_units_Z 24
_cell_length_a 9.535718
_cell_length_b 15.191814
_cell_length_c 6.773554
_cell_angle_alpha 90.000000
_cell_angle_beta 90.000000
_cell_angle_gamma 90.000000
_cell_volume 981.249913
_symmetry_space_group_name_H-M "P 21 21 21"
_symmetry_group_IT_number 19
_symmetry_cell_setting 'orthorhombic'
loop_
_space_group_symop_operation_xyz
x,y,z
1/2-x,-y,1/2+z
1/2+x,1/2-y,-z
-x,1/2+y,1/2-z
loop_
_atom_site_type_symbol
_atom_site_label
_atom_site_fract_x
_atom_site_fract_y
_atom_site_fract_z
Si Si1 0.631161 0.021762 0.476407
Si Si2 0.097422 0.952780 0.286945
Si Si3 0.759154 0.260973 0.895067
Si Si4 0.691347 0.367998 0.525121
Si Si5 0.470822 0.843891 0.348785
Si Si6 0.610977 0.091273 0.072983
O O1 0.542338 0.937413 0.397000
O O2 0.788753 0.992714 0.525967
O O3 0.551302 0.045523 0.674838
O O4 0.620949 0.096199 0.309818
O O5 0.048375 0.918975 0.501756
O O6 0.156874 0.048838 0.335498
O O7 0.193458 0.900998 0.132625
O O8 0.735880 0.290217 0.670025
O O9 0.920802 0.231692 0.915481
O O10 0.674349 0.330460 0.031676
O O11 0.681426 0.171990 0.962407
O O12 0.562508 0.341373 0.383676
#
# Coordination Sequence:
#
# PCOD9315638 Si02
#       6
#     4   4   4   4   4   4
#     4  11  22  47  74 105 145 196 253 313 374 469
#     4  12  26  44  78 105 149 200 258 307 383 466
#     4  11  29  46  74 110 154 199 250 326 391 460
#     4  12  28  46  75 110 152 203 254 319 380 464
#     4  11  26  49  71 106 154 193 256 315 381 466
#     4  11  25  44  76 108 146 199 253 312 391 457
#
# _framework density 24.458603
#
# number of rings (size 3 to 8) (size 9 to 14) (size 15 to 20)
#    0.000    0.667    5.000    1.000    7.000    0.000 
#    0.000    0.000    0.000    0.000    0.000    0.000 
#    0.000    0.000    0.000    0.000    0.000    0.000 
#
# Total GULP energy -134237.796645 kJ/mol
# GULP energy per Si atom -5593.241527 kJ/mol
# Density = 2.440293 g / cm^3
# Si number density = 24.458603 Si / 1000 Ang^3
#
#
#
# Elastic Constant Matrix: (Units=GPa)
#
#
# Indices 1 2 3 4 5 6 
#
# 1 118.8503 19.0357 35.6295 0.0000 0.0000 0.0000
# 2 19.0357 42.4047 -0.9327 0.0000 0.0000 0.0000
# 3 35.6295 -0.9327 84.8756 0.0000 0.0000 0.0000
# 4 0.0000 0.0000 0.0000 44.5328 0.0000 0.0000
# 5 0.0000 0.0000 0.0000 0.0000 40.6016 0.0000
# 6 0.0000 0.0000 0.0000 0.0000 0.0000 19.8684
#
#
#
# Elastic Compliance Matrix: (Units=1/GPa)
#
#
# Indices 1 2 3 4 5 6 
#
# 1 0.010527 -0.004824 -0.004472 0.000000 0.000000 0.000000
# 2 -0.004824 0.025799 0.002309 0.000000 0.000000 0.000000
# 3 -0.004472 0.002309 0.013685 0.000000 0.000000 0.000000
# 4 0.000000 0.000000 0.000000 0.022455 0.000000 0.000000
# 5 0.000000 0.000000 0.000000 0.000000 0.024630 0.000000
# 6 0.000000 0.000000 0.000000 0.000000 0.000000 0.050331
#
#
# Mechanical properties :
#
#
# Convention : Reuss Voigt Hill
#
# Bulk Modulus (GPa) = 27.75068 39.28840 33.51954
# Shear Modulus (GPa) = 28.83273 33.82709 31.32991
#
# Velocity S-wave (km/s) = 3.43715 3.72295 3.58290
# Velocity P-wave (km/s) = 5.20793 5.88036 5.55433
#
# Compressibility (1/GPa) = 0.03603515
#
# Stress axis : x y z
#
# Youngs Moduli (GPa) = 94.99100 38.76170 73.07440
#
# Poissons Ratio (x) = 0.18699 0.32680
# Poissons Ratio (y) = 0.45825 -0.16870
# Poissons Ratio (z) = 0.42482 -0.08949
#
# Static dielectric constant tensor:
#      x y z
#    x 1.939250 0.000000 0.000000 
#    y 0.000000 2.276460 0.000000 
#    z 0.000000 0.000000 1.908370 
# 
# From -- ./inp_files/421.got.cif
#   From: 2010.05.17/outbox.cif.g08.bks.cpg/sg19_1_cif.got.tgz:421.got - 2010.06.03 22:46:19.
