data_PCOD9315926
_publ_section_title
;
Structure prediction by ZEFSAII (Michael W. Deem and Ramdas Pophale) SiO2 
 PCOD9315926
Probable space group: P 21 21 21
;
_chemical_formula_sum "Si O2"
_cell_formula_units_Z 16
_cell_length_a 6.606066
_cell_length_b 7.627948
_cell_length_c 11.755753
_cell_angle_alpha 90.000000
_cell_angle_beta 90.000000
_cell_angle_gamma 90.000000
_cell_volume 592.380951
_symmetry_space_group_name_H-M "P 21 21 21"
_symmetry_group_IT_number 19
_symmetry_cell_setting 'orthorhombic'
loop_
_space_group_symop_operation_xyz
x,y,z
1/2-x,-y,1/2+z
1/2+x,1/2-y,-z
-x,1/2+y,1/2-z
loop_
_atom_site_type_symbol
_atom_site_label
_atom_site_fract_x
_atom_site_fract_y
_atom_site_fract_z
Si Si1 0.506025 0.956057 0.490852
Si Si2 0.034918 0.134461 0.242160
Si Si3 0.173540 0.678592 0.911852
Si Si4 0.834801 0.676630 0.734048
O O1 0.383110 0.140102 0.475463
O O2 0.734448 0.026432 0.510718
O O3 0.439372 0.858740 0.605788
O O4 0.463903 0.838867 0.380604
O O5 0.152254 0.273369 0.320773
O O6 0.792644 0.148373 0.258071
O O7 0.153218 0.960732 0.279758
O O8 0.976219 0.631504 0.839507
#
# Coordination Sequence:
#
# PCOD9315926 Si02
#       4
#     4   4   4   4
#     4  11  26  46  78 106 156 200 254 312 392 441
#     4  11  25  50  73 115 148 197 255 320 373 456
#     4  11  26  49  74 113 152 207 249 320 379 467
#     4  11  27  49  79 114 154 198 260 318 380 462
#
# _framework density 27.009647999999999
#
# number of rings (size 3 to 8) (size 9 to 14) (size 15 to 20)
#    0.000    1.000    2.500    1.500   10.500    0.000 
#    4.500    0.000    0.000    0.000    0.000    0.000 
#    0.000    0.000    0.000    0.000    0.000    0.000 
#
# Total GULP energy -89638.107268 kJ/mol
# GULP energy per Si atom -5602.381704 kJ/mol
# Density = 2.694817 g / cm^3
# Si number density = 27.009648 Si / 1000 Ang^3
#
#
#
# Elastic Constant Matrix: (Units=GPa)
#
#
# Indices 1 2 3 4 5 6 
#
# 1 161.7524 53.7192 71.0432 0.0000 0.0000 0.0000
# 2 53.7192 74.5339 47.7252 0.0000 0.0000 0.0000
# 3 71.0432 47.7252 155.6381 0.0000 0.0000 0.0000
# 4 0.0000 0.0000 0.0000 40.9198 0.0000 0.0000
# 5 0.0000 0.0000 0.0000 0.0000 52.5027 0.0000
# 6 0.0000 0.0000 0.0000 0.0000 0.0000 45.9671
#
#
#
# Elastic Compliance Matrix: (Units=1/GPa)
#
#
# Indices 1 2 3 4 5 6 
#
# 1 0.008905 -0.004747 -0.002609 0.000000 0.000000 0.000000
# 2 -0.004747 0.019226 -0.003728 0.000000 0.000000 0.000000
# 3 -0.002609 -0.003728 0.008759 0.000000 0.000000 0.000000
# 4 0.000000 0.000000 0.000000 0.024438 0.000000 0.000000
# 5 0.000000 0.000000 0.000000 0.000000 0.019047 0.000000
# 6 0.000000 0.000000 0.000000 0.000000 0.000000 0.021755
#
#
# Mechanical properties :
#
#
# Convention : Reuss Voigt Hill
#
# Bulk Modulus (GPa) = 67.93349 81.87776 74.90563
# Shear Modulus (GPa) = 38.69800 42.50703 40.60252
#
# Velocity S-wave (km/s) = 3.78927 3.97138 3.88140
# Velocity P-wave (km/s) = 6.65965 7.17002 6.91954
#
# Compressibility (1/GPa) = 0.01472028
#
# Stress axis : x y z
#
# Youngs Moduli (GPa) = 112.29844 52.01368 114.16392
#
# Poissons Ratio (x) = 0.24693 0.29785
# Poissons Ratio (y) = 0.53313 0.42564
# Poissons Ratio (z) = 0.29298 0.19393
#
# Static dielectric constant tensor:
#      x y z
#    x 2.099230 0.000000 0.000000 
#    y 0.000000 2.286100 0.000000 
#    z 0.000000 0.000000 2.071630 
# 
# From -- ./inp_files/269.got.cif
#   From: 2010.05.17/outbox.cif.g08.bks.cpg/sg19_1_cif.got.tgz:269.got - 2010.06.03 22:46:19.
