data_PCOD9315460
_publ_section_title
;
Structure prediction by ZEFSAII (Michael W. Deem and Ramdas Pophale) SiO2 
 PCOD9315460
Probable space group: P 21 21 21
;
_chemical_formula_sum "Si O2"
_cell_formula_units_Z 28
_cell_length_a 17.879526
_cell_length_b 9.976134
_cell_length_c 6.807307
_cell_angle_alpha 90.000000
_cell_angle_beta 90.000000
_cell_angle_gamma 90.000000
_cell_volume 1214.209460
_symmetry_space_group_name_H-M "P 21 21 21"
_symmetry_group_IT_number 19
_symmetry_cell_setting 'orthorhombic'
loop_
_space_group_symop_operation_xyz
x,y,z
1/2-x,-y,1/2+z
1/2+x,1/2-y,-z
-x,1/2+y,1/2-z
loop_
_atom_site_type_symbol
_atom_site_label
_atom_site_fract_x
_atom_site_fract_y
_atom_site_fract_z
Si Si1 0.015648 0.638530 0.008514
Si Si2 0.151191 0.749949 0.824939
Si Si3 0.654207 0.099778 0.625382
Si Si4 0.277702 0.808591 0.126457
Si Si5 0.098483 0.021510 0.783738
Si Si6 0.237580 0.374058 0.008161
Si Si7 0.007271 0.946165 0.138159
O O1 0.995052 0.517545 0.153037
O O2 0.014249 0.783875 0.119938
O O3 0.098968 0.636640 0.918369
O O4 0.958180 0.617558 0.830391
O O5 0.205232 0.699800 0.655195
O O6 0.096245 0.863177 0.736966
O O7 0.201128 0.814397 0.002280
O O8 0.664535 0.244065 0.528936
O O9 0.663666 0.110966 0.859531
O O10 0.577504 0.032047 0.560254
O O11 0.724442 0.013759 0.549712
O O12 0.317668 0.936477 0.221922
O O13 0.270724 0.708390 0.309764
O O14 0.070294 0.018531 0.008154
#
# Coordination Sequence:
#
# PCOD9315460 Si02
#       7
#     4   4   4   4   4   4   4
#     4  11  25  47  69 103 144 183 239 293 358 432
#     4  10  26  45  68 107 137 187 232 295 356 430
#     4  11  22  41  65 101 130 179 229 287 346 422
#     4  11  24  43  68  98 141 177 238 284 354 424
#     4  11  26  46  70 100 139 189 233 289 360 435
#     4  11  23  39  70  99 138 176 228 291 356 411
#     4  11  26  43  70 100 141 185 239 287 362 420
#
# _framework density 23.060268000000001
#
# number of rings (size 3 to 8) (size 9 to 14) (size 15 to 20)
#    0.000    1.143    2.857    1.714    6.000    6.857 
#    0.000    0.000    0.000    0.000    0.000    0.000 
#    0.000    0.000    0.000    0.000    0.000    0.000 
#
# Total GULP energy -156280.512662 kJ/mol
# GULP energy per Si atom -5581.446881 kJ/mol
# Density = 2.300778 g / cm^3
# Si number density = 23.060268 Si / 1000 Ang^3
#
#
#
# Elastic Constant Matrix: (Units=GPa)
#
#
# Indices 1 2 3 4 5 6 
#
# 1 64.9549 -8.3141 11.4579 0.0000 0.0000 0.0000
# 2 -8.3141 58.4814 25.5818 0.0000 0.0000 0.0000
# 3 11.4579 25.5818 74.3886 0.0000 0.0000 0.0000
# 4 0.0000 0.0000 0.0000 34.1936 0.0000 0.0000
# 5 0.0000 0.0000 0.0000 0.0000 19.8096 0.0000
# 6 0.0000 0.0000 0.0000 0.0000 0.0000 33.0821
#
#
#
# Elastic Compliance Matrix: (Units=1/GPa)
#
#
# Indices 1 2 3 4 5 6 
#
# 1 0.016620 0.004099 -0.003970 0.000000 0.000000 0.000000
# 2 0.004099 0.021138 -0.007901 0.000000 0.000000 0.000000
# 3 -0.003970 -0.007901 0.016771 0.000000 0.000000 0.000000
# 4 0.000000 0.000000 0.000000 0.029245 0.000000 0.000000
# 5 0.000000 0.000000 0.000000 0.000000 0.050481 0.000000
# 6 0.000000 0.000000 0.000000 0.000000 0.000000 0.030228
#
#
# Mechanical properties :
#
#
# Convention : Reuss Voigt Hill
#
# Bulk Modulus (GPa) = 25.64911 28.36401 27.00656
# Shear Modulus (GPa) = 25.90381 28.69035 27.29708
#
# Velocity S-wave (km/s) = 3.35522 3.53107 3.44427
# Velocity P-wave (km/s) = 5.11437 5.38064 5.24919
#
# Compressibility (1/GPa) = 0.03898770
#
# Stress axis : x y z
#
# Youngs Moduli (GPa) = 60.16759 47.30741 59.62533
#
# Poissons Ratio (x) = -0.19393 0.23670
# Poissons Ratio (y) = -0.24665 0.47109
# Poissons Ratio (z) = 0.23885 0.37376
#
# Static dielectric constant tensor:
#      x y z
#    x 1.906350 0.000000 0.000000 
#    y 0.000000 1.925880 0.000000 
#    z 0.000000 0.000000 1.844550 
# 
# From -- ./inp_files/1745.got.cif
#   From: 2010.05.17/outbox.cif.g08.bks.cpg/sg19_1_cif.got.tgz:1745.got - 2010.06.03 22:46:19.
