data_PCOD9315362
_publ_section_title
;
Structure prediction by ZEFSAII (Michael W. Deem and Ramdas Pophale) SiO2 
 PCOD9315362
Probable space group: P 21 21 21
;
_chemical_formula_sum "Si O2"
_cell_formula_units_Z 20
_cell_length_a 5.943985
_cell_length_b 19.330277
_cell_length_c 7.148432
_cell_angle_alpha 90.000000
_cell_angle_beta 90.000000
_cell_angle_gamma 90.000000
_cell_volume 821.346806
_symmetry_space_group_name_H-M "P 21 21 21"
_symmetry_group_IT_number 19
_symmetry_cell_setting 'orthorhombic'
loop_
_space_group_symop_operation_xyz
x,y,z
1/2-x,-y,1/2+z
1/2+x,1/2-y,-z
-x,1/2+y,1/2-z
loop_
_atom_site_type_symbol
_atom_site_label
_atom_site_fract_x
_atom_site_fract_y
_atom_site_fract_z
Si Si1 0.998167 0.728643 0.784009
Si Si2 0.997972 0.228619 0.284047
Si Si3 0.999989 0.960994 0.500101
Si Si4 0.894156 0.075713 0.799739
Si Si5 0.394183 0.924302 0.700410
O O1 0.750098 0.750023 0.707150
O O2 0.250108 0.750011 0.711020
O O3 0.995320 0.645179 0.772380
O O4 0.000108 0.752929 0.999992
O O5 0.995206 0.145155 0.272499
O O6 0.105623 0.014830 0.350789
O O7 0.894321 0.014841 0.649366
O O8 0.140900 0.912065 0.635189
O O9 0.859096 0.912051 0.365040
O O10 0.000030 0.054758 0.000052
#
# Coordination Sequence:
#
# PCOD9315362 Si02
#       5
#     4   4   4   4   4
#     4  10  24  46  74 106 145 196 252 314 372 437
#     4  10  24  46  74 106 145 196 252 314 372 437
#     4  12  26  46  70 114 146 196 246 314 380 446
#     4  12  26  45  74 106 149 193 249 308 376 452
#     4  12  26  45  74 106 149 193 249 308 376 452
#
# _framework density 24.350249999999999
#
# number of rings (size 3 to 8) (size 9 to 14) (size 15 to 20)
#    0.000    0.800    6.000    0.000    5.600    1.600 
#    7.200    0.000    0.000    0.000    0.000    0.000 
#    0.000    0.000    0.000    0.000    0.000    0.000 
#
# Total GULP energy -111374.971853 kJ/mol
# GULP energy per Si atom -5568.748593 kJ/mol
# Density = 2.429483 g / cm^3
# Si number density = 24.350250 Si / 1000 Ang^3
#
#
#
# Elastic Constant Matrix: (Units=GPa)
#
#
# Indices 1 2 3 4 5 6 
#
# 1 158.1522 45.7679 17.4763 0.0000 0.0000 0.0000
# 2 45.7679 82.1571 -9.6213 0.0000 0.0000 0.0000
# 3 17.4763 -9.6213 107.4200 0.0000 0.0000 0.0000
# 4 0.0000 0.0000 0.0000 105.7337 0.0000 0.0000
# 5 0.0000 0.0000 0.0000 0.0000 -10.1983 0.0000
# 6 0.0000 0.0000 0.0000 0.0000 0.0000 35.6423
#
#
#
# Elastic Compliance Matrix: (Units=1/GPa)
#
#
# Indices 1 2 3 4 5 6 
#
# 1 0.007828 -0.004558 -0.001682 0.000000 0.000000 0.000000
# 2 -0.004558 0.014954 0.002081 0.000000 0.000000 0.000000
# 3 -0.001682 0.002081 0.009769 0.000000 0.000000 0.000000
# 4 0.000000 0.000000 0.000000 0.009458 0.000000 0.000000
# 5 0.000000 0.000000 0.000000 0.000000 -0.098055 0.000000
# 6 0.000000 0.000000 0.000000 0.000000 0.000000 0.028057
#
#
# Mechanical properties :
#
#
# Convention : Reuss Voigt Hill
#
# Bulk Modulus (GPa) = 41.26336 50.55282 45.90809
# Shear Modulus (GPa) = -431.23964 45.84261 -192.69851
#
# Velocity S-wave (km/s) = -13.32228 4.34364 -8.90550
# Velocity P-wave (km/s) = 14.82099 6.77953 9.31932
#
# Compressibility (1/GPa) = 0.02423458
#
# Stress axis : x y z
#
# Youngs Moduli (GPa) = 127.74978 66.86969 102.36216
#
# Poissons Ratio (x) = 0.30477 0.17215
# Poissons Ratio (y) = 0.58224 -0.21301
# Poissons Ratio (z) = 0.21484 -0.13915
#
# Static dielectric constant tensor:
#      x y z
#    x 2.361470 0.000000 0.000000 
#    y 0.000000 1.853930 0.000000 
#    z 0.000000 0.000000 1.908510 
# 
# From -- ./inp_files/2395.got.cif
#   From: 2010.05.17/outbox.cif.g08.bks.cpg/sg19_2_cif.got.tgz:2395.got - 2010.06.03 22:46:19.
