data_PCOD9315010
_publ_section_title
;
Structure prediction by ZEFSAII (Michael W. Deem and Ramdas Pophale) SiO2 
 PCOD9315010
Probable space group: P 21 21 21
;
_chemical_formula_sum "Si O2"
_cell_formula_units_Z 20
_cell_length_a 8.405378
_cell_length_b 20.395196
_cell_length_c 4.894492
_cell_angle_alpha 90.000000
_cell_angle_beta 90.000000
_cell_angle_gamma 90.000000
_cell_volume 839.059493
_symmetry_space_group_name_H-M "P 21 21 21"
_symmetry_group_IT_number 19
_symmetry_cell_setting 'orthorhombic'
loop_
_space_group_symop_operation_xyz
x,y,z
1/2-x,-y,1/2+z
1/2+x,1/2-y,-z
-x,1/2+y,1/2-z
loop_
_atom_site_type_symbol
_atom_site_label
_atom_site_fract_x
_atom_site_fract_y
_atom_site_fract_z
Si Si1 0.669121 0.029583 0.726546
Si Si2 0.030394 0.236338 0.740904
Si Si3 0.066096 0.157466 0.224969
Si Si4 0.743778 0.164420 0.978818
Si Si5 0.166142 0.022716 0.439094
O O1 0.691075 0.106893 0.779315
O O2 0.797691 0.992548 0.919030
O O3 0.497838 0.008622 0.837765
O O4 0.055698 0.219331 0.427722
O O5 0.101831 0.303838 0.848329
O O6 0.848407 0.220215 0.821961
O O7 0.119354 0.181001 0.926647
O O8 0.882070 0.136061 0.178011
O O9 0.161245 0.098889 0.357894
O O10 0.197627 0.011314 0.756655
#
# Coordination Sequence:
#
# PCOD9315010 Si02
#       5
#     4   4   4   4   4
#     4  12  24  45  73 100 138 186 225 280 349 411
#     4  10  23  40  67  95 127 177 221 271 341 385
#     4  10  23  43  63  91 141 167 218 280 331 403
#     4  10  25  42  71  94 136 174 228 276 336 411
#     4  12  25  44  68 106 136 180 226 287 339 404
#
# _framework density 23.836212
#
# number of rings (size 3 to 8) (size 9 to 14) (size 15 to 20)
#    1.200    0.000    2.000    3.600    2.800    3.200 
#    0.000    0.000    0.000    0.000    0.000    0.000 
#    0.000    0.000    0.000    0.000    0.000    0.000 
#
# Total GULP energy -111776.477702 kJ/mol
# GULP energy per Si atom -5588.823885 kJ/mol
# Density = 2.378196 g / cm^3
# Si number density = 23.836212 Si / 1000 Ang^3
#
#
#
# Elastic Constant Matrix: (Units=GPa)
#
#
# Indices 1 2 3 4 5 6 
#
# 1 60.1412 11.7700 -3.8931 0.0000 0.0000 0.0000
# 2 11.7700 46.1955 -11.7437 0.0000 0.0000 0.0000
# 3 -3.8931 -11.7437 80.5863 0.0000 0.0000 0.0000
# 4 0.0000 0.0000 0.0000 31.8776 0.0000 0.0000
# 5 0.0000 0.0000 0.0000 0.0000 34.2499 0.0000
# 6 0.0000 0.0000 0.0000 0.0000 0.0000 41.3184
#
#
#
# Elastic Compliance Matrix: (Units=1/GPa)
#
#
# Indices 1 2 3 4 5 6 
#
# 1 0.017503 -0.004408 0.000203 0.000000 0.000000 0.000000
# 2 -0.004408 0.023590 0.003225 0.000000 0.000000 0.000000
# 3 0.000203 0.003225 0.012889 0.000000 0.000000 0.000000
# 4 0.000000 0.000000 0.000000 0.031370 0.000000 0.000000
# 5 0.000000 0.000000 0.000000 0.000000 0.029197 0.000000
# 6 0.000000 0.000000 0.000000 0.000000 0.000000 0.024202
#
#
# Mechanical properties :
#
#
# Convention : Reuss Voigt Hill
#
# Bulk Modulus (GPa) = 19.22254 19.90993 19.56623
# Shear Modulus (GPa) = 31.63509 34.20850 32.92179
#
# Velocity S-wave (km/s) = 3.64701 3.79244 3.72044
# Velocity P-wave (km/s) = 5.08096 5.24860 5.16546
#
# Compressibility (1/GPa) = 0.05202227
#
# Stress axis : x y z
#
# Youngs Moduli (GPa) = 57.13184 42.39079 77.58670
#
# Poissons Ratio (x) = 0.18686 -0.01577
# Poissons Ratio (y) = 0.25184 -0.25020
# Poissons Ratio (z) = -0.01161 -0.13670
#
# Static dielectric constant tensor:
#      x y z
#    x 1.923640 0.000000 0.000000 
#    y 0.000000 1.924420 0.000000 
#    z 0.000000 0.000000 1.851900 
# 
# From -- ./inp_files/395.got.cif
#   From: 2010.05.17/outbox.cif.g08.bks.cpg/sg19_1_cif.got.tgz:395.got - 2010.06.03 22:46:19.
