data_PCOD9315655
_publ_section_title
;
Structure prediction by ZEFSAII (Michael W. Deem and Ramdas Pophale) SiO2 
 PCOD9315655
Probable space group: P 21 21 21
;
_chemical_formula_sum "Si O2"
_cell_formula_units_Z 32
_cell_length_a 7.773151
_cell_length_b 9.229566
_cell_length_c 16.810559
_cell_angle_alpha 90.000000
_cell_angle_beta 90.000000
_cell_angle_gamma 90.000000
_cell_volume 1206.036743
_symmetry_space_group_name_H-M "P 21 21 21"
_symmetry_group_IT_number 19
_symmetry_cell_setting 'orthorhombic'
loop_
_space_group_symop_operation_xyz
x,y,z
1/2-x,-y,1/2+z
1/2+x,1/2-y,-z
-x,1/2+y,1/2-z
loop_
_atom_site_type_symbol
_atom_site_label
_atom_site_fract_x
_atom_site_fract_y
_atom_site_fract_z
Si Si1 0.028057 0.155778 0.170206
Si Si2 0.500719 0.269163 0.580407
Si Si3 0.113556 0.898283 0.924428
Si Si4 0.002759 0.765702 0.762728
Si Si5 0.863127 0.388208 0.261760
Si Si6 0.335825 0.492748 0.323949
Si Si7 0.892324 0.973004 0.504585
Si Si8 0.230040 0.165750 0.005492
O O1 0.975026 0.318712 0.191306
O O2 0.129809 0.144635 0.088383
O O3 0.846704 0.070751 0.175459
O O4 0.133946 0.061520 0.234591
O O5 0.474305 0.165918 0.503922
O O6 0.692952 0.332831 0.581141
O O7 0.444346 0.181469 0.657895
O O8 0.381821 0.410822 0.565312
O O9 0.015362 0.854015 0.845025
O O10 0.133581 0.071200 0.938173
O O11 0.828727 0.671535 0.760126
O O12 0.149341 0.643112 0.764963
O O13 0.976994 0.884593 0.695277
O O14 0.373302 0.441112 0.412933
O O15 0.079839 0.899475 0.506716
O O16 0.764683 0.837631 0.507032
#
# Coordination Sequence:
#
# PCOD9315655 Si02
#       8
#     4   4   4   4   4   4   4   4
#     4  11  25  44  66  95 129 169 214 263 319 381
#     4  11  23  41  67  95 125 167 213 261 316 376
#     4  11  23  41  67  95 125 167 213 261 316 376
#     4  11  25  43  65  95 129 168 214 263 320 383
#     4  11  25  43  65  95 129 168 214 263 320 383
#     4  11  25  44  66  95 129 169 214 263 319 381
#     4  11  25  43  66  96 130 169 214 266 320 378
#     4  11  25  43  66  96 130 169 214 266 320 378
#
# _framework density 26.533186000000001
#
# number of rings (size 3 to 8) (size 9 to 14) (size 15 to 20)
#    0.000    1.000    2.500    3.000    3.500    7.000 
#    0.000    0.000    0.000    0.000    0.000    0.000 
#    0.000    0.000    0.000    0.000    0.000    0.000 
#
# Total GULP energy -179502.294379 kJ/mol
# GULP energy per Si atom -5609.446699 kJ/mol
# Density = 2.647280 g / cm^3
# Si number density = 26.533186 Si / 1000 Ang^3
#
#
#
# Elastic Constant Matrix: (Units=GPa)
#
#
# Indices 1 2 3 4 5 6 
#
# 1 80.0926 -2.8513 9.8769 0.0000 0.0000 0.0000
# 2 -2.8513 122.8079 10.6608 0.0000 0.0000 0.0000
# 3 9.8769 10.6608 59.9735 0.0000 0.0000 0.0000
# 4 0.0000 0.0000 0.0000 47.1551 0.0000 0.0000
# 5 0.0000 0.0000 0.0000 0.0000 20.1562 0.0000
# 6 0.0000 0.0000 0.0000 0.0000 0.0000 46.3180
#
#
#
# Elastic Compliance Matrix: (Units=1/GPa)
#
#
# Indices 1 2 3 4 5 6 
#
# 1 0.012773 0.000487 -0.002190 0.000000 0.000000 0.000000
# 2 0.000487 0.008289 -0.001554 0.000000 0.000000 0.000000
# 3 -0.002190 -0.001554 0.017311 0.000000 0.000000 0.000000
# 4 0.000000 0.000000 0.000000 0.021207 0.000000 0.000000
# 5 0.000000 0.000000 0.000000 0.000000 0.049612 0.000000
# 6 0.000000 0.000000 0.000000 0.000000 0.000000 0.021590
#
#
# Mechanical properties :
#
#
# Convention : Reuss Voigt Hill
#
# Bulk Modulus (GPa) = 31.38846 33.13853 32.26350
# Shear Modulus (GPa) = 33.80314 39.07171 36.43743
#
# Velocity S-wave (km/s) = 3.57318 3.84156 3.70980
# Velocity P-wave (km/s) = 5.37392 5.67392 5.52596
#
# Compressibility (1/GPa) = 0.03185884
#
# Stress axis : x y z
#
# Youngs Moduli (GPa) = 78.29050 120.64235 57.76721
#
# Poissons Ratio (x) = -0.05871 0.12651
# Poissons Ratio (y) = -0.03810 0.08975
# Poissons Ratio (z) = 0.17146 0.18743
#
# Static dielectric constant tensor:
#      x y z
#    x 2.093530 0.000000 0.000000 
#    y 0.000000 2.089230 0.000000 
#    z 0.000000 0.000000 2.036150 
# 
# From -- ./inp_files/6622.got.cif
#   From: 2010.05.17/outbox.cif.g08.bks.cpg/sg19_4_cif.got.tgz:6622.got - 2010.06.03 22:46:19.
