data_PCOD9315195
_publ_section_title
;
Structure prediction by ZEFSAII (Michael W. Deem and Ramdas Pophale) SiO2 
 PCOD9315195
Probable space group: P 21 21 21
;
_chemical_formula_sum "Si O2"
_cell_formula_units_Z 28
_cell_length_a 5.487660
_cell_length_b 13.859289
_cell_length_c 15.633492
_cell_angle_alpha 90.000000
_cell_angle_beta 90.000000
_cell_angle_gamma 90.000000
_cell_volume 1189.006264
_symmetry_space_group_name_H-M "P 21 21 21"
_symmetry_group_IT_number 19
_symmetry_cell_setting 'orthorhombic'
loop_
_space_group_symop_operation_xyz
x,y,z
1/2-x,-y,1/2+z
1/2+x,1/2-y,-z
-x,1/2+y,1/2-z
loop_
_atom_site_type_symbol
_atom_site_label
_atom_site_fract_x
_atom_site_fract_y
_atom_site_fract_z
Si Si1 0.190477 0.836877 0.211936
Si Si2 0.606992 0.005213 0.054998
Si Si3 0.082026 0.789221 0.532257
Si Si4 0.786868 0.771420 0.291011
Si Si5 0.091768 0.895640 0.032870
Si Si6 0.936135 0.017734 0.751622
Si Si7 0.549987 0.671129 0.151216
O O1 0.032385 0.850232 0.125627
O O2 0.290816 0.941245 0.237418
O O3 0.389497 0.762333 0.178413
O O4 0.073656 0.789930 0.296010
O O5 0.529244 0.106116 0.015195
O O6 0.365584 0.938843 0.041551
O O7 0.645183 0.015594 0.157413
O O8 0.862763 0.967091 0.018699
O O9 0.352398 0.778304 0.491914
O O10 0.144148 0.773641 0.631599
O O11 0.698643 0.882626 0.277317
O O12 0.776024 0.694850 0.212838
O O13 0.096136 0.828929 0.949335
O O14 0.935896 0.930088 0.817665
#
# Coordination Sequence:
#
# PCOD9315195 Si02
#       7
#     4   4   4   4   4   4   4
#     4  10  25  43  72 104 148 189 242 309 362 436
#     4  11  24  49  69 104 147 193 239 299 366 423
#     4  12  29  47  73 104 148 190 247 304 359 431
#     4  11  25  46  71 105 141 189 240 299 365 435
#     4  11  26  45  74 107 148 189 242 303 366 434
#     4  10  23  46  67 101 141 191 239 294 358 439
#     4  11  26  42  74 105 143 191 243 294 372 434
#
# _framework density 23.549077
#
# number of rings (size 3 to 8) (size 9 to 14) (size 15 to 20)
#    0.000    1.143    2.857    0.857   12.000    2.286 
#    0.000    0.000    0.000    0.000    0.000    0.000 
#    0.000    0.000    0.000    0.000    0.000    0.000 
#
# Total GULP energy -156164.321894 kJ/mol
# GULP energy per Si atom -5577.297210 kJ/mol
# Density = 2.349548 g / cm^3
# Si number density = 23.549077 Si / 1000 Ang^3
#
#
#
# Elastic Constant Matrix: (Units=GPa)
#
#
# Indices 1 2 3 4 5 6 
#
# 1 46.3122 -2.6597 31.9895 0.0000 0.0000 0.0000
# 2 -2.6597 66.1750 3.7732 0.0000 0.0000 0.0000
# 3 31.9895 3.7732 42.0297 0.0000 0.0000 0.0000
# 4 0.0000 0.0000 0.0000 26.9402 0.0000 0.0000
# 5 0.0000 0.0000 0.0000 0.0000 22.3678 0.0000
# 6 0.0000 0.0000 0.0000 0.0000 0.0000 -0.4784
#
#
#
# Elastic Compliance Matrix: (Units=1/GPa)
#
#
# Indices 1 2 3 4 5 6 
#
# 1 0.046512 0.003908 -0.035752 0.000000 0.000000 0.000000
# 2 0.003908 0.015518 -0.004367 0.000000 0.000000 0.000000
# 3 -0.035752 -0.004367 0.051396 0.000000 0.000000 0.000000
# 4 0.000000 0.000000 0.000000 0.037119 0.000000 0.000000
# 5 0.000000 0.000000 0.000000 0.000000 0.044707 0.000000
# 6 0.000000 0.000000 0.000000 0.000000 0.000000 -2.090314
#
#
# Mechanical properties :
#
#
# Convention : Reuss Voigt Hill
#
# Bulk Modulus (GPa) = 24.38854 24.52476 24.45665
# Shear Modulus (GPa) = -2.76400 17.86020 7.54810
#
# Velocity S-wave (km/s) = -1.08456 2.75694 1.79227
# Velocity P-wave (km/s) = 2.96827 4.53555 3.83287
#
# Compressibility (1/GPa) = 0.04100287
#
# Stress axis : x y z
#
# Youngs Moduli (GPa) = 21.49974 64.44323 19.45672
#
# Poissons Ratio (x) = -0.25184 0.69562
# Poissons Ratio (y) = -0.08402 0.08498
# Poissons Ratio (z) = 0.76866 0.28145
#
# Static dielectric constant tensor:
#      x y z
#    x 2.099590 0.000000 0.000000 
#    y 0.000000 1.877150 0.000000 
#    z 0.000000 0.000000 2.325110 
# 
# From -- ./inp_files/5696.got.cif
#   From: 2010.05.17/outbox.cif.g08.bks.cpg/sg19_3_cif.got.tgz:5696.got - 2010.06.03 22:46:19.
