data_PCOD9315817
_publ_section_title
;
Structure prediction by ZEFSAII (Michael W. Deem and Ramdas Pophale) SiO2 
 PCOD9315817
Probable space group: P 21 21 21
;
_chemical_formula_sum "Si O2"
_cell_formula_units_Z 28
_cell_length_a 19.586986
_cell_length_b 10.122786
_cell_length_c 5.122937
_cell_angle_alpha 90.000000
_cell_angle_beta 90.000000
_cell_angle_gamma 90.000000
_cell_volume 1015.749656
_symmetry_space_group_name_H-M "P 21 21 21"
_symmetry_group_IT_number 19
_symmetry_cell_setting 'orthorhombic'
loop_
_space_group_symop_operation_xyz
x,y,z
1/2-x,-y,1/2+z
1/2+x,1/2-y,-z
-x,1/2+y,1/2-z
loop_
_atom_site_type_symbol
_atom_site_label
_atom_site_fract_x
_atom_site_fract_y
_atom_site_fract_z
Si Si1 0.787090 0.036035 0.497957
Si Si2 0.052791 0.117224 0.839335
Si Si3 0.235560 0.211638 0.415072
Si Si4 0.401097 0.632422 0.988770
Si Si5 0.074572 0.567533 0.903775
Si Si6 0.841478 0.457946 0.304311
Si Si7 0.962774 0.290882 0.225502
O O1 0.790467 0.175454 0.658671
O O2 0.865222 0.004968 0.420202
O O3 0.752645 0.945591 0.721914
O O4 0.997636 0.181017 0.040356
O O5 0.082850 0.247223 0.700749
O O6 0.110334 0.025466 0.970187
O O7 0.005503 0.035167 0.638743
O O8 0.170747 0.309032 0.402035
O O9 0.280566 0.144320 0.640647
O O10 0.200845 0.083167 0.294388
O O11 0.396263 0.494280 0.136693
O O12 0.470046 0.630776 0.818408
O O13 0.066556 0.713799 0.020003
O O14 0.898115 0.378002 0.137577
#
# Coordination Sequence:
#
# PCOD9315817 Si02
#       7
#     4   4   4   4   4   4   4
#     4  12  29  50  80 118 161 214 276 339 411 491
#     4  11  26  43  75 106 151 197 258 333 398 484
#     4  12  27  48  77 116 162 213 265 338 420 494
#     4  11  24  46  72 111 145 203 259 331 402 484
#     4  11  25  45  75 106 152 196 274 324 398 480
#     4  12  26  48  72 110 159 201 266 325 416 494
#     4  11  25  46  73 111 144 206 264 330 411 479
#
# _framework density 27.565849
#
# number of rings (size 3 to 8) (size 9 to 14) (size 15 to 20)
#    0.000    0.571    5.714    0.857    6.000    2.286 
#    0.000    0.000    0.000    0.000    0.000    0.000 
#    0.000    0.000    0.000    0.000    0.000    0.000 
#
# Total GULP energy -155876.301680 kJ/mol
# GULP energy per Si atom -5567.010774 kJ/mol
# Density = 2.750311 g / cm^3
# Si number density = 27.565849 Si / 1000 Ang^3
#
#
#
# Elastic Constant Matrix: (Units=GPa)
#
#
# Indices 1 2 3 4 5 6 
#
# 1 189.4929 57.2927 30.4849 0.0000 0.0000 0.0000
# 2 57.2927 115.1016 27.8667 0.0000 0.0000 0.0000
# 3 30.4849 27.8667 43.0885 0.0000 0.0000 0.0000
# 4 0.0000 0.0000 0.0000 44.3990 0.0000 0.0000
# 5 0.0000 0.0000 0.0000 0.0000 32.3214 0.0000
# 6 0.0000 0.0000 0.0000 0.0000 0.0000 76.0957
#
#
#
# Elastic Compliance Matrix: (Units=1/GPa)
#
#
# Indices 1 2 3 4 5 6 
#
# 1 0.006520 -0.002524 -0.002981 0.000000 0.000000 0.000000
# 2 -0.002524 0.011278 -0.005508 0.000000 0.000000 0.000000
# 3 -0.002981 -0.005508 0.028879 0.000000 0.000000 0.000000
# 4 0.000000 0.000000 0.000000 0.022523 0.000000 0.000000
# 5 0.000000 0.000000 0.000000 0.000000 0.030939 0.000000
# 6 0.000000 0.000000 0.000000 0.000000 0.000000 0.013141
#
#
# Mechanical properties :
#
#
# Convention : Reuss Voigt Hill
#
# Bulk Modulus (GPa) = 40.56507 64.33017 52.44762
# Shear Modulus (GPa) = 34.83782 46.03247 40.43514
#
# Velocity S-wave (km/s) = 3.55886 4.09089 3.83411
# Velocity P-wave (km/s) = 5.62449 6.76028 6.21837
#
# Compressibility (1/GPa) = 0.02465175
#
# Stress axis : x y z
#
# Youngs Moduli (GPa) = 153.37977 88.67059 34.62717
#
# Poissons Ratio (x) = 0.22377 0.10321
# Poissons Ratio (y) = 0.38708 0.19073
# Poissons Ratio (z) = 0.45716 0.48841
#
# Static dielectric constant tensor:
#      x y z
#    x 2.224660 0.000000 0.000000 
#    y 0.000000 2.228400 0.000000 
#    z 0.000000 0.000000 2.501040 
# 
# From -- ./inp_files/1747.got.cif
#   From: 2010.05.17/outbox.cif.g08.bks.cpg/sg19_1_cif.got.tgz:1747.got - 2010.06.03 22:46:19.
