data_PCOD9315714
_publ_section_title
;
Structure prediction by ZEFSAII (Michael W. Deem and Ramdas Pophale) SiO2 
 PCOD9315714
Probable space group: P 21 21 21
;
_chemical_formula_sum "Si O2"
_cell_formula_units_Z 32
_cell_length_a 17.015556
_cell_length_b 5.947279
_cell_length_c 13.733759
_cell_angle_alpha 90.000000
_cell_angle_beta 90.000000
_cell_angle_gamma 90.000000
_cell_volume 1389.805031
_symmetry_space_group_name_H-M "P 21 21 21"
_symmetry_group_IT_number 19
_symmetry_cell_setting 'orthorhombic'
loop_
_space_group_symop_operation_xyz
x,y,z
1/2-x,-y,1/2+z
1/2+x,1/2-y,-z
-x,1/2+y,1/2-z
loop_
_atom_site_type_symbol
_atom_site_label
_atom_site_fract_x
_atom_site_fract_y
_atom_site_fract_z
Si Si1 0.729831 0.890865 0.012369
Si Si2 0.690404 0.090852 0.331619
Si Si3 0.678214 0.442211 0.043725
Si Si4 0.445817 0.908152 0.110895
Si Si5 0.799787 0.148206 0.160687
Si Si6 0.540198 0.897558 0.759120
Si Si7 0.401623 0.221654 0.285201
Si Si8 0.570713 0.076921 0.971293
O O1 0.718369 0.634755 0.980358
O O2 0.781963 0.907501 0.109169
O O3 0.762254 0.025550 0.919353
O O4 0.639885 0.959544 0.033990
O O5 0.627497 0.240201 0.390567
O O6 0.756417 0.197298 0.262179
O O7 0.644641 0.939022 0.253432
O O8 0.750957 0.293184 0.082448
O O9 0.643586 0.552911 0.142552
O O10 0.605066 0.328500 0.985764
O O11 0.516704 0.778343 0.163540
O O12 0.420153 0.099802 0.184357
O O13 0.486095 0.020204 0.016547
O O14 0.891500 0.157635 0.181190
O O15 0.498674 0.646438 0.769890
O O16 0.573500 0.971543 0.864608
#
# Coordination Sequence:
#
# PCOD9315714 Si02
#       8
#     4   4   4   4   4   4   4   4
#     4  11  25  46  74 107 146 199 256 327 385 472
#     4  12  25  41  73 108 141 195 247 314 393 466
#     4  11  23  45  80 105 150 199 255 330 397 466
#     4  12  24  39  69 108 147 184 251 311 396 463
#     4  11  25  50  73 107 149 194 265 320 395 467
#     4  12  32  53  81 110 159 220 268 325 399 476
#     4  12  22  40  69 108 149 192 238 320 396 469
#     4  11  26  46  73 111 151 203 254 321 393 477
#
# _framework density 23.024813999999999
#
# number of rings (size 3 to 8) (size 9 to 14) (size 15 to 20)
#    0.000    0.500    6.250    1.500    5.250    3.000 
#    0.000    0.000    0.000    0.000    0.000    0.000 
#    0.000    0.000    0.000    0.000    0.000    0.000 
#
# Total GULP energy -178175.092566 kJ/mol
# GULP energy per Si atom -5567.971643 kJ/mol
# Density = 2.297241 g / cm^3
# Si number density = 23.024814 Si / 1000 Ang^3
#
#
#
# Elastic Constant Matrix: (Units=GPa)
#
#
# Indices 1 2 3 4 5 6 
#
# 1 86.8054 35.7815 14.8321 0.0000 0.0000 0.0000
# 2 35.7815 57.9768 0.8882 0.0000 0.0000 0.0000
# 3 14.8321 0.8882 81.8084 0.0000 0.0000 0.0000
# 4 0.0000 0.0000 0.0000 22.4995 0.0000 0.0000
# 5 0.0000 0.0000 0.0000 0.0000 42.7236 0.0000
# 6 0.0000 0.0000 0.0000 0.0000 0.0000 -1.6014
#
#
#
# Elastic Compliance Matrix: (Units=1/GPa)
#
#
# Indices 1 2 3 4 5 6 
#
# 1 0.016070 -0.009875 -0.002806 0.000000 0.000000 0.000000
# 2 -0.009875 0.023319 0.001537 0.000000 0.000000 0.000000
# 3 -0.002806 0.001537 0.012716 0.000000 0.000000 0.000000
# 4 0.000000 0.000000 0.000000 0.044445 0.000000 0.000000
# 5 0.000000 0.000000 0.000000 0.000000 0.023406 0.000000
# 6 0.000000 0.000000 0.000000 0.000000 0.000000 -0.624446
#
#
# Mechanical properties :
#
#
# Convention : Reuss Voigt Hill
#
# Bulk Modulus (GPa) = 33.53804 36.62158 35.07981
# Shear Modulus (GPa) = -10.58735 24.39692 6.90478
#
# Velocity S-wave (km/s) = -2.14668 3.25867 1.73360
# Velocity P-wave (km/s) = 2.90747 5.48620 4.39043
#
# Compressibility (1/GPa) = 0.02981689
#
# Stress axis : x y z
#
# Youngs Moduli (GPa) = 62.22767 42.88301 78.64231
#
# Poissons Ratio (x) = 0.42347 0.22070
# Poissons Ratio (y) = 0.61449 -0.12089
# Poissons Ratio (z) = 0.17463 -0.06592
#
# Static dielectric constant tensor:
#      x y z
#    x 1.847980 0.000000 0.000000 
#    y 0.000000 2.151420 0.000000 
#    z 0.000000 0.000000 1.796660 
# 
# From -- ./inp_files/6301.got.cif
#   From: 2010.05.17/outbox.cif.g08.bks.cpg/sg19_4_cif.got.tgz:6301.got - 2010.06.03 22:46:19.
