data_PCOD9315214
_publ_section_title
;
Structure prediction by ZEFSAII (Michael W. Deem and Ramdas Pophale) SiO2 
 PCOD9315214
Probable space group: P 21 21 21
;
_chemical_formula_sum "Si O2"
_cell_formula_units_Z 28
_cell_length_a 5.052554
_cell_length_b 7.542957
_cell_length_c 28.728713
_cell_angle_alpha 90.000000
_cell_angle_beta 90.000000
_cell_angle_gamma 90.000000
_cell_volume 1094.885657
_symmetry_space_group_name_H-M "P 21 21 21"
_symmetry_group_IT_number 19
_symmetry_cell_setting 'orthorhombic'
loop_
_space_group_symop_operation_xyz
x,y,z
1/2-x,-y,1/2+z
1/2+x,1/2-y,-z
-x,1/2+y,1/2-z
loop_
_atom_site_type_symbol
_atom_site_label
_atom_site_fract_x
_atom_site_fract_y
_atom_site_fract_z
Si Si1 0.050923 0.473891 0.035705
Si Si2 0.415539 0.326650 0.115078
Si Si3 0.636609 0.248809 0.793895
Si Si4 0.882451 0.893237 0.750899
Si Si5 0.226834 0.618065 0.441079
Si Si6 0.080865 0.806133 0.850829
Si Si7 0.068188 0.811103 0.096812
O O1 0.843325 0.313437 0.039818
O O2 0.983241 0.660991 0.059108
O O3 0.289374 0.400870 0.067748
O O4 0.131577 0.487604 0.982317
O O5 0.184369 0.286725 0.151767
O O6 0.589944 0.158018 0.102936
O O7 0.591462 0.484291 0.136820
O O8 0.341212 0.291551 0.778452
O O9 0.847323 0.399818 0.778719
O O10 0.745037 0.074080 0.767652
O O11 0.972553 0.799381 0.798789
O O12 0.978793 0.502049 0.425329
O O13 0.860305 0.726613 0.885179
O O14 0.363181 0.718798 0.860547
#
# Coordination Sequence:
#
# PCOD9315214 Si02
#       7
#     4   4   4   4   4   4   4
#     4  11  25  46  67 101 146 179 236 297 350 411
#     4  10  24  44  69  94 139 187 230 288 355 414
#     4  11  25  43  70 101 140 183 232 284 353 419
#     4  11  24  44  69 101 140 184 225 290 352 411
#     4  12  25  43  74 100 136 191 237 289 354 420
#     4  10  23  47  68  97 144 183 221 295 353 409
#     4  11  26  43  73 104 139 183 237 283 349 422
#
# _framework density 25.573447000000002
#
# number of rings (size 3 to 8) (size 9 to 14) (size 15 to 20)
#    0.000    1.143    2.857    1.714    4.000    9.143 
#    0.000    0.000    0.000    0.000    0.000    0.000 
#    0.000    0.000    0.000    0.000    0.000    0.000 
#
# Total GULP energy -157022.982506 kJ/mol
# GULP energy per Si atom -5607.963661 kJ/mol
# Density = 2.551524 g / cm^3
# Si number density = 25.573447 Si / 1000 Ang^3
#
#
#
# Elastic Constant Matrix: (Units=GPa)
#
#
# Indices 1 2 3 4 5 6 
#
# 1 86.8929 13.7400 18.4101 0.0000 0.0000 0.0000
# 2 13.7400 100.8838 31.9522 0.0000 0.0000 0.0000
# 3 18.4101 31.9522 85.9832 0.0000 0.0000 0.0000
# 4 0.0000 0.0000 0.0000 22.1437 0.0000 0.0000
# 5 0.0000 0.0000 0.0000 0.0000 39.7971 0.0000
# 6 0.0000 0.0000 0.0000 0.0000 0.0000 38.1288
#
#
#
# Elastic Compliance Matrix: (Units=1/GPa)
#
#
# Indices 1 2 3 4 5 6 
#
# 1 0.012134 -0.000940 -0.002248 0.000000 0.000000 0.000000
# 2 -0.000940 0.011308 -0.004001 0.000000 0.000000 0.000000
# 3 -0.002248 -0.004001 0.013598 0.000000 0.000000 0.000000
# 4 0.000000 0.000000 0.000000 0.045160 0.000000 0.000000
# 5 0.000000 0.000000 0.000000 0.000000 0.025127 0.000000
# 6 0.000000 0.000000 0.000000 0.000000 0.000000 0.026227
#
#
# Mechanical properties :
#
#
# Convention : Reuss Voigt Hill
#
# Bulk Modulus (GPa) = 44.13001 44.66271 44.39636
# Shear Modulus (GPa) = 32.15728 33.99111 33.07419
#
# Velocity S-wave (km/s) = 3.54990 3.64971 3.60015
# Velocity P-wave (km/s) = 5.83918 5.93826 5.88893
#
# Compressibility (1/GPa) = 0.02266032
#
# Stress axis : x y z
#
# Youngs Moduli (GPa) = 82.41640 88.43630 73.53869
#
# Poissons Ratio (x) = 0.08316 0.16535
# Poissons Ratio (y) = 0.07750 0.29420
# Poissons Ratio (z) = 0.18531 0.35380
#
# Static dielectric constant tensor:
#      x y z
#    x 1.981370 0.000000 0.000000 
#    y 0.000000 2.053960 0.000000 
#    z 0.000000 0.000000 1.982890 
# 
# From -- ./inp_files/7452.got.cif
#   From: 2010.05.17/outbox.cif.g08.bks.cpg/sg19_4_cif.got.tgz:7452.got - 2010.06.03 22:46:19.
