data_PCOD9315505
_publ_section_title
;
Structure prediction by ZEFSAII (Michael W. Deem and Ramdas Pophale) SiO2 
 PCOD9315505
Probable space group: P 21 21 21
;
_chemical_formula_sum "Si O2"
_cell_formula_units_Z 28
_cell_length_a 6.121199
_cell_length_b 17.027662
_cell_length_c 11.281010
_cell_angle_alpha 90.000000
_cell_angle_beta 90.000000
_cell_angle_gamma 90.000000
_cell_volume 1175.816374
_symmetry_space_group_name_H-M "P 21 21 21"
_symmetry_group_IT_number 19
_symmetry_cell_setting 'orthorhombic'
loop_
_space_group_symop_operation_xyz
x,y,z
1/2-x,-y,1/2+z
1/2+x,1/2-y,-z
-x,1/2+y,1/2-z
loop_
_atom_site_type_symbol
_atom_site_label
_atom_site_fract_x
_atom_site_fract_y
_atom_site_fract_z
Si Si1 0.814637 0.181242 0.031636
Si Si2 0.925235 0.577413 0.611307
Si Si3 0.644008 0.260575 0.797636
Si Si4 0.914986 0.380521 0.306561
Si Si5 0.822137 0.014180 0.307629
Si Si6 0.651462 0.454786 0.488979
Si Si7 0.962055 0.398278 0.828280
O O1 0.583534 0.142517 0.060270
O O2 0.904346 0.223614 0.147346
O O3 0.780915 0.226060 0.908689
O O4 0.022361 0.125474 0.006027
O O5 0.760375 0.619852 0.698785
O O6 0.823784 0.494914 0.576182
O O7 0.163044 0.557353 0.658062
O O8 0.588942 0.190706 0.704616
O O9 0.780263 0.340791 0.769706
O O10 0.767947 0.382277 0.425047
O O11 0.028255 0.466987 0.287386
O O12 0.668103 0.080764 0.254475
O O13 0.942523 0.047478 0.424565
O O14 0.608592 0.517689 0.382887
#
# Coordination Sequence:
#
# PCOD9315505 Si02
#       7
#     4   4   4   4   4   4   4
#     4  12  21  39  64 103 147 181 220 292 366 421
#     4  11  20  39  66  99 143 183 231 285 353 427
#     4  12  24  37  65 108 151 183 229 292 369 429
#     4  11  24  40  64 104 146 186 235 292 359 427
#     4  11  24  41  66 103 146 189 239 285 356 432
#     4  11  23  40  65 102 144 189 238 293 343 429
#     4  12  24  40  66 103 151 185 232 297 358 421
#
# _framework density 23.81324
#
# number of rings (size 3 to 8) (size 9 to 14) (size 15 to 20)
#    0.000    0.571    7.143    2.571    0.000    0.000 
#    0.000    0.000    0.000    0.000    7.429    2.000 
#    0.000    0.000    0.000    0.000    0.000    0.000 
#
# Total GULP energy -156173.434824 kJ/mol
# GULP energy per Si atom -5577.622672 kJ/mol
# Density = 2.375904 g / cm^3
# Si number density = 23.813240 Si / 1000 Ang^3
#
#
#
# Elastic Constant Matrix: (Units=GPa)
#
#
# Indices 1 2 3 4 5 6 
#
# 1 92.2949 22.7865 26.1550 0.0000 0.0000 0.0000
# 2 22.7865 64.5663 24.0176 0.0000 0.0000 0.0000
# 3 26.1550 24.0176 45.0325 0.0000 0.0000 0.0000
# 4 0.0000 0.0000 0.0000 22.3966 0.0000 0.0000
# 5 0.0000 0.0000 0.0000 0.0000 51.2532 0.0000
# 6 0.0000 0.0000 0.0000 0.0000 0.0000 55.5158
#
#
#
# Elastic Compliance Matrix: (Units=1/GPa)
#
#
# Indices 1 2 3 4 5 6 
#
# 1 0.013228 -0.002259 -0.006478 0.000000 0.000000 0.000000
# 2 -0.002259 0.019707 -0.009199 0.000000 0.000000 0.000000
# 3 -0.006478 -0.009199 0.030875 0.000000 0.000000 0.000000
# 4 0.000000 0.000000 0.000000 0.044650 0.000000 0.000000
# 5 0.000000 0.000000 0.000000 0.000000 0.019511 0.000000
# 6 0.000000 0.000000 0.000000 0.000000 0.000000 0.018013
#
#
# Mechanical properties :
#
#
# Convention : Reuss Voigt Hill
#
# Bulk Modulus (GPa) = 35.79268 38.64575 37.21921
# Shear Modulus (GPa) = 26.15507 34.42877 30.29192
#
# Velocity S-wave (km/s) = 3.31772 3.80647 3.57047
# Velocity P-wave (km/s) = 5.45340 5.96514 5.71500
#
# Compressibility (1/GPa) = 0.02793867
#
# Stress axis : x y z
#
# Youngs Moduli (GPa) = 75.59513 50.74395 32.38886
#
# Poissons Ratio (x) = 0.11461 0.20983
# Poissons Ratio (y) = 0.17074 0.29793
# Poissons Ratio (z) = 0.48974 0.46677
#
# Static dielectric constant tensor:
#      x y z
#    x 2.021850 0.000000 0.000000 
#    y 0.000000 2.065800 0.000000 
#    z 0.000000 0.000000 1.983920 
# 
# From -- ./inp_files/1034.got.cif
#   From: 2010.05.17/outbox.cif.g08.bks.cpg/sg19_1_cif.got.tgz:1034.got - 2010.06.03 22:46:19.
