data_PCOD9315610
_publ_section_title
;
Structure prediction by ZEFSAII (Michael W. Deem and Ramdas Pophale) SiO2 
 PCOD9315610
Probable space group: P 21 21 21
;
_chemical_formula_sum "Si O2"
_cell_formula_units_Z 20
_cell_length_a 5.051853
_cell_length_b 9.865263
_cell_length_c 17.001000
_cell_angle_alpha 90.000000
_cell_angle_beta 90.000000
_cell_angle_gamma 90.000000
_cell_volume 847.293432
_symmetry_space_group_name_H-M "P 21 21 21"
_symmetry_group_IT_number 19
_symmetry_cell_setting 'orthorhombic'
loop_
_space_group_symop_operation_xyz
x,y,z
1/2-x,-y,1/2+z
1/2+x,1/2-y,-z
-x,1/2+y,1/2-z
loop_
_atom_site_type_symbol
_atom_site_label
_atom_site_fract_x
_atom_site_fract_y
_atom_site_fract_z
Si Si1 0.458171 0.677343 0.472562
Si Si2 0.364927 0.194572 0.347353
Si Si3 0.405261 0.582179 0.752561
Si Si4 0.215946 0.315154 0.794828
Si Si5 0.839769 0.047323 0.407135
O O1 0.264448 0.788725 0.512620
O O2 0.386295 0.686956 0.382021
O O3 0.378923 0.536152 0.513576
O O4 0.269595 0.342284 0.318905
O O5 0.485405 0.142476 0.264786
O O6 0.608714 0.159950 0.405586
O O7 0.113013 0.117362 0.381582
O O8 0.437309 0.431045 0.784894
O O9 0.658841 0.675763 0.736626
O O10 0.286442 0.561332 0.664067
#
# Coordination Sequence:
#
# PCOD9315610 Si02
#       5
#     4   4   4   4   4
#     4  12  25  44  70 106 146 187 239 297 362 429
#     4  11  23  42  66  99 139 184 228 296 349 424
#     4  11  22  44  69 103 135 183 240 292 348 423
#     4  11  26  41  77 105 141 186 244 296 358 424
#     4  11  24  41  68  99 145 180 233 297 357 408
#
# _framework density 23.604572999999998
#
# number of rings (size 3 to 8) (size 9 to 14) (size 15 to 20)
#    0.000    0.800    6.000    2.400    5.600    0.000 
#    0.000    2.000    0.000    0.000    0.000    0.000 
#    0.000    0.000    0.000    0.000    0.000    0.000 
#
# Total GULP energy -111721.718282 kJ/mol
# GULP energy per Si atom -5586.085914 kJ/mol
# Density = 2.355085 g / cm^3
# Si number density = 23.604573 Si / 1000 Ang^3
#
#
#
# Elastic Constant Matrix: (Units=GPa)
#
#
# Indices 1 2 3 4 5 6 
#
# 1 109.1887 26.1824 -6.3383 0.0000 0.0000 0.0000
# 2 26.1824 39.9822 -3.1327 0.0000 0.0000 0.0000
# 3 -6.3383 -3.1327 30.6746 0.0000 0.0000 0.0000
# 4 0.0000 0.0000 0.0000 42.4662 0.0000 0.0000
# 5 0.0000 0.0000 0.0000 0.0000 11.9644 0.0000
# 6 0.0000 0.0000 0.0000 0.0000 0.0000 28.3862
#
#
#
# Elastic Compliance Matrix: (Units=1/GPa)
#
#
# Indices 1 2 3 4 5 6 
#
# 1 0.010936 -0.007041 0.001541 0.000000 0.000000 0.000000
# 2 -0.007041 0.029746 0.001583 0.000000 0.000000 0.000000
# 3 0.001541 0.001583 0.033080 0.000000 0.000000 0.000000
# 4 0.000000 0.000000 0.000000 0.023548 0.000000 0.000000
# 5 0.000000 0.000000 0.000000 0.000000 0.083581 0.000000
# 6 0.000000 0.000000 0.000000 0.000000 0.000000 0.035228
#
#
# Mechanical properties :
#
#
# Convention : Reuss Voigt Hill
#
# Bulk Modulus (GPa) = 15.16806 23.69648 19.43227
# Shear Modulus (GPa) = 20.33095 27.43897 23.88496
#
# Velocity S-wave (km/s) = 2.93800 3.41316 3.18445
# Velocity P-wave (km/s) = 4.23662 5.05901 4.66597
#
# Compressibility (1/GPa) = 0.06592800
#
# Stress axis : x y z
#
# Youngs Moduli (GPa) = 91.43920 33.61810 30.22952
#
# Poissons Ratio (x) = 0.23670 -0.04657
# Poissons Ratio (y) = 0.64381 -0.04785
# Poissons Ratio (z) = -0.14088 -0.05322
#
# Static dielectric constant tensor:
#      x y z
#    x 1.944540 0.000000 0.000000 
#    y 0.000000 1.965100 0.000000 
#    z 0.000000 0.000000 1.867590 
# 
# From -- ./inp_files/1678.got.cif
#   From: 2010.05.17/outbox.cif.g08.bks.cpg/sg19_1_cif.got.tgz:1678.got - 2010.06.03 22:46:19.
