data_PCOD9315640
_publ_section_title
;
Structure prediction by ZEFSAII (Michael W. Deem and Ramdas Pophale) SiO2 
 PCOD9315640
Probable space group: P 21 21 21
;
_chemical_formula_sum "Si O2"
_cell_formula_units_Z 28
_cell_length_a 9.022721
_cell_length_b 6.155964
_cell_length_c 21.616635
_cell_angle_alpha 90.000000
_cell_angle_beta 90.000000
_cell_angle_gamma 90.000000
_cell_volume 1200.664553
_symmetry_space_group_name_H-M "P 21 21 21"
_symmetry_group_IT_number 19
_symmetry_cell_setting 'orthorhombic'
loop_
_space_group_symop_operation_xyz
x,y,z
1/2-x,-y,1/2+z
1/2+x,1/2-y,-z
-x,1/2+y,1/2-z
loop_
_atom_site_type_symbol
_atom_site_label
_atom_site_fract_x
_atom_site_fract_y
_atom_site_fract_z
Si Si1 0.680563 0.128248 0.613474
Si Si2 0.684100 0.284265 0.393134
Si Si3 0.546474 0.996377 0.921077
Si Si4 0.982250 0.109147 0.831760
Si Si5 0.789083 0.347476 0.728680
Si Si6 0.092982 0.123696 0.169217
Si Si7 0.055229 0.407759 0.947330
O O1 0.597163 0.344018 0.588387
O O2 0.788612 0.195962 0.669026
O O3 0.556098 0.985903 0.646330
O O4 0.779140 0.992490 0.566055
O O5 0.775527 0.472710 0.358257
O O6 0.558466 0.394680 0.434561
O O7 0.811272 0.158046 0.430607
O O8 0.603734 0.114222 0.347432
O O9 0.586384 0.139250 0.861334
O O10 0.535038 0.150600 0.980939
O O11 0.013755 0.226756 0.896809
O O12 0.885568 0.245135 0.783497
O O13 0.135961 0.064462 0.796437
O O14 0.626190 0.370953 0.757886
#
# Coordination Sequence:
#
# PCOD9315640 Si02
#       7
#     4   4   4   4   4   4   4
#     4  11  28  43  70 111 140 188 238 300 363 426
#     4  11  22  48  69 105 135 190 247 290 359 422
#     4  11  26  48  73 103 150 191 241 297 365 436
#     4  12  25  45  76 106 142 193 242 307 363 428
#     4  12  24  46  71 103 146 181 241 296 357 441
#     4  11  26  45  69 104 142 193 229 298 368 417
#     4  12  25  47  74 108 143 192 246 298 361 436
#
# _framework density 23.320416999999999
#
# number of rings (size 3 to 8) (size 9 to 14) (size 15 to 20)
#    0.000    0.571    4.286    2.571    4.000    4.571 
#    0.000    0.000    0.000    0.000    0.000    0.000 
#    0.000    0.000    0.000    0.000    0.000    0.000 
#
# Total GULP energy -156657.837020 kJ/mol
# GULP energy per Si atom -5594.922751 kJ/mol
# Density = 2.326734 g / cm^3
# Si number density = 23.320417 Si / 1000 Ang^3
#
#
#
# Elastic Constant Matrix: (Units=GPa)
#
#
# Indices 1 2 3 4 5 6 
#
# 1 80.3509 20.4072 1.2905 0.0000 0.0000 0.0000
# 2 20.4072 45.9690 -12.7950 0.0000 0.0000 0.0000
# 3 1.2905 -12.7950 50.0087 0.0000 0.0000 0.0000
# 4 0.0000 0.0000 0.0000 26.9311 0.0000 0.0000
# 5 0.0000 0.0000 0.0000 0.0000 20.7082 0.0000
# 6 0.0000 0.0000 0.0000 0.0000 0.0000 39.0085
#
#
#
# Elastic Compliance Matrix: (Units=1/GPa)
#
#
# Indices 1 2 3 4 5 6 
#
# 1 0.014236 -0.006914 -0.002136 0.000000 0.000000 0.000000
# 2 -0.006914 0.026780 0.007030 0.000000 0.000000 0.000000
# 3 -0.002136 0.007030 0.021850 0.000000 0.000000 0.000000
# 4 0.000000 0.000000 0.000000 0.037132 0.000000 0.000000
# 5 0.000000 0.000000 0.000000 0.000000 0.048290 0.000000
# 6 0.000000 0.000000 0.000000 0.000000 0.000000 0.025635
#
#
# Mechanical properties :
#
#
# Convention : Reuss Voigt Hill
#
# Bulk Modulus (GPa) = 16.99955 21.57045 19.28500
# Shear Modulus (GPa) = 25.30707 28.49127 26.89917
#
# Velocity S-wave (km/s) = 3.29780 3.49912 3.39995
# Velocity P-wave (km/s) = 4.66969 5.05913 4.86830
#
# Compressibility (1/GPa) = 0.05882508
#
# Stress axis : x y z
#
# Youngs Moduli (GPa) = 70.24531 37.34116 45.76577
#
# Poissons Ratio (x) = 0.25819 0.09778
# Poissons Ratio (y) = 0.48571 -0.32174
# Poissons Ratio (z) = 0.15008 -0.26252
#
# Static dielectric constant tensor:
#      x y z
#    x 1.948510 0.000000 0.000000 
#    y 0.000000 1.919340 0.000000 
#    z 0.000000 0.000000 1.861540 
# 
# From -- ./inp_files/7331.got.cif
#   From: 2010.05.17/outbox.cif.g08.bks.cpg/sg19_4_cif.got.tgz:7331.got - 2010.06.03 22:46:19.
