data_PCOD9315145
_publ_section_title
;
Structure prediction by ZEFSAII (Michael W. Deem and Ramdas Pophale) SiO2 
 PCOD9315145
Probable space group: P 21 21 21
;
_chemical_formula_sum "Si O2"
_cell_formula_units_Z 32
_cell_length_a 12.285615
_cell_length_b 9.040564
_cell_length_c 13.759407
_cell_angle_alpha 90.000000
_cell_angle_beta 90.000000
_cell_angle_gamma 90.000000
_cell_volume 1528.242044
_symmetry_space_group_name_H-M "P 21 21 21"
_symmetry_group_IT_number 19
_symmetry_cell_setting 'orthorhombic'
loop_
_space_group_symop_operation_xyz
x,y,z
1/2-x,-y,1/2+z
1/2+x,1/2-y,-z
-x,1/2+y,1/2-z
loop_
_atom_site_type_symbol
_atom_site_label
_atom_site_fract_x
_atom_site_fract_y
_atom_site_fract_z
Si Si1 0.808730 0.427904 0.510118
Si Si2 0.211785 0.595491 0.625112
Si Si3 0.411753 0.909314 0.904616
Si Si4 0.609525 0.717726 0.664774
Si Si5 0.742573 0.807776 0.158851
Si Si6 0.312949 0.633777 0.420233
Si Si7 0.635014 0.823858 0.869785
Si Si8 0.990469 0.675174 0.529931
O O1 0.679481 0.462934 0.517662
O O2 0.825997 0.319169 0.603607
O O3 0.829000 0.329071 0.416101
O O4 0.892625 0.560173 0.514951
O O5 0.228488 0.680479 0.726089
O O6 0.278659 0.655360 0.532737
O O7 0.263159 0.432955 0.637954
O O8 0.087388 0.602060 0.591316
O O9 0.363489 0.752169 0.868229
O O10 0.536510 0.890954 0.933853
O O11 0.406173 0.042210 0.827174
O O12 0.734330 0.759864 0.641650
O O13 0.583622 0.799677 0.764210
O O14 0.539542 0.774316 0.573441
O O15 0.715497 0.967057 0.112515
O O16 0.436904 0.685845 0.414311
#
# Coordination Sequence:
#
# PCOD9315145 Si02
#       8
#     4   4   4   4   4   4   4   4
#     4  10  25  44  65  97 139 182 226 286 352 417
#     4  11  24  42  70 101 133 185 229 285 358 410
#     4  10  25  44  65 103 136 179 227 292 347 415
#     4  11  25  41  68 102 135 177 234 287 346 419
#     4  10  23  44  67  96 141 170 235 280 344 424
#     4  11  21  45  66  98 138 180 226 287 349 412
#     4  12  25  40  73 101 139 181 237 294 349 415
#     4  11  26  44  70  98 143 184 230 289 353 422
#
# _framework density 20.939091000000001
#
# number of rings (size 3 to 8) (size 9 to 14) (size 15 to 20)
#    0.750    0.500    3.750    0.750   10.500    1.000 
#    0.000    0.000    0.000    0.000    0.000    0.000 
#    0.000    0.000    0.000    0.000    0.000    0.000 
#
# Total GULP energy -178518.681843 kJ/mol
# GULP energy per Si atom -5578.708808 kJ/mol
# Density = 2.089143 g / cm^3
# Si number density = 20.939091 Si / 1000 Ang^3
#
#
#
# Elastic Constant Matrix: (Units=GPa)
#
#
# Indices 1 2 3 4 5 6 
#
# 1 122.0332 41.4500 25.1000 0.0000 0.0000 0.0000
# 2 41.4500 101.5882 15.1725 0.0000 0.0000 0.0000
# 3 25.1000 15.1725 70.0330 0.0000 0.0000 0.0000
# 4 0.0000 0.0000 0.0000 28.5428 0.0000 0.0000
# 5 0.0000 0.0000 0.0000 0.0000 13.1150 0.0000
# 6 0.0000 0.0000 0.0000 0.0000 0.0000 34.0496
#
#
#
# Elastic Compliance Matrix: (Units=1/GPa)
#
#
# Indices 1 2 3 4 5 6 
#
# 1 0.010016 -0.003669 -0.002795 0.000000 0.000000 0.000000
# 2 -0.003669 0.011517 -0.001180 0.000000 0.000000 0.000000
# 3 -0.002795 -0.001180 0.015536 0.000000 0.000000 0.000000
# 4 0.000000 0.000000 0.000000 0.035035 0.000000 0.000000
# 5 0.000000 0.000000 0.000000 0.000000 0.076249 0.000000
# 6 0.000000 0.000000 0.000000 0.000000 0.000000 0.029369
#
#
# Mechanical properties :
#
#
# Convention : Reuss Voigt Hill
#
# Bulk Modulus (GPa) = 45.91165 50.78880 48.35023
# Shear Modulus (GPa) = 24.96634 29.27028 27.11831
#
# Velocity S-wave (km/s) = 3.45676 3.74288 3.60266
# Velocity P-wave (km/s) = 6.15680 6.55645 6.35976
#
# Compressibility (1/GPa) = 0.02178096
#
# Stress axis : x y z
#
# Youngs Moduli (GPa) = 99.84449 86.82818 64.36550
#
# Poissons Ratio (x) = 0.31859 0.17988
# Poissons Ratio (y) = 0.36634 0.07596
# Poissons Ratio (z) = 0.27903 0.10247
#
# Static dielectric constant tensor:
#      x y z
#    x 1.762840 0.000000 0.000000 
#    y 0.000000 1.785790 0.000000 
#    z 0.000000 0.000000 1.751750 
# 
# From -- ./inp_files/6114.got.cif
#   From: 2010.05.17/outbox.cif.g08.bks.cpg/sg19_4_cif.got.tgz:6114.got - 2010.06.03 22:46:19.
