data_PCOD9315105
_publ_section_title
;
Structure prediction by ZEFSAII (Michael W. Deem and Ramdas Pophale) SiO2 
 PCOD9315105
Probable space group: P 21 21 21
;
_chemical_formula_sum "Si O2"
_cell_formula_units_Z 32
_cell_length_a 9.099179
_cell_length_b 18.255115
_cell_length_c 8.024217
_cell_angle_alpha 90.000000
_cell_angle_beta 90.000000
_cell_angle_gamma 90.000000
_cell_volume 1332.875075
_symmetry_space_group_name_H-M "P 21 21 21"
_symmetry_group_IT_number 19
_symmetry_cell_setting 'orthorhombic'
loop_
_space_group_symop_operation_xyz
x,y,z
1/2-x,-y,1/2+z
1/2+x,1/2-y,-z
-x,1/2+y,1/2-z
loop_
_atom_site_type_symbol
_atom_site_label
_atom_site_fract_x
_atom_site_fract_y
_atom_site_fract_z
Si Si1 0.492246 0.223988 0.574093
Si Si2 0.039422 0.150204 0.196323
Si Si3 0.161478 0.205328 0.712729
Si Si4 0.875964 0.557852 0.592323
Si Si5 0.784307 0.840125 0.571193
Si Si6 0.876535 0.911121 0.219834
Si Si7 0.581894 0.482906 0.594713
Si Si8 0.106127 0.483721 0.778032
O O1 0.567071 0.272054 0.721569
O O2 0.319268 0.216181 0.618894
O O3 0.530929 0.265604 0.404554
O O4 0.571863 0.146088 0.582722
O O5 0.890934 0.157955 0.090491
O O6 0.024465 0.096372 0.354252
O O7 0.145600 0.104749 0.076334
O O8 0.141935 0.121534 0.768462
O O9 0.164837 0.259603 0.872572
O O10 0.754315 0.495198 0.598947
O O11 0.031699 0.516983 0.613243
O O12 0.832395 0.867830 0.390069
O O13 0.843403 0.900196 0.704666
O O14 0.742575 0.964243 0.176635
O O15 0.013059 0.961247 0.272113
O O16 0.517427 0.505869 0.418112
#
# Coordination Sequence:
#
# PCOD9315105 Si02
#       8
#     4   4   4   4   4   4   4   4
#     4  11  26  44  68  96 134 175 224 285 338 397
#     4  11  23  42  68  95 132 174 221 277 331 402
#     4  11  26  46  66  98 135 177 226 283 341 407
#     4  12  24  46  66 100 136 178 220 277 345 404
#     4  10  23  43  69  98 128 176 231 270 329 408
#     4  11  22  44  68  97 130 177 224 274 332 405
#     4  11  24  43  65 100 139 167 221 280 335 397
#     4  11  24  42  72 100 134 178 227 274 339 408
#
# _framework density 24.008251000000001
#
# number of rings (size 3 to 8) (size 9 to 14) (size 15 to 20)
#    0.000    1.000    3.750    2.250    5.250    1.000 
#    9.000    0.000    0.000    0.000    0.000    0.000 
#    0.000    0.000    0.000    0.000    0.000    0.000 
#
# Total GULP energy -179088.401941 kJ/mol
# GULP energy per Si atom -5596.512561 kJ/mol
# Density = 2.395361 g / cm^3
# Si number density = 24.008251 Si / 1000 Ang^3
#
#
#
# Elastic Constant Matrix: (Units=GPa)
#
#
# Indices 1 2 3 4 5 6 
#
# 1 54.5998 -3.9667 -4.4944 0.0000 0.0000 0.0000
# 2 -3.9667 70.4682 -2.5211 0.0000 0.0000 0.0000
# 3 -4.4944 -2.5211 52.6634 0.0000 0.0000 0.0000
# 4 0.0000 0.0000 0.0000 40.4705 0.0000 0.0000
# 5 0.0000 0.0000 0.0000 0.0000 27.5192 0.0000
# 6 0.0000 0.0000 0.0000 0.0000 0.0000 31.1702
#
#
#
# Elastic Compliance Matrix: (Units=1/GPa)
#
#
# Indices 1 2 3 4 5 6 
#
# 1 0.018530 0.001101 0.001634 0.000000 0.000000 0.000000
# 2 0.001101 0.014281 0.000778 0.000000 0.000000 0.000000
# 3 0.001634 0.000778 0.019165 0.000000 0.000000 0.000000
# 4 0.000000 0.000000 0.000000 0.024709 0.000000 0.000000
# 5 0.000000 0.000000 0.000000 0.000000 0.036338 0.000000
# 6 0.000000 0.000000 0.000000 0.000000 0.000000 0.032082
#
#
# Mechanical properties :
#
#
# Convention : Reuss Voigt Hill
#
# Bulk Modulus (GPa) = 16.94861 17.30745 17.12803
# Shear Modulus (GPa) = 31.69655 32.41287 32.05471
#
# Velocity S-wave (km/s) = 3.63745 3.67832 3.65794
# Velocity P-wave (km/s) = 4.97154 5.02640 4.99904
#
# Compressibility (1/GPa) = 0.05900190
#
# Stress axis : x y z
#
# Youngs Moduli (GPa) = 53.96767 70.02498 52.17790
#
# Poissons Ratio (x) = -0.07713 -0.08526
# Poissons Ratio (y) = -0.05945 -0.04058
# Poissons Ratio (z) = -0.08819 -0.05445
#
# Static dielectric constant tensor:
#      x y z
#    x 1.868420 0.000000 0.000000 
#    y 0.000000 1.908900 0.000000 
#    z 0.000000 0.000000 1.994320 
# 
# From -- ./inp_files/3117.got.cif
#   From: 2010.05.17/outbox.cif.g08.bks.cpg/sg19_2_cif.got.tgz:3117.got - 2010.06.03 22:46:19.
