data_PCOD9315734
_publ_section_title
;
Structure prediction by ZEFSAII (Michael W. Deem and Ramdas Pophale) SiO2 
 PCOD9315734
Probable space group: P 21 21 21
;
_chemical_formula_sum "Si O2"
_cell_formula_units_Z 20
_cell_length_a 5.533650
_cell_length_b 12.034317
_cell_length_c 12.301490
_cell_angle_alpha 90.000000
_cell_angle_beta 90.000000
_cell_angle_gamma 90.000000
_cell_volume 819.201713
_symmetry_space_group_name_H-M "P 21 21 21"
_symmetry_group_IT_number 19
_symmetry_cell_setting 'orthorhombic'
loop_
_space_group_symop_operation_xyz
x,y,z
1/2-x,-y,1/2+z
1/2+x,1/2-y,-z
-x,1/2+y,1/2-z
loop_
_atom_site_type_symbol
_atom_site_label
_atom_site_fract_x
_atom_site_fract_y
_atom_site_fract_z
Si Si1 0.891414 0.074201 0.808252
Si Si2 0.333139 0.375102 0.560983
Si Si3 0.155021 0.997587 0.593544
Si Si4 0.967391 0.757215 0.550844
Si Si5 0.955920 0.835385 0.152679
O O1 0.987544 0.032175 0.693832
O O2 0.074496 0.159476 0.862809
O O3 0.664792 0.149518 0.769714
O O4 0.826897 0.969961 0.882752
O O5 0.567387 0.440825 0.516101
O O6 0.381966 0.274680 0.643596
O O7 0.220044 0.321742 0.451872
O O8 0.409563 0.049313 0.626009
O O9 0.114034 0.867592 0.584381
O O10 0.196396 0.704449 0.482531
#
# Coordination Sequence:
#
# PCOD9315734 Si02
#       5
#     4   4   4   4   4
#     4  11  28  43  72 109 143 193 246 304 363 445
#     4  11  23  48  67 103 144 184 242 302 361 441
#     4  11  26  45  73 102 145 195 243 301 371 435
#     4  12  28  51  76 108 153 197 244 307 377 434
#     4  11  25  43  74 102 139 193 243 298 374 429
#
# _framework density 24.414012
#
# number of rings (size 3 to 8) (size 9 to 14) (size 15 to 20)
#    0.000    0.800    4.000    1.200   11.200    1.600 
#    0.000    0.000    0.000    0.000    0.000    0.000 
#    0.000    0.000    0.000    0.000    0.000    0.000 
#
# Total GULP energy -111707.255477 kJ/mol
# GULP energy per Si atom -5585.362774 kJ/mol
# Density = 2.435845 g / cm^3
# Si number density = 24.414012 Si / 1000 Ang^3
#
#
#
# Elastic Constant Matrix: (Units=GPa)
#
#
# Indices 1 2 3 4 5 6 
#
# 1 48.3877 -20.9013 -3.8075 0.0000 0.0000 0.0000
# 2 -20.9013 116.1854 7.7668 0.0000 0.0000 0.0000
# 3 -3.8075 7.7668 41.7290 0.0000 0.0000 0.0000
# 4 0.0000 0.0000 0.0000 12.5764 0.0000 0.0000
# 5 0.0000 0.0000 0.0000 0.0000 20.3724 0.0000
# 6 0.0000 0.0000 0.0000 0.0000 0.0000 104.0024
#
#
#
# Elastic Compliance Matrix: (Units=1/GPa)
#
#
# Indices 1 2 3 4 5 6 
#
# 1 0.022479 0.003956 0.001315 0.000000 0.000000 0.000000
# 2 0.003956 0.009412 -0.001391 0.000000 0.000000 0.000000
# 3 0.001315 -0.001391 0.024343 0.000000 0.000000 0.000000
# 4 0.000000 0.000000 0.000000 0.079514 0.000000 0.000000
# 5 0.000000 0.000000 0.000000 0.000000 0.049086 0.000000
# 6 0.000000 0.000000 0.000000 0.000000 0.000000 0.009615
#
#
# Mechanical properties :
#
#
# Convention : Reuss Voigt Hill
#
# Bulk Modulus (GPa) = 15.62669 19.15754 17.39212
# Shear Modulus (GPa) = 24.03619 42.27317 33.15468
#
# Velocity S-wave (km/s) = 3.14112 4.16566 3.68913
# Velocity P-wave (km/s) = 4.42381 5.56785 5.02847
#
# Compressibility (1/GPa) = 0.06399307
#
# Stress axis : x y z
#
# Youngs Moduli (GPa) = 44.48661 106.25228 41.07962
#
# Poissons Ratio (x) = -0.42033 -0.05401
# Poissons Ratio (y) = -0.17599 0.05713
# Poissons Ratio (z) = -0.05849 0.14777
#
# Static dielectric constant tensor:
#      x y z
#    x 2.157050 0.000000 0.000000 
#    y 0.000000 1.898360 0.000000 
#    z 0.000000 0.000000 1.667080 
# 
# From -- ./inp_files/4419.got.cif
#   From: 2010.05.17/outbox.cif.g08.bks.cpg/sg19_3_cif.got.tgz:4419.got - 2010.06.03 22:46:19.
