data_PCOD9315736
_publ_section_title
;
Structure prediction by ZEFSAII (Michael W. Deem and Ramdas Pophale) SiO2 
 PCOD9315736
Probable space group: P 21 21 21
;
_chemical_formula_sum "Si O2"
_cell_formula_units_Z 24
_cell_length_a 7.307787
_cell_length_b 8.419872
_cell_length_c 16.207207
_cell_angle_alpha 90.000000
_cell_angle_beta 90.000000
_cell_angle_gamma 90.000000
_cell_volume 997.239676
_symmetry_space_group_name_H-M "P 21 21 21"
_symmetry_group_IT_number 19
_symmetry_cell_setting 'orthorhombic'
loop_
_space_group_symop_operation_xyz
x,y,z
1/2-x,-y,1/2+z
1/2+x,1/2-y,-z
-x,1/2+y,1/2-z
loop_
_atom_site_type_symbol
_atom_site_label
_atom_site_fract_x
_atom_site_fract_y
_atom_site_fract_z
Si Si1 0.215494 0.767695 0.424557
Si Si2 0.533254 0.236449 0.602262
Si Si3 0.281120 0.458580 0.509528
Si Si4 0.199013 0.759535 0.758086
Si Si5 0.505371 0.981789 0.344486
Si Si6 0.831103 0.594868 0.405050
O O1 0.316838 0.601650 0.446797
O O2 0.327697 0.870258 0.358427
O O3 0.229851 0.865512 0.509893
O O4 0.011294 0.710458 0.402542
O O5 0.440781 0.393359 0.566780
O O6 0.701278 0.186030 0.543658
O O7 0.610398 0.254421 0.693751
O O8 0.397674 0.086231 0.597837
O O9 0.120588 0.517269 0.571158
O O10 0.215930 0.862919 0.675339
O O11 0.129779 0.590471 0.727384
O O12 0.057843 0.844328 0.819220
#
# Coordination Sequence:
#
# PCOD9315736 Si02
#       6
#     4   4   4   4   4   4
#     4  11  23  48  76 102 137 191 246 283 354 441
#     4  11  27  45  73 109 141 183 240 301 355 427
#     4  11  25  48  76 101 142 187 247 287 360 433
#     4  12  30  45  70 109 148 187 235 307 363 420
#     4  12  28  48  69 108 144 196 235 299 364 427
#     4  11  25  46  74 103 140 190 241 295 356 426
#
# _framework density 24.066431000000001
#
# number of rings (size 3 to 8) (size 9 to 14) (size 15 to 20)
#    0.000    0.667    5.000    1.000   14.000    1.333 
#    0.000    0.000    0.000    0.000    0.000    0.000 
#    0.000    0.000    0.000    0.000    0.000    0.000 
#
# Total GULP energy -134496.127743 kJ/mol
# GULP energy per Si atom -5604.005323 kJ/mol
# Density = 2.401165 g / cm^3
# Si number density = 24.066431 Si / 1000 Ang^3
#
#
#
# Elastic Constant Matrix: (Units=GPa)
#
#
# Indices 1 2 3 4 5 6 
#
# 1 46.1547 -1.9125 6.3908 0.0000 0.0000 0.0000
# 2 -1.9125 48.0896 13.1750 0.0000 0.0000 0.0000
# 3 6.3908 13.1750 40.0370 0.0000 0.0000 0.0000
# 4 0.0000 0.0000 0.0000 34.4056 0.0000 0.0000
# 5 0.0000 0.0000 0.0000 0.0000 42.7345 0.0000
# 6 0.0000 0.0000 0.0000 0.0000 0.0000 44.3635
#
#
#
# Elastic Compliance Matrix: (Units=1/GPa)
#
#
# Indices 1 2 3 4 5 6 
#
# 1 0.022338 0.002050 -0.004240 0.000000 0.000000 0.000000
# 2 0.002050 0.023043 -0.007910 0.000000 0.000000 0.000000
# 3 -0.004240 -0.007910 0.028257 0.000000 0.000000 0.000000
# 4 0.000000 0.000000 0.000000 0.029065 0.000000 0.000000
# 5 0.000000 0.000000 0.000000 0.000000 0.023400 0.000000
# 6 0.000000 0.000000 0.000000 0.000000 0.000000 0.022541
#
#
# Mechanical properties :
#
#
# Convention : Reuss Voigt Hill
#
# Bulk Modulus (GPa) = 18.71339 18.84308 18.77823
# Shear Modulus (GPa) = 26.78702 32.07594 29.43148
#
# Velocity S-wave (km/s) = 3.33985 3.65473 3.50083
# Velocity P-wave (km/s) = 4.76082 5.06517 4.91535
#
# Compressibility (1/GPa) = 0.05343768
#
# Stress axis : x y z
#
# Youngs Moduli (GPa) = 44.76610 43.39682 35.38985
#
# Poissons Ratio (x) = -0.08897 0.15006
# Poissons Ratio (y) = -0.09178 0.27994
# Poissons Ratio (z) = 0.18982 0.34327
#
# Static dielectric constant tensor:
#      x y z
#    x 1.952230 0.000000 0.000000 
#    y 0.000000 1.901810 0.000000 
#    z 0.000000 0.000000 1.848250 
# 
# From -- ./inp_files/5829.got.cif
#   From: 2010.05.17/outbox.cif.g08.bks.cpg/sg19_3_cif.got.tgz:5829.got - 2010.06.03 22:46:19.
