data_PCOD9315272
_publ_section_title
;
Structure prediction by ZEFSAII (Michael W. Deem and Ramdas Pophale) SiO2 
 PCOD9315272
Probable space group: P 21 21 21
;
_chemical_formula_sum "Si O2"
_cell_formula_units_Z 32
_cell_length_a 30.751703
_cell_length_b 8.433261
_cell_length_c 4.691929
_cell_angle_alpha 90.000000
_cell_angle_beta 90.000000
_cell_angle_gamma 90.000000
_cell_volume 1216.791437
_symmetry_space_group_name_H-M "P 21 21 21"
_symmetry_group_IT_number 19
_symmetry_cell_setting 'orthorhombic'
loop_
_space_group_symop_operation_xyz
x,y,z
1/2-x,-y,1/2+z
1/2+x,1/2-y,-z
-x,1/2+y,1/2-z
loop_
_atom_site_type_symbol
_atom_site_label
_atom_site_fract_x
_atom_site_fract_y
_atom_site_fract_z
Si Si1 0.947985 0.999008 0.716345
Si Si2 0.419450 0.009019 0.992492
Si Si3 0.402681 0.655544 0.807201
Si Si4 0.840509 0.278433 0.194042
Si Si5 0.177426 0.571117 0.851677
Si Si6 0.804404 0.872018 0.178018
Si Si7 0.034503 0.856286 0.988250
Si Si8 0.759434 0.402024 0.550723
O O1 0.932468 0.891241 0.456582
O O2 0.790278 0.015553 0.388802
O O3 0.989112 0.925790 0.880103
O O4 0.909298 0.981522 0.950964
O O5 0.375816 0.094099 0.891379
O O6 0.457391 0.100904 0.816877
O O7 0.418065 0.823201 0.933772
O O8 0.428534 0.045084 0.320545
O O9 0.352514 0.676388 0.712554
O O10 0.858239 0.146849 0.425379
O O11 0.801622 0.352469 0.376244
O O12 0.823184 0.199968 0.902922
O O13 0.184361 0.420772 0.644751
O O14 0.040419 0.673288 0.900051
O O15 0.768232 0.739737 0.182981
O O16 0.729690 0.482337 0.309063
#
# Coordination Sequence:
#
# PCOD9315272 Si02
#       8
#     4   4   4   4   4   4   4   4
#     4  12  27  47  74 105 148 192 241 300 368 442
#     4  12  26  44  73 106 147 190 247 301 367 439
#     4  12  26  44  73 106 147 190 247 301 367 439
#     4  11  25  44  72 105 146 193 249 310 373 446
#     4  10  24  42  70 100 146 178 256 290 394 430
#     4  11  25  44  72 105 146 193 249 310 373 446
#     4  12  27  47  74 105 148 192 241 300 368 442
#     4  12  26  46  72 102 148 196 254 310 382 450
#
# _framework density 26.298673000000001
#
# number of rings (size 3 to 8) (size 9 to 14) (size 15 to 20)
#    0.000    0.500    0.000    7.500   10.500    4.000 
#    0.000    0.000    0.000    0.000    0.000    0.000 
#    0.000    0.000    0.000    0.000    0.000    0.000 
#
# Total GULP energy -179145.195232 kJ/mol
# GULP energy per Si atom -5598.287351 kJ/mol
# Density = 2.623882 g / cm^3
# Si number density = 26.298673 Si / 1000 Ang^3
#
#
#
# Elastic Constant Matrix: (Units=GPa)
#
#
# Indices 1 2 3 4 5 6 
#
# 1 98.0251 19.9704 -3.3839 0.0000 0.0000 0.0000
# 2 19.9704 91.1367 16.6469 0.0000 0.0000 0.0000
# 3 -3.3839 16.6469 153.3682 0.0000 0.0000 0.0000
# 4 0.0000 0.0000 0.0000 52.8137 0.0000 0.0000
# 5 0.0000 0.0000 0.0000 0.0000 42.6266 0.0000
# 6 0.0000 0.0000 0.0000 0.0000 0.0000 38.5496
#
#
#
# Elastic Compliance Matrix: (Units=1/GPa)
#
#
# Indices 1 2 3 4 5 6 
#
# 1 0.010716 -0.002440 0.000501 0.000000 0.000000 0.000000
# 2 -0.002440 0.011750 -0.001329 0.000000 0.000000 0.000000
# 3 0.000501 -0.001329 0.006676 0.000000 0.000000 0.000000
# 4 0.000000 0.000000 0.000000 0.018934 0.000000 0.000000
# 5 0.000000 0.000000 0.000000 0.000000 0.023460 0.000000
# 6 0.000000 0.000000 0.000000 0.000000 0.000000 0.025941
#
#
# Mechanical properties :
#
#
# Convention : Reuss Voigt Hill
#
# Bulk Modulus (GPa) = 44.23592 45.44410 44.84001
# Shear Modulus (GPa) = 44.82435 47.41775 46.12105
#
# Velocity S-wave (km/s) = 4.13296 4.25084 4.19231
# Velocity P-wave (km/s) = 6.29541 6.43509 6.36563
#
# Compressibility (1/GPa) = 0.02260606
#
# Stress axis : x y z
#
# Youngs Moduli (GPa) = 93.32016 85.10704 149.79955
#
# Poissons Ratio (x) = 0.20763 -0.07509
# Poissons Ratio (y) = 0.22767 0.19911
# Poissons Ratio (z) = -0.04678 0.11312
#
# Static dielectric constant tensor:
#      x y z
#    x 2.179210 0.000000 0.000000 
#    y 0.000000 2.203770 0.000000 
#    z 0.000000 0.000000 1.991430 
# 
# From -- ./inp_files/2323.got.cif
#   From: 2010.05.17/outbox.cif.g08.bks.cpg/sg19_2_cif.got.tgz:2323.got - 2010.06.03 22:46:19.
