data_PCOD9315055
_publ_section_title
;
Structure prediction by ZEFSAII (Michael W. Deem and Ramdas Pophale) SiO2 
 PCOD9315055
Probable space group: P 21 21 21
;
_chemical_formula_sum "Si O2"
_cell_formula_units_Z 20
_cell_length_a 9.606075
_cell_length_b 10.470602
_cell_length_c 6.803254
_cell_angle_alpha 90.000000
_cell_angle_beta 90.000000
_cell_angle_gamma 90.000000
_cell_volume 684.280731
_symmetry_space_group_name_H-M "P 21 21 21"
_symmetry_group_IT_number 19
_symmetry_cell_setting 'orthorhombic'
loop_
_space_group_symop_operation_xyz
x,y,z
1/2-x,-y,1/2+z
1/2+x,1/2-y,-z
-x,1/2+y,1/2-z
loop_
_atom_site_type_symbol
_atom_site_label
_atom_site_fract_x
_atom_site_fract_y
_atom_site_fract_z
Si Si1 0.496861 0.167840 0.373259
Si Si2 0.977447 0.594898 0.084048
Si Si3 0.239712 0.974068 0.658882
Si Si4 0.338339 0.289634 0.062646
Si Si5 0.762080 0.965105 0.086254
O O1 0.475390 0.258931 0.562336
O O2 0.367018 0.073558 0.335051
O O3 0.481852 0.252467 0.173376
O O4 0.637763 0.094723 0.419209
O O5 0.897299 0.532019 0.266010
O O6 0.105083 0.517024 0.992921
O O7 0.848445 0.588818 0.928692
O O8 0.223867 0.848565 0.516599
O O9 0.332877 0.394755 0.893006
O O10 0.253663 0.360454 0.241129
#
# Coordination Sequence:
#
# PCOD9315055 Si02
#       5
#     4   4   4   4   4
#     4   9  18  40  67  84 123 167 204 263 328 380
#     4  11  21  42  63  94 131 173 212 268 326 387
#     4  10  23  42  62  95 133 168 216 269 330 381
#     4   9  22  38  66  92 128 165 213 269 323 385
#     4  11  20  42  68  93 127 171 219 263 331 389
#
# _framework density 29.22777
#
# number of rings (size 3 to 8) (size 9 to 14) (size 15 to 20)
#    1.200    0.800    2.000    2.400    0.000    1.600 
#   10.800    0.000    0.000    0.000    0.000    0.000 
#    0.000    0.000    0.000    0.000    0.000    0.000 
#
# Total GULP energy -111613.611175 kJ/mol
# GULP energy per Si atom -5580.680559 kJ/mol
# Density = 2.916125 g / cm^3
# Si number density = 29.227770 Si / 1000 Ang^3
#
#
#
# Elastic Constant Matrix: (Units=GPa)
#
#
# Indices 1 2 3 4 5 6 
#
# 1 143.6292 -9.6812 8.8414 0.0000 0.0000 0.0000
# 2 -9.6812 94.5503 -9.2141 0.0000 0.0000 0.0000
# 3 8.8414 -9.2141 37.5487 0.0000 0.0000 0.0000
# 4 0.0000 0.0000 0.0000 37.4409 0.0000 0.0000
# 5 0.0000 0.0000 0.0000 0.0000 56.9716 0.0000
# 6 0.0000 0.0000 0.0000 0.0000 0.0000 40.1255
#
#
#
# Elastic Compliance Matrix: (Units=1/GPa)
#
#
# Indices 1 2 3 4 5 6 
#
# 1 0.007095 0.000578 -0.001529 0.000000 0.000000 0.000000
# 2 0.000578 0.010883 0.002534 0.000000 0.000000 0.000000
# 3 -0.001529 0.002534 0.027614 0.000000 0.000000 0.000000
# 4 0.000000 0.000000 0.000000 0.026709 0.000000 0.000000
# 5 0.000000 0.000000 0.000000 0.000000 0.017553 0.000000
# 6 0.000000 0.000000 0.000000 0.000000 0.000000 0.024922
#
#
# Mechanical properties :
#
#
# Convention : Reuss Voigt Hill
#
# Bulk Modulus (GPa) = 20.50947 28.40226 24.45587
# Shear Modulus (GPa) = 39.10470 45.95973 42.53221
#
# Velocity S-wave (km/s) = 3.66174 3.96974 3.81885
# Velocity P-wave (km/s) = 4.99101 5.54531 5.27544
#
# Compressibility (1/GPa) = 0.04875796
#
# Stress axis : x y z
#
# Youngs Moduli (GPa) = 140.93594 91.89059 36.21343
#
# Poissons Ratio (x) = -0.05307 0.05537
# Poissons Ratio (y) = -0.08139 -0.09178
# Poissons Ratio (z) = 0.21549 -0.23289
#
# Static dielectric constant tensor:
#      x y z
#    x 2.194040 0.000000 0.000000 
#    y 0.000000 2.304590 0.000000 
#    z 0.000000 0.000000 2.599780 
# 
# From -- ./inp_files/2704.got.cif
#   From: 2010.05.17/outbox.cif.g08.bks.cpg/sg19_2_cif.got.tgz:2704.got - 2010.06.03 22:46:19.
