data_PCOD9315236
_publ_section_title
;
Structure prediction by ZEFSAII (Michael W. Deem and Ramdas Pophale) SiO2 
 PCOD9315236
Probable space group: P 21 21 21
;
_chemical_formula_sum "Si O2"
_cell_formula_units_Z 20
_cell_length_a 4.908716
_cell_length_b 10.978624
_cell_length_c 13.994382
_cell_angle_alpha 90.000000
_cell_angle_beta 90.000000
_cell_angle_gamma 90.000000
_cell_volume 754.170503
_symmetry_space_group_name_H-M "P 21 21 21"
_symmetry_group_IT_number 19
_symmetry_cell_setting 'orthorhombic'
loop_
_space_group_symop_operation_xyz
x,y,z
1/2-x,-y,1/2+z
1/2+x,1/2-y,-z
-x,1/2+y,1/2-z
loop_
_atom_site_type_symbol
_atom_site_label
_atom_site_fract_x
_atom_site_fract_y
_atom_site_fract_z
Si Si1 0.534916 0.091631 0.793212
Si Si2 0.562102 0.288520 0.655135
Si Si3 0.445547 0.159834 0.999127
Si Si4 0.543268 0.045915 0.386847
Si Si5 0.665045 0.024569 0.595219
O O1 0.472349 0.223995 0.752100
O O2 0.515487 0.007292 0.697304
O O3 0.849538 0.064826 0.821857
O O4 0.402943 0.091626 0.897600
O O5 0.305628 0.360484 0.612438
O O6 0.696771 0.172174 0.600534
O O7 0.805724 0.381766 0.662891
O O8 0.577538 0.063828 0.075066
O O9 0.184933 0.240942 0.023081
O O10 0.498014 0.011660 0.497273
#
# Coordination Sequence:
#
# PCOD9315236 Si02
#       5
#     4   4   4   4   4
#     4   9  25  40  66 100 123 174 217 262 325 395
#     4  10  24  38  68  88 127 167 210 266 318 376
#     4  11  26  46  67  97 137 175 213 275 332 387
#     4  11  22  44  59  95 128 163 212 272 315 378
#     4   9  23  42  64  98 125 169 222 263 318 398
#
# _framework density 26.519203999999998
#
# number of rings (size 3 to 8) (size 9 to 14) (size 15 to 20)
#    1.200    0.800    0.000    1.200    5.600    9.600 
#    0.000    0.000    0.000    0.000    0.000    0.000 
#    0.000    0.000    0.000    0.000    0.000    0.000 
#
# Total GULP energy -111532.647273 kJ/mol
# GULP energy per Si atom -5576.632364 kJ/mol
# Density = 2.645884 g / cm^3
# Si number density = 26.519204 Si / 1000 Ang^3
#
#
#
# Elastic Constant Matrix: (Units=GPa)
#
#
# Indices 1 2 3 4 5 6 
#
# 1 78.4455 7.8035 35.7531 0.0000 0.0000 0.0000
# 2 7.8035 118.1032 32.7902 0.0000 0.0000 0.0000
# 3 35.7531 32.7902 173.8784 0.0000 0.0000 0.0000
# 4 0.0000 0.0000 0.0000 31.5884 0.0000 0.0000
# 5 0.0000 0.0000 0.0000 0.0000 30.6285 0.0000
# 6 0.0000 0.0000 0.0000 0.0000 0.0000 31.2984
#
#
#
# Elastic Compliance Matrix: (Units=1/GPa)
#
#
# Indices 1 2 3 4 5 6 
#
# 1 0.014068 -0.000133 -0.002868 0.000000 0.000000 0.000000
# 2 -0.000133 0.008936 -0.001658 0.000000 0.000000 0.000000
# 3 -0.002868 -0.001658 0.006653 0.000000 0.000000 0.000000
# 4 0.000000 0.000000 0.000000 0.031657 0.000000 0.000000
# 5 0.000000 0.000000 0.000000 0.000000 0.032649 0.000000
# 6 0.000000 0.000000 0.000000 0.000000 0.000000 0.031950
#
#
# Mechanical properties :
#
#
# Convention : Reuss Voigt Hill
#
# Bulk Modulus (GPa) = 49.16370 58.12452 53.64411
# Shear Modulus (GPa) = 35.20828 38.30840 36.75834
#
# Velocity S-wave (km/s) = 3.64765 3.80485 3.72708
# Velocity P-wave (km/s) = 6.02658 6.42402 6.22847
#
# Compressibility (1/GPa) = 0.02034021
#
# Stress axis : x y z
#
# Youngs Moduli (GPa) = 71.08379 111.90373 150.29922
#
# Poissons Ratio (x) = 0.01493 0.43098
# Poissons Ratio (y) = 0.00948 0.24916
# Poissons Ratio (z) = 0.20383 0.18551
#
# Static dielectric constant tensor:
#      x y z
#    x 2.131720 0.000000 0.000000 
#    y 0.000000 2.206850 0.000000 
#    z 0.000000 0.000000 2.056220 
# 
# From -- ./inp_files/5631.got.cif
#   From: 2010.05.17/outbox.cif.g08.bks.cpg/sg19_3_cif.got.tgz:5631.got - 2010.06.03 22:46:19.
