data_PCOD9315054
_publ_section_title
;
Structure prediction by ZEFSAII (Michael W. Deem and Ramdas Pophale) SiO2 
 PCOD9315054
Probable space group: P 21 21 21
;
_chemical_formula_sum "Si O2"
_cell_formula_units_Z 32
_cell_length_a 9.871816
_cell_length_b 16.898620
_cell_length_c 8.971468
_cell_angle_alpha 90.000000
_cell_angle_beta 90.000000
_cell_angle_gamma 90.000000
_cell_volume 1496.620895
_symmetry_space_group_name_H-M "P 21 21 21"
_symmetry_group_IT_number 19
_symmetry_cell_setting 'orthorhombic'
loop_
_space_group_symop_operation_xyz
x,y,z
1/2-x,-y,1/2+z
1/2+x,1/2-y,-z
-x,1/2+y,1/2-z
loop_
_atom_site_type_symbol
_atom_site_label
_atom_site_fract_x
_atom_site_fract_y
_atom_site_fract_z
Si Si1 0.104074 0.507458 0.423005
Si Si2 0.193285 0.766877 0.071463
Si Si3 0.587166 0.174984 0.577276
Si Si4 0.841992 0.569239 0.929239
Si Si5 0.604072 0.992541 0.923003
Si Si6 0.806712 0.266877 0.071464
Si Si7 0.341994 0.930761 0.429236
Si Si8 0.412835 0.674983 0.577275
O O1 0.048938 0.417096 0.426434
O O2 0.117022 0.531499 0.250001
O O3 0.250001 0.499999 0.500000
O O4 0.993780 0.560022 0.507674
O O5 0.276431 0.846227 0.030936
O O6 0.186501 0.763654 0.249999
O O7 0.040228 0.776264 0.015333
O O8 0.276720 0.693548 0.010199
O O9 0.609862 0.196235 0.750001
O O10 0.842000 0.561563 0.750002
O O11 0.749999 0.500000 0.000001
O O12 0.993777 0.560023 0.992331
O O13 0.548937 0.082903 0.926434
O O14 0.723566 0.346227 0.030939
O O15 0.959769 0.276265 0.015333
O O16 0.723277 0.193548 0.010202
#
# Coordination Sequence:
#
# PCOD9315054 Si02
#       8
#     4   4   4   4   4   4   4   4
#     4  11  24  43  64  92 127 162 206 259 310 368
#     4  10  23  42  62  89 124 161 204 252 304 365
#     4  10  23  43  62  88 125 162 202 252 305 362
#     4  11  22  41  66  92 122 161 206 255 307 365
#     4  11  24  43  64  92 127 162 206 259 310 368
#     4  10  23  42  62  89 124 161 204 252 304 365
#     4  11  22  41  66  92 122 161 206 255 307 365
#     4  10  23  43  62  88 125 162 202 252 305 362
#
# _framework density 21.381499999999999
#
# number of rings (size 3 to 8) (size 9 to 14) (size 15 to 20)
#    0.000    1.500    2.500    1.500    3.500    5.000 
#    0.000    0.000    0.000    0.000    0.000    0.000 
#    0.000    0.000    0.000    0.000    0.000    0.000 
#
# Total GULP energy -178959.690152 kJ/mol
# GULP energy per Si atom -5592.490317 kJ/mol
# Density = 2.133284 g / cm^3
# Si number density = 21.381500 Si / 1000 Ang^3
#
#
#
# Elastic Constant Matrix: (Units=GPa)
#
#
# Indices 1 2 3 4 5 6 
#
# 1 110.3811 -11.1978 19.2269 0.0000 0.0000 0.0000
# 2 -11.1978 30.2766 3.2969 0.0000 0.0000 0.0000
# 3 19.2269 3.2969 48.5968 0.0000 0.0000 0.0000
# 4 0.0000 0.0000 0.0000 27.5462 0.0000 0.0000
# 5 0.0000 0.0000 0.0000 0.0000 36.1308 0.0000
# 6 0.0000 0.0000 0.0000 0.0000 0.0000 40.5899
#
#
#
# Elastic Compliance Matrix: (Units=1/GPa)
#
#
# Indices 1 2 3 4 5 6 
#
# 1 0.010249 0.004264 -0.004344 0.000000 0.000000 0.000000
# 2 0.004264 0.035048 -0.004065 0.000000 0.000000 0.000000
# 3 -0.004344 -0.004065 0.022572 0.000000 0.000000 0.000000
# 4 0.000000 0.000000 0.000000 0.036303 0.000000 0.000000
# 5 0.000000 0.000000 0.000000 0.000000 0.027677 0.000000
# 6 0.000000 0.000000 0.000000 0.000000 0.000000 0.024637
#
#
# Mechanical properties :
#
#
# Convention : Reuss Voigt Hill
#
# Bulk Modulus (GPa) = 16.78453 23.54518 20.16485
# Shear Modulus (GPa) = 27.08042 32.71528 29.89785
#
# Velocity S-wave (km/s) = 3.56270 3.91586 3.74345
# Velocity P-wave (km/s) = 4.97904 5.61080 5.30434
#
# Compressibility (1/GPa) = 0.05957867
#
# Stress axis : x y z
#
# Youngs Moduli (GPa) = 97.57307 28.53208 44.30284
#
# Poissons Ratio (x) = -0.12165 0.19245
# Poissons Ratio (y) = -0.41601 0.18007
# Poissons Ratio (z) = 0.42386 0.11597
#
# Static dielectric constant tensor:
#      x y z
#    x 1.763150 0.000000 0.000000 
#    y 0.000000 1.796100 0.000000 
#    z 0.000000 0.000000 1.718870 
# 
# From -- ./inp_files/3042.got.cif
#   From: 2010.05.17/outbox.cif.g08.bks.cpg/sg19_2_cif.got.tgz:3042.got - 2010.06.03 22:46:19.
