data_PCOD9315178
_publ_section_title
;
Structure prediction by ZEFSAII (Michael W. Deem and Ramdas Pophale) SiO2 
 PCOD9315178
Probable space group: P 21 21 21
;
_chemical_formula_sum "Si O2"
_cell_formula_units_Z 28
_cell_length_a 9.190676
_cell_length_b 5.566279
_cell_length_c 21.597329
_cell_angle_alpha 90.000000
_cell_angle_beta 90.000000
_cell_angle_gamma 90.000000
_cell_volume 1104.873281
_symmetry_space_group_name_H-M "P 21 21 21"
_symmetry_group_IT_number 19
_symmetry_cell_setting 'orthorhombic'
loop_
_space_group_symop_operation_xyz
x,y,z
1/2-x,-y,1/2+z
1/2+x,1/2-y,-z
-x,1/2+y,1/2-z
loop_
_atom_site_type_symbol
_atom_site_label
_atom_site_fract_x
_atom_site_fract_y
_atom_site_fract_z
Si Si1 0.785209 0.882696 0.682161
Si Si2 0.726687 0.613307 0.255056
Si Si3 0.477221 0.005119 0.657487
Si Si4 0.547924 0.337563 0.563842
Si Si5 0.174304 0.232724 0.048153
Si Si6 0.382861 0.113724 0.446693
Si Si7 0.953544 0.216538 0.875678
O O1 0.820469 0.643510 0.724260
O O2 0.908507 0.892045 0.629808
O O3 0.777993 0.140235 0.715960
O O4 0.623204 0.849456 0.656397
O O5 0.886613 0.551596 0.281984
O O6 0.634205 0.700771 0.314983
O O7 0.521696 0.270805 0.636959
O O8 0.372952 0.965477 0.598325
O O9 0.450275 0.574311 0.558690
O O10 0.487968 0.222005 0.498901
O O11 0.721135 0.283948 0.560335
O O12 0.338833 0.285004 0.068175
O O13 0.163708 0.138606 0.979406
O O14 0.470934 0.044624 0.384942
#
# Coordination Sequence:
#
# PCOD9315178 Si02
#       7
#     4   4   4   4   4   4   4
#     4  12  26  48  73 109 145 191 252 312 380 447
#     4  11  27  49  73 105 149 191 251 312 378 445
#     4  10  25  43  76 106 143 195 253 314 382 456
#     4  11  24  44  73 111 154 206 255 316 389 469
#     4  10  23  45  68 107 147 195 251 307 384 458
#     4  11  24  44  70 110 152 199 251 314 384 466
#     4  11  25  45  71 104 148 195 247 313 377 459
#
# _framework density 25.342272999999999
#
# number of rings (size 3 to 8) (size 9 to 14) (size 15 to 20)
#    0.000    1.143    0.000    4.286    8.000    4.571 
#   10.286    0.000    0.000    0.000    0.000    0.000 
#    0.000    0.000    0.000    0.000    0.000    0.000 
#
# Total GULP energy -155901.496356 kJ/mol
# GULP energy per Si atom -5567.910584 kJ/mol
# Density = 2.528459 g / cm^3
# Si number density = 25.342273 Si / 1000 Ang^3
#
#
#
# Elastic Constant Matrix: (Units=GPa)
#
#
# Indices 1 2 3 4 5 6 
#
# 1 115.2081 -4.1291 1.6651 0.0000 0.0000 0.0000
# 2 -4.1291 87.4383 30.7463 0.0000 0.0000 0.0000
# 3 1.6651 30.7463 61.4581 0.0000 0.0000 0.0000
# 4 0.0000 0.0000 0.0000 40.8178 0.0000 0.0000
# 5 0.0000 0.0000 0.0000 0.0000 33.2879 0.0000
# 6 0.0000 0.0000 0.0000 0.0000 0.0000 -29.8958
#
#
#
# Elastic Compliance Matrix: (Units=1/GPa)
#
#
# Indices 1 2 3 4 5 6 
#
# 1 0.008709 0.000600 -0.000536 0.000000 0.000000 0.000000
# 2 0.000600 0.013919 -0.006980 0.000000 0.000000 0.000000
# 3 -0.000536 -0.006980 0.019778 0.000000 0.000000 0.000000
# 4 0.000000 0.000000 0.000000 0.024499 0.000000 0.000000
# 5 0.000000 0.000000 0.000000 0.000000 0.030041 0.000000
# 6 0.000000 0.000000 0.000000 0.000000 0.000000 -0.033450
#
#
# Mechanical properties :
#
#
# Convention : Reuss Voigt Hill
#
# Bulk Modulus (GPa) = 34.99685 35.62990 35.31338
# Shear Modulus (GPa) = 57.56829 24.56347 41.06588
#
# Velocity S-wave (km/s) = 4.77133 3.11669 4.02985
# Velocity P-wave (km/s) = 6.64784 5.20016 5.96806
#
# Compressibility (1/GPa) = 0.02857400
#
# Stress axis : x y z
#
# Youngs Moduli (GPa) = 114.82132 71.84271 50.56217
#
# Poissons Ratio (x) = -0.04309 0.02710
# Poissons Ratio (y) = -0.06886 0.35291
# Poissons Ratio (z) = 0.06154 0.50145
#
# Static dielectric constant tensor:
#      x y z
#    x 2.323940 0.000000 0.000000 
#    y 0.000000 2.822930 0.000000 
#    z 0.000000 0.000000 2.083140 
# 
# From -- ./inp_files/7344.got.cif
#   From: 2010.05.17/outbox.cif.g08.bks.cpg/sg19_4_cif.got.tgz:7344.got - 2010.06.03 22:46:19.
