data_PCOD9315797
_publ_section_title
;
Structure prediction by ZEFSAII (Michael W. Deem and Ramdas Pophale) SiO2 
 PCOD9315797
Probable space group: P 21 21 21
;
_chemical_formula_sum "Si O2"
_cell_formula_units_Z 20
_cell_length_a 14.088017
_cell_length_b 11.355814
_cell_length_c 4.702598
_cell_angle_alpha 90.000000
_cell_angle_beta 90.000000
_cell_angle_gamma 90.000000
_cell_volume 752.325864
_symmetry_space_group_name_H-M "P 21 21 21"
_symmetry_group_IT_number 19
_symmetry_cell_setting 'orthorhombic'
loop_
_space_group_symop_operation_xyz
x,y,z
1/2-x,-y,1/2+z
1/2+x,1/2-y,-z
-x,1/2+y,1/2-z
loop_
_atom_site_type_symbol
_atom_site_label
_atom_site_fract_x
_atom_site_fract_y
_atom_site_fract_z
Si Si1 0.900251 0.837950 0.113865
Si Si2 0.575656 0.406683 0.428982
Si Si3 0.603462 0.567701 0.896246
Si Si4 0.793747 0.223715 0.699976
Si Si5 0.117753 0.600019 0.297297
O O1 0.900061 0.730351 0.890728
O O2 0.813883 0.790035 0.308874
O O3 0.873109 0.972789 0.058227
O O4 0.010639 0.856167 0.199678
O O5 0.569585 0.476030 0.137493
O O6 0.478933 0.402065 0.613945
O O7 0.639783 0.490105 0.633236
O O8 0.676363 0.656031 0.045298
O O9 0.806634 0.129308 0.446710
O O10 0.865781 0.193825 0.953068
#
# Coordination Sequence:
#
# PCOD9315797 Si02
#       5
#     4   4   4   4   4
#     4  11  26  43  74  99 141 186 232 284 358 404
#     4  11  25  45  71 100 139 188 225 287 352 418
#     4  11  26  44  69 101 142 181 235 285 345 418
#     4  12  25  45  70 105 139 180 233 292 342 419
#     4  11  24  45  68 103 139 175 237 286 345 409
#
# _framework density 26.584226000000001
#
# number of rings (size 3 to 8) (size 9 to 14) (size 15 to 20)
#    0.000    0.800    2.000    4.800    2.800    8.000 
#    0.000    0.000    0.000    0.000    0.000    0.000 
#    0.000    0.000    0.000    0.000    0.000    0.000 
#
# Total GULP energy -111699.757054 kJ/mol
# GULP energy per Si atom -5584.987853 kJ/mol
# Density = 2.652372 g / cm^3
# Si number density = 26.584226 Si / 1000 Ang^3
#
#
#
# Elastic Constant Matrix: (Units=GPa)
#
#
# Indices 1 2 3 4 5 6 
#
# 1 104.3516 60.6507 41.2773 0.0000 0.0000 0.0000
# 2 60.6507 145.4386 47.8253 0.0000 0.0000 0.0000
# 3 41.2773 47.8253 135.1283 0.0000 0.0000 0.0000
# 4 0.0000 0.0000 0.0000 11.0787 0.0000 0.0000
# 5 0.0000 0.0000 0.0000 0.0000 20.4318 0.0000
# 6 0.0000 0.0000 0.0000 0.0000 0.0000 33.7815
#
#
#
# Elastic Compliance Matrix: (Units=1/GPa)
#
#
# Indices 1 2 3 4 5 6 
#
# 1 0.013289 -0.004761 -0.002374 0.000000 0.000000 0.000000
# 2 -0.004761 0.009487 -0.001903 0.000000 0.000000 0.000000
# 3 -0.002374 -0.001903 0.008799 0.000000 0.000000 0.000000
# 4 0.000000 0.000000 0.000000 0.090263 0.000000 0.000000
# 5 0.000000 0.000000 0.000000 0.000000 0.048943 0.000000
# 6 0.000000 0.000000 0.000000 0.000000 0.000000 0.029602
#
#
# Mechanical properties :
#
#
# Convention : Reuss Voigt Hill
#
# Bulk Modulus (GPa) = 74.08464 76.04721 75.06593
# Shear Modulus (GPa) = 22.42537 28.73608 25.58073
#
# Velocity S-wave (km/s) = 2.90756 3.29134 3.10538
# Velocity P-wave (km/s) = 6.26101 6.56598 6.41531
#
# Compressibility (1/GPa) = 0.01349807
#
# Stress axis : x y z
#
# Youngs Moduli (GPa) = 75.24756 105.40579 113.64515
#
# Poissons Ratio (x) = 0.50186 0.26984
# Poissons Ratio (y) = 0.35827 0.21631
# Poissons Ratio (z) = 0.17867 0.20062
#
# Static dielectric constant tensor:
#      x y z
#    x 2.231620 0.000000 0.000000 
#    y 0.000000 2.124220 0.000000 
#    z 0.000000 0.000000 2.015650 
# 
# From -- ./inp_files/1412.got.cif
#   From: 2010.05.17/outbox.cif.g08.bks.cpg/sg19_1_cif.got.tgz:1412.got - 2010.06.03 22:46:19.
