data_PCOD9315085
_publ_section_title
;
Structure prediction by ZEFSAII (Michael W. Deem and Ramdas Pophale) SiO2 
 PCOD9315085
Probable space group: P 21 21 21
;
_chemical_formula_sum "Si O2"
_cell_formula_units_Z 32
_cell_length_a 14.847207
_cell_length_b 7.840706
_cell_length_c 12.025246
_cell_angle_alpha 90.000000
_cell_angle_beta 90.000000
_cell_angle_gamma 90.000000
_cell_volume 1399.889972
_symmetry_space_group_name_H-M "P 21 21 21"
_symmetry_group_IT_number 19
_symmetry_cell_setting 'orthorhombic'
loop_
_space_group_symop_operation_xyz
x,y,z
1/2-x,-y,1/2+z
1/2+x,1/2-y,-z
-x,1/2+y,1/2-z
loop_
_atom_site_type_symbol
_atom_site_label
_atom_site_fract_x
_atom_site_fract_y
_atom_site_fract_z
Si Si1 0.300785 0.376584 0.528185
Si Si2 0.640563 0.751446 0.750475
Si Si3 0.119193 0.247641 0.007030
Si Si4 0.124878 0.261321 0.436098
Si Si5 0.975749 0.355943 0.848342
Si Si6 0.467624 0.254304 0.401022
Si Si7 0.686284 0.623935 0.509881
Si Si8 0.456386 0.889395 0.722023
O O1 0.290073 0.302675 0.652871
O O2 0.344574 0.562558 0.529781
O O3 0.208496 0.381266 0.460705
O O4 0.372226 0.259687 0.462640
O O5 0.676637 0.725415 0.626335
O O6 0.560554 0.889794 0.755907
O O7 0.591582 0.571662 0.776896
O O8 0.208537 0.134691 0.018175
O O9 0.050233 0.194524 0.102223
O O10 0.061282 0.247949 0.894002
O O11 0.041359 0.315446 0.512843
O O12 0.094242 0.230743 0.310718
O O13 0.158183 0.071973 0.471425
O O14 0.963513 0.335306 0.717486
O O15 0.002250 0.550588 0.876566
O O16 0.884291 0.311434 0.916368
#
# Coordination Sequence:
#
# PCOD9315085 Si02
#       8
#     4   4   4   4   4   4   4   4
#     4  11  24  42  63  93 126 160 206 257 307 367
#     4  11  22  41  67  92 123 162 207 257 311 367
#     4  11  24  42  63  93 126 160 206 257 307 367
#     4  10  23  43  63  89 124 163 204 252 306 365
#     4  10  23  43  62  87 125 163 203 251 305 364
#     4  10  23  43  62  87 125 163 203 251 305 364
#     4  10  23  43  63  89 124 163 204 252 306 365
#     4  11  22  41  67  92 123 162 207 257 311 367
#
# _framework density 22.858941000000002
#
# number of rings (size 3 to 8) (size 9 to 14) (size 15 to 20)
#    0.000    1.500    2.500    1.500    3.500    5.000 
#    0.000    0.000    0.000    0.000    0.000    0.000 
#    0.000    0.000    0.000    0.000    0.000    0.000 
#
# Total GULP energy -179070.054266 kJ/mol
# GULP energy per Si atom -5595.939196 kJ/mol
# Density = 2.280691 g / cm^3
# Si number density = 22.858941 Si / 1000 Ang^3
#
#
#
# Elastic Constant Matrix: (Units=GPa)
#
#
# Indices 1 2 3 4 5 6 
#
# 1 64.9908 6.8628 0.5823 0.0000 0.0000 0.0000
# 2 6.8628 53.8844 25.5620 0.0000 0.0000 0.0000
# 3 0.5823 25.5620 79.3198 0.0000 0.0000 0.0000
# 4 0.0000 0.0000 0.0000 25.4427 0.0000 0.0000
# 5 0.0000 0.0000 0.0000 0.0000 -4.5581 0.0000
# 6 0.0000 0.0000 0.0000 0.0000 0.0000 30.0332
#
#
#
# Elastic Compliance Matrix: (Units=1/GPa)
#
#
# Indices 1 2 3 4 5 6 
#
# 1 0.015622 -0.002285 0.000622 0.000000 0.000000 0.000000
# 2 -0.002285 0.022241 -0.007151 0.000000 0.000000 0.000000
# 3 0.000622 -0.007151 0.014907 0.000000 0.000000 0.000000
# 4 0.000000 0.000000 0.000000 0.039304 0.000000 0.000000
# 5 0.000000 0.000000 0.000000 0.000000 -0.219390 0.000000
# 6 0.000000 0.000000 0.000000 0.000000 0.000000 0.033296
#
#
# Mechanical properties :
#
#
# Convention : Reuss Voigt Hill
#
# Bulk Modulus (GPa) = 28.45495 29.35659 28.90577
# Shear Modulus (GPa) = -77.30770 21.19608 -28.05581
#
# Velocity S-wave (km/s) = -5.82176 3.04839 -3.50715
# Velocity P-wave (km/s) = 5.71974 5.02600 1.93065
#
# Compressibility (1/GPa) = 0.03514327
#
# Stress axis : x y z
#
# Youngs Moduli (GPa) = 64.01037 44.96106 67.08212
#
# Poissons Ratio (x) = 0.10272 -0.04169
# Poissons Ratio (y) = 0.14623 0.47970
# Poissons Ratio (z) = -0.03978 0.32151
#
# Static dielectric constant tensor:
#      x y z
#    x 1.821340 0.000000 0.000000 
#    y 0.000000 1.884820 0.000000 
#    z 0.000000 0.000000 1.824600 
# 
# From -- ./inp_files/3939.got.cif
#   From: 2010.05.17/outbox.cif.g08.bks.cpg/sg19_2_cif.got.tgz:3939.got - 2010.06.03 22:46:19.
