data_PCOD9315313
_publ_section_title
;
Structure prediction by ZEFSAII (Michael W. Deem and Ramdas Pophale) SiO2 
 PCOD9315313
Probable space group: P 21 21 21
;
_chemical_formula_sum "Si O2"
_cell_formula_units_Z 24
_cell_length_a 12.317109
_cell_length_b 8.053907
_cell_length_c 10.980106
_cell_angle_alpha 90.000000
_cell_angle_beta 90.000000
_cell_angle_gamma 90.000000
_cell_volume 1089.235853
_symmetry_space_group_name_H-M "P 21 21 21"
_symmetry_group_IT_number 19
_symmetry_cell_setting 'orthorhombic'
loop_
_space_group_symop_operation_xyz
x,y,z
1/2-x,-y,1/2+z
1/2+x,1/2-y,-z
-x,1/2+y,1/2-z
loop_
_atom_site_type_symbol
_atom_site_label
_atom_site_fract_x
_atom_site_fract_y
_atom_site_fract_z
Si Si1 0.854877 0.765112 0.787599
Si Si2 0.539183 0.261103 0.788761
Si Si3 0.138799 0.889070 0.139708
Si Si4 0.910740 0.235984 0.606005
Si Si5 0.115404 0.357146 0.978304
Si Si6 0.241179 0.634229 0.695052
O O1 0.762527 0.635511 0.822948
O O2 0.887392 0.756327 0.645865
O O3 0.962500 0.750056 0.866820
O O4 0.802696 0.947619 0.805460
O O5 0.435687 0.251303 0.704072
O O6 0.586679 0.443123 0.810068
O O7 0.641662 0.154145 0.737855
O O8 0.521674 0.187176 0.924569
O O9 0.125948 0.866004 0.995613
O O10 0.844426 0.244973 0.732198
O O11 0.886688 0.051335 0.554227
O O12 0.223913 0.319176 0.057669
#
# Coordination Sequence:
#
# PCOD9315313 Si02
#       6
#     4   4   4   4   4   4
#     4  11  24  40  71 103 135 182 236 295 359 412
#     4  10  24  44  70  95 142 188 238 282 352 422
#     4  12  24  43  67 106 137 191 236 293 354 422
#     4  11  24  41  73 101 140 178 242 293 356 420
#     4   9  22  47  65  98 136 189 227 295 345 422
#     4   9  22  47  66  97 140 188 229 290 354 416
#
# _framework density 22.033795999999999
#
# number of rings (size 3 to 8) (size 9 to 14) (size 15 to 20)
#    1.000    0.667    1.667    2.000    2.333    9.333 
#    3.000    0.000    0.000    0.000    0.000    0.000 
#    0.000    0.000    0.000    0.000    0.000    0.000 
#
# Total GULP energy -133998.293949 kJ/mol
# GULP energy per Si atom -5583.262248 kJ/mol
# Density = 2.198365 g / cm^3
# Si number density = 22.033796 Si / 1000 Ang^3
#
#
#
# Elastic Constant Matrix: (Units=GPa)
#
#
# Indices 1 2 3 4 5 6 
#
# 1 102.6622 14.8025 27.5332 0.0000 0.0000 0.0000
# 2 14.8025 60.6981 18.0952 0.0000 0.0000 0.0000
# 3 27.5332 18.0952 83.4026 0.0000 0.0000 0.0000
# 4 0.0000 0.0000 0.0000 20.4359 0.0000 0.0000
# 5 0.0000 0.0000 0.0000 0.0000 37.9729 0.0000
# 6 0.0000 0.0000 0.0000 0.0000 0.0000 11.5410
#
#
#
# Elastic Compliance Matrix: (Units=1/GPa)
#
#
# Indices 1 2 3 4 5 6 
#
# 1 0.010846 -0.001687 -0.003215 0.000000 0.000000 0.000000
# 2 -0.001687 0.017877 -0.003322 0.000000 0.000000 0.000000
# 3 -0.003215 -0.003322 0.013772 0.000000 0.000000 0.000000
# 4 0.000000 0.000000 0.000000 0.048933 0.000000 0.000000
# 5 0.000000 0.000000 0.000000 0.000000 0.026335 0.000000
# 6 0.000000 0.000000 0.000000 0.000000 0.000000 0.086648
#
#
# Mechanical properties :
#
#
# Convention : Reuss Voigt Hill
#
# Bulk Modulus (GPa) = 38.38992 40.84720 39.61856
# Shear Modulus (GPa) = 21.78279 26.41209 24.09744
#
# Velocity S-wave (km/s) = 3.14762 3.46599 3.31064
# Velocity P-wave (km/s) = 5.53815 5.88185 5.71258
#
# Compressibility (1/GPa) = 0.02604851
#
# Stress axis : x y z
#
# Youngs Moduli (GPa) = 92.19985 55.93911 72.61151
#
# Poissons Ratio (x) = 0.09435 0.23341
# Poissons Ratio (y) = 0.15551 0.24120
# Poissons Ratio (z) = 0.29638 0.18581
#
# Static dielectric constant tensor:
#      x y z
#    x 1.795300 0.000000 0.000000 
#    y 0.000000 1.854920 0.000000 
#    z 0.000000 0.000000 1.811720 
# 
# From -- ./inp_files/4921.got.cif
#   From: 2010.05.17/outbox.cif.g08.bks.cpg/sg19_3_cif.got.tgz:4921.got - 2010.06.03 22:46:19.
