data_PCOD9315545
_publ_section_title
;
Structure prediction by ZEFSAII (Michael W. Deem and Ramdas Pophale) SiO2 
 PCOD9315545
Probable space group: P 21 21 21
;
_chemical_formula_sum "Si O2"
_cell_formula_units_Z 32
_cell_length_a 13.831458
_cell_length_b 9.300858
_cell_length_c 11.759586
_cell_angle_alpha 90.000000
_cell_angle_beta 90.000000
_cell_angle_gamma 90.000000
_cell_volume 1512.805200
_symmetry_space_group_name_H-M "P 21 21 21"
_symmetry_group_IT_number 19
_symmetry_cell_setting 'orthorhombic'
loop_
_space_group_symop_operation_xyz
x,y,z
1/2-x,-y,1/2+z
1/2+x,1/2-y,-z
-x,1/2+y,1/2-z
loop_
_atom_site_type_symbol
_atom_site_label
_atom_site_fract_x
_atom_site_fract_y
_atom_site_fract_z
Si Si1 0.586035 0.369988 0.767326
Si Si2 0.291527 0.192474 0.116044
Si Si3 0.891144 0.072918 0.754861
Si Si4 0.841940 0.251169 0.528438
Si Si5 0.836557 0.836361 0.905845
Si Si6 0.388445 0.925617 0.218314
Si Si7 0.775670 0.466255 0.113094
Si Si8 0.522556 0.112530 0.604571
O O1 0.682848 0.332550 0.838885
O O2 0.627336 0.482403 0.674337
O O3 0.548959 0.227993 0.702926
O O4 0.511081 0.460465 0.843105
O O5 0.328164 0.347480 0.149444
O O6 0.366474 0.088421 0.182126
O O7 0.294937 0.142102 0.987906
O O8 0.864557 0.143940 0.633475
O O9 0.005945 0.089789 0.770071
O O10 0.865327 0.909929 0.786668
O O11 0.776068 0.172427 0.434745
O O12 0.778589 0.387099 0.572589
O O13 0.935359 0.318890 0.469289
O O14 0.877054 0.674578 0.891254
O O15 0.889914 0.902047 0.015444
O O16 0.299369 0.892726 0.300836
#
# Coordination Sequence:
#
# PCOD9315545 Si02
#       8
#     4   4   4   4   4   4   4   4
#     4  11  24  42  70  98 133 182 227 276 337 413
#     4  11  22  43  69  94 135 181 230 278 335 409
#     4  12  25  39  68 103 132 174 229 287 332 407
#     4  12  22  44  70  93 139 179 219 283 345 393
#     4  12  25  43  68 100 141 176 219 292 347 388
#     4  11  21  42  69  97 127 181 232 270 340 410
#     4  11  21  44  71  93 129 184 230 269 333 411
#     4  12  24  45  69 100 138 181 228 279 343 401
#
# _framework density 21.152756
#
# number of rings (size 3 to 8) (size 9 to 14) (size 15 to 20)
#    0.000    0.500    7.500    2.250    0.000    4.000 
#    0.000    0.000    0.000    0.000    0.000    0.000 
#    0.000    0.000    0.000    0.000    0.000    0.000 
#
# Total GULP energy -178783.471598 kJ/mol
# GULP energy per Si atom -5586.983487 kJ/mol
# Density = 2.110461 g / cm^3
# Si number density = 21.152756 Si / 1000 Ang^3
#
#
#
# Elastic Constant Matrix: (Units=GPa)
#
#
# Indices 1 2 3 4 5 6 
#
# 1 33.7960 8.9715 -0.9105 0.0000 0.0000 0.0000
# 2 8.9715 50.0484 1.2466 0.0000 0.0000 0.0000
# 3 -0.9105 1.2466 41.9894 0.0000 0.0000 0.0000
# 4 0.0000 0.0000 0.0000 41.7980 0.0000 0.0000
# 5 0.0000 0.0000 0.0000 0.0000 35.1870 0.0000
# 6 0.0000 0.0000 0.0000 0.0000 0.0000 32.3849
#
#
#
# Elastic Compliance Matrix: (Units=1/GPa)
#
#
# Indices 1 2 3 4 5 6 
#
# 1 0.031097 -0.005595 0.000840 0.000000 0.000000 0.000000
# 2 -0.005595 0.021002 -0.000745 0.000000 0.000000 0.000000
# 3 0.000840 -0.000745 0.023856 0.000000 0.000000 0.000000
# 4 0.000000 0.000000 0.000000 0.023925 0.000000 0.000000
# 5 0.000000 0.000000 0.000000 0.000000 0.028420 0.000000
# 6 0.000000 0.000000 0.000000 0.000000 0.000000 0.030879
#
#
# Mechanical properties :
#
#
# Convention : Reuss Voigt Hill
#
# Bulk Modulus (GPa) = 15.39506 16.04989 15.72248
# Shear Modulus (GPa) = 26.06479 29.64239 27.85359
#
# Velocity S-wave (km/s) = 3.51410 3.74752 3.63269
# Velocity P-wave (km/s) = 4.87433 5.13121 5.00442
#
# Compressibility (1/GPa) = 0.06495590
#
# Stress axis : x y z
#
# Youngs Moduli (GPa) = 32.15710 47.61406 41.91838
#
# Poissons Ratio (x) = 0.26642 -0.03523
# Poissons Ratio (y) = 0.17993 0.03122
# Poissons Ratio (z) = -0.02703 0.03547
#
# Static dielectric constant tensor:
#      x y z
#    x 1.741700 0.000000 0.000000 
#    y 0.000000 1.738630 0.000000 
#    z 0.000000 0.000000 1.798790 
# 
# From -- ./inp_files/5225.got.cif
#   From: 2010.05.17/outbox.cif.g08.bks.cpg/sg19_3_cif.got.tgz:5225.got - 2010.06.03 22:46:19.
