data_PCOD9315871
_publ_section_title
;
Structure prediction by ZEFSAII (Michael W. Deem and Ramdas Pophale) SiO2 
 PCOD9315871
Probable space group: P 21 21 21
;
_chemical_formula_sum "Si O2"
_cell_formula_units_Z 28
_cell_length_a 16.349288
_cell_length_b 11.741017
_cell_length_c 5.867858
_cell_angle_alpha 90.000000
_cell_angle_beta 90.000000
_cell_angle_gamma 90.000000
_cell_volume 1126.377993
_symmetry_space_group_name_H-M "P 21 21 21"
_symmetry_group_IT_number 19
_symmetry_cell_setting 'orthorhombic'
loop_
_space_group_symop_operation_xyz
x,y,z
1/2-x,-y,1/2+z
1/2+x,1/2-y,-z
-x,1/2+y,1/2-z
loop_
_atom_site_type_symbol
_atom_site_label
_atom_site_fract_x
_atom_site_fract_y
_atom_site_fract_z
Si Si1 0.226985 0.553977 0.190779
Si Si2 0.588581 0.865334 0.509653
Si Si3 0.931411 0.743741 0.268486
Si Si4 0.343701 0.742663 0.322324
Si Si5 0.321168 0.922830 0.996825
Si Si6 0.660780 0.646201 0.283464
Si Si7 0.981847 0.902916 0.895000
O O1 0.260417 0.496377 0.434093
O O2 0.136054 0.587006 0.268259
O O3 0.277834 0.670391 0.188962
O O4 0.506862 0.804789 0.591926
O O5 0.645212 0.774504 0.374971
O O6 0.558962 0.974045 0.364355
O O7 0.849806 0.773577 0.410260
O O8 0.898584 0.639317 0.117301
O O9 0.963685 0.856138 0.146677
O O10 0.429460 0.688081 0.246577
O O11 0.329384 0.872086 0.252642
O O12 0.238333 0.879436 0.877380
O O13 0.328683 0.057999 0.006595
O O14 0.576419 0.608378 0.162123
#
# Coordination Sequence:
#
# PCOD9315871 Si02
#       7
#     4   4   4   4   4   4   4
#     4  12  28  47  78 117 158 206 267 334 404 486
#     4  12  27  46  81 114 153 208 267 335 402 494
#     4  11  26  49  78 110 152 209 263 341 403 482
#     4  11  24  51  75 105 159 200 260 334 401 479
#     4  11  30  49  77 110 162 209 264 327 409 502
#     4  12  29  49  78 116 158 212 267 328 410 496
#     4  11  26  49  77 112 152 200 270 335 403 481
#
# _framework density 24.858440000000002
#
# number of rings (size 3 to 8) (size 9 to 14) (size 15 to 20)
#    0.000    0.571    2.857    2.571   16.000    1.143 
#    0.000    0.000    0.000    0.000    0.000    0.000 
#    0.000    0.000    0.000    0.000    0.000    0.000 
#
# Total GULP energy -156467.391700 kJ/mol
# GULP energy per Si atom -5588.121132 kJ/mol
# Density = 2.480186 g / cm^3
# Si number density = 24.858440 Si / 1000 Ang^3
#
#
#
# Elastic Constant Matrix: (Units=GPa)
#
#
# Indices 1 2 3 4 5 6 
#
# 1 128.7401 40.8007 21.3980 0.0000 0.0000 0.0000
# 2 40.8007 135.6106 41.6916 0.0000 0.0000 0.0000
# 3 21.3980 41.6916 61.6343 0.0000 0.0000 0.0000
# 4 0.0000 0.0000 0.0000 11.9552 0.0000 0.0000
# 5 0.0000 0.0000 0.0000 0.0000 42.0527 0.0000
# 6 0.0000 0.0000 0.0000 0.0000 0.0000 47.0763
#
#
#
# Elastic Compliance Matrix: (Units=1/GPa)
#
#
# Indices 1 2 3 4 5 6 
#
# 1 0.008706 -0.002134 -0.001579 0.000000 0.000000 0.000000
# 2 -0.002134 0.009833 -0.005911 0.000000 0.000000 0.000000
# 3 -0.001579 -0.005911 0.020771 0.000000 0.000000 0.000000
# 4 0.000000 0.000000 0.000000 0.083645 0.000000 0.000000
# 5 0.000000 0.000000 0.000000 0.000000 0.023780 0.000000
# 6 0.000000 0.000000 0.000000 0.000000 0.000000 0.021242
#
#
# Mechanical properties :
#
#
# Convention : Reuss Voigt Hill
#
# Bulk Modulus (GPa) = 49.84258 59.30728 54.57493
# Shear Modulus (GPa) = 25.78472 35.02316 30.40394
#
# Velocity S-wave (km/s) = 3.22415 3.75761 3.50105
# Velocity P-wave (km/s) = 5.82703 6.53728 6.19234
#
# Compressibility (1/GPa) = 0.02006317
#
# Stress axis : x y z
#
# Youngs Moduli (GPa) = 114.85850 101.69572 48.14362
#
# Poissons Ratio (x) = 0.21702 0.07603
# Poissons Ratio (y) = 0.24510 0.28456
# Poissons Ratio (z) = 0.18138 0.60109
#
# Static dielectric constant tensor:
#      x y z
#    x 1.939590 0.000000 0.000000 
#    y 0.000000 1.973810 0.000000 
#    z 0.000000 0.000000 2.143410 
# 
# From -- ./inp_files/1738.got.cif
#   From: 2010.05.17/outbox.cif.g08.bks.cpg/sg19_1_cif.got.tgz:1738.got - 2010.06.03 22:46:19.
