data_PCOD9315977
_publ_section_title
;
Structure prediction by ZEFSAII (Michael W. Deem and Ramdas Pophale) SiO2 
 PCOD9315977
Probable space group: P 21 21 21
;
_chemical_formula_sum "Si O2"
_cell_formula_units_Z 20
_cell_length_a 9.114788
_cell_length_b 8.700727
_cell_length_c 9.324406
_cell_angle_alpha 90.000000
_cell_angle_beta 90.000000
_cell_angle_gamma 90.000000
_cell_volume 739.474648
_symmetry_space_group_name_H-M "P 21 21 21"
_symmetry_group_IT_number 19
_symmetry_cell_setting 'orthorhombic'
loop_
_space_group_symop_operation_xyz
x,y,z
1/2-x,-y,1/2+z
1/2+x,1/2-y,-z
-x,1/2+y,1/2-z
loop_
_atom_site_type_symbol
_atom_site_label
_atom_site_fract_x
_atom_site_fract_y
_atom_site_fract_z
Si Si1 0.335272 0.534657 0.113516
Si Si2 0.494840 0.661488 0.868948
Si Si3 0.474540 0.597858 0.550097
Si Si4 0.234653 0.082731 0.439849
Si Si5 0.075600 0.172888 0.800672
O O1 0.382904 0.698570 0.182888
O O2 0.035064 0.854587 0.295440
O O3 0.405279 0.528243 0.953650
O O4 0.164066 0.506684 0.093473
O O5 0.641832 0.663064 0.963961
O O6 0.587821 0.900929 0.291828
O O7 0.376103 0.797617 0.868769
O O8 0.613636 0.518172 0.474292
O O9 0.418194 0.731559 0.449241
O O10 0.322004 0.973614 0.331240
#
# Coordination Sequence:
#
# PCOD9315977 Si02
#       5
#     4   4   4   4   4
#     4  11  27  50  80 127 167 221 276 352 436 495
#     4  11  28  47  81 116 163 221 268 352 407 503
#     4  12  27  48  84 114 167 217 284 336 426 501
#     4  11  28  48  78 118 165 209 284 330 421 485
#     4  11  28  49  81 123 172 218 278 358 414 516
#
# _framework density 27.046227999999999
#
# number of rings (size 3 to 8) (size 9 to 14) (size 15 to 20)
#    0.000    0.800    0.000    3.600   19.600    1.600 
#    0.000    0.000    0.000    0.000    0.000    0.000 
#    0.000    0.000    0.000    0.000    0.000    0.000 
#
# Total GULP energy -112025.215293 kJ/mol
# GULP energy per Si atom -5601.260765 kJ/mol
# Density = 2.698467 g / cm^3
# Si number density = 27.046228 Si / 1000 Ang^3
#
#
#
# Elastic Constant Matrix: (Units=GPa)
#
#
# Indices 1 2 3 4 5 6 
#
# 1 209.6962 66.8129 45.3655 0.0000 0.0000 0.0000
# 2 66.8129 133.5709 46.0187 0.0000 0.0000 0.0000
# 3 45.3655 46.0187 130.3203 0.0000 0.0000 0.0000
# 4 0.0000 0.0000 0.0000 32.5479 0.0000 0.0000
# 5 0.0000 0.0000 0.0000 0.0000 35.7505 0.0000
# 6 0.0000 0.0000 0.0000 0.0000 0.0000 59.1334
#
#
#
# Elastic Compliance Matrix: (Units=1/GPa)
#
#
# Indices 1 2 3 4 5 6 
#
# 1 0.005817 -0.002518 -0.001136 0.000000 0.000000 0.000000
# 2 -0.002518 0.009614 -0.002518 0.000000 0.000000 0.000000
# 3 -0.001136 -0.002518 0.008958 0.000000 0.000000 0.000000
# 4 0.000000 0.000000 0.000000 0.030724 0.000000 0.000000
# 5 0.000000 0.000000 0.000000 0.000000 0.027972 0.000000
# 6 0.000000 0.000000 0.000000 0.000000 0.000000 0.016911
#
#
# Mechanical properties :
#
#
# Convention : Reuss Voigt Hill
#
# Bulk Modulus (GPa) = 83.02633 87.77574 85.40103
# Shear Modulus (GPa) = 42.97213 46.51238 44.74225
#
# Velocity S-wave (km/s) = 3.99035 4.15147 4.07171
# Velocity P-wave (km/s) = 7.21076 7.45010 7.33141
#
# Compressibility (1/GPa) = 0.01204437
#
# Stress axis : x y z
#
# Youngs Moduli (GPa) = 171.91341 104.01535 111.63272
#
# Poissons Ratio (x) = 0.26195 0.12677
# Poissons Ratio (y) = 0.43294 0.28112
# Poissons Ratio (z) = 0.19523 0.26193
#
# Static dielectric constant tensor:
#      x y z
#    x 2.064900 0.000000 0.000000 
#    y 0.000000 2.217140 0.000000 
#    z 0.000000 0.000000 2.106980 
# 
# From -- ./inp_files/4541.got.cif
#   From: 2010.05.17/outbox.cif.g08.bks.cpg/sg19_3_cif.got.tgz:4541.got - 2010.06.03 22:46:19.
