data_PCOD9315634
_publ_section_title
;
Structure prediction by ZEFSAII (Michael W. Deem and Ramdas Pophale) SiO2 
 PCOD9315634
Probable space group: P 21 21 21
;
_chemical_formula_sum "Si O2"
_cell_formula_units_Z 28
_cell_length_a 7.658962
_cell_length_b 11.080073
_cell_length_c 13.764150
_cell_angle_alpha 90.000000
_cell_angle_beta 90.000000
_cell_angle_gamma 90.000000
_cell_volume 1168.051344
_symmetry_space_group_name_H-M "P 21 21 21"
_symmetry_group_IT_number 19
_symmetry_cell_setting 'orthorhombic'
loop_
_space_group_symop_operation_xyz
x,y,z
1/2-x,-y,1/2+z
1/2+x,1/2-y,-z
-x,1/2+y,1/2-z
loop_
_atom_site_type_symbol
_atom_site_label
_atom_site_fract_x
_atom_site_fract_y
_atom_site_fract_z
Si Si1 0.776345 0.553795 0.769618
Si Si2 0.142693 0.903669 0.020131
Si Si3 0.161600 0.331196 0.080669
Si Si4 0.009544 0.652175 0.260955
Si Si5 0.318067 0.696389 0.896653
Si Si6 0.663847 0.986187 0.255406
Si Si7 0.711235 0.641705 0.567744
O O1 0.751548 0.599576 0.878829
O O2 0.569607 0.272123 0.851385
O O3 0.754849 0.649529 0.682244
O O4 0.959503 0.485992 0.752887
O O5 0.937197 0.887737 0.036969
O O6 0.208850 0.795252 0.953365
O O7 0.174165 0.032976 0.972870
O O8 0.987783 0.400421 0.048178
O O9 0.283519 0.415792 0.145607
O O10 0.253667 0.262481 0.992888
O O11 0.961193 0.733567 0.168877
O O12 0.885648 0.535258 0.254385
O O13 0.202981 0.596585 0.259930
O O14 0.202833 0.613078 0.827645
#
# Coordination Sequence:
#
# PCOD9315634 Si02
#       7
#     4   4   4   4   4   4   4
#     4  12  23  44  67  95 137 181 224 291 339 401
#     4  12  24  44  70 101 143 180 234 291 343 416
#     4  11  23  43  69 100 143 183 231 286 353 409
#     4  11  22  47  67  99 140 180 228 296 337 418
#     4  11  23  43  69 100 143 183 231 286 353 409
#     4  11  23  43  70 102 137 185 234 279 354 413
#     4  12  24  44  70 101 143 180 234 291 343 416
#
# _framework density 23.971551000000002
#
# number of rings (size 3 to 8) (size 9 to 14) (size 15 to 20)
#    0.000    0.571    5.714    2.571    0.000    2.286 
#   10.286    5.714    0.000    0.000    0.000    0.000 
#    0.000    0.000    0.000    0.000    0.000    0.000 
#
# Total GULP energy -156834.088768 kJ/mol
# GULP energy per Si atom -5601.217456 kJ/mol
# Density = 2.391699 g / cm^3
# Si number density = 23.971551 Si / 1000 Ang^3
#
#
#
# Elastic Constant Matrix: (Units=GPa)
#
#
# Indices 1 2 3 4 5 6 
#
# 1 85.5591 -16.8020 -6.8505 0.0000 0.0000 0.0000
# 2 -16.8020 55.9791 26.9789 0.0000 0.0000 0.0000
# 3 -6.8505 26.9789 90.4554 0.0000 0.0000 0.0000
# 4 0.0000 0.0000 0.0000 24.5419 0.0000 0.0000
# 5 0.0000 0.0000 0.0000 0.0000 27.9895 0.0000
# 6 0.0000 0.0000 0.0000 0.0000 0.0000 33.1496
#
#
#
# Elastic Compliance Matrix: (Units=1/GPa)
#
#
# Indices 1 2 3 4 5 6 
#
# 1 0.012423 0.003825 -0.000200 0.000000 0.000000 0.000000
# 2 0.003825 0.022040 -0.006284 0.000000 0.000000 0.000000
# 3 -0.000200 -0.006284 0.012914 0.000000 0.000000 0.000000
# 4 0.000000 0.000000 0.000000 0.040747 0.000000 0.000000
# 5 0.000000 0.000000 0.000000 0.000000 0.035728 0.000000
# 6 0.000000 0.000000 0.000000 0.000000 0.000000 0.030166
#
#
# Mechanical properties :
#
#
# Convention : Reuss Voigt Hill
#
# Bulk Modulus (GPa) = 23.77563 26.51627 25.14595
# Shear Modulus (GPa) = 28.84233 32.38066 30.61150
#
# Velocity S-wave (km/s) = 3.47247 3.67930 3.57738
# Velocity P-wave (km/s) = 5.10070 5.39771 5.25131
#
# Compressibility (1/GPa) = 0.04205988
#
# Stress axis : x y z
#
# Youngs Moduli (GPa) = 80.49595 45.37103 77.43362
#
# Poissons Ratio (x) = -0.17355 0.01549
# Poissons Ratio (y) = -0.30791 0.48660
# Poissons Ratio (z) = 0.01610 0.28511
#
# Static dielectric constant tensor:
#      x y z
#    x 1.930180 0.000000 0.000000 
#    y 0.000000 1.935120 0.000000 
#    z 0.000000 0.000000 1.970280 
# 
# From -- ./inp_files/3461.got.cif
#   From: 2010.05.17/outbox.cif.g08.bks.cpg/sg19_2_cif.got.tgz:3461.got - 2010.06.03 22:46:19.
