data_PCOD9315155
_publ_section_title
;
Structure prediction by ZEFSAII (Michael W. Deem and Ramdas Pophale) SiO2 
 PCOD9315155
Probable space group: P 21 21 21
;
_chemical_formula_sum "Si O2"
_cell_formula_units_Z 32
_cell_length_a 14.292219
_cell_length_b 10.421486
_cell_length_c 8.539920
_cell_angle_alpha 90.000000
_cell_angle_beta 90.000000
_cell_angle_gamma 90.000000
_cell_volume 1271.988293
_symmetry_space_group_name_H-M "P 21 21 21"
_symmetry_group_IT_number 19
_symmetry_cell_setting 'orthorhombic'
loop_
_space_group_symop_operation_xyz
x,y,z
1/2-x,-y,1/2+z
1/2+x,1/2-y,-z
-x,1/2+y,1/2-z
loop_
_atom_site_type_symbol
_atom_site_label
_atom_site_fract_x
_atom_site_fract_y
_atom_site_fract_z
Si Si1 0.875457 0.347081 0.843605
Si Si2 0.561750 0.469714 0.106672
Si Si3 0.198419 0.438282 0.301065
Si Si4 0.062424 0.213318 0.344298
Si Si5 0.139458 0.738216 0.306674
Si Si6 0.683005 0.498808 0.818722
Si Si7 0.555413 0.244925 0.285933
Si Si8 0.647328 0.011552 0.383570
O O1 0.929876 0.477492 0.784709
O O2 0.770706 0.402032 0.823091
O O3 0.941927 0.261276 0.729609
O O4 0.882116 0.285374 0.015163
O O5 0.583842 0.324034 0.134834
O O6 0.455665 0.482568 0.045039
O O7 0.637320 0.523444 0.988716
O O8 0.118470 0.334386 0.269596
O O9 0.177166 0.591920 0.292625
O O10 0.213428 0.425893 0.486282
O O11 0.288795 0.407056 0.198455
O O12 0.105504 0.079703 0.281365
O O13 0.072884 0.220215 0.532659
O O14 0.956271 0.233003 0.291723
O O15 0.201989 0.858166 0.245265
O O16 0.614435 0.116078 0.260956
#
# Coordination Sequence:
#
# PCOD9315155 Si02
#       8
#     4   4   4   4   4   4   4   4
#     4  11  25  42  70 108 140 193 248 306 369 439
#     4  11  24  47  73 102 152 193 243 312 376 442
#     4  11  26  44  71 103 142 190 244 296 359 451
#     4  11  25  47  73 107 149 194 243 305 373 448
#     4  12  25  46  73 104 147 192 245 307 380 432
#     4  12  26  45  77 110 145 193 253 310 366 452
#     4  10  23  44  69 100 148 189 239 304 374 437
#     4  10  24  43  66 102 141 186 243 292 361 435
#
# _framework density 25.157463
#
# number of rings (size 3 to 8) (size 9 to 14) (size 15 to 20)
#    0.000    1.000    0.000    6.750    7.000    3.000 
#    4.500    0.000    0.000    0.000    0.000    0.000 
#    0.000    0.000    0.000    0.000    0.000    0.000 
#
# Total GULP energy -178310.336167 kJ/mol
# GULP energy per Si atom -5572.198005 kJ/mol
# Density = 2.510020 g / cm^3
# Si number density = 25.157463 Si / 1000 Ang^3
#
#
#
# Elastic Constant Matrix: (Units=GPa)
#
#
# Indices 1 2 3 4 5 6 
#
# 1 78.4941 -15.0521 19.9568 0.0000 0.0000 0.0000
# 2 -15.0521 87.9507 4.5594 0.0000 0.0000 0.0000
# 3 19.9568 4.5594 67.0875 0.0000 0.0000 0.0000
# 4 0.0000 0.0000 0.0000 38.3281 0.0000 0.0000
# 5 0.0000 0.0000 0.0000 0.0000 38.2224 0.0000
# 6 0.0000 0.0000 0.0000 0.0000 0.0000 24.3986
#
#
#
# Elastic Compliance Matrix: (Units=1/GPa)
#
#
# Indices 1 2 3 4 5 6 
#
# 1 0.014391 0.002694 -0.004464 0.000000 0.000000 0.000000
# 2 0.002694 0.011915 -0.001611 0.000000 0.000000 0.000000
# 3 -0.004464 -0.001611 0.016343 0.000000 0.000000 0.000000
# 4 0.000000 0.000000 0.000000 0.026091 0.000000 0.000000
# 5 0.000000 0.000000 0.000000 0.000000 0.026163 0.000000
# 6 0.000000 0.000000 0.000000 0.000000 0.000000 0.040986
#
#
# Mechanical properties :
#
#
# Convention : Reuss Voigt Hill
#
# Bulk Modulus (GPa) = 27.86491 28.05118 27.95805
# Shear Modulus (GPa) = 32.33876 35.12772 33.73324
#
# Velocity S-wave (km/s) = 3.58921 3.74078 3.66578
# Velocity P-wave (km/s) = 5.31760 5.46190 5.39023
#
# Compressibility (1/GPa) = 0.03588743
#
# Stress axis : x y z
#
# Youngs Moduli (GPa) = 69.48546 83.93024 61.18682
#
# Poissons Ratio (x) = -0.22614 0.27315
# Poissons Ratio (y) = -0.18722 0.09859
# Poissons Ratio (z) = 0.31020 0.13523
#
# Static dielectric constant tensor:
#      x y z
#    x 2.006250 0.000000 0.000000 
#    y 0.000000 2.265330 0.000000 
#    z 0.000000 0.000000 1.996030 
# 
# From -- ./inp_files/3949.got.cif
#   From: 2010.05.17/outbox.cif.g08.bks.cpg/sg19_2_cif.got.tgz:3949.got - 2010.06.03 22:46:19.
