data_PCOD9315810
_publ_section_title
;
Structure prediction by ZEFSAII (Michael W. Deem and Ramdas Pophale) SiO2 
 PCOD9315810
Probable space group: P 21 21 21
;
_chemical_formula_sum "Si O2"
_cell_formula_units_Z 32
_cell_length_a 19.331634
_cell_length_b 5.042146
_cell_length_c 12.847429
_cell_angle_alpha 90.000000
_cell_angle_beta 90.000000
_cell_angle_gamma 90.000000
_cell_volume 1252.276433
_symmetry_space_group_name_H-M "P 21 21 21"
_symmetry_group_IT_number 19
_symmetry_cell_setting 'orthorhombic'
loop_
_space_group_symop_operation_xyz
x,y,z
1/2-x,-y,1/2+z
1/2+x,1/2-y,-z
-x,1/2+y,1/2-z
loop_
_atom_site_type_symbol
_atom_site_label
_atom_site_fract_x
_atom_site_fract_y
_atom_site_fract_z
Si Si1 0.854971 0.807165 0.527567
Si Si2 0.994234 0.921577 0.821024
Si Si3 0.815388 0.362789 0.866148
Si Si4 0.982532 0.855788 0.389907
Si Si5 0.357526 0.192514 0.362742
Si Si6 0.723144 0.860748 0.852835
Si Si7 0.910955 0.699998 0.002562
Si Si8 0.890931 0.006352 0.193060
O O1 0.932123 0.760382 0.482137
O O2 0.824552 0.524031 0.560481
O O3 0.824181 0.003654 0.440819
O O4 0.842856 0.998086 0.626308
O O5 0.932382 0.878672 0.902878
O O6 0.992927 0.715155 0.723795
O O7 0.061286 0.824587 0.881912
O O8 0.848113 0.407084 0.753537
O O9 0.786965 0.065271 0.860151
O O10 0.869258 0.452128 0.954208
O O11 0.751135 0.567098 0.870252
O O12 0.933926 0.869218 0.287596
O O13 0.050318 0.692917 0.356691
O O14 0.019046 0.118651 0.435465
O O15 0.675829 0.868235 0.749116
O O16 0.866736 0.830987 0.095133
#
# Coordination Sequence:
#
# PCOD9315810 Si02
#       8
#     4   4   4   4   4   4   4   4
#     4  11  25  46  77 103 144 192 244 313 382 445
#     4  12  26  44  72 111 152 188 239 314 380 439
#     4  12  29  48  72 105 150 204 259 298 364 458
#     4  11  24  45  74 114 145 186 245 316 388 446
#     4  12  24  45  73 104 142 195 243 305 374 446
#     4  11  29  52  70 105 152 198 257 310 367 451
#     4  12  27  44  77 108 146 195 248 308 372 448
#     4  11  26  46  79 108 155 192 243 324 389 449
#
# _framework density 25.553464000000002
#
# number of rings (size 3 to 8) (size 9 to 14) (size 15 to 20)
#    0.000    0.500    3.750    3.000    7.000    3.000 
#    0.000    0.000    0.000    0.000    0.000    0.000 
#    0.000    0.000    0.000    0.000    0.000    0.000 
#
# Total GULP energy -178826.979972 kJ/mol
# GULP energy per Si atom -5588.343124 kJ/mol
# Density = 2.549530 g / cm^3
# Si number density = 25.553464 Si / 1000 Ang^3
#
#
#
# Elastic Constant Matrix: (Units=GPa)
#
#
# Indices 1 2 3 4 5 6 
#
# 1 57.5157 7.5543 19.3017 0.0000 0.0000 0.0000
# 2 7.5543 78.1077 41.0407 0.0000 0.0000 0.0000
# 3 19.3017 41.0407 134.4945 0.0000 0.0000 0.0000
# 4 0.0000 0.0000 0.0000 41.2032 0.0000 0.0000
# 5 0.0000 0.0000 0.0000 0.0000 17.3339 0.0000
# 6 0.0000 0.0000 0.0000 0.0000 0.0000 37.2565
#
#
#
# Elastic Compliance Matrix: (Units=1/GPa)
#
#
# Indices 1 2 3 4 5 6 
#
# 1 0.018280 -0.000464 -0.002482 0.000000 0.000000 0.000000
# 2 -0.000464 0.015259 -0.004590 0.000000 0.000000 0.000000
# 3 -0.002482 -0.004590 0.009192 0.000000 0.000000 0.000000
# 4 0.000000 0.000000 0.000000 0.024270 0.000000 0.000000
# 5 0.000000 0.000000 0.000000 0.000000 0.057691 0.000000
# 6 0.000000 0.000000 0.000000 0.000000 0.000000 0.026841
#
#
# Mechanical properties :
#
#
# Convention : Reuss Voigt Hill
#
# Bulk Modulus (GPa) = 36.15261 45.10123 40.62692
# Shear Modulus (GPa) = 28.43743 32.64013 30.53878
#
# Velocity S-wave (km/s) = 3.33957 3.57785 3.46076
# Velocity P-wave (km/s) = 5.38970 5.89543 5.64823
#
# Compressibility (1/GPa) = 0.02766052
#
# Stress axis : x y z
#
# Youngs Moduli (GPa) = 54.70344 65.53360 108.79040
#
# Poissons Ratio (x) = 0.03040 0.27001
# Poissons Ratio (y) = 0.02538 0.49932
# Poissons Ratio (z) = 0.13577 0.30078
#
# Static dielectric constant tensor:
#      x y z
#    x 2.083360 0.000000 0.000000 
#    y 0.000000 2.090510 0.000000 
#    z 0.000000 0.000000 2.071380 
# 
# From -- ./inp_files/5521.got.cif
#   From: 2010.05.17/outbox.cif.g08.bks.cpg/sg19_3_cif.got.tgz:5521.got - 2010.06.03 22:46:19.
