data_PCOD9315551
_publ_section_title
;
Structure prediction by ZEFSAII (Michael W. Deem and Ramdas Pophale) SiO2 
 PCOD9315551
Probable space group: P 21 21 21
;
_chemical_formula_sum "Si O2"
_cell_formula_units_Z 24
_cell_length_a 13.906340
_cell_length_b 8.682540
_cell_length_c 9.395184
_cell_angle_alpha 90.000000
_cell_angle_beta 90.000000
_cell_angle_gamma 90.000000
_cell_volume 1134.396626
_symmetry_space_group_name_H-M "P 21 21 21"
_symmetry_group_IT_number 19
_symmetry_cell_setting 'orthorhombic'
loop_
_space_group_symop_operation_xyz
x,y,z
1/2-x,-y,1/2+z
1/2+x,1/2-y,-z
-x,1/2+y,1/2-z
loop_
_atom_site_type_symbol
_atom_site_label
_atom_site_fract_x
_atom_site_fract_y
_atom_site_fract_z
Si Si1 0.252069 0.578107 0.305604
Si Si2 0.444155 0.442427 0.352720
Si Si3 0.961832 0.588092 0.360731
Si Si4 0.775727 0.798689 0.375889
Si Si5 0.059609 0.764022 0.609561
Si Si6 0.094203 0.731996 0.132862
O O1 0.362520 0.538809 0.267313
O O2 0.260846 0.615320 0.472511
O O3 0.201996 0.421056 0.249450
O O4 0.193109 0.708817 0.221897
O O5 0.489249 0.323258 0.242338
O O6 0.515558 0.568890 0.414001
O O7 0.396296 0.342817 0.477618
O O8 0.863006 0.680892 0.384764
O O9 0.939214 0.408289 0.372732
O O10 0.036873 0.654945 0.476302
O O11 0.011155 0.635113 0.212889
O O12 0.671887 0.722182 0.352619
#
# Coordination Sequence:
#
# PCOD9315551 Si02
#       6
#     4   4   4   4   4   4
#     4  11  21  43  68  94 134 172 216 275 336 399
#     4  11  24  44  67  99 135 175 222 274 342 396
#     4  12  25  45  68  99 135 176 232 276 335 401
#     4  11  24  43  68  98 131 176 220 275 337 401
#     4  11  23  43  68  97 135 173 220 275 335 397
#     4  12  25  44  69  99 132 180 226 279 333 406
#
# _framework density 21.156621000000001
#
# number of rings (size 3 to 8) (size 9 to 14) (size 15 to 20)
#    0.000    0.667    5.000    3.000    0.000    1.333 
#    6.000    1.667    0.000    0.000    0.000    0.000 
#    0.000    0.000    0.000    0.000    0.000    0.000 
#
# Total GULP energy -133988.211624 kJ/mol
# GULP energy per Si atom -5582.842151 kJ/mol
# Density = 2.110847 g / cm^3
# Si number density = 21.156621 Si / 1000 Ang^3
#
#
#
# Elastic Constant Matrix: (Units=GPa)
#
#
# Indices 1 2 3 4 5 6 
#
# 1 77.7662 37.5993 -10.3981 0.0000 0.0000 0.0000
# 2 37.5993 97.6198 26.9608 0.0000 0.0000 0.0000
# 3 -10.3981 26.9608 69.1108 0.0000 0.0000 0.0000
# 4 0.0000 0.0000 0.0000 26.7385 0.0000 0.0000
# 5 0.0000 0.0000 0.0000 0.0000 21.6817 0.0000
# 6 0.0000 0.0000 0.0000 0.0000 0.0000 26.4506
#
#
#
# Elastic Compliance Matrix: (Units=1/GPa)
#
#
# Indices 1 2 3 4 5 6 
#
# 1 0.017768 -0.008497 0.005988 0.000000 0.000000 0.000000
# 2 -0.008497 0.015545 -0.007343 0.000000 0.000000 0.000000
# 3 0.005988 -0.007343 0.018235 0.000000 0.000000 0.000000
# 4 0.000000 0.000000 0.000000 0.037399 0.000000 0.000000
# 5 0.000000 0.000000 0.000000 0.000000 0.046122 0.000000
# 6 0.000000 0.000000 0.000000 0.000000 0.000000 0.037806
#
#
# Mechanical properties :
#
#
# Convention : Reuss Voigt Hill
#
# Bulk Modulus (GPa) = 31.40294 39.20233 35.30263
# Shear Modulus (GPa) = 24.60708 27.66314 26.13511
#
# Velocity S-wave (km/s) = 3.41411 3.61992 3.51852
# Velocity P-wave (km/s) = 5.51515 6.00346 5.76448
#
# Compressibility (1/GPa) = 0.03184415
#
# Stress axis : x y z
#
# Youngs Moduli (GPa) = 56.28029 64.33095 54.83978
#
# Poissons Ratio (x) = 0.54665 -0.32840
# Poissons Ratio (y) = 0.47824 0.40267
# Poissons Ratio (z) = -0.33702 0.47236
#
# Static dielectric constant tensor:
#      x y z
#    x 1.777890 0.000000 0.000000 
#    y 0.000000 1.751940 0.000000 
#    z 0.000000 0.000000 1.812450 
# 
# From -- ./inp_files/2780.got.cif
#   From: 2010.05.17/outbox.cif.g08.bks.cpg/sg19_2_cif.got.tgz:2780.got - 2010.06.03 22:46:19.
