data_PCOD9315958
_publ_section_title
;
Structure prediction by ZEFSAII (Michael W. Deem and Ramdas Pophale) SiO2 
 PCOD9315958
Probable space group: P 21 21 21
;
_chemical_formula_sum "Si O2"
_cell_formula_units_Z 20
_cell_length_a 7.901212
_cell_length_b 6.149304
_cell_length_c 16.101497
_cell_angle_alpha 90.000000
_cell_angle_beta 90.000000
_cell_angle_gamma 90.000000
_cell_volume 782.322703
_symmetry_space_group_name_H-M "P 21 21 21"
_symmetry_group_IT_number 19
_symmetry_cell_setting 'orthorhombic'
loop_
_space_group_symop_operation_xyz
x,y,z
1/2-x,-y,1/2+z
1/2+x,1/2-y,-z
-x,1/2+y,1/2-z
loop_
_atom_site_type_symbol
_atom_site_label
_atom_site_fract_x
_atom_site_fract_y
_atom_site_fract_z
Si Si1 0.818371 0.305272 0.014028
Si Si2 0.525795 0.457448 0.359381
Si Si3 0.985231 0.899902 0.992828
Si Si4 0.744127 0.225901 0.756841
Si Si5 0.481312 0.441166 0.640142
O O1 0.899657 0.373672 0.100988
O O2 0.937453 0.381597 0.937045
O O3 0.820960 0.045679 0.011998
O O4 0.647284 0.441641 0.007145
O O5 0.544357 0.228174 0.407578
O O6 0.651935 0.566752 0.292077
O O7 0.354104 0.413831 0.308449
O O8 0.076224 0.179370 0.285377
O O9 0.025176 0.733643 0.066558
O O10 0.684479 0.062840 0.828678
#
# Coordination Sequence:
#
# PCOD9315958 Si02
#       5
#     4   4   4   4   4
#     4  11  26  50  82 120 156 222 270 333 401 498
#     4  11  29  51  79 120 165 215 273 334 409 485
#     4  11  27  54  83 118 163 218 275 335 403 499
#     4  12  29  53  83 120 168 216 271 341 414 479
#     4  11  29  52  81 118 168 215 273 337 413 477
#
# _framework density 25.564899
#
# number of rings (size 3 to 8) (size 9 to 14) (size 15 to 20)
#    0.000    0.800    2.000    1.200   14.000    3.200 
#    0.000    0.000    0.000    0.000    0.000    0.000 
#    0.000    0.000    0.000    0.000    0.000    0.000 
#
# Total GULP energy -111964.505825 kJ/mol
# GULP energy per Si atom -5598.225291 kJ/mol
# Density = 2.550671 g / cm^3
# Si number density = 25.564899 Si / 1000 Ang^3
#
#
#
# Elastic Constant Matrix: (Units=GPa)
#
#
# Indices 1 2 3 4 5 6 
#
# 1 75.9164 82.4135 36.9731 0.0000 0.0000 0.0000
# 2 82.4135 131.7593 50.6013 0.0000 0.0000 0.0000
# 3 36.9731 50.6013 101.3566 0.0000 0.0000 0.0000
# 4 0.0000 0.0000 0.0000 37.2179 0.0000 0.0000
# 5 0.0000 0.0000 0.0000 0.0000 45.2869 0.0000
# 6 0.0000 0.0000 0.0000 0.0000 0.0000 53.8167
#
#
#
# Elastic Compliance Matrix: (Units=1/GPa)
#
#
# Indices 1 2 3 4 5 6 
#
# 1 0.041628 -0.024999 -0.002705 0.000000 0.000000 0.000000
# 2 -0.024999 0.024403 -0.003064 0.000000 0.000000 0.000000
# 3 -0.002705 -0.003064 0.012382 0.000000 0.000000 0.000000
# 4 0.000000 0.000000 0.000000 0.026869 0.000000 0.000000
# 5 0.000000 0.000000 0.000000 0.000000 0.022081 0.000000
# 6 0.000000 0.000000 0.000000 0.000000 0.000000 0.018582
#
#
# Mechanical properties :
#
#
# Convention : Reuss Voigt Hill
#
# Bulk Modulus (GPa) = 59.24721 72.11202 65.67962
# Shear Modulus (GPa) = 23.46249 36.53394 29.99821
#
# Velocity S-wave (km/s) = 3.03274 3.78440 3.42923
# Velocity P-wave (km/s) = 5.95726 6.88217 6.43635
#
# Compressibility (1/GPa) = 0.01687843
#
# Stress axis : x y z
#
# Youngs Moduli (GPa) = 24.02211 40.97894 80.76089
#
# Poissons Ratio (x) = 1.02444 0.21843
# Poissons Ratio (y) = 0.60053 0.24742
# Poissons Ratio (z) = 0.06497 0.12554
#
# Static dielectric constant tensor:
#      x y z
#    x 2.097620 0.000000 0.000000 
#    y 0.000000 2.026630 0.000000 
#    z 0.000000 0.000000 1.988180 
# 
# From -- ./inp_files/6031.got.cif
#   From: 2010.05.17/outbox.cif.g08.bks.cpg/sg19_4_cif.got.tgz:6031.got - 2010.06.03 22:46:19.
