data_PCOD9315536
_publ_section_title
;
Structure prediction by ZEFSAII (Michael W. Deem and Ramdas Pophale) SiO2 
 PCOD9315536
Probable space group: P 21 21 21
;
_chemical_formula_sum "Si O2"
_cell_formula_units_Z 32
_cell_length_a 11.965332
_cell_length_b 5.642472
_cell_length_c 19.572725
_cell_angle_alpha 90.000000
_cell_angle_beta 90.000000
_cell_angle_gamma 90.000000
_cell_volume 1321.433950
_symmetry_space_group_name_H-M "P 21 21 21"
_symmetry_group_IT_number 19
_symmetry_cell_setting 'orthorhombic'
loop_
_space_group_symop_operation_xyz
x,y,z
1/2-x,-y,1/2+z
1/2+x,1/2-y,-z
-x,1/2+y,1/2-z
loop_
_atom_site_type_symbol
_atom_site_label
_atom_site_fract_x
_atom_site_fract_y
_atom_site_fract_z
Si Si1 0.558239 0.288601 0.832027
Si Si2 0.663511 0.978284 0.712812
Si Si3 0.619842 0.854752 0.164849
Si Si4 0.474395 0.539032 0.069587
Si Si5 0.737113 0.669626 0.824484
Si Si6 0.356641 0.760081 0.513580
Si Si7 0.434383 0.200419 0.182589
Si Si8 0.744959 0.230086 0.477576
O O1 0.594539 0.104882 0.773562
O O2 0.426246 0.335323 0.830934
O O3 0.624538 0.524242 0.810026
O O4 0.606677 0.240734 0.907125
O O5 0.746111 0.139002 0.667995
O O6 0.750651 0.826341 0.757588
O O7 0.568460 0.699519 0.104558
O O8 0.556591 0.106276 0.162896
O O9 0.577335 0.750769 0.237516
O O10 0.388305 0.687229 0.023727
O O11 0.410240 0.421444 0.133729
O O12 0.531657 0.331863 0.026632
O O13 0.842597 0.498247 0.833012
O O14 0.719125 0.783478 0.897825
O O15 0.300393 0.510945 0.491652
O O16 0.279555 0.998804 0.504016
#
# Coordination Sequence:
#
# PCOD9315536 Si02
#       8
#     4   4   4   4   4   4   4   4
#     4  11  23  43  67 102 144 198 241 300 366 438
#     4  12  23  40  69 105 145 185 244 311 371 432
#     4  12  25  39  71 110 145 179 247 311 382 433
#     4  12  27  47  72 104 147 194 240 313 381 450
#     4  11  21  40  73  99 140 190 246 295 370 449
#     4  11  28  47  74 103 145 199 253 294 374 457
#     4  12  23  43  70 109 142 188 235 317 382 438
#     4  11  24  47  74 102 138 195 248 305 362 457
#
# _framework density 24.216118000000002
#
# number of rings (size 3 to 8) (size 9 to 14) (size 15 to 20)
#    0.000    0.500    6.250    3.000    1.750    1.000 
#    0.000    1.250    0.000    0.000    0.000    0.000 
#    0.000    0.000    0.000    0.000    0.000    0.000 
#
# Total GULP energy -178930.668294 kJ/mol
# GULP energy per Si atom -5591.583384 kJ/mol
# Density = 2.416100 g / cm^3
# Si number density = 24.216118 Si / 1000 Ang^3
#
#
#
# Elastic Constant Matrix: (Units=GPa)
#
#
# Indices 1 2 3 4 5 6 
#
# 1 105.3411 29.6446 19.6750 0.0000 0.0000 0.0000
# 2 29.6446 97.1308 25.4656 0.0000 0.0000 0.0000
# 3 19.6750 25.4656 39.7446 0.0000 0.0000 0.0000
# 4 0.0000 0.0000 0.0000 24.2443 0.0000 0.0000
# 5 0.0000 0.0000 0.0000 0.0000 28.0962 0.0000
# 6 0.0000 0.0000 0.0000 0.0000 0.0000 43.6896
#
#
#
# Elastic Compliance Matrix: (Units=1/GPa)
#
#
# Indices 1 2 3 4 5 6 
#
# 1 0.010868 -0.002291 -0.003912 0.000000 0.000000 0.000000
# 2 -0.002291 0.012857 -0.007104 0.000000 0.000000 0.000000
# 3 -0.003912 -0.007104 0.031649 0.000000 0.000000 0.000000
# 4 0.000000 0.000000 0.000000 0.041247 0.000000 0.000000
# 5 0.000000 0.000000 0.000000 0.000000 0.035592 0.000000
# 6 0.000000 0.000000 0.000000 0.000000 0.000000 0.022889
#
#
# Mechanical properties :
#
#
# Convention : Reuss Voigt Hill
#
# Bulk Modulus (GPa) = 34.77035 43.53186 39.15110
# Shear Modulus (GPa) = 26.13653 30.36811 28.25232
#
# Velocity S-wave (km/s) = 3.28884 3.54509 3.41937
# Velocity P-wave (km/s) = 5.36763 5.89681 5.63843
#
# Compressibility (1/GPa) = 0.02876014
#
# Stress axis : x y z
#
# Youngs Moduli (GPa) = 92.00908 77.77761 31.59674
#
# Poissons Ratio (x) = 0.17822 0.12361
# Poissons Ratio (y) = 0.21083 0.22445
# Poissons Ratio (z) = 0.35995 0.55250
#
# Static dielectric constant tensor:
#      x y z
#    x 1.950890 0.000000 0.000000 
#    y 0.000000 1.996240 0.000000 
#    z 0.000000 0.000000 1.931920 
# 
# From -- ./inp_files/7145.got.cif
#   From: 2010.05.17/outbox.cif.g08.bks.cpg/sg19_4_cif.got.tgz:7145.got - 2010.06.03 22:46:19.
