data_PCOD9315351
_publ_section_title
;
Structure prediction by ZEFSAII (Michael W. Deem and Ramdas Pophale) SiO2 
 PCOD9315351
Probable space group: P 21 21 21
;
_chemical_formula_sum "Si O2"
_cell_formula_units_Z 28
_cell_length_a 8.797143
_cell_length_b 14.295944
_cell_length_c 8.635042
_cell_angle_alpha 90.000000
_cell_angle_beta 90.000000
_cell_angle_gamma 90.000000
_cell_volume 1085.972791
_symmetry_space_group_name_H-M "P 21 21 21"
_symmetry_group_IT_number 19
_symmetry_cell_setting 'orthorhombic'
loop_
_space_group_symop_operation_xyz
x,y,z
1/2-x,-y,1/2+z
1/2+x,1/2-y,-z
-x,1/2+y,1/2-z
loop_
_atom_site_type_symbol
_atom_site_label
_atom_site_fract_x
_atom_site_fract_y
_atom_site_fract_z
Si Si1 0.464510 0.464805 0.775566
Si Si2 0.768681 0.473351 0.075968
Si Si3 0.510517 0.148821 0.049515
Si Si4 0.512053 0.343852 0.212969
Si Si5 0.725647 0.963696 0.454568
Si Si6 0.012741 0.248449 0.276366
Si Si7 0.764400 0.680534 0.985514
O O1 0.619457 0.512293 0.722164
O O2 0.347196 0.474645 0.633822
O O3 0.493229 0.355222 0.794018
O O4 0.394382 0.509251 0.929638
O O5 0.642353 0.397341 0.114243
O O6 0.877482 0.427969 0.943996
O O7 0.714324 0.578187 0.043396
O O8 0.674323 0.101798 0.069135
O O9 0.515721 0.184791 0.871803
O O10 0.488807 0.237980 0.156342
O O11 0.363653 0.403756 0.173839
O O12 0.584309 0.339780 0.382435
O O13 0.167922 0.243748 0.376100
O O14 0.867975 0.273808 0.383426
#
# Coordination Sequence:
#
# PCOD9315351 Si02
#       7
#     4   4   4   4   4   4   4
#     4  10  24  46  66 102 137 182 224 291 338 416
#     4  10  25  45  70  97 147 172 234 287 345 400
#     4  11  23  47  69  96 138 185 225 295 335 415
#     4  12  24  43  71 100 132 182 236 273 348 411
#     4  11  25  39  73  97 136 178 232 274 349 409
#     4  11  24  48  67  97 147 176 232 290 349 405
#     4  11  27  44  70 105 137 183 229 288 344 414
#
# _framework density 25.783334
#
# number of rings (size 3 to 8) (size 9 to 14) (size 15 to 20)
#    0.000    1.143    2.857    1.714   10.000    2.286 
#    2.571    0.000    0.000    0.000    0.000    0.000 
#    0.000    0.000    0.000    0.000    0.000    0.000 
#
# Total GULP energy -156996.075705 kJ/mol
# GULP energy per Si atom -5607.002704 kJ/mol
# Density = 2.572465 g / cm^3
# Si number density = 25.783334 Si / 1000 Ang^3
#
#
#
# Elastic Constant Matrix: (Units=GPa)
#
#
# Indices 1 2 3 4 5 6 
#
# 1 102.3421 21.5908 18.1871 0.0000 0.0000 0.0000
# 2 21.5908 99.1204 6.0997 0.0000 0.0000 0.0000
# 3 18.1871 6.0997 76.3609 0.0000 0.0000 0.0000
# 4 0.0000 0.0000 0.0000 34.0072 0.0000 0.0000
# 5 0.0000 0.0000 0.0000 0.0000 58.0541 0.0000
# 6 0.0000 0.0000 0.0000 0.0000 0.0000 27.6273
#
#
#
# Elastic Compliance Matrix: (Units=1/GPa)
#
#
# Indices 1 2 3 4 5 6 
#
# 1 0.010650 -0.002174 -0.002363 0.000000 0.000000 0.000000
# 2 -0.002174 0.010583 -0.000327 0.000000 0.000000 0.000000
# 3 -0.002363 -0.000327 0.013685 0.000000 0.000000 0.000000
# 4 0.000000 0.000000 0.000000 0.029406 0.000000 0.000000
# 5 0.000000 0.000000 0.000000 0.000000 0.017225 0.000000
# 6 0.000000 0.000000 0.000000 0.000000 0.000000 0.036196
#
#
# Mechanical properties :
#
#
# Convention : Reuss Voigt Hill
#
# Bulk Modulus (GPa) = 39.70198 41.06428 40.38313
# Shear Modulus (GPa) = 36.80016 39.40077 38.10046
#
# Velocity S-wave (km/s) = 3.78204 3.91340 3.84828
# Velocity P-wave (km/s) = 5.87397 6.03165 5.95333
#
# Compressibility (1/GPa) = 0.02518766
#
# Stress axis : x y z
#
# Youngs Moduli (GPa) = 93.89883 94.49540 73.07477
#
# Poissons Ratio (x) = 0.20547 0.17266
# Poissons Ratio (y) = 0.20417 0.02393
# Poissons Ratio (z) = 0.22186 0.03094
#
# Static dielectric constant tensor:
#      x y z
#    x 2.025040 0.000000 0.000000 
#    y 0.000000 1.954680 0.000000 
#    z 0.000000 0.000000 2.036090 
# 
# From -- ./inp_files/2854.got.cif
#   From: 2010.05.17/outbox.cif.g08.bks.cpg/sg19_2_cif.got.tgz:2854.got - 2010.06.03 22:46:19.
