data_PCOD9315425
_publ_section_title
;
Structure prediction by ZEFSAII (Michael W. Deem and Ramdas Pophale) SiO2 
 PCOD9315425
Probable space group: P 21 21 21
;
_chemical_formula_sum "Si O2"
_cell_formula_units_Z 28
_cell_length_a 9.911039
_cell_length_b 22.495189
_cell_length_c 5.299547
_cell_angle_alpha 90.000000
_cell_angle_beta 90.000000
_cell_angle_gamma 90.000000
_cell_volume 1181.537689
_symmetry_space_group_name_H-M "P 21 21 21"
_symmetry_group_IT_number 19
_symmetry_cell_setting 'orthorhombic'
loop_
_space_group_symop_operation_xyz
x,y,z
1/2-x,-y,1/2+z
1/2+x,1/2-y,-z
-x,1/2+y,1/2-z
loop_
_atom_site_type_symbol
_atom_site_label
_atom_site_fract_x
_atom_site_fract_y
_atom_site_fract_z
Si Si1 0.156500 0.420973 0.248337
Si Si2 0.084646 0.961763 0.941954
Si Si3 0.885973 0.278225 0.570293
Si Si4 0.846774 0.575441 0.288841
Si Si5 0.066098 0.539749 0.957921
Si Si6 0.247418 0.184169 0.940528
Si Si7 0.850092 0.789151 0.254373
O O1 0.127315 0.480981 0.093051
O O2 0.309531 0.427436 0.333017
O O3 0.135360 0.355520 0.138147
O O4 0.046373 0.425851 0.472138
O O5 0.207056 0.921577 0.859172
O O6 0.036285 0.009587 0.736892
O O7 0.140110 0.005073 0.157607
O O8 0.865943 0.309246 0.844886
O O9 0.797482 0.218583 0.622768
O O10 0.034810 0.274913 0.453252
O O11 0.803427 0.308599 0.338480
O O12 0.827681 0.621926 0.513154
O O13 0.983628 0.584598 0.135288
O O14 0.150989 0.238206 0.031198
#
# Coordination Sequence:
#
# PCOD9315425 Si02
#       7
#     4   4   4   4   4   4   4
#     4  11  24  45  66  99 137 184 226 294 344 427
#     4  11  23  40  65  97 136 175 230 280 354 403
#     4  10  25  46  68 107 131 186 232 285 353 418
#     4  11  24  41  69  99 134 181 226 295 339 425
#     4  11  24  42  64 102 134 178 232 276 357 408
#     4  10  26  43  73 101 143 177 239 282 356 415
#     4  10  26  45  71  99 143 185 237 292 357 414
#
# _framework density 23.697932999999999
#
# number of rings (size 3 to 8) (size 9 to 14) (size 15 to 20)
#    0.857    0.571    2.857    0.857    8.000    1.143 
#    2.571    0.000    0.000    0.000    0.000    0.000 
#    0.000    0.000    0.000    0.000    0.000    0.000 
#
# Total GULP energy -156241.896430 kJ/mol
# GULP energy per Si atom -5580.067730 kJ/mol
# Density = 2.364400 g / cm^3
# Si number density = 23.697933 Si / 1000 Ang^3
#
#
#
# Elastic Constant Matrix: (Units=GPa)
#
#
# Indices 1 2 3 4 5 6 
#
# 1 92.9505 19.6390 9.4571 0.0000 0.0000 0.0000
# 2 19.6390 84.4562 16.1281 0.0000 0.0000 0.0000
# 3 9.4571 16.1281 48.4277 0.0000 0.0000 0.0000
# 4 0.0000 0.0000 0.0000 201.8969 0.0000 0.0000
# 5 0.0000 0.0000 0.0000 0.0000 37.7278 0.0000
# 6 0.0000 0.0000 0.0000 0.0000 0.0000 17.3504
#
#
#
# Elastic Compliance Matrix: (Units=1/GPa)
#
#
# Indices 1 2 3 4 5 6 
#
# 1 0.011407 -0.002378 -0.001436 0.000000 0.000000 0.000000
# 2 -0.002378 0.013141 -0.003912 0.000000 0.000000 0.000000
# 3 -0.001436 -0.003912 0.022232 0.000000 0.000000 0.000000
# 4 0.000000 0.000000 0.000000 0.004953 0.000000 0.000000
# 5 0.000000 0.000000 0.000000 0.000000 0.026506 0.000000
# 6 0.000000 0.000000 0.000000 0.000000 0.000000 0.057636
#
#
# Mechanical properties :
#
#
# Convention : Reuss Voigt Hill
#
# Bulk Modulus (GPa) = 31.91974 35.14254 33.53114
# Shear Modulus (GPa) = 30.90835 63.43568 47.17202
#
# Velocity S-wave (km/s) = 3.61538 5.17944 4.46640
# Velocity P-wave (km/s) = 5.56117 7.11550 6.38580
#
# Compressibility (1/GPa) = 0.03132857
#
# Stress axis : x y z
#
# Youngs Moduli (GPa) = 87.66562 76.10046 44.97931
#
# Poissons Ratio (x) = 0.18100 0.06457
# Poissons Ratio (y) = 0.20850 0.17595
# Poissons Ratio (z) = 0.12585 0.29769
#
# Static dielectric constant tensor:
#      x y z
#    x 1.780490 0.000000 0.000000 
#    y 0.000000 1.875990 0.000000 
#    z 0.000000 0.000000 1.987320 
# 
# From -- ./inp_files/525.got.cif
#   From: 2010.05.17/outbox.cif.g08.bks.cpg/sg19_1_cif.got.tgz:525.got - 2010.06.03 22:46:19.
