data_PCOD9315512
_publ_section_title
;
Structure prediction by ZEFSAII (Michael W. Deem and Ramdas Pophale) SiO2 
 PCOD9315512
Probable space group: P 21 21 21
;
_chemical_formula_sum "Si O2"
_cell_formula_units_Z 32
_cell_length_a 9.999479
_cell_length_b 7.676332
_cell_length_c 20.262612
_cell_angle_alpha 90.000000
_cell_angle_beta 90.000000
_cell_angle_gamma 90.000000
_cell_volume 1555.344331
_symmetry_space_group_name_H-M "P 21 21 21"
_symmetry_group_IT_number 19
_symmetry_cell_setting 'orthorhombic'
loop_
_space_group_symop_operation_xyz
x,y,z
1/2-x,-y,1/2+z
1/2+x,1/2-y,-z
-x,1/2+y,1/2-z
loop_
_atom_site_type_symbol
_atom_site_label
_atom_site_fract_x
_atom_site_fract_y
_atom_site_fract_z
Si Si1 0.085139 0.771984 0.431441
Si Si2 0.478801 0.834964 0.921033
Si Si3 0.317435 0.004668 0.747552
Si Si4 0.270501 0.124419 0.608519
Si Si5 0.393841 0.385494 0.793698
Si Si6 0.762101 0.202968 0.661107
Si Si7 0.862605 0.601008 0.517235
Si Si8 0.992450 0.265324 0.572891
O O1 0.069723 0.641748 0.370709
O O2 0.240309 0.790349 0.452148
O O3 0.985784 0.712276 0.489129
O O4 0.039221 0.962236 0.407795
O O5 0.599951 0.745858 0.882951
O O6 0.344235 0.740484 0.897619
O O7 0.507068 0.809905 0.998578
O O8 0.258088 0.009526 0.673951
O O9 0.328717 0.204295 0.771176
O O10 0.469024 0.929479 0.743832
O O11 0.236227 0.878779 0.795732
O O12 0.143791 0.247322 0.596539
O O13 0.296981 0.005478 0.544183
O O14 0.293504 0.548015 0.793516
O O15 0.899825 0.163637 0.624516
O O16 0.927030 0.456666 0.565544
#
# Coordination Sequence:
#
# PCOD9315512 Si02
#       8
#     4   4   4   4   4   4   4   4
#     4  12  24  39  65 105 139 169 227 283 352 412
#     4  11  20  41  69  97 130 174 225 283 339 404
#     4  12  23  43  65  97 134 171 240 277 330 417
#     4  11  23  42  66  94 130 180 226 275 349 412
#     4  12  23  39  70  96 123 177 232 284 327 400
#     4  12  24  45  70  98 135 181 226 288 339 405
#     4  11  24  41  64 105 136 175 221 289 346 419
#     4  11  23  44  65  96 137 175 221 285 356 411
#
# _framework density 20.574224000000001
#
# number of rings (size 3 to 8) (size 9 to 14) (size 15 to 20)
#    0.000    0.500    7.500    1.500    3.500    0.000 
#    2.250    0.000    0.000    0.000    0.000    0.000 
#    0.000    0.000    0.000    0.000    0.000    0.000 
#
# Total GULP energy -178929.737192 kJ/mol
# GULP energy per Si atom -5591.554287 kJ/mol
# Density = 2.052740 g / cm^3
# Si number density = 20.574224 Si / 1000 Ang^3
#
#
#
# Elastic Constant Matrix: (Units=GPa)
#
#
# Indices 1 2 3 4 5 6 
#
# 1 77.4040 1.7241 -3.7026 0.0000 0.0000 0.0000
# 2 1.7241 74.0701 -3.1849 0.0000 0.0000 0.0000
# 3 -3.7026 -3.1849 50.6184 0.0000 0.0000 0.0000
# 4 0.0000 0.0000 0.0000 33.7236 0.0000 0.0000
# 5 0.0000 0.0000 0.0000 0.0000 19.6140 0.0000
# 6 0.0000 0.0000 0.0000 0.0000 0.0000 17.7284
#
#
#
# Elastic Compliance Matrix: (Units=1/GPa)
#
#
# Indices 1 2 3 4 5 6 
#
# 1 0.012970 -0.000262 0.000932 0.000000 0.000000 0.000000
# 2 -0.000262 0.013543 0.000833 0.000000 0.000000 0.000000
# 3 0.000932 0.000833 0.019876 0.000000 0.000000 0.000000
# 4 0.000000 0.000000 0.000000 0.029653 0.000000 0.000000
# 5 0.000000 0.000000 0.000000 0.000000 0.050984 0.000000
# 6 0.000000 0.000000 0.000000 0.000000 0.000000 0.056407
#
#
# Mechanical properties :
#
#
# Convention : Reuss Voigt Hill
#
# Bulk Modulus (GPa) = 20.24485 21.30730 20.77607
# Shear Modulus (GPa) = 25.39484 28.03025 26.71255
#
# Velocity S-wave (km/s) = 3.51708 3.69507 3.60717
# Velocity P-wave (km/s) = 5.13365 5.34636 5.24108
#
# Compressibility (1/GPa) = 0.04939529
#
# Stress axis : x y z
#
# Youngs Moduli (GPa) = 77.10304 73.84086 50.31128
#
# Poissons Ratio (x) = 0.01933 -0.04690
# Poissons Ratio (y) = 0.02019 -0.04191
# Poissons Ratio (z) = -0.07188 -0.06151
#
# Static dielectric constant tensor:
#      x y z
#    x 1.707320 0.000000 0.000000 
#    y 0.000000 1.741200 0.000000 
#    z 0.000000 0.000000 1.760500 
# 
# From -- ./inp_files/7043.got.cif
#   From: 2010.05.17/outbox.cif.g08.bks.cpg/sg19_4_cif.got.tgz:7043.got - 2010.06.03 22:46:19.
