data_PCOD9315238
_publ_section_title
;
Structure prediction by ZEFSAII (Michael W. Deem and Ramdas Pophale) SiO2 
 PCOD9315238
Probable space group: P 21 21 21
;
_chemical_formula_sum "Si O2"
_cell_formula_units_Z 28
_cell_length_a 8.846458
_cell_length_b 10.971703
_cell_length_c 11.662764
_cell_angle_alpha 90.000000
_cell_angle_beta 90.000000
_cell_angle_gamma 90.000000
_cell_volume 1131.996152
_symmetry_space_group_name_H-M "P 21 21 21"
_symmetry_group_IT_number 19
_symmetry_cell_setting 'orthorhombic'
loop_
_space_group_symop_operation_xyz
x,y,z
1/2-x,-y,1/2+z
1/2+x,1/2-y,-z
-x,1/2+y,1/2-z
loop_
_atom_site_type_symbol
_atom_site_label
_atom_site_fract_x
_atom_site_fract_y
_atom_site_fract_z
Si Si1 0.101726 0.665588 0.744404
Si Si2 0.242115 0.423455 0.735561
Si Si3 0.533993 0.384952 0.634910
Si Si4 0.329186 0.969639 0.386744
Si Si5 0.141982 0.768543 0.520679
Si Si6 0.632313 0.089439 0.015702
Si Si7 0.978223 0.813126 0.951175
O O1 0.239418 0.570346 0.734651
O O2 0.138030 0.775286 0.657870
O O3 0.066636 0.719357 0.867791
O O4 0.951524 0.593242 0.697986
O O5 0.411772 0.372383 0.736414
O O6 0.137604 0.407347 0.846814
O O7 0.161290 0.359459 0.627207
O O8 0.687573 0.455120 0.665897
O O9 0.440436 0.473386 0.545313
O O10 0.562635 0.259811 0.565976
O O11 0.250811 0.863303 0.459280
O O12 0.416369 0.068722 0.464676
O O13 0.196027 0.630056 0.505181
O O14 0.977281 0.802045 0.476091
#
# Coordination Sequence:
#
# PCOD9315238 Si02
#       7
#     4   4   4   4   4   4   4
#     4  11  21  40  67  92 129 181 230 262 334 417
#     4  11  22  40  66  95 131 180 227 269 342 408
#     4  11  23  41  64  97 141 165 227 293 331 389
#     4  10  24  39  62 100 129 172 230 268 342 392
#     4  11  20  41  63  97 132 171 225 281 323 406
#     4  11  22  39  67  95 129 180 224 278 332 396
#     4  11  22  42  67  94 135 181 221 273 346 412
#
# _framework density 24.735067000000001
#
# number of rings (size 3 to 8) (size 9 to 14) (size 15 to 20)
#    0.000    1.143    5.714    0.857    0.000    0.000 
#    2.571    4.286    0.000    0.000    0.000    0.000 
#    0.000    0.000    0.000    0.000    0.000    0.000 
#
# Total GULP energy -156281.480840 kJ/mol
# GULP energy per Si atom -5581.481459 kJ/mol
# Density = 2.467877 g / cm^3
# Si number density = 24.735067 Si / 1000 Ang^3
#
#
#
# Elastic Constant Matrix: (Units=GPa)
#
#
# Indices 1 2 3 4 5 6 
#
# 1 92.9250 25.5798 8.7563 0.0000 0.0000 0.0000
# 2 25.5798 52.0700 -2.3719 0.0000 0.0000 0.0000
# 3 8.7563 -2.3719 34.5692 0.0000 0.0000 0.0000
# 4 0.0000 0.0000 0.0000 36.1383 0.0000 0.0000
# 5 0.0000 0.0000 0.0000 0.0000 29.1565 0.0000
# 6 0.0000 0.0000 0.0000 0.0000 0.0000 35.1815
#
#
#
# Elastic Compliance Matrix: (Units=1/GPa)
#
#
# Indices 1 2 3 4 5 6 
#
# 1 0.012903 -0.006508 -0.003715 0.000000 0.000000 0.000000
# 2 -0.006508 0.022548 0.003195 0.000000 0.000000 0.000000
# 3 -0.003715 0.003195 0.030088 0.000000 0.000000 0.000000
# 4 0.000000 0.000000 0.000000 0.027671 0.000000 0.000000
# 5 0.000000 0.000000 0.000000 0.000000 0.034298 0.000000
# 6 0.000000 0.000000 0.000000 0.000000 0.000000 0.028424
#
#
# Mechanical properties :
#
#
# Convention : Reuss Voigt Hill
#
# Bulk Modulus (GPa) = 19.42363 27.05474 23.23918
# Shear Modulus (GPa) = 26.71700 29.93526 28.32613
#
# Velocity S-wave (km/s) = 3.29009 3.48262 3.38772
# Velocity P-wave (km/s) = 4.72257 5.20894 4.97171
#
# Compressibility (1/GPa) = 0.05148369
#
# Stress axis : x y z
#
# Youngs Moduli (GPa) = 77.50221 44.35079 33.23620
#
# Poissons Ratio (x) = 0.28863 0.12347
# Poissons Ratio (y) = 0.50437 -0.10620
# Poissons Ratio (z) = 0.28790 -0.14172
#
# Static dielectric constant tensor:
#      x y z
#    x 1.999470 0.000000 0.000000 
#    y 0.000000 1.978680 0.000000 
#    z 0.000000 0.000000 2.114190 
# 
# From -- ./inp_files/4612.got.cif
#   From: 2010.05.17/outbox.cif.g08.bks.cpg/sg19_3_cif.got.tgz:4612.got - 2010.06.03 22:46:19.
