data_PCOD9315026
_publ_section_title
;
Structure prediction by ZEFSAII (Michael W. Deem and Ramdas Pophale) SiO2 
 PCOD9315026
Probable space group: P 21 21 21
;
_chemical_formula_sum "Si O2"
_cell_formula_units_Z 32
_cell_length_a 9.522329
_cell_length_b 11.159905
_cell_length_c 13.949410
_cell_angle_alpha 90.000000
_cell_angle_beta 90.000000
_cell_angle_gamma 90.000000
_cell_volume 1482.379906
_symmetry_space_group_name_H-M "P 21 21 21"
_symmetry_group_IT_number 19
_symmetry_cell_setting 'orthorhombic'
loop_
_space_group_symop_operation_xyz
x,y,z
1/2-x,-y,1/2+z
1/2+x,1/2-y,-z
-x,1/2+y,1/2-z
loop_
_atom_site_type_symbol
_atom_site_label
_atom_site_fract_x
_atom_site_fract_y
_atom_site_fract_z
Si Si1 0.126245 0.019271 0.464506
Si Si2 0.692282 0.076992 0.644703
Si Si3 0.499357 0.285106 0.660753
Si Si4 0.770687 0.631811 0.846573
Si Si5 0.953673 0.069788 0.759464
Si Si6 0.409623 0.600095 0.402797
Si Si7 0.434841 0.914000 0.662875
Si Si8 0.106517 0.126416 0.937939
O O1 0.188743 0.111647 0.542669
O O2 0.027147 0.090924 0.392888
O O3 0.256439 0.952877 0.416281
O O4 0.039002 0.924222 0.526982
O O5 0.595421 0.184409 0.609118
O O6 0.805482 0.120867 0.723163
O O7 0.790062 0.999116 0.573654
O O8 0.580726 0.982002 0.684479
O O9 0.340878 0.238009 0.664275
O O10 0.560918 0.301284 0.767467
O O11 0.688749 0.509339 0.817296
O O12 0.914655 0.639060 0.788091
O O13 0.047017 0.440465 0.794667
O O14 0.981148 0.076880 0.871606
O O15 0.364388 0.735805 0.412018
O O16 0.425984 0.883917 0.550603
#
# Coordination Sequence:
#
# PCOD9315026 Si02
#       8
#     4   4   4   4   4   4   4   4
#     4  10  23  41  66 103 126 184 227 272 346 400
#     4   9  23  45  61  94 140 170 223 281 331 408
#     4  11  23  42  71  94 141 177 221 287 339 412
#     4   9  21  41  64  92 136 171 224 279 331 406
#     4   9  21  41  63  94 127 177 222 266 340 397
#     4   9  23  42  62  96 132 169 229 276 332 402
#     4  10  23  42  61 102 129 174 227 273 348 400
#     4  11  23  40  72  95 137 176 223 292 335 407
#
# _framework density 21.586908000000001
#
# number of rings (size 3 to 8) (size 9 to 14) (size 15 to 20)
#    0.750    1.500    0.000    0.750    5.250    6.000 
#    2.250    3.750    0.000    0.000    0.000    0.000 
#    0.000    0.000    0.000    0.000    0.000    0.000 
#
# Total GULP energy -178456.831639 kJ/mol
# GULP energy per Si atom -5576.775989 kJ/mol
# Density = 2.153778 g / cm^3
# Si number density = 21.586908 Si / 1000 Ang^3
#
#
#
# Elastic Constant Matrix: (Units=GPa)
#
#
# Indices 1 2 3 4 5 6 
#
# 1 97.9668 18.0972 11.1100 0.0000 0.0000 0.0000
# 2 18.0972 71.1491 32.3131 0.0000 0.0000 0.0000
# 3 11.1100 32.3131 75.7985 0.0000 0.0000 0.0000
# 4 0.0000 0.0000 0.0000 14.2175 0.0000 0.0000
# 5 0.0000 0.0000 0.0000 0.0000 4.8837 0.0000
# 6 0.0000 0.0000 0.0000 0.0000 0.0000 12.9997
#
#
#
# Elastic Compliance Matrix: (Units=1/GPa)
#
#
# Indices 1 2 3 4 5 6 
#
# 1 0.010727 -0.002498 -0.000507 0.000000 0.000000 0.000000
# 2 -0.002498 0.018011 -0.007312 0.000000 0.000000 0.000000
# 3 -0.000507 -0.007312 0.016384 0.000000 0.000000 0.000000
# 4 0.000000 0.000000 0.000000 0.070336 0.000000 0.000000
# 5 0.000000 0.000000 0.000000 0.000000 0.204761 0.000000
# 6 0.000000 0.000000 0.000000 0.000000 0.000000 0.076925
#
#
# Mechanical properties :
#
#
# Convention : Reuss Voigt Hill
#
# Bulk Modulus (GPa) = 40.83736 40.88389 40.86063
# Shear Modulus (GPa) = 11.73870 18.64645 15.19258
#
# Velocity S-wave (km/s) = 2.33446 2.94221 2.65578
# Velocity P-wave (km/s) = 5.12103 5.52471 5.32670
#
# Compressibility (1/GPa) = 0.02448738
#
# Stress axis : x y z
#
# Youngs Moduli (GPa) = 93.22694 55.52091 61.03363
#
# Poissons Ratio (x) = 0.13869 0.03096
# Poissons Ratio (y) = 0.23288 0.44628
# Poissons Ratio (z) = 0.04730 0.40598
#
# Static dielectric constant tensor:
#      x y z
#    x 1.786230 0.000000 0.000000 
#    y 0.000000 1.788490 0.000000 
#    z 0.000000 0.000000 1.810020 
# 
# From -- ./inp_files/5937.got.cif
#   From: 2010.05.17/outbox.cif.g08.bks.cpg/sg19_3_cif.got.tgz:5937.got - 2010.06.03 22:46:19.
