data_PCOD9315142
_publ_section_title
;
Structure prediction by ZEFSAII (Michael W. Deem and Ramdas Pophale) SiO2 
 PCOD9315142
Probable space group: P 21 21 21
;
_chemical_formula_sum "Si O2"
_cell_formula_units_Z 20
_cell_length_a 6.736809
_cell_length_b 8.482674
_cell_length_c 12.490353
_cell_angle_alpha 90.000000
_cell_angle_beta 90.000000
_cell_angle_gamma 90.000000
_cell_volume 713.775643
_symmetry_space_group_name_H-M "P 21 21 21"
_symmetry_group_IT_number 19
_symmetry_cell_setting 'orthorhombic'
loop_
_space_group_symop_operation_xyz
x,y,z
1/2-x,-y,1/2+z
1/2+x,1/2-y,-z
-x,1/2+y,1/2-z
loop_
_atom_site_type_symbol
_atom_site_label
_atom_site_fract_x
_atom_site_fract_y
_atom_site_fract_z
Si Si1 0.743326 0.866824 0.340900
Si Si2 0.272865 0.390561 0.933348
Si Si3 0.338118 0.074590 0.597358
Si Si4 0.989438 0.588901 0.073203
Si Si5 0.035580 0.900302 0.742651
O O1 0.712837 0.787382 0.458171
O O2 0.684481 0.746986 0.247875
O O3 0.587098 0.011809 0.333713
O O4 0.959344 0.947944 0.343084
O O5 0.487853 0.445991 0.899638
O O6 0.137790 0.335685 0.836487
O O7 0.148907 0.538482 0.981274
O O8 0.440867 0.242860 0.613492
O O9 0.222769 0.081787 0.482896
O O10 0.170718 0.029053 0.682677
#
# Coordination Sequence:
#
# PCOD9315142 Si02
#       5
#     4   4   4   4   4
#     4  10  23  44  67 101 140 181 228 290 341 409
#     4   9  23  40  69  99 138 180 227 274 350 405
#     4  11  19  39  68  99 135 181 223 283 340 414
#     4   9  19  37  65  96 132 174 222 276 341 402
#     4  11  24  44  67 101 145 178 238 283 346 418
#
# _framework density 28.020011
#
# number of rings (size 3 to 8) (size 9 to 14) (size 15 to 20)
#    1.200    0.800    2.000    1.200    2.800    0.000 
#    3.600    0.000    0.000    0.000    0.000    0.000 
#    0.000    0.000    0.000    0.000    0.000    0.000 
#
# Total GULP energy -111935.321976 kJ/mol
# GULP energy per Si atom -5596.766099 kJ/mol
# Density = 2.795624 g / cm^3
# Si number density = 28.020011 Si / 1000 Ang^3
#
#
#
# Elastic Constant Matrix: (Units=GPa)
#
#
# Indices 1 2 3 4 5 6 
#
# 1 164.1456 37.8055 52.7881 0.0000 0.0000 0.0000
# 2 37.8055 108.8359 22.4555 0.0000 0.0000 0.0000
# 3 52.7881 22.4555 83.2996 0.0000 0.0000 0.0000
# 4 0.0000 0.0000 0.0000 35.2376 0.0000 0.0000
# 5 0.0000 0.0000 0.0000 0.0000 65.3593 0.0000
# 6 0.0000 0.0000 0.0000 0.0000 0.0000 33.5034
#
#
#
# Elastic Compliance Matrix: (Units=1/GPa)
#
#
# Indices 1 2 3 4 5 6 
#
# 1 0.007982 -0.001831 -0.004565 0.000000 0.000000 0.000000
# 2 -0.001831 0.010149 -0.001576 0.000000 0.000000 0.000000
# 3 -0.004565 -0.001576 0.015322 0.000000 0.000000 0.000000
# 4 0.000000 0.000000 0.000000 0.028379 0.000000 0.000000
# 5 0.000000 0.000000 0.000000 0.000000 0.015300 0.000000
# 6 0.000000 0.000000 0.000000 0.000000 0.000000 0.029848
#
#
# Mechanical properties :
#
#
# Convention : Reuss Voigt Hill
#
# Bulk Modulus (GPa) = 57.10722 64.70880 60.90801
# Shear Modulus (GPa) = 38.83218 43.03551 40.93384
#
# Velocity S-wave (km/s) = 3.72677 3.92329 3.82629
# Velocity P-wave (km/s) = 6.24048 6.60809 6.42691
#
# Compressibility (1/GPa) = 0.01751092
#
# Stress axis : x y z
#
# Youngs Moduli (GPa) = 125.28565 98.52979 65.26433
#
# Poissons Ratio (x) = 0.18039 0.29791
# Poissons Ratio (y) = 0.22937 0.10284
# Poissons Ratio (z) = 0.57188 0.15526
#
# Static dielectric constant tensor:
#      x y z
#    x 2.081340 0.000000 0.000000 
#    y 0.000000 2.181410 0.000000 
#    z 0.000000 0.000000 2.271210 
# 
# From -- ./inp_files/6378.got.cif
#   From: 2010.05.17/outbox.cif.g08.bks.cpg/sg19_4_cif.got.tgz:6378.got - 2010.06.03 22:46:19.
