data_PCOD9315719
_publ_section_title
;
Structure prediction by ZEFSAII (Michael W. Deem and Ramdas Pophale) SiO2 
 PCOD9315719
Probable space group: P 21 21 21
;
_chemical_formula_sum "Si O2"
_cell_formula_units_Z 28
_cell_length_a 23.691721
_cell_length_b 7.976022
_cell_length_c 6.755017
_cell_angle_alpha 90.000000
_cell_angle_beta 90.000000
_cell_angle_gamma 90.000000
_cell_volume 1276.466434
_symmetry_space_group_name_H-M "P 21 21 21"
_symmetry_group_IT_number 19
_symmetry_cell_setting 'orthorhombic'
loop_
_space_group_symop_operation_xyz
x,y,z
1/2-x,-y,1/2+z
1/2+x,1/2-y,-z
-x,1/2+y,1/2-z
loop_
_atom_site_type_symbol
_atom_site_label
_atom_site_fract_x
_atom_site_fract_y
_atom_site_fract_z
Si Si1 0.402177 0.099420 0.775089
Si Si2 0.366187 0.323539 0.137358
Si Si3 0.932411 0.618390 0.890874
Si Si4 0.540351 0.685798 0.115797
Si Si5 0.178043 0.311836 0.675483
Si Si6 0.687449 0.354513 0.931269
Si Si7 0.268371 0.188147 0.411149
O O1 0.435356 0.198109 0.605465
O O2 0.361334 0.970173 0.660775
O O3 0.369495 0.216537 0.934485
O O4 0.443590 0.989941 0.912605
O O5 0.427694 0.315194 0.238214
O O6 0.342747 0.508192 0.105272
O O7 0.326252 0.242745 0.307878
O O8 0.943587 0.494825 0.707150
O O9 0.867157 0.673979 0.900225
O O10 0.974432 0.773602 0.880340
O O11 0.172267 0.286937 0.911054
O O12 0.241772 0.276338 0.603314
O O13 0.726641 0.491144 0.043308
O O14 0.721746 0.276142 0.753482
#
# Coordination Sequence:
#
# PCOD9315719 Si02
#       7
#     4   4   4   4   4   4   4
#     4  11  23  46  70  98 135 182 230 282 352 417
#     4  11  27  43  65 105 139 177 234 288 355 412
#     4  11  24  45  69 101 132 179 233 285 352 422
#     4  11  24  47  73  96 140 181 225 296 350 418
#     4  12  26  42  67 102 139 181 232 289 343 419
#     4  12  22  43  69  96 133 183 229 276 339 421
#     4  12  24  40  69  96 136 183 225 280 347 415
#
# _framework density 21.935554
#
# number of rings (size 3 to 8) (size 9 to 14) (size 15 to 20)
#    0.000    0.571    5.714    2.571    2.000    4.571 
#    2.571    0.000    0.000    0.000    0.000    0.000 
#    0.000    0.000    0.000    0.000    0.000    0.000 
#
# Total GULP energy -156424.328416 kJ/mol
# GULP energy per Si atom -5586.583158 kJ/mol
# Density = 2.188563 g / cm^3
# Si number density = 21.935554 Si / 1000 Ang^3
#
#
#
# Elastic Constant Matrix: (Units=GPa)
#
#
# Indices 1 2 3 4 5 6 
#
# 1 60.2851 -1.6133 21.8008 0.0000 0.0000 0.0000
# 2 -1.6133 62.6525 22.8832 0.0000 0.0000 0.0000
# 3 21.8008 22.8832 114.9467 0.0000 0.0000 0.0000
# 4 0.0000 0.0000 0.0000 14.3221 0.0000 0.0000
# 5 0.0000 0.0000 0.0000 0.0000 21.6320 0.0000
# 6 0.0000 0.0000 0.0000 0.0000 0.0000 27.0639
#
#
#
# Elastic Compliance Matrix: (Units=1/GPa)
#
#
# Indices 1 2 3 4 5 6 
#
# 1 0.018005 0.001845 -0.003782 0.000000 0.000000 0.000000
# 2 0.001845 0.017402 -0.003814 0.000000 0.000000 0.000000
# 3 -0.003782 -0.003814 0.010176 0.000000 0.000000 0.000000
# 4 0.000000 0.000000 0.000000 0.069822 0.000000 0.000000
# 5 0.000000 0.000000 0.000000 0.000000 0.046228 0.000000
# 6 0.000000 0.000000 0.000000 0.000000 0.000000 0.036950
#
#
# Mechanical properties :
#
#
# Convention : Reuss Voigt Hill
#
# Bulk Modulus (GPa) = 29.34244 36.00284 32.67264
# Shear Modulus (GPa) = 22.57896 25.59118 24.08507
#
# Velocity S-wave (km/s) = 3.21180 3.41934 3.31719
# Velocity P-wave (km/s) = 5.21152 5.66019 5.44048
#
# Compressibility (1/GPa) = 0.03408033
#
# Stress axis : x y z
#
# Youngs Moduli (GPa) = 55.54030 57.46577 98.26745
#
# Poissons Ratio (x) = -0.10602 0.37166
# Poissons Ratio (y) = -0.10247 0.37481
# Poissons Ratio (z) = 0.21006 0.21918
#
# Static dielectric constant tensor:
#      x y z
#    x 1.824710 0.000000 0.000000 
#    y 0.000000 1.781240 0.000000 
#    z 0.000000 0.000000 1.870390 
# 
# From -- ./inp_files/510.got.cif
#   From: 2010.05.17/outbox.cif.g08.bks.cpg/sg19_1_cif.got.tgz:510.got - 2010.06.03 22:46:19.
