data_PCOD9315541
_publ_section_title
;
Structure prediction by ZEFSAII (Michael W. Deem and Ramdas Pophale) SiO2 
 PCOD9315541
Probable space group: P 21 21 21
;
_chemical_formula_sum "Si O2"
_cell_formula_units_Z 28
_cell_length_a 5.177218
_cell_length_b 8.884029
_cell_length_c 23.965826
_cell_angle_alpha 90.000000
_cell_angle_beta 90.000000
_cell_angle_gamma 90.000000
_cell_volume 1102.297499
_symmetry_space_group_name_H-M "P 21 21 21"
_symmetry_group_IT_number 19
_symmetry_cell_setting 'orthorhombic'
loop_
_space_group_symop_operation_xyz
x,y,z
1/2-x,-y,1/2+z
1/2+x,1/2-y,-z
-x,1/2+y,1/2-z
loop_
_atom_site_type_symbol
_atom_site_label
_atom_site_fract_x
_atom_site_fract_y
_atom_site_fract_z
Si Si1 0.218146 0.367461 0.747571
Si Si2 0.134451 0.411640 0.072923
Si Si3 0.400837 0.198852 0.148481
Si Si4 0.080289 0.955920 0.116304
Si Si5 0.676676 0.232997 0.463261
Si Si6 0.767440 0.797808 0.205446
Si Si7 0.756365 0.192060 0.049940
O O1 0.489394 0.297930 0.728395
O O2 0.225196 0.547600 0.758642
O O3 0.124810 0.294753 0.806672
O O4 0.987879 0.305507 0.707621
O O5 0.243156 0.345847 0.130658
O O6 0.223238 0.578398 0.063058
O O7 0.836105 0.360945 0.068696
O O8 0.225517 0.329197 0.015343
O O9 0.518882 0.152362 0.089019
O O10 0.211889 0.060867 0.163377
O O11 0.283652 0.853763 0.084838
O O12 0.859441 0.857034 0.145138
O O13 0.965010 0.072733 0.071896
O O14 0.390391 0.230015 0.488664
#
# Coordination Sequence:
#
# PCOD9315541 Si02
#       7
#     4   4   4   4   4   4   4
#     4  12  27  51  79 111 148 195 252 322 383 453
#     4  11  24  39  69 108 141 194 242 294 349 435
#     4  11  24  45  75 103 142 193 250 299 363 448
#     4  11  25  47  74 101 145 202 241 299 382 440
#     4  12  28  45  68 106 154 194 239 302 364 438
#     4  12  27  50  81 112 147 197 256 317 387 457
#     4  11  21  41  72  99 141 191 242 287 350 443
#
# _framework density 25.401494
#
# number of rings (size 3 to 8) (size 9 to 14) (size 15 to 20)
#    0.000    0.571    4.286    3.429    6.000    1.143 
#    2.571    1.429    0.000    0.000    0.000    0.000 
#    0.000    0.000    0.000    0.000    0.000    0.000 
#
# Total GULP energy -156703.293917 kJ/mol
# GULP energy per Si atom -5596.546211 kJ/mol
# Density = 2.534368 g / cm^3
# Si number density = 25.401494 Si / 1000 Ang^3
#
#
#
# Elastic Constant Matrix: (Units=GPa)
#
#
# Indices 1 2 3 4 5 6 
#
# 1 96.8364 -2.6398 7.7424 0.0000 0.0000 0.0000
# 2 -2.6398 44.4560 -25.8204 0.0000 0.0000 0.0000
# 3 7.7424 -25.8204 71.5440 0.0000 0.0000 0.0000
# 4 0.0000 0.0000 0.0000 29.4987 0.0000 0.0000
# 5 0.0000 0.0000 0.0000 0.0000 26.8687 0.0000
# 6 0.0000 0.0000 0.0000 0.0000 0.0000 16.1005
#
#
#
# Elastic Compliance Matrix: (Units=1/GPa)
#
#
# Indices 1 2 3 4 5 6 
#
# 1 0.010417 -0.000046 -0.001144 0.000000 0.000000 0.000000
# 2 -0.000046 0.028460 0.010276 0.000000 0.000000 0.000000
# 3 -0.001144 0.010276 0.017810 0.000000 0.000000 0.000000
# 4 0.000000 0.000000 0.000000 0.033900 0.000000 0.000000
# 5 0.000000 0.000000 0.000000 0.000000 0.037218 0.000000
# 6 0.000000 0.000000 0.000000 0.000000 0.000000 0.062110
#
#
# Mechanical properties :
#
#
# Convention : Reuss Voigt Hill
#
# Bulk Modulus (GPa) = 13.35829 19.04454 16.20142
# Shear Modulus (GPa) = 25.42015 30.06387 27.74201
#
# Velocity S-wave (km/s) = 3.16687 3.44400 3.30834
# Velocity P-wave (km/s) = 4.31768 4.82997 4.58099
#
# Compressibility (1/GPa) = 0.07485987
#
# Stress axis : x y z
#
# Youngs Moduli (GPa) = 95.99786 35.13712 56.14859
#
# Poissons Ratio (x) = 0.00161 0.06422
# Poissons Ratio (y) = 0.00440 -0.57699
# Poissons Ratio (z) = 0.10980 -0.36108
#
# Static dielectric constant tensor:
#      x y z
#    x 2.137060 0.000000 0.000000 
#    y 0.000000 2.093350 0.000000 
#    z 0.000000 0.000000 1.998770 
# 
# From -- ./inp_files/2119.got.cif
#   From: 2010.05.17/outbox.cif.g08.bks.cpg/sg19_2_cif.got.tgz:2119.got - 2010.06.03 22:46:19.
