data_PCOD9315306
_publ_section_title
;
Structure prediction by ZEFSAII (Michael W. Deem and Ramdas Pophale) SiO2 
 PCOD9315306
Probable space group: P 21 21 21
;
_chemical_formula_sum "Si O2"
_cell_formula_units_Z 32
_cell_length_a 11.514589
_cell_length_b 8.399751
_cell_length_c 14.719394
_cell_angle_alpha 90.000000
_cell_angle_beta 90.000000
_cell_angle_gamma 90.000000
_cell_volume 1423.655084
_symmetry_space_group_name_H-M "P 21 21 21"
_symmetry_group_IT_number 19
_symmetry_cell_setting 'orthorhombic'
loop_
_space_group_symop_operation_xyz
x,y,z
1/2-x,-y,1/2+z
1/2+x,1/2-y,-z
-x,1/2+y,1/2-z
loop_
_atom_site_type_symbol
_atom_site_label
_atom_site_fract_x
_atom_site_fract_y
_atom_site_fract_z
Si Si1 0.300839 0.080564 0.092028
Si Si2 0.949627 0.703767 0.871995
Si Si3 0.453595 0.981234 0.627961
Si Si4 0.860835 0.148067 0.777863
Si Si5 0.274987 0.344412 0.728608
Si Si6 0.209970 0.913825 0.387703
Si Si7 0.972460 0.509429 0.567347
Si Si8 0.474066 0.826209 0.819078
O O1 0.299873 0.205852 0.172991
O O2 0.414449 0.971623 0.099062
O O3 0.182164 0.980663 0.106704
O O4 0.302778 0.149374 0.990621
O O5 0.833108 0.771368 0.826089
O O6 0.051748 0.702439 0.799288
O O7 0.993200 0.824853 0.948250
O O8 0.524659 0.139148 0.656150
O O9 0.489286 0.910514 0.530565
O O10 0.457427 0.860508 0.711584
O O11 0.940897 0.075452 0.857588
O O12 0.773366 0.015650 0.740550
O O13 0.301040 0.221285 0.810617
O O14 0.389947 0.372513 0.668746
O O15 0.343514 0.975073 0.391356
O O16 0.119394 0.057962 0.367628
#
# Coordination Sequence:
#
# PCOD9315306 Si02
#       8
#     4   4   4   4   4   4   4   4
#     4  11  24  45  69 104 138 178 231 292 351 404
#     4  11  21  44  71  99 138 175 236 285 344 408
#     4  11  26  43  68  98 140 180 229 286 341 428
#     4  11  25  41  75 100 134 186 229 282 354 406
#     4  11  24  44  65 102 135 182 234 280 334 428
#     4  11  24  45  72  99 143 182 229 290 347 414
#     4  10  24  44  68 103 135 175 235 293 342 404
#     4  12  24  44  70  93 141 188 227 278 357 412
#
# _framework density 22.477353999999998
#
# number of rings (size 3 to 8) (size 9 to 14) (size 15 to 20)
#    0.000    1.000    3.750    2.250    5.250    0.000 
#    2.250    1.250    0.000    0.000    0.000    0.000 
#    0.000    0.000    0.000    0.000    0.000    0.000 
#
# Total GULP energy -178726.517730 kJ/mol
# GULP energy per Si atom -5585.203679 kJ/mol
# Density = 2.242619 g / cm^3
# Si number density = 22.477354 Si / 1000 Ang^3
#
#
#
# Elastic Constant Matrix: (Units=GPa)
#
#
# Indices 1 2 3 4 5 6 
#
# 1 94.8667 25.0121 13.4272 0.0000 0.0000 0.0000
# 2 25.0121 52.8774 14.2868 0.0000 0.0000 0.0000
# 3 13.4272 14.2868 83.0424 0.0000 0.0000 0.0000
# 4 0.0000 0.0000 0.0000 18.9352 0.0000 0.0000
# 5 0.0000 0.0000 0.0000 0.0000 28.9946 0.0000
# 6 0.0000 0.0000 0.0000 0.0000 0.0000 38.7969
#
#
#
# Elastic Compliance Matrix: (Units=1/GPa)
#
#
# Indices 1 2 3 4 5 6 
#
# 1 0.012125 -0.005459 -0.001021 0.000000 0.000000 0.000000
# 2 -0.005459 0.022292 -0.002952 0.000000 0.000000 0.000000
# 3 -0.001021 -0.002952 0.012715 0.000000 0.000000 0.000000
# 4 0.000000 0.000000 0.000000 0.052812 0.000000 0.000000
# 5 0.000000 0.000000 0.000000 0.000000 0.034489 0.000000
# 6 0.000000 0.000000 0.000000 0.000000 0.000000 0.025775
#
#
# Mechanical properties :
#
#
# Convention : Reuss Voigt Hill
#
# Bulk Modulus (GPa) = 35.37852 37.35987 36.36919
# Shear Modulus (GPa) = 26.52572 29.21603 27.87087
#
# Velocity S-wave (km/s) = 3.43900 3.60918 3.52512
# Velocity P-wave (km/s) = 5.61629 5.83314 5.72574
#
# Compressibility (1/GPa) = 0.02826574
#
# Stress axis : x y z
#
# Youngs Moduli (GPa) = 82.47375 44.85949 78.64661
#
# Poissons Ratio (x) = 0.24491 0.08032
# Poissons Ratio (y) = 0.45026 0.23220
# Poissons Ratio (z) = 0.08423 0.13244
#
# Static dielectric constant tensor:
#      x y z
#    x 1.832590 0.000000 0.000000 
#    y 0.000000 1.892090 0.000000 
#    z 0.000000 0.000000 1.809740 
# 
# From -- ./inp_files/6162.got.cif
#   From: 2010.05.17/outbox.cif.g08.bks.cpg/sg19_4_cif.got.tgz:6162.got - 2010.06.03 22:46:19.
