data_PCOD9315968
_publ_section_title
;
Structure prediction by ZEFSAII (Michael W. Deem and Ramdas Pophale) SiO2 
 PCOD9315968
Probable space group: P 21 21 21
;
_chemical_formula_sum "Si O2"
_cell_formula_units_Z 20
_cell_length_a 5.516479
_cell_length_b 8.119364
_cell_length_c 18.062376
_cell_angle_alpha 90.000000
_cell_angle_beta 90.000000
_cell_angle_gamma 90.000000
_cell_volume 809.019258
_symmetry_space_group_name_H-M "P 21 21 21"
_symmetry_group_IT_number 19
_symmetry_cell_setting 'orthorhombic'
loop_
_space_group_symop_operation_xyz
x,y,z
1/2-x,-y,1/2+z
1/2+x,1/2-y,-z
-x,1/2+y,1/2-z
loop_
_atom_site_type_symbol
_atom_site_label
_atom_site_fract_x
_atom_site_fract_y
_atom_site_fract_z
Si Si1 0.539348 0.381614 0.911634
Si Si2 0.403550 0.501387 0.606566
Si Si3 0.173115 0.015666 0.239940
Si Si4 0.447102 0.443507 0.451348
Si Si5 0.537471 0.211576 0.318536
O O1 0.570371 0.187381 0.920427
O O2 0.500838 0.421222 0.824591
O O3 0.794915 0.466486 0.934779
O O4 0.298533 0.448327 0.950316
O O5 0.573080 0.486784 0.677714
O O6 0.460875 0.384213 0.536630
O O7 0.148333 0.447492 0.640970
O O8 0.264724 0.838364 0.213438
O O9 0.385267 0.149981 0.248724
O O10 0.414892 0.313195 0.385149
#
# Coordination Sequence:
#
# PCOD9315968 Si02
#       5
#     4   4   4   4   4
#     4  11  27  50  75 109 153 202 257 312 386 464
#     4  12  27  45  80 106 155 200 258 317 393 455
#     4  11  27  45  76 108 152 204 260 321 381 464
#     4  11  29  49  76 112 157 196 257 316 394 463
#     4  11  28  45  75 111 153 200 264 318 390 460
#
# _framework density 24.721291000000001
#
# number of rings (size 3 to 8) (size 9 to 14) (size 15 to 20)
#    0.000    0.800    0.000    3.600   28.000    0.000 
#    0.000    0.000    0.000    0.000    0.000    0.000 
#    0.000    0.000    0.000    0.000    0.000    0.000 
#
# Total GULP energy -111919.701068 kJ/mol
# GULP energy per Si atom -5595.985053 kJ/mol
# Density = 2.466502 g / cm^3
# Si number density = 24.721291 Si / 1000 Ang^3
#
#
#
# Elastic Constant Matrix: (Units=GPa)
#
#
# Indices 1 2 3 4 5 6 
#
# 1 105.9707 40.6853 32.4319 0.0000 0.0000 0.0000
# 2 40.6853 64.7826 0.2237 0.0000 0.0000 0.0000
# 3 32.4319 0.2237 145.2357 0.0000 0.0000 0.0000
# 4 0.0000 0.0000 0.0000 27.2089 0.0000 0.0000
# 5 0.0000 0.0000 0.0000 0.0000 45.2730 0.0000
# 6 0.0000 0.0000 0.0000 0.0000 0.0000 31.1782
#
#
#
# Elastic Compliance Matrix: (Units=1/GPa)
#
#
# Indices 1 2 3 4 5 6 
#
# 1 0.013654 -0.008565 -0.003036 0.000000 0.000000 0.000000
# 2 -0.008565 0.020809 0.001880 0.000000 0.000000 0.000000
# 3 -0.003036 0.001880 0.007560 0.000000 0.000000 0.000000
# 4 0.000000 0.000000 0.000000 0.036753 0.000000 0.000000
# 5 0.000000 0.000000 0.000000 0.000000 0.022088 0.000000
# 6 0.000000 0.000000 0.000000 0.000000 0.000000 0.032074
#
#
# Mechanical properties :
#
#
# Convention : Reuss Voigt Hill
#
# Bulk Modulus (GPa) = 44.28105 51.40788 47.84446
# Shear Modulus (GPa) = 31.26860 36.90853 34.08856
#
# Velocity S-wave (km/s) = 3.56032 3.86811 3.71740
# Velocity P-wave (km/s) = 5.90358 6.38669 6.14988
#
# Compressibility (1/GPa) = 0.02258302
#
# Stress axis : x y z
#
# Youngs Moduli (GPa) = 73.23945 48.05723 132.26866
#
# Poissons Ratio (x) = 0.41159 0.40154
# Poissons Ratio (y) = 0.62726 -0.24873
# Poissons Ratio (z) = 0.22234 -0.09037
#
# Static dielectric constant tensor:
#      x y z
#    x 2.075440 0.000000 0.000000 
#    y 0.000000 1.952290 0.000000 
#    z 0.000000 0.000000 1.940050 
# 
# From -- ./inp_files/343.got.cif
#   From: 2010.05.17/outbox.cif.g08.bks.cpg/sg19_1_cif.got.tgz:343.got - 2010.06.03 22:46:19.
