data_PCOD9315710
_publ_section_title
;
Structure prediction by ZEFSAII (Michael W. Deem and Ramdas Pophale) SiO2 
 PCOD9315710
Probable space group: P 21 21 21
;
_chemical_formula_sum "Si O2"
_cell_formula_units_Z 28
_cell_length_a 5.454976
_cell_length_b 8.961649
_cell_length_c 21.229529
_cell_angle_alpha 90.000000
_cell_angle_beta 90.000000
_cell_angle_gamma 90.000000
_cell_volume 1037.817843
_symmetry_space_group_name_H-M "P 21 21 21"
_symmetry_group_IT_number 19
_symmetry_cell_setting 'orthorhombic'
loop_
_space_group_symop_operation_xyz
x,y,z
1/2-x,-y,1/2+z
1/2+x,1/2-y,-z
-x,1/2+y,1/2-z
loop_
_atom_site_type_symbol
_atom_site_label
_atom_site_fract_x
_atom_site_fract_y
_atom_site_fract_z
Si Si1 0.281660 0.114788 0.447605
Si Si2 0.670588 0.916652 0.508084
Si Si3 0.150081 0.814964 0.388964
Si Si4 0.287054 0.066135 0.700675
Si Si5 0.789327 0.911535 0.753784
Si Si6 0.328770 0.354980 0.139441
Si Si7 0.933642 0.623168 0.930289
O O1 0.409666 0.236858 0.404780
O O2 0.111274 0.192487 0.499034
O O3 0.168633 0.991913 0.401360
O O4 0.427937 0.015470 0.500152
O O5 0.630220 0.764000 0.543913
O O6 0.710419 0.892657 0.434191
O O7 0.883004 0.991997 0.549027
O O8 0.549744 0.533769 0.277819
O O9 0.409632 0.777714 0.357835
O O10 0.549742 0.995142 0.722001
O O11 0.252412 0.235162 0.729892
O O12 0.256134 0.083042 0.624499
O O13 0.419757 0.733013 0.652200
O O14 0.816581 0.997405 0.820429
#
# Coordination Sequence:
#
# PCOD9315710 Si02
#       7
#     4   4   4   4   4   4   4
#     4  11  24  43  67 111 149 194 237 306 397 467
#     4  11  24  42  68 114 150 188 248 307 390 462
#     4  11  24  41  71 110 152 189 243 305 387 462
#     4  12  30  55  81 115 157 213 279 332 396 472
#     4  12  29  55  80 112 155 215 277 333 387 472
#     4  11  23  45  73 104 149 197 244 310 386 454
#     4  12  26  45  76 108 156 196 252 321 395 473
#
# _framework density 26.979686000000001
#
# number of rings (size 3 to 8) (size 9 to 14) (size 15 to 20)
#    0.000    0.571    2.857    5.143    4.000    4.571 
#    0.000    0.000    0.000    0.000    0.000    0.000 
#    0.000    0.000    0.000    0.000    0.000    0.000 
#
# Total GULP energy -156370.624811 kJ/mol
# GULP energy per Si atom -5584.665172 kJ/mol
# Density = 2.691828 g / cm^3
# Si number density = 26.979686 Si / 1000 Ang^3
#
#
#
# Elastic Constant Matrix: (Units=GPa)
#
#
# Indices 1 2 3 4 5 6 
#
# 1 165.6251 18.4336 23.8016 0.0000 0.0000 0.0000
# 2 18.4336 84.1894 16.4060 0.0000 0.0000 0.0000
# 3 23.8016 16.4060 94.8261 0.0000 0.0000 0.0000
# 4 0.0000 0.0000 0.0000 46.5505 0.0000 0.0000
# 5 0.0000 0.0000 0.0000 0.0000 48.8726 0.0000
# 6 0.0000 0.0000 0.0000 0.0000 0.0000 24.7997
#
#
#
# Elastic Compliance Matrix: (Units=1/GPa)
#
#
# Indices 1 2 3 4 5 6 
#
# 1 0.006364 -0.001120 -0.001404 0.000000 0.000000 0.000000
# 2 -0.001120 0.012489 -0.001880 0.000000 0.000000 0.000000
# 3 -0.001404 -0.001880 0.011223 0.000000 0.000000 0.000000
# 4 0.000000 0.000000 0.000000 0.021482 0.000000 0.000000
# 5 0.000000 0.000000 0.000000 0.000000 0.020461 0.000000
# 6 0.000000 0.000000 0.000000 0.000000 0.000000 0.040323
#
#
# Mechanical properties :
#
#
# Convention : Reuss Voigt Hill
#
# Bulk Modulus (GPa) = 47.01420 51.32478 49.16949
# Shear Modulus (GPa) = 38.98945 43.11119 41.05032
#
# Velocity S-wave (km/s) = 3.80563 4.00173 3.90491
# Velocity P-wave (km/s) = 6.06416 6.35740 6.21251
#
# Compressibility (1/GPa) = 0.02127017
#
# Stress axis : x y z
#
# Youngs Moduli (GPa) = 157.13168 80.06732 89.10151
#
# Poissons Ratio (x) = 0.08967 0.12507
# Poissons Ratio (y) = 0.17597 0.16749
# Poissons Ratio (z) = 0.22056 0.15050
#
# Static dielectric constant tensor:
#      x y z
#    x 2.844700 0.000000 0.000000 
#    y 0.000000 2.107930 0.000000 
#    z 0.000000 0.000000 2.104980 
# 
# From -- ./inp_files/3089.got.cif
#   From: 2010.05.17/outbox.cif.g08.bks.cpg/sg19_2_cif.got.tgz:3089.got - 2010.06.03 22:46:19.
