data_PCOD9315661
_publ_section_title
;
Structure prediction by ZEFSAII (Michael W. Deem and Ramdas Pophale) SiO2 
 PCOD9315661
Probable space group: P 21 21 21
;
_chemical_formula_sum "Si O2"
_cell_formula_units_Z 20
_cell_length_a 11.887159
_cell_length_b 4.913006
_cell_length_c 15.759277
_cell_angle_alpha 90.000000
_cell_angle_beta 90.000000
_cell_angle_gamma 90.000000
_cell_volume 920.368307
_symmetry_space_group_name_H-M "P 21 21 21"
_symmetry_group_IT_number 19
_symmetry_cell_setting 'orthorhombic'
loop_
_space_group_symop_operation_xyz
x,y,z
1/2-x,-y,1/2+z
1/2+x,1/2-y,-z
-x,1/2+y,1/2-z
loop_
_atom_site_type_symbol
_atom_site_label
_atom_site_fract_x
_atom_site_fract_y
_atom_site_fract_z
Si Si1 0.150682 0.847567 0.036091
Si Si2 0.299952 0.549436 0.247480
Si Si3 0.943590 0.311164 0.288691
Si Si4 0.864825 0.478704 0.857777
Si Si5 0.106704 0.347797 0.928547
O O1 0.061619 0.889900 0.112351
O O2 0.270731 0.928685 0.074947
O O3 0.143176 0.536654 0.007106
O O4 0.125773 0.038727 0.956345
O O5 0.176226 0.671525 0.230979
O O6 0.316816 0.262988 0.201057
O O7 0.323826 0.556815 0.346771
O O8 0.385324 0.762544 0.202962
O O9 0.965485 0.581314 0.234307
O O10 0.976981 0.391582 0.905150
#
# Coordination Sequence:
#
# PCOD9315661 Si02
#       5
#     4   4   4   4   4
#     4  11  25  41  60  97 127 156 208 265 311 366
#     4  11  23  42  66  93 121 167 218 252 310 388
#     4  11  23  42  64  88 127 171 206 249 310 381
#     4  11  23  44  63  88 130 164 202 264 314 371
#     4  12  24  41  67  94 123 164 210 262 319 370
#
# _framework density 21.730433999999999
#
# number of rings (size 3 to 8) (size 9 to 14) (size 15 to 20)
#    0.000    0.800    0.000    9.600    0.000    4.800 
#    0.000    0.000    0.000    0.000    0.000    0.000 
#    0.000    0.000    0.000    0.000    0.000    0.000 
#
# Total GULP energy -111955.368229 kJ/mol
# GULP energy per Si atom -5597.768411 kJ/mol
# Density = 2.168097 g / cm^3
# Si number density = 21.730434 Si / 1000 Ang^3
#
#
#
# Elastic Constant Matrix: (Units=GPa)
#
#
# Indices 1 2 3 4 5 6 
#
# 1 47.0966 -1.6059 21.1537 0.0000 0.0000 0.0000
# 2 -1.6059 76.8245 -1.3835 0.0000 0.0000 0.0000
# 3 21.1537 -1.3835 80.2044 0.0000 0.0000 0.0000
# 4 0.0000 0.0000 0.0000 60.4735 0.0000 0.0000
# 5 0.0000 0.0000 0.0000 0.0000 24.6772 0.0000
# 6 0.0000 0.0000 0.0000 0.0000 0.0000 18.0310
#
#
#
# Elastic Compliance Matrix: (Units=1/GPa)
#
#
# Indices 1 2 3 4 5 6 
#
# 1 0.024098 0.000389 -0.006349 0.000000 0.000000 0.000000
# 2 0.000389 0.013027 0.000122 0.000000 0.000000 0.000000
# 3 -0.006349 0.000122 0.014145 0.000000 0.000000 0.000000
# 4 0.000000 0.000000 0.000000 0.016536 0.000000 0.000000
# 5 0.000000 0.000000 0.000000 0.000000 0.040523 0.000000
# 6 0.000000 0.000000 0.000000 0.000000 0.000000 0.055460
#
#
# Mechanical properties :
#
#
# Convention : Reuss Voigt Hill
#
# Bulk Modulus (GPa) = 25.25606 26.71713 25.98660
# Shear Modulus (GPa) = 26.50233 33.03375 29.76804
#
# Velocity S-wave (km/s) = 3.49606 3.90315 3.70520
# Velocity P-wave (km/s) = 5.28623 5.71264 5.50357
#
# Compressibility (1/GPa) = 0.03959445
#
# Stress axis : x y z
#
# Youngs Moduli (GPa) = 41.49730 76.76354 70.69733
#
# Poissons Ratio (x) = -0.02989 0.44886
# Poissons Ratio (y) = -0.01616 -0.00863
# Poissons Ratio (z) = 0.26347 -0.00937
#
# Static dielectric constant tensor:
#      x y z
#    x 1.791200 0.000000 0.000000 
#    y 0.000000 1.772250 0.000000 
#    z 0.000000 0.000000 1.801900 
# 
# From -- ./inp_files/1375.got.cif
#   From: 2010.05.17/outbox.cif.g08.bks.cpg/sg19_1_cif.got.tgz:1375.got - 2010.06.03 22:46:19.
