data_PCOD9315217
_publ_section_title
;
Structure prediction by ZEFSAII (Michael W. Deem and Ramdas Pophale) SiO2 
 PCOD9315217
Probable space group: P 21 21 21
;
_chemical_formula_sum "Si O2"
_cell_formula_units_Z 24
_cell_length_a 8.405348
_cell_length_b 11.039384
_cell_length_c 11.596829
_cell_angle_alpha 90.000000
_cell_angle_beta 90.000000
_cell_angle_gamma 90.000000
_cell_volume 1076.068188
_symmetry_space_group_name_H-M "P 21 21 21"
_symmetry_group_IT_number 19
_symmetry_cell_setting 'orthorhombic'
loop_
_space_group_symop_operation_xyz
x,y,z
1/2-x,-y,1/2+z
1/2+x,1/2-y,-z
-x,1/2+y,1/2-z
loop_
_atom_site_type_symbol
_atom_site_label
_atom_site_fract_x
_atom_site_fract_y
_atom_site_fract_z
Si Si1 0.269788 0.405335 0.319513
Si Si2 0.221374 0.788181 0.173069
Si Si3 0.100194 0.974881 0.753799
Si Si4 0.114734 0.639819 0.396041
Si Si5 0.731528 0.265891 0.883687
Si Si6 0.455145 0.195998 0.447561
O O1 0.425290 0.477734 0.275496
O O2 0.162941 0.500349 0.387163
O O3 0.194518 0.340162 0.208563
O O4 0.338335 0.300389 0.399709
O O5 0.172076 0.701307 0.276958
O O6 0.372660 0.732816 0.103090
O O7 0.279545 0.916228 0.225595
O O8 0.077208 0.803769 0.083182
O O9 0.144155 0.858521 0.675403
O O10 0.100000 0.927346 0.884802
O O11 0.199773 0.705416 0.502311
O O12 0.928081 0.661121 0.407980
#
# Coordination Sequence:
#
# PCOD9315217 Si02
#       6
#     4   4   4   4   4   4
#     4  10  24  48  72 102 146 187 238 305 353 429
#     4  11  26  43  75 102 144 187 238 296 360 431
#     4  10  23  47  73 102 143 190 234 292 368 420
#     4  12  27  47  72 107 144 192 245 293 368 425
#     4  11  28  46  76 107 147 191 247 297 362 434
#     4  10  24  45  70 106 140 185 240 293 363 423
#
# _framework density 22.303419000000002
#
# number of rings (size 3 to 8) (size 9 to 14) (size 15 to 20)
#    0.000    1.333    1.667    1.000   16.333    0.000 
#    0.000    0.000    0.000    0.000    0.000    0.000 
#    0.000    0.000    0.000    0.000    0.000    0.000 
#
# Total GULP energy -134424.115463 kJ/mol
# GULP energy per Si atom -5601.004811 kJ/mol
# Density = 2.225266 g / cm^3
# Si number density = 22.303419 Si / 1000 Ang^3
#
#
#
# Elastic Constant Matrix: (Units=GPa)
#
#
# Indices 1 2 3 4 5 6 
#
# 1 65.6717 23.6136 13.7172 0.0000 0.0000 0.0000
# 2 23.6136 78.4377 6.8159 0.0000 0.0000 0.0000
# 3 13.7172 6.8159 88.8841 0.0000 0.0000 0.0000
# 4 0.0000 0.0000 0.0000 27.9357 0.0000 0.0000
# 5 0.0000 0.0000 0.0000 0.0000 39.1512 0.0000
# 6 0.0000 0.0000 0.0000 0.0000 0.0000 46.7389
#
#
#
# Elastic Compliance Matrix: (Units=1/GPa)
#
#
# Indices 1 2 3 4 5 6 
#
# 1 0.017537 -0.005078 -0.002317 0.000000 0.000000 0.000000
# 2 -0.005078 0.014305 -0.000313 0.000000 0.000000 0.000000
# 3 -0.002317 -0.000313 0.011632 0.000000 0.000000 0.000000
# 4 0.000000 0.000000 0.000000 0.035797 0.000000 0.000000
# 5 0.000000 0.000000 0.000000 0.000000 0.025542 0.000000
# 6 0.000000 0.000000 0.000000 0.000000 0.000000 0.021395
#
#
# Mechanical properties :
#
#
# Convention : Reuss Voigt Hill
#
# Bulk Modulus (GPa) = 35.64125 35.69854 35.66990
# Shear Modulus (GPa) = 33.11745 35.35495 34.23620
#
# Velocity S-wave (km/s) = 3.85757 3.98575 3.92218
# Velocity P-wave (km/s) = 5.98799 6.10100 6.04476
#
# Compressibility (1/GPa) = 0.02805738
#
# Stress axis : x y z
#
# Youngs Moduli (GPa) = 57.02166 69.90577 85.96820
#
# Poissons Ratio (x) = 0.35500 0.19919
# Poissons Ratio (y) = 0.28957 0.02693
# Poissons Ratio (z) = 0.13212 0.02190
#
# Static dielectric constant tensor:
#      x y z
#    x 1.810970 0.000000 0.000000 
#    y 0.000000 1.801500 0.000000 
#    z 0.000000 0.000000 1.794850 
# 
# From -- ./inp_files/3354.got.cif
#   From: 2010.05.17/outbox.cif.g08.bks.cpg/sg19_2_cif.got.tgz:3354.got - 2010.06.03 22:46:19.
