data_PCOD9315353
_publ_section_title
;
Structure prediction by ZEFSAII (Michael W. Deem and Ramdas Pophale) SiO2 
 PCOD9315353
Probable space group: P 21 21 21
;
_chemical_formula_sum "Si O2"
_cell_formula_units_Z 28
_cell_length_a 12.489847
_cell_length_b 14.180383
_cell_length_c 6.882661
_cell_angle_alpha 90.000000
_cell_angle_beta 90.000000
_cell_angle_gamma 90.000000
_cell_volume 1218.993693
_symmetry_space_group_name_H-M "P 21 21 21"
_symmetry_group_IT_number 19
_symmetry_cell_setting 'orthorhombic'
loop_
_space_group_symop_operation_xyz
x,y,z
1/2-x,-y,1/2+z
1/2+x,1/2-y,-z
-x,1/2+y,1/2-z
loop_
_atom_site_type_symbol
_atom_site_label
_atom_site_fract_x
_atom_site_fract_y
_atom_site_fract_z
Si Si1 0.769757 0.799581 0.901052
Si Si2 0.340366 0.100427 0.559433
Si Si3 0.787537 0.862800 0.326649
Si Si4 0.096845 0.636268 0.413708
Si Si5 0.503328 0.024668 0.837235
Si Si6 0.368492 0.979099 0.211163
Si Si7 0.597310 0.277850 0.084772
O O1 0.723693 0.697318 0.959808
O O2 0.679329 0.838844 0.757407
O O3 0.876849 0.785863 0.773346
O O4 0.786773 0.857377 0.095372
O O5 0.429941 0.101049 0.725831
O O6 0.252382 0.023971 0.630065
O O7 0.384904 0.066270 0.354446
O O8 0.673320 0.893966 0.409453
O O9 0.882529 0.931564 0.390131
O O10 0.820223 0.761789 0.422985
O O11 0.022165 0.556735 0.321490
O O12 0.020351 0.718836 0.493453
O O13 0.445692 0.984653 0.026790
O O14 0.383020 0.883250 0.334997
#
# Coordination Sequence:
#
# PCOD9315353 Si02
#       7
#     4   4   4   4   4   4   4
#     4  10  26  44  74 100 142 189 233 299 367 421
#     4  11  23  43  71 105 136 178 241 296 355 428
#     4  11  28  47  71 103 147 187 247 292 352 447
#     4  11  26  45  70 102 142 189 240 294 354 437
#     4  12  27  44  71 107 144 190 239 292 369 421
#     4  11  24  41  72 103 140 182 232 304 354 419
#     4  10  24  46  69 102 137 183 238 293 355 423
#
# _framework density 22.969764999999999
#
# number of rings (size 3 to 8) (size 9 to 14) (size 15 to 20)
#    0.000    1.143    2.857    0.857   10.000    5.714 
#    0.000    0.000    0.000    0.000    0.000    0.000 
#    0.000    0.000    0.000    0.000    0.000    0.000 
#
# Total GULP energy -156616.513259 kJ/mol
# GULP energy per Si atom -5593.446902 kJ/mol
# Density = 2.291748 g / cm^3
# Si number density = 22.969765 Si / 1000 Ang^3
#
#
#
# Elastic Constant Matrix: (Units=GPa)
#
#
# Indices 1 2 3 4 5 6 
#
# 1 89.2259 12.2550 49.1337 0.0000 0.0000 0.0000
# 2 12.2550 30.0930 25.2938 0.0000 0.0000 0.0000
# 3 49.1337 25.2938 115.3527 0.0000 0.0000 0.0000
# 4 0.0000 0.0000 0.0000 24.4528 0.0000 0.0000
# 5 0.0000 0.0000 0.0000 0.0000 42.3035 0.0000
# 6 0.0000 0.0000 0.0000 0.0000 0.0000 30.4755
#
#
#
# Elastic Compliance Matrix: (Units=1/GPa)
#
#
# Indices 1 2 3 4 5 6 
#
# 1 0.014661 -0.000885 -0.006051 0.000000 0.000000 0.000000
# 2 -0.000885 0.040792 -0.008568 0.000000 0.000000 0.000000
# 3 -0.006051 -0.008568 0.013125 0.000000 0.000000 0.000000
# 4 0.000000 0.000000 0.000000 0.040895 0.000000 0.000000
# 5 0.000000 0.000000 0.000000 0.000000 0.023639 0.000000
# 6 0.000000 0.000000 0.000000 0.000000 0.000000 0.032813
#
#
# Mechanical properties :
#
#
# Convention : Reuss Voigt Hill
#
# Bulk Modulus (GPa) = 26.61588 45.33739 35.97664
# Shear Modulus (GPa) = 23.87145 29.31232 26.59189
#
# Velocity S-wave (km/s) = 3.22725 3.57617 3.40618
# Velocity P-wave (km/s) = 5.04969 6.06899 5.58265
#
# Compressibility (1/GPa) = 0.03757156
#
# Stress axis : x y z
#
# Youngs Moduli (GPa) = 68.20842 24.51459 76.19040
#
# Poissons Ratio (x) = 0.02169 0.46101
# Poissons Ratio (y) = 0.06034 0.65278
# Poissons Ratio (z) = 0.41271 0.21004
#
# Static dielectric constant tensor:
#      x y z
#    x 1.854010 0.000000 0.000000 
#    y 0.000000 1.888850 0.000000 
#    z 0.000000 0.000000 1.838320 
# 
# From -- ./inp_files/1052.got.cif
#   From: 2010.05.17/outbox.cif.g08.bks.cpg/sg19_1_cif.got.tgz:1052.got - 2010.06.03 22:46:19.
