data_PCOD9315789
_publ_section_title
;
Structure prediction by ZEFSAII (Michael W. Deem and Ramdas Pophale) SiO2 
 PCOD9315789
Probable space group: P 21 21 21
;
_chemical_formula_sum "Si O2"
_cell_formula_units_Z 24
_cell_length_a 12.858520
_cell_length_b 5.272930
_cell_length_c 13.577612
_cell_angle_alpha 90.000000
_cell_angle_beta 90.000000
_cell_angle_gamma 90.000000
_cell_volume 920.590279
_symmetry_space_group_name_H-M "P 21 21 21"
_symmetry_group_IT_number 19
_symmetry_cell_setting 'orthorhombic'
loop_
_space_group_symop_operation_xyz
x,y,z
1/2-x,-y,1/2+z
1/2+x,1/2-y,-z
-x,1/2+y,1/2-z
loop_
_atom_site_type_symbol
_atom_site_label
_atom_site_fract_x
_atom_site_fract_y
_atom_site_fract_z
Si Si1 0.970566 0.836570 0.793160
Si Si2 0.491193 0.218188 0.925698
Si Si3 0.655646 0.289978 0.789757
Si Si4 0.757073 0.371550 0.003045
Si Si5 0.746688 0.203597 0.210570
Si Si6 0.912375 0.269551 0.513406
O O1 0.847905 0.797716 0.788000
O O2 0.008597 0.636917 0.709832
O O3 0.037954 0.723395 0.881097
O O4 0.533778 0.278215 0.816051
O O5 0.377431 0.160550 0.968893
O O6 0.530494 0.473755 0.978135
O O7 0.556138 0.963663 0.947175
O O8 0.686740 0.547796 0.735159
O O9 0.690491 0.052755 0.725248
O O10 0.722772 0.288997 0.893289
O O11 0.706713 0.227455 0.097983
O O12 0.708744 0.654620 0.011998
#
# Coordination Sequence:
#
# PCOD9315789 Si02
#       6
#     4   4   4   4   4   4
#     4  12  23  40  66 106 140 174 230 303 354 431
#     4  11  25  45  72 100 144 193 239 294 352 438
#     4  11  26  46  68 107 145 181 246 298 355 428
#     4  11  26  48  76 105 144 199 240 297 371 433
#     4  12  26  45  73 105 143 192 235 299 361 431
#     4  11  24  44  71 105 142 185 240 301 367 425
#
# _framework density 26.070232000000001
#
# number of rings (size 3 to 8) (size 9 to 14) (size 15 to 20)
#    0.000    0.667    1.667    6.000    2.333    6.667 
#    0.000    0.000    0.000    0.000    0.000    0.000 
#    0.000    0.000    0.000    0.000    0.000    0.000 
#
# Total GULP energy -134227.323782 kJ/mol
# GULP energy per Si atom -5592.805158 kJ/mol
# Density = 2.601089 g / cm^3
# Si number density = 26.070232 Si / 1000 Ang^3
#
#
#
# Elastic Constant Matrix: (Units=GPa)
#
#
# Indices 1 2 3 4 5 6 
#
# 1 119.9073 48.1276 -14.9363 0.0000 0.0000 0.0000
# 2 48.1276 167.8412 24.5262 0.0000 0.0000 0.0000
# 3 -14.9363 24.5262 86.9073 0.0000 0.0000 0.0000
# 4 0.0000 0.0000 0.0000 45.0514 0.0000 0.0000
# 5 0.0000 0.0000 0.0000 0.0000 42.3491 0.0000
# 6 0.0000 0.0000 0.0000 0.0000 0.0000 36.1320
#
#
#
# Elastic Compliance Matrix: (Units=1/GPa)
#
#
# Indices 1 2 3 4 5 6 
#
# 1 0.009969 -0.003243 0.002628 0.000000 0.000000 0.000000
# 2 -0.003243 0.007269 -0.002609 0.000000 0.000000 0.000000
# 3 0.002628 -0.002609 0.012694 0.000000 0.000000 0.000000
# 4 0.000000 0.000000 0.000000 0.022197 0.000000 0.000000
# 5 0.000000 0.000000 0.000000 0.000000 0.023613 0.000000
# 6 0.000000 0.000000 0.000000 0.000000 0.000000 0.027676
#
#
# Mechanical properties :
#
#
# Convention : Reuss Voigt Hill
#
# Bulk Modulus (GPa) = 42.57797 54.45454 48.51626
# Shear Modulus (GPa) = 42.48344 45.83573 44.15958
#
# Velocity S-wave (km/s) = 4.04118 4.19760 4.12013
# Velocity P-wave (km/s) = 6.17595 6.66529 6.42528
#
# Compressibility (1/GPa) = 0.02348632
#
# Stress axis : x y z
#
# Youngs Moduli (GPa) = 100.31461 137.57077 78.77479
#
# Poissons Ratio (x) = 0.44608 -0.20705
# Poissons Ratio (y) = 0.32527 0.20550
# Poissons Ratio (z) = -0.26366 0.35888
#
# Static dielectric constant tensor:
#      x y z
#    x 2.153980 0.000000 0.000000 
#    y 0.000000 1.972440 0.000000 
#    z 0.000000 0.000000 2.101670 
# 
# From -- ./inp_files/6230.got.cif
#   From: 2010.05.17/outbox.cif.g08.bks.cpg/sg19_4_cif.got.tgz:6230.got - 2010.06.03 22:46:19.
