data_PCOD9315981
_publ_section_title
;
Structure prediction by ZEFSAII (Michael W. Deem and Ramdas Pophale) SiO2 
 PCOD9315981
Probable space group: P 21 21 21
;
_chemical_formula_sum "Si O2"
_cell_formula_units_Z 24
_cell_length_a 13.071146
_cell_length_b 8.021100
_cell_length_c 8.290223
_cell_angle_alpha 90.000000
_cell_angle_beta 90.000000
_cell_angle_gamma 90.000000
_cell_volume 869.188175
_symmetry_space_group_name_H-M "P 21 21 21"
_symmetry_group_IT_number 19
_symmetry_cell_setting 'orthorhombic'
loop_
_space_group_symop_operation_xyz
x,y,z
1/2-x,-y,1/2+z
1/2+x,1/2-y,-z
-x,1/2+y,1/2-z
loop_
_atom_site_type_symbol
_atom_site_label
_atom_site_fract_x
_atom_site_fract_y
_atom_site_fract_z
Si Si1 0.775252 0.098291 0.881468
Si Si2 0.294264 0.059400 0.280719
Si Si3 0.606308 0.292942 0.579413
Si Si4 0.812182 0.203111 0.221321
Si Si5 0.982228 0.868079 0.388092
Si Si6 0.963621 0.903768 0.762596
O O1 0.768876 0.299726 0.853122
O O2 0.704440 0.932791 0.858164
O O3 0.882899 0.053730 0.792349
O O4 0.775006 0.096200 0.071907
O O5 0.222541 0.138961 0.420743
O O6 0.416884 0.053341 0.293810
O O7 0.248711 0.875506 0.258429
O O8 0.533534 0.450827 0.609327
O O9 0.592652 0.172680 0.736363
O O10 0.569921 0.213986 0.411971
O O11 0.924664 0.251155 0.165671
O O12 0.952696 0.839110 0.576700
#
# Coordination Sequence:
#
# PCOD9315981 Si02
#       6
#     4   4   4   4   4   4
#     4  12  28  50  87 125 167 229 288 350 442 512
#     4  11  28  54  82 129 175 224 290 365 433 521
#     4  11  29  52  84 126 179 226 292 369 443 519
#     4  11  29  52  83 124 174 220 293 357 435 520
#     4  11  28  51  84 127 172 233 287 368 439 521
#     4  12  28  53  90 127 175 230 296 355 440 527
#
# _framework density 27.611969999999999
#
# number of rings (size 3 to 8) (size 9 to 14) (size 15 to 20)
#    0.000    0.667    1.667    2.000   11.667    6.667 
#    0.000    0.000    3.667    0.000    0.000    0.000 
#    0.000    0.000    0.000    0.000    0.000    0.000 
#
# Total GULP energy -134160.949339 kJ/mol
# GULP energy per Si atom -5590.039556 kJ/mol
# Density = 2.754912 g / cm^3
# Si number density = 27.611970 Si / 1000 Ang^3
#
#
#
# Elastic Constant Matrix: (Units=GPa)
#
#
# Indices 1 2 3 4 5 6 
#
# 1 143.3391 16.5218 37.2157 0.0000 0.0000 0.0000
# 2 16.5218 175.1195 97.8731 0.0000 0.0000 0.0000
# 3 37.2157 97.8731 192.4931 0.0000 0.0000 0.0000
# 4 0.0000 0.0000 0.0000 52.2701 0.0000 0.0000
# 5 0.0000 0.0000 0.0000 0.0000 -8.8926 0.0000
# 6 0.0000 0.0000 0.0000 0.0000 0.0000 33.4058
#
#
#
# Elastic Compliance Matrix: (Units=1/GPa)
#
#
# Indices 1 2 3 4 5 6 
#
# 1 0.007348 0.000141 -0.001492 0.000000 0.000000 0.000000
# 2 0.000141 0.007980 -0.004085 0.000000 0.000000 0.000000
# 3 -0.001492 -0.004085 0.007560 0.000000 0.000000 0.000000
# 4 0.000000 0.000000 0.000000 0.019131 0.000000 0.000000
# 5 0.000000 0.000000 0.000000 0.000000 -0.112453 0.000000
# 6 0.000000 0.000000 0.000000 0.000000 0.000000 0.029935
#
#
# Mechanical properties :
#
#
# Convention : Reuss Voigt Hill
#
# Bulk Modulus (GPa) = 83.22320 90.46366 86.84343
# Shear Modulus (GPa) = -195.14924 39.31271 -77.91826
#
# Velocity S-wave (km/s) = -8.41600 3.77736 -5.31792
# Velocity P-wave (km/s) = 8.01455 7.20127 2.48745
#
# Compressibility (1/GPa) = 0.01201588
#
# Stress axis : x y z
#
# Youngs Moduli (GPa) = 136.09803 125.31354 132.26993
#
# Poissons Ratio (x) = -0.01763 0.19736
# Poissons Ratio (y) = -0.01915 0.54027
# Poissons Ratio (z) = 0.20307 0.51186
#
# Static dielectric constant tensor:
#      x y z
#    x 2.651780 0.000000 0.000000 
#    y 0.000000 2.153980 0.000000 
#    z 0.000000 0.000000 2.243600 
# 
# From -- ./inp_files/3845.got.cif
#   From: 2010.05.17/outbox.cif.g08.bks.cpg/sg19_2_cif.got.tgz:3845.got - 2010.06.03 22:46:19.
