data_PCOD9315858
_publ_section_title
;
Structure prediction by ZEFSAII (Michael W. Deem and Ramdas Pophale) SiO2 
 PCOD9315858
Probable space group: P 21 21 21
;
_chemical_formula_sum "Si O2"
_cell_formula_units_Z 28
_cell_length_a 5.855943
_cell_length_b 7.954718
_cell_length_c 23.595393
_cell_angle_alpha 90.000000
_cell_angle_beta 90.000000
_cell_angle_gamma 90.000000
_cell_volume 1099.129449
_symmetry_space_group_name_H-M "P 21 21 21"
_symmetry_group_IT_number 19
_symmetry_cell_setting 'orthorhombic'
loop_
_space_group_symop_operation_xyz
x,y,z
1/2-x,-y,1/2+z
1/2+x,1/2-y,-z
-x,1/2+y,1/2-z
loop_
_atom_site_type_symbol
_atom_site_label
_atom_site_fract_x
_atom_site_fract_y
_atom_site_fract_z
Si Si1 0.641339 0.463380 0.360409
Si Si2 0.785982 0.346841 0.635945
Si Si3 0.991381 0.827847 0.218199
Si Si4 0.422869 0.703649 0.973296
Si Si5 0.798663 0.866943 0.701805
Si Si6 0.778215 0.307218 0.089297
Si Si7 0.143713 0.144924 0.039808
O O1 0.479495 0.298442 0.364628
O O2 0.879856 0.399883 0.336774
O O3 0.560122 0.590237 0.310359
O O4 0.665504 0.556573 0.420739
O O5 0.654005 0.328987 0.694944
O O6 0.616943 0.301271 0.584737
O O7 0.845211 0.537432 0.620468
O O8 0.183359 0.780697 0.263185
O O9 0.807348 0.969763 0.232199
O O10 0.456807 0.504626 0.965774
O O11 0.675210 0.761088 0.996513
O O12 0.734174 0.840086 0.635746
O O13 0.049495 0.302865 0.075355
O O14 0.691213 0.305004 0.024650
#
# Coordination Sequence:
#
# PCOD9315858 Si02
#       7
#     4   4   4   4   4   4   4
#     4  11  24  50  71 107 147 203 259 324 398 486
#     4  11  25  44  74 106 145 199 262 315 395 473
#     4  11  24  48  77 101 149 196 249 332 392 481
#     4  12  25  45  75 108 155 210 266 322 396 482
#     4  11  25  47  71 106 145 189 258 323 403 472
#     4  12  26  43  69 109 150 199 255 327 390 473
#     4  12  25  45  73 107 161 202 259 327 402 469
#
# _framework density 25.474706999999999
#
# number of rings (size 3 to 8) (size 9 to 14) (size 15 to 20)
#    0.000    0.571    4.286    3.429    2.000    3.429 
#    5.143    0.000    0.000    0.000    0.000    0.000 
#    0.000    0.000    0.000    0.000    0.000    0.000 
#
# Total GULP energy -156120.170058 kJ/mol
# GULP energy per Si atom -5575.720359 kJ/mol
# Density = 2.541673 g / cm^3
# Si number density = 25.474707 Si / 1000 Ang^3
#
#
#
# Elastic Constant Matrix: (Units=GPa)
#
#
# Indices 1 2 3 4 5 6 
#
# 1 61.3972 8.4767 21.8253 0.0000 0.0000 0.0000
# 2 8.4767 66.3100 -0.4300 0.0000 0.0000 0.0000
# 3 21.8253 -0.4300 69.1375 0.0000 0.0000 0.0000
# 4 0.0000 0.0000 0.0000 43.5403 0.0000 0.0000
# 5 0.0000 0.0000 0.0000 0.0000 37.2346 0.0000
# 6 0.0000 0.0000 0.0000 0.0000 0.0000 39.9618
#
#
#
# Elastic Compliance Matrix: (Units=1/GPa)
#
#
# Indices 1 2 3 4 5 6 
#
# 1 0.018731 -0.002433 -0.005928 0.000000 0.000000 0.000000
# 2 -0.002433 0.015397 0.000864 0.000000 0.000000 0.000000
# 3 -0.005928 0.000864 0.016341 0.000000 0.000000 0.000000
# 4 0.000000 0.000000 0.000000 0.022967 0.000000 0.000000
# 5 0.000000 0.000000 0.000000 0.000000 0.026857 0.000000
# 6 0.000000 0.000000 0.000000 0.000000 0.000000 0.025024
#
#
# Mechanical properties :
#
#
# Convention : Reuss Voigt Hill
#
# Bulk Modulus (GPa) = 28.18940 28.50987 28.34963
# Shear Modulus (GPa) = 32.86550 35.27885 34.07217
#
# Velocity S-wave (km/s) = 3.59572 3.72541 3.66114
# Velocity P-wave (km/s) = 5.32247 5.45166 5.38745
#
# Compressibility (1/GPa) = 0.03547432
#
# Stress axis : x y z
#
# Youngs Moduli (GPa) = 53.38876 64.94651 61.19709
#
# Poissons Ratio (x) = 0.15801 0.36277
# Poissons Ratio (y) = 0.12989 -0.05286
# Poissons Ratio (z) = 0.31649 -0.05610
#
# Static dielectric constant tensor:
#      x y z
#    x 2.097870 0.000000 0.000000 
#    y 0.000000 2.217680 0.000000 
#    z 0.000000 0.000000 1.985560 
# 
# From -- ./inp_files/7274.got.cif
#   From: 2010.05.17/outbox.cif.g08.bks.cpg/sg19_4_cif.got.tgz:7274.got - 2010.06.03 22:46:19.
