data_PCOD9315441
_publ_section_title
;
Structure prediction by ZEFSAII (Michael W. Deem and Ramdas Pophale) SiO2 
 PCOD9315441
Probable space group: P 21 21 21
;
_chemical_formula_sum "Si O2"
_cell_formula_units_Z 32
_cell_length_a 18.182929
_cell_length_b 5.572427
_cell_length_c 12.916713
_cell_angle_alpha 90.000000
_cell_angle_beta 90.000000
_cell_angle_gamma 90.000000
_cell_volume 1308.760686
_symmetry_space_group_name_H-M "P 21 21 21"
_symmetry_group_IT_number 19
_symmetry_cell_setting 'orthorhombic'
loop_
_space_group_symop_operation_xyz
x,y,z
1/2-x,-y,1/2+z
1/2+x,1/2-y,-z
-x,1/2+y,1/2-z
loop_
_atom_site_type_symbol
_atom_site_label
_atom_site_fract_x
_atom_site_fract_y
_atom_site_fract_z
Si Si1 0.784567 0.169437 0.794598
Si Si2 0.916907 0.522099 0.499882
Si Si3 0.802022 0.201773 0.394518
Si Si4 0.838963 0.478143 0.962796
Si Si5 0.606391 0.153620 0.178889
Si Si6 0.458734 0.794833 0.724789
Si Si7 0.181251 0.982887 0.310225
Si Si8 0.477901 0.795209 0.114953
O O1 0.843181 0.282961 0.872222
O O2 0.753618 0.367509 0.717685
O O3 0.721911 0.070116 0.872879
O O4 0.821632 0.964885 0.727530
O O5 0.867937 0.292372 0.466232
O O6 0.873531 0.677943 0.583528
O O7 0.938416 0.665026 0.396183
O O8 0.988966 0.442349 0.563298
O O9 0.727937 0.342408 0.430933
O O10 0.825608 0.291292 0.280685
O O11 0.917538 0.603938 0.963386
O O12 0.821508 0.379559 0.075769
O O13 0.564687 0.271005 0.276477
O O14 0.547700 0.962597 0.136134
O O15 0.492593 0.531437 0.744783
O O16 0.385406 0.831017 0.792512
#
# Coordination Sequence:
#
# PCOD9315441 Si02
#       8
#     4   4   4   4   4   4   4   4
#     4  11  26  48  75 106 154 197 260 327 383 485
#     4  11  28  46  77 110 151 208 254 322 406 470
#     4  10  25  48  70 106 150 194 261 313 389 472
#     4  11  25  45  72 109 144 198 253 313 396 462
#     4  12  26  45  74 110 155 195 261 319 396 473
#     4  11  27  51  78 112 159 208 267 333 394 483
#     4  10  26  46  72 107 150 200 262 319 392 469
#     4  12  25  45  72 110 153 196 250 326 390 474
#
# _framework density 24.450610999999999
#
# number of rings (size 3 to 8) (size 9 to 14) (size 15 to 20)
#    0.000    1.000    2.500    1.500   10.500    3.000 
#    0.000    0.000    0.000    0.000    0.000    0.000 
#    0.000    0.000    0.000    0.000    0.000    0.000 
#
# Total GULP energy -179203.455269 kJ/mol
# GULP energy per Si atom -5600.107977 kJ/mol
# Density = 2.439496 g / cm^3
# Si number density = 24.450611 Si / 1000 Ang^3
#
#
#
# Elastic Constant Matrix: (Units=GPa)
#
#
# Indices 1 2 3 4 5 6 
#
# 1 60.2851 11.1402 36.1456 0.0000 0.0000 0.0000
# 2 11.1402 54.8494 28.4632 0.0000 0.0000 0.0000
# 3 36.1456 28.4632 149.0053 0.0000 0.0000 0.0000
# 4 0.0000 0.0000 0.0000 29.8911 0.0000 0.0000
# 5 0.0000 0.0000 0.0000 0.0000 25.7453 0.0000
# 6 0.0000 0.0000 0.0000 0.0000 0.0000 45.0730
#
#
#
# Elastic Compliance Matrix: (Units=1/GPa)
#
#
# Indices 1 2 3 4 5 6 
#
# 1 0.019549 -0.001676 -0.004422 0.000000 0.000000 0.000000
# 2 -0.001676 0.020382 -0.003487 0.000000 0.000000 0.000000
# 3 -0.004422 -0.003487 0.008450 0.000000 0.000000 0.000000
# 4 0.000000 0.000000 0.000000 0.033455 0.000000 0.000000
# 5 0.000000 0.000000 0.000000 0.000000 0.038842 0.000000
# 6 0.000000 0.000000 0.000000 0.000000 0.000000 0.022186
#
#
# Mechanical properties :
#
#
# Convention : Reuss Voigt Hill
#
# Bulk Modulus (GPa) = 34.23353 46.18197 40.20775
# Shear Modulus (GPa) = 29.10876 32.70127 30.90501
#
# Velocity S-wave (km/s) = 3.45412 3.66107 3.55910
# Velocity P-wave (km/s) = 5.47170 6.06631 5.77666
#
# Compressibility (1/GPa) = 0.02921112
#
# Stress axis : x y z
#
# Youngs Moduli (GPa) = 51.15391 49.06408 118.34433
#
# Poissons Ratio (x) = 0.08222 0.52332
# Poissons Ratio (y) = 0.08572 0.41264
# Poissons Ratio (z) = 0.22620 0.17108
#
# Static dielectric constant tensor:
#      x y z
#    x 1.954480 0.000000 0.000000 
#    y 0.000000 1.956550 0.000000 
#    z 0.000000 0.000000 1.898800 
# 
# From -- ./inp_files/5500.got.cif
#   From: 2010.05.17/outbox.cif.g08.bks.cpg/sg19_3_cif.got.tgz:5500.got - 2010.06.03 22:46:19.
