data_PCOD9315434
_publ_section_title
;
Structure prediction by ZEFSAII (Michael W. Deem and Ramdas Pophale) SiO2 
 PCOD9315434
Probable space group: P 21 21 21
;
_chemical_formula_sum "Si O2"
_cell_formula_units_Z 16
_cell_length_a 8.376063
_cell_length_b 8.774112
_cell_length_c 7.583683
_cell_angle_alpha 90.000000
_cell_angle_beta 90.000000
_cell_angle_gamma 90.000000
_cell_volume 557.343936
_symmetry_space_group_name_H-M "P 21 21 21"
_symmetry_group_IT_number 19
_symmetry_cell_setting 'orthorhombic'
loop_
_space_group_symop_operation_xyz
x,y,z
1/2-x,-y,1/2+z
1/2+x,1/2-y,-z
-x,1/2+y,1/2-z
loop_
_atom_site_type_symbol
_atom_site_label
_atom_site_fract_x
_atom_site_fract_y
_atom_site_fract_z
Si Si1 0.245533 0.928766 0.156149
Si Si2 0.585384 0.051923 0.472640
Si Si3 0.079368 0.520069 0.931623
Si Si4 0.743077 0.251752 0.975553
O O1 0.412598 0.895670 0.053832
O O2 0.075741 0.898514 0.066168
O O3 0.264802 0.846473 0.342566
O O4 0.252624 0.114504 0.166082
O O5 0.756691 0.111672 0.541882
O O6 0.610661 0.867760 0.498056
O O7 0.582892 0.056928 0.261527
O O8 0.105865 0.375391 0.058968
#
# Coordination Sequence:
#
# PCOD9315434 Si02
#       4
#     4   4   4   4
#     4  12  22  48  71 101 142 183 227 289 345 402
#     4  10  25  47  68 107 135 189 228 283 348 404
#     4  10  25  47  71 101 141 182 232 283 345 411
#     4  10  26  46  70 105 138 184 233 285 342 417
#
# _framework density 28.707585999999999
#
# number of rings (size 3 to 8) (size 9 to 14) (size 15 to 20)
#    1.500    0.000    2.500    1.500    3.500    0.000 
#   13.500    0.000    0.000    0.000    0.000    0.000 
#    0.000    0.000    0.000    0.000    0.000    0.000 
#
# Total GULP energy -89491.239239 kJ/mol
# GULP energy per Si atom -5593.202452 kJ/mol
# Density = 2.864225 g / cm^3
# Si number density = 28.707586 Si / 1000 Ang^3
#
#
#
# Elastic Constant Matrix: (Units=GPa)
#
#
# Indices 1 2 3 4 5 6 
#
# 1 222.4210 24.6762 81.7153 0.0000 0.0000 0.0000
# 2 24.6762 138.5665 41.5665 0.0000 0.0000 0.0000
# 3 81.7153 41.5665 90.5881 0.0000 0.0000 0.0000
# 4 0.0000 0.0000 0.0000 48.9850 0.0000 0.0000
# 5 0.0000 0.0000 0.0000 0.0000 38.3939 0.0000
# 6 0.0000 0.0000 0.0000 0.0000 0.0000 73.2102
#
#
#
# Elastic Compliance Matrix: (Units=1/GPa)
#
#
# Indices 1 2 3 4 5 6 
#
# 1 0.006787 0.000728 -0.006457 0.000000 0.000000 0.000000
# 2 0.000728 0.008447 -0.004533 0.000000 0.000000 0.000000
# 3 -0.006457 -0.004533 0.018943 0.000000 0.000000 0.000000
# 4 0.000000 0.000000 0.000000 0.020414 0.000000 0.000000
# 5 0.000000 0.000000 0.000000 0.000000 0.026046 0.000000
# 6 0.000000 0.000000 0.000000 0.000000 0.000000 0.013659
#
#
# Mechanical properties :
#
#
# Convention : Reuss Voigt Hill
#
# Bulk Modulus (GPa) = 73.23412 83.05463 78.14437
# Shear Modulus (GPa) = 41.88644 52.35898 47.12271
#
# Velocity S-wave (km/s) = 3.82392 4.27532 4.05590
# Velocity P-wave (km/s) = 6.71284 7.30515 7.01525
#
# Compressibility (1/GPa) = 0.01365484
#
# Stress axis : x y z
#
# Youngs Moduli (GPa) = 147.33414 118.38863 52.78998
#
# Poissons Ratio (x) = -0.08620 0.34084
# Poissons Ratio (y) = -0.10728 0.23928
# Poissons Ratio (z) = 0.95128 0.53661
#
# Static dielectric constant tensor:
#      x y z
#    x 2.354860 0.000000 0.000000 
#    y 0.000000 2.253330 0.000000 
#    z 0.000000 0.000000 2.154540 
# 
# From -- ./inp_files/2548.got.cif
#   From: 2010.05.17/outbox.cif.g08.bks.cpg/sg19_2_cif.got.tgz:2548.got - 2010.06.03 22:46:19.
