data_PCOD9315795
_publ_section_title
;
Structure prediction by ZEFSAII (Michael W. Deem and Ramdas Pophale) SiO2 
 PCOD9315795
Probable space group: P 21 21 21
;
_chemical_formula_sum "Si O2"
_cell_formula_units_Z 16
_cell_length_a 4.804270
_cell_length_b 24.284402
_cell_length_c 5.088489
_cell_angle_alpha 90.000000
_cell_angle_beta 90.000000
_cell_angle_gamma 90.000000
_cell_volume 593.668028
_symmetry_space_group_name_H-M "P 21 21 21"
_symmetry_group_IT_number 19
_symmetry_cell_setting 'orthorhombic'
loop_
_space_group_symop_operation_xyz
x,y,z
1/2-x,-y,1/2+z
1/2+x,1/2-y,-z
-x,1/2+y,1/2-z
loop_
_atom_site_type_symbol
_atom_site_label
_atom_site_fract_x
_atom_site_fract_y
_atom_site_fract_z
Si Si1 0.777360 0.108748 0.233461
Si Si2 0.039168 0.214771 0.946292
Si Si3 0.318523 0.965075 0.462653
Si Si4 0.263544 0.127336 0.596548
O O1 0.483284 0.121201 0.365495
O O2 0.889813 0.163543 0.088614
O O3 0.881446 0.057239 0.058723
O O4 0.975322 0.103619 0.489282
O O5 0.285833 0.243840 0.108693
O O6 0.198738 0.188168 0.699086
O O7 0.160020 0.911580 0.343003
O O8 0.316236 0.007387 0.220352
#
# Coordination Sequence:
#
# PCOD9315795 Si02
#       4
#     4   4   4   4
#     4  11  25  48  76 114 162 209 266 331 398 480
#     4  11  24  44  76 116 160 212 268 331 402 476
#     4  11  24  52  78 122 162 216 264 333 398 478
#     4  11  25  48  76 114 162 209 266 331 398 480
#
# _framework density 26.951087000000001
#
# number of rings (size 3 to 8) (size 9 to 14) (size 15 to 20)
#    0.000    1.000    2.500    3.000    0.000   10.000 
#    9.000    0.000    0.000    0.000    0.000    0.000 
#    0.000    0.000    0.000    0.000    0.000    0.000 
#
# Total GULP energy -89632.706269 kJ/mol
# GULP energy per Si atom -5602.044142 kJ/mol
# Density = 2.688974 g / cm^3
# Si number density = 26.951087 Si / 1000 Ang^3
#
#
#
# Elastic Constant Matrix: (Units=GPa)
#
#
# Indices 1 2 3 4 5 6 
#
# 1 116.4754 42.4637 34.7705 0.0000 0.0000 0.0000
# 2 42.4637 106.8938 45.7670 0.0000 0.0000 0.0000
# 3 34.7705 45.7670 167.9266 0.0000 0.0000 0.0000
# 4 0.0000 0.0000 0.0000 47.0277 0.0000 0.0000
# 5 0.0000 0.0000 0.0000 0.0000 31.3397 0.0000
# 6 0.0000 0.0000 0.0000 0.0000 0.0000 29.5151
#
#
#
# Elastic Compliance Matrix: (Units=1/GPa)
#
#
# Indices 1 2 3 4 5 6 
#
# 1 0.010230 -0.003574 -0.001144 0.000000 0.000000 0.000000
# 2 -0.003574 0.011840 -0.002487 0.000000 0.000000 0.000000
# 3 -0.001144 -0.002487 0.006870 0.000000 0.000000 0.000000
# 4 0.000000 0.000000 0.000000 0.021264 0.000000 0.000000
# 5 0.000000 0.000000 0.000000 0.000000 0.031908 0.000000
# 6 0.000000 0.000000 0.000000 0.000000 0.000000 0.033881
#
#
# Mechanical properties :
#
#
# Convention : Reuss Voigt Hill
#
# Bulk Modulus (GPa) = 68.82588 70.81091 69.81840
# Shear Modulus (GPa) = 36.96977 39.46281 38.21629
#
# Velocity S-wave (km/s) = 3.70771 3.83069 3.76970
# Velocity P-wave (km/s) = 6.62739 6.77469 6.70145
#
# Compressibility (1/GPa) = 0.01452942
#
# Stress axis : x y z
#
# Youngs Moduli (GPa) = 97.75118 84.46246 145.56831
#
# Poissons Ratio (x) = 0.30187 0.16655
# Poissons Ratio (y) = 0.34937 0.36199
# Poissons Ratio (z) = 0.11184 0.21004
#
# Static dielectric constant tensor:
#      x y z
#    x 2.143010 0.000000 0.000000 
#    y 0.000000 2.176420 0.000000 
#    z 0.000000 0.000000 2.105920 
# 
# From -- ./inp_files/136.got.cif
#   From: 2010.05.17/outbox.cif.g08.bks.cpg/sg19_1_cif.got.tgz:136.got - 2010.06.03 22:46:19.
