data_PCOD9315269
_publ_section_title
;
Structure prediction by ZEFSAII (Michael W. Deem and Ramdas Pophale) SiO2 
 PCOD9315269
Probable space group: P 21 21 21
;
_chemical_formula_sum "Si O2"
_cell_formula_units_Z 24
_cell_length_a 11.673395
_cell_length_b 6.385032
_cell_length_c 14.468231
_cell_angle_alpha 90.000000
_cell_angle_beta 90.000000
_cell_angle_gamma 90.000000
_cell_volume 1078.389607
_symmetry_space_group_name_H-M "P 21 21 21"
_symmetry_group_IT_number 19
_symmetry_cell_setting 'orthorhombic'
loop_
_space_group_symop_operation_xyz
x,y,z
1/2-x,-y,1/2+z
1/2+x,1/2-y,-z
-x,1/2+y,1/2-z
loop_
_atom_site_type_symbol
_atom_site_label
_atom_site_fract_x
_atom_site_fract_y
_atom_site_fract_z
Si Si1 0.963127 0.819004 0.070862
Si Si2 0.959566 0.036380 0.602019
Si Si3 0.892585 0.710498 0.463138
Si Si4 0.784037 0.523368 0.848138
Si Si5 0.359658 0.409794 0.678177
Si Si6 0.737772 0.216599 0.683308
O O1 0.832397 0.755505 0.088827
O O2 0.032866 0.742458 0.162382
O O3 0.999007 0.058392 0.052970
O O4 0.011311 0.689713 0.983930
O O5 0.867459 0.151621 0.664983
O O6 0.903706 0.823838 0.561293
O O7 0.080937 0.990942 0.648341
O O8 0.780526 0.576691 0.436693
O O9 0.884649 0.899190 0.390329
O O10 0.748964 0.766162 0.847270
O O11 0.735505 0.406959 0.756232
O O12 0.329273 0.517526 0.773705
#
# Coordination Sequence:
#
# PCOD9315269 Si02
#       6
#     4   4   4   4   4   4
#     4  10  24  42  69  97 134 172 229 275 333 398
#     4  11  26  42  68  99 136 177 223 280 340 402
#     4   9  22  44  68  95 127 176 219 277 331 393
#     4  10  24  45  67  96 139 173 227 275 338 404
#     4   9  22  42  67  94 130 170 221 272 329 394
#     4  11  26  41  69  99 132 180 223 275 341 395
#
# _framework density 22.255407999999999
#
# number of rings (size 3 to 8) (size 9 to 14) (size 15 to 20)
#    0.000    2.000    0.000    0.000   18.667    4.000 
#    0.000    0.000    0.000    0.000    0.000    0.000 
#    0.000    0.000    0.000    0.000    0.000    0.000 
#
# Total GULP energy -133982.458027 kJ/mol
# GULP energy per Si atom -5582.602418 kJ/mol
# Density = 2.220475 g / cm^3
# Si number density = 22.255408 Si / 1000 Ang^3
#
#
#
# Elastic Constant Matrix: (Units=GPa)
#
#
# Indices 1 2 3 4 5 6 
#
# 1 57.1083 5.1324 5.5516 0.0000 0.0000 0.0000
# 2 5.1324 95.5357 33.9247 0.0000 0.0000 0.0000
# 3 5.5516 33.9247 38.7620 0.0000 0.0000 0.0000
# 4 0.0000 0.0000 0.0000 27.9762 0.0000 0.0000
# 5 0.0000 0.0000 0.0000 0.0000 30.9214 0.0000
# 6 0.0000 0.0000 0.0000 0.0000 0.0000 24.5318
#
#
#
# Elastic Compliance Matrix: (Units=1/GPa)
#
#
# Indices 1 2 3 4 5 6 
#
# 1 0.017758 -0.000074 -0.002479 0.000000 0.000000 0.000000
# 2 -0.000074 0.015188 -0.013282 0.000000 0.000000 0.000000
# 3 -0.002479 -0.013282 0.037778 0.000000 0.000000 0.000000
# 4 0.000000 0.000000 0.000000 0.035745 0.000000 0.000000
# 5 0.000000 0.000000 0.000000 0.000000 0.032340 0.000000
# 6 0.000000 0.000000 0.000000 0.000000 0.000000 0.040763
#
#
# Mechanical properties :
#
#
# Convention : Reuss Voigt Hill
#
# Bulk Modulus (GPa) = 25.60497 31.18037 28.39267
# Shear Modulus (GPa) = 22.29572 26.47237 24.38404
#
# Velocity S-wave (km/s) = 3.16857 3.45263 3.31364
# Velocity P-wave (km/s) = 4.99164 5.47127 5.23695
#
# Compressibility (1/GPa) = 0.03905491
#
# Stress axis : x y z
#
# Youngs Moduli (GPa) = 56.31202 65.84327 26.47069
#
# Poissons Ratio (x) = 0.00486 0.06562
# Poissons Ratio (y) = 0.00416 0.35158
# Poissons Ratio (z) = 0.13959 0.87451
#
# Static dielectric constant tensor:
#      x y z
#    x 1.845420 0.000000 0.000000 
#    y 0.000000 1.857610 0.000000 
#    z 0.000000 0.000000 1.868370 
# 
# From -- ./inp_files/5174.got.cif
#   From: 2010.05.17/outbox.cif.g08.bks.cpg/sg19_3_cif.got.tgz:5174.got - 2010.06.03 22:46:19.
