data_PCOD9315818
_publ_section_title
;
Structure prediction by ZEFSAII (Michael W. Deem and Ramdas Pophale) SiO2 
 PCOD9315818
Probable space group: P 21 21 21
;
_chemical_formula_sum "Si O2"
_cell_formula_units_Z 32
_cell_length_a 24.843905
_cell_length_b 9.372306
_cell_length_c 5.986064
_cell_angle_alpha 90.000000
_cell_angle_beta 90.000000
_cell_angle_gamma 90.000000
_cell_volume 1393.823156
_symmetry_space_group_name_H-M "P 21 21 21"
_symmetry_group_IT_number 19
_symmetry_cell_setting 'orthorhombic'
loop_
_space_group_symop_operation_xyz
x,y,z
1/2-x,-y,1/2+z
1/2+x,1/2-y,-z
-x,1/2+y,1/2-z
loop_
_atom_site_type_symbol
_atom_site_label
_atom_site_fract_x
_atom_site_fract_y
_atom_site_fract_z
Si Si1 0.200548 0.042359 0.793638
Si Si2 0.278993 0.488269 0.860987
Si Si3 0.544381 0.293419 0.785346
Si Si4 0.141979 0.283296 0.520361
Si Si5 0.687047 0.667176 0.558522
Si Si6 0.610547 0.545058 0.899273
Si Si7 0.944889 0.913638 0.680421
Si Si8 0.038109 0.734263 0.923956
O O1 0.178082 0.158913 0.621771
O O2 0.261441 0.084924 0.837009
O O3 0.193935 0.883804 0.695200
O O4 0.159922 0.045295 0.001065
O O5 0.251648 0.491888 0.608772
O O6 0.305380 0.332482 0.889948
O O7 0.322769 0.614209 0.866405
O O8 0.591900 0.287353 0.604233
O O9 0.558760 0.441958 0.902813
O O10 0.486874 0.293479 0.669494
O O11 0.552217 0.154519 0.935270
O O12 0.112736 0.374932 0.713382
O O13 0.632209 0.607972 0.666497
O O14 0.592576 0.678161 0.049579
O O15 0.993098 0.829236 0.802595
O O16 0.954183 0.081575 0.687580
#
# Coordination Sequence:
#
# PCOD9315818 Si02
#       8
#     4   4   4   4   4   4   4   4
#     4  12  25  47  73 106 145 196 250 309 378 459
#     4  12  31  49  77 110 159 204 256 320 385 458
#     4  11  24  46  73 100 140 188 246 311 381 451
#     4  11  26  46  71 104 142 200 240 309 383 451
#     4  12  28  45  75 109 150 194 256 310 375 463
#     4  12  26  45  75 106 145 192 249 313 383 459
#     4  11  25  47  72  99 144 186 244 316 380 458
#     4  11  27  45  72 104 139 188 249 306 385 457
#
# _framework density 22.958435999999999
#
# number of rings (size 3 to 8) (size 9 to 14) (size 15 to 20)
#    0.000    0.500    5.000    1.500   12.250    2.000 
#    0.000    0.000    0.000    0.000    0.000    0.000 
#    0.000    0.000    0.000    0.000    0.000    0.000 
#
# Total GULP energy -178808.724992 kJ/mol
# GULP energy per Si atom -5587.772656 kJ/mol
# Density = 2.290618 g / cm^3
# Si number density = 22.958436 Si / 1000 Ang^3
#
#
#
# Elastic Constant Matrix: (Units=GPa)
#
#
# Indices 1 2 3 4 5 6 
#
# 1 74.8343 15.6921 8.5351 0.0000 0.0000 0.0000
# 2 15.6921 122.8165 0.0531 0.0000 0.0000 0.0000
# 3 8.5351 0.0531 34.6160 0.0000 0.0000 0.0000
# 4 0.0000 0.0000 0.0000 34.2166 0.0000 0.0000
# 5 0.0000 0.0000 0.0000 0.0000 32.9736 0.0000
# 6 0.0000 0.0000 0.0000 0.0000 0.0000 36.0825
#
#
#
# Elastic Compliance Matrix: (Units=1/GPa)
#
#
# Indices 1 2 3 4 5 6 
#
# 1 0.014139 -0.001805 -0.003483 0.000000 0.000000 0.000000
# 2 -0.001805 0.008373 0.000432 0.000000 0.000000 0.000000
# 3 -0.003483 0.000432 0.029747 0.000000 0.000000 0.000000
# 4 0.000000 0.000000 0.000000 0.029226 0.000000 0.000000
# 5 0.000000 0.000000 0.000000 0.000000 0.030327 0.000000
# 6 0.000000 0.000000 0.000000 0.000000 0.000000 0.027714
#
#
# Mechanical properties :
#
#
# Convention : Reuss Voigt Hill
#
# Bulk Modulus (GPa) = 23.50415 31.20304 27.35359
# Shear Modulus (GPa) = 30.59619 34.52031 32.55825
#
# Velocity S-wave (km/s) = 3.65455 3.88184 3.76990
# Velocity P-wave (km/s) = 5.29788 5.80621 5.55786
#
# Compressibility (1/GPa) = 0.04254568
#
# Stress axis : x y z
#
# Youngs Moduli (GPa) = 70.72823 119.43632 33.61733
#
# Poissons Ratio (x) = 0.21558 0.11710
# Poissons Ratio (y) = 0.12766 -0.01453
# Poissons Ratio (z) = 0.24637 -0.05162
#
# Static dielectric constant tensor:
#      x y z
#    x 1.834850 0.000000 0.000000 
#    y 0.000000 1.832220 0.000000 
#    z 0.000000 0.000000 1.981790 
# 
# From -- ./inp_files/2263.got.cif
#   From: 2010.05.17/outbox.cif.g08.bks.cpg/sg19_2_cif.got.tgz:2263.got - 2010.06.03 22:46:19.
