data_PCOD9315315
_publ_section_title
;
Structure prediction by ZEFSAII (Michael W. Deem and Ramdas Pophale) SiO2 
 PCOD9315315
Probable space group: P 21 21 21
;
_chemical_formula_sum "Si O2"
_cell_formula_units_Z 32
_cell_length_a 5.253750
_cell_length_b 11.985208
_cell_length_c 21.881237
_cell_angle_alpha 90.000000
_cell_angle_beta 90.000000
_cell_angle_gamma 90.000000
_cell_volume 1377.802120
_symmetry_space_group_name_H-M "P 21 21 21"
_symmetry_group_IT_number 19
_symmetry_cell_setting 'orthorhombic'
loop_
_space_group_symop_operation_xyz
x,y,z
1/2-x,-y,1/2+z
1/2+x,1/2-y,-z
-x,1/2+y,1/2-z
loop_
_atom_site_type_symbol
_atom_site_label
_atom_site_fract_x
_atom_site_fract_y
_atom_site_fract_z
Si Si1 0.268446 0.265115 0.349411
Si Si2 0.583871 0.941199 0.235895
Si Si3 0.425738 0.039988 0.666266
Si Si4 0.069871 0.194745 0.527188
Si Si5 0.168882 0.834881 0.436799
Si Si6 0.542875 0.526075 0.135863
Si Si7 0.536787 0.394096 0.941599
Si Si8 0.688854 0.990225 0.969248
O O1 0.364199 0.312086 0.283666
O O2 0.006137 0.335181 0.356548
O O3 0.458758 0.306237 0.403876
O O4 0.273134 0.131570 0.351408
O O5 0.803734 0.999118 0.194900
O O6 0.603226 0.983803 0.304416
O O7 0.294384 0.959374 0.215863
O O8 0.332534 0.957959 0.613427
O O9 0.844987 0.257859 0.489265
O O10 0.054633 0.074004 0.494514
O O11 0.316372 0.918438 0.392088
O O12 0.137300 0.707681 0.418156
O O13 0.293846 0.843606 0.504003
O O14 0.892414 0.890816 0.442908
O O15 0.346290 0.567772 0.084093
O O16 0.363718 0.487855 0.972990
#
# Coordination Sequence:
#
# PCOD9315315 Si02
#       8
#     4   4   4   4   4   4   4   4
#     4  10  24  44  71 104 141 175 237 296 354 424
#     4  10  26  48  69 101 142 189 243 285 355 411
#     4  10  25  46  74 101 134 190 231 301 343 428
#     4  12  25  40  68 107 139 179 220 291 365 416
#     4  11  25  40  70 101 142 188 227 300 346 440
#     4  11  25  48  68 105 138 191 240 293 356 422
#     4  11  23  43  67 102 140 179 240 279 369 416
#     4  11  23  41  69  97 144 181 228 291 352 431
#
# _framework density 23.225397000000001
#
# number of rings (size 3 to 8) (size 9 to 14) (size 15 to 20)
#    0.750    0.500    3.750    0.750    8.750    2.000 
#    4.500    0.000    0.000    0.000    0.000    0.000 
#    0.000    0.000    0.000    0.000    0.000    0.000 
#
# Total GULP energy -178670.301466 kJ/mol
# GULP energy per Si atom -5583.446921 kJ/mol
# Density = 2.317254 g / cm^3
# Si number density = 23.225397 Si / 1000 Ang^3
#
#
#
# Elastic Constant Matrix: (Units=GPa)
#
#
# Indices 1 2 3 4 5 6 
#
# 1 65.0021 15.2389 -9.4722 0.0000 0.0000 0.0000
# 2 15.2389 104.4090 39.6330 0.0000 0.0000 0.0000
# 3 -9.4722 39.6330 43.1798 0.0000 0.0000 0.0000
# 4 0.0000 0.0000 0.0000 22.1948 0.0000 0.0000
# 5 0.0000 0.0000 0.0000 0.0000 20.9223 0.0000
# 6 0.0000 0.0000 0.0000 0.0000 0.0000 27.8220
#
#
#
# Elastic Compliance Matrix: (Units=1/GPa)
#
#
# Indices 1 2 3 4 5 6 
#
# 1 0.018347 -0.006454 0.009949 0.000000 0.000000 0.000000
# 2 -0.006454 0.016970 -0.016992 0.000000 0.000000 0.000000
# 3 0.009949 -0.016992 0.040938 0.000000 0.000000 0.000000
# 4 0.000000 0.000000 0.000000 0.045056 0.000000 0.000000
# 5 0.000000 0.000000 0.000000 0.000000 0.047796 0.000000
# 6 0.000000 0.000000 0.000000 0.000000 0.000000 0.035943
#
#
# Mechanical properties :
#
#
# Convention : Reuss Voigt Hill
#
# Bulk Modulus (GPa) = 20.30044 33.71003 27.00524
# Shear Modulus (GPa) = 20.12373 25.33390 22.72881
#
# Velocity S-wave (km/s) = 2.94675 3.30629 3.13168
# Velocity P-wave (km/s) = 4.50970 5.39640 4.97285
#
# Compressibility (1/GPa) = 0.04926001
#
# Stress axis : x y z
#
# Youngs Moduli (GPa) = 54.50465 58.92852 24.42747
#
# Poissons Ratio (x) = 0.38035 -0.24303
# Poissons Ratio (y) = 0.35179 0.41506
# Poissons Ratio (z) = -0.54227 1.00130
#
# Static dielectric constant tensor:
#      x y z
#    x 1.903370 0.000000 0.000000 
#    y 0.000000 1.937470 0.000000 
#    z 0.000000 0.000000 1.861640 
# 
# From -- ./inp_files/7287.got.cif
#   From: 2010.05.17/outbox.cif.g08.bks.cpg/sg19_4_cif.got.tgz:7287.got - 2010.06.03 22:46:19.
