data_PCOD9315237
_publ_section_title
;
Structure prediction by ZEFSAII (Michael W. Deem and Ramdas Pophale) SiO2 
 PCOD9315237
Probable space group: P 21 21 21
;
_chemical_formula_sum "Si O2"
_cell_formula_units_Z 20
_cell_length_a 4.876918
_cell_length_b 9.136564
_cell_length_c 17.383656
_cell_angle_alpha 90.000000
_cell_angle_beta 90.000000
_cell_angle_gamma 90.000000
_cell_volume 774.585697
_symmetry_space_group_name_H-M "P 21 21 21"
_symmetry_group_IT_number 19
_symmetry_cell_setting 'orthorhombic'
loop_
_space_group_symop_operation_xyz
x,y,z
1/2-x,-y,1/2+z
1/2+x,1/2-y,-z
-x,1/2+y,1/2-z
loop_
_atom_site_type_symbol
_atom_site_label
_atom_site_fract_x
_atom_site_fract_y
_atom_site_fract_z
Si Si1 0.249999 0.560730 0.250001
Si Si2 0.050005 0.835369 0.473134
Si Si3 0.085038 0.841602 0.178352
Si Si4 0.050001 0.164632 0.526866
Si Si5 0.585037 0.341603 0.178352
O O1 0.042303 0.677775 0.210032
O O2 0.335411 0.453710 0.179785
O O3 0.457696 0.677775 0.289969
O O4 0.164587 0.453710 0.320216
O O5 0.266713 0.754622 0.530627
O O6 0.223198 0.835754 0.394945
O O7 0.994826 0.000000 0.500000
O O8 0.276805 0.835751 0.105055
O O9 0.250001 0.909588 0.250000
O O10 0.266707 0.245379 0.469373
#
# Coordination Sequence:
#
# PCOD9315237 Si02
#       5
#     4   4   4   4   4
#     4  10  24  38  72  92 136 168 242 280 346 392
#     4  12  28  46  73 103 148 186 234 289 360 416
#     4  10  26  42  71  99 137 180 236 283 343 412
#     4  12  28  46  73 103 148 186 234 289 360 416
#     4  10  26  42  71  99 137 180 236 283 343 412
#
# _framework density 25.820253000000001
#
# number of rings (size 3 to 8) (size 9 to 14) (size 15 to 20)
#    1.200    0.000    0.000    3.600   14.000    0.000 
#    0.000    0.000    0.000    0.000    0.000    0.000 
#    0.000    0.000    0.000    0.000    0.000    0.000 
#
# Total GULP energy -111721.551546 kJ/mol
# GULP energy per Si atom -5586.077577 kJ/mol
# Density = 2.576149 g / cm^3
# Si number density = 25.820253 Si / 1000 Ang^3
#
#
#
# Elastic Constant Matrix: (Units=GPa)
#
#
# Indices 1 2 3 4 5 6 
#
# 1 98.3716 45.5444 -15.6779 0.0000 0.0000 0.0000
# 2 45.5444 219.6828 1.7349 0.0000 0.0000 0.0000
# 3 -15.6779 1.7349 66.3574 0.0000 0.0000 0.0000
# 4 0.0000 0.0000 0.0000 46.8477 0.0000 0.0000
# 5 0.0000 0.0000 0.0000 0.0000 38.0932 0.0000
# 6 0.0000 0.0000 0.0000 0.0000 0.0000 14.9093
#
#
#
# Elastic Compliance Matrix: (Units=1/GPa)
#
#
# Indices 1 2 3 4 5 6 
#
# 1 0.011757 -0.002460 0.002842 0.000000 0.000000 0.000000
# 2 -0.002460 0.005068 -0.000714 0.000000 0.000000 0.000000
# 3 0.002842 -0.000714 0.015760 0.000000 0.000000 0.000000
# 4 0.000000 0.000000 0.000000 0.021346 0.000000 0.000000
# 5 0.000000 0.000000 0.000000 0.000000 0.026251 0.000000
# 6 0.000000 0.000000 0.000000 0.000000 0.000000 0.067072
#
#
# Mechanical properties :
#
#
# Convention : Reuss Voigt Hill
#
# Bulk Modulus (GPa) = 31.32619 49.73495 40.53057
# Shear Modulus (GPa) = 31.53412 43.49073 37.51242
#
# Velocity S-wave (km/s) = 3.49849 4.10855 3.81574
# Velocity P-wave (km/s) = 5.33648 6.46612 5.92827
#
# Compressibility (1/GPa) = 0.03192217
#
# Stress axis : x y z
#
# Youngs Moduli (GPa) = 85.05255 197.32993 63.45147
#
# Poissons Ratio (x) = 0.48543 -0.18034
# Poissons Ratio (y) = 0.20923 0.04529
# Poissons Ratio (z) = -0.24174 0.14083
#
# Static dielectric constant tensor:
#      x y z
#    x -3.007100 0.000000 0.000000 
#    y 0.000000 1.951230 0.000000 
#    z 0.000000 0.000000 1.911650 
# 
# From -- ./inp_files/6375.got.cif
#   From: 2010.05.17/outbox.cif.g08.bks.cpg/sg19_4_cif.got.tgz:6375.got - 2010.06.03 22:46:19.
