data_PCOD9315882
_publ_section_title
;
Structure prediction by ZEFSAII (Michael W. Deem and Ramdas Pophale) SiO2 
 PCOD9315882
Probable space group: P 21 21 21
;
_chemical_formula_sum "Si O2"
_cell_formula_units_Z 28
_cell_length_a 5.061813
_cell_length_b 11.974306
_cell_length_c 20.006095
_cell_angle_alpha 90.000000
_cell_angle_beta 90.000000
_cell_angle_gamma 90.000000
_cell_volume 1212.603384
_symmetry_space_group_name_H-M "P 21 21 21"
_symmetry_group_IT_number 19
_symmetry_cell_setting 'orthorhombic'
loop_
_space_group_symop_operation_xyz
x,y,z
1/2-x,-y,1/2+z
1/2+x,1/2-y,-z
-x,1/2+y,1/2-z
loop_
_atom_site_type_symbol
_atom_site_label
_atom_site_fract_x
_atom_site_fract_y
_atom_site_fract_z
Si Si1 0.767851 0.375425 0.802870
Si Si2 0.876039 0.271332 0.456025
Si Si3 0.272077 0.965070 0.429208
Si Si4 0.259797 0.266805 0.869871
Si Si5 0.521872 0.413726 0.373895
Si Si6 0.729792 0.065202 0.021538
Si Si7 0.227253 0.181760 0.348616
O O1 0.536020 0.322556 0.848087
O O2 0.841413 0.503309 0.821279
O O3 0.689682 0.358809 0.726328
O O4 0.033805 0.307407 0.819563
O O5 0.146345 0.281350 0.498019
O O6 0.958183 0.207058 0.388979
O O7 0.999551 0.561931 0.517993
O O8 0.741263 0.382192 0.428778
O O9 0.239436 0.865906 0.375675
O O10 0.997056 0.966914 0.469149
O O11 0.342959 0.080503 0.392437
O O12 0.189450 0.314903 0.943452
O O13 0.303466 0.483996 0.414426
O O14 0.393334 0.297595 0.349482
#
# Coordination Sequence:
#
# PCOD9315882 Si02
#       7
#     4   4   4   4   4   4   4
#     4  11  29  50  75 102 148 209 259 301 376 448
#     4  12  27  45  76 112 154 191 248 320 394 453
#     4  12  27  43  76 113 151 186 250 316 383 450
#     4  11  25  52  74 107 146 203 254 307 372 458
#     4  11  28  49  77 111 154 206 253 316 386 466
#     4  11  25  44  76 110 147 195 238 314 387 453
#     4  12  31  45  76 113 150 206 250 326 376 454
#
# _framework density 23.090814999999999
#
# number of rings (size 3 to 8) (size 9 to 14) (size 15 to 20)
#    0.000    0.571    1.429    4.286   16.000    0.000 
#    0.000    0.000    0.000    0.000    0.000    0.000 
#    0.000    0.000    0.000    0.000    0.000    0.000 
#
# Total GULP energy -156747.826361 kJ/mol
# GULP energy per Si atom -5598.136656 kJ/mol
# Density = 2.303826 g / cm^3
# Si number density = 23.090815 Si / 1000 Ang^3
#
#
#
# Elastic Constant Matrix: (Units=GPa)
#
#
# Indices 1 2 3 4 5 6 
#
# 1 110.0086 30.8255 22.2465 0.0000 0.0000 0.0000
# 2 30.8255 136.4106 34.7757 0.0000 0.0000 0.0000
# 3 22.2465 34.7757 90.5551 0.0000 0.0000 0.0000
# 4 0.0000 0.0000 0.0000 34.1776 0.0000 0.0000
# 5 0.0000 0.0000 0.0000 0.0000 17.5360 0.0000
# 6 0.0000 0.0000 0.0000 0.0000 0.0000 22.9891
#
#
#
# Elastic Compliance Matrix: (Units=1/GPa)
#
#
# Indices 1 2 3 4 5 6 
#
# 1 0.009949 -0.001802 -0.001752 0.000000 0.000000 0.000000
# 2 -0.001802 0.008453 -0.002803 0.000000 0.000000 0.000000
# 3 -0.001752 -0.002803 0.012550 0.000000 0.000000 0.000000
# 4 0.000000 0.000000 0.000000 0.029259 0.000000 0.000000
# 5 0.000000 0.000000 0.000000 0.000000 0.057026 0.000000
# 6 0.000000 0.000000 0.000000 0.000000 0.000000 0.043499
#
#
# Mechanical properties :
#
#
# Convention : Reuss Voigt Hill
#
# Bulk Modulus (GPa) = 54.83273 56.96329 55.89801
# Shear Modulus (GPa) = 27.85060 31.54898 29.69979
#
# Velocity S-wave (km/s) = 3.47671 3.70036 3.59028
# Velocity P-wave (km/s) = 6.31782 6.55589 6.43795
#
# Compressibility (1/GPa) = 0.01823728
#
# Stress axis : x y z
#
# Youngs Moduli (GPa) = 100.50855 118.30650 79.68054
#
# Poissons Ratio (x) = 0.21314 0.13963
# Poissons Ratio (y) = 0.18107 0.22338
# Poissons Ratio (z) = 0.17613 0.33167
#
# Static dielectric constant tensor:
#      x y z
#    x 1.861410 0.000000 0.000000 
#    y 0.000000 1.928710 0.000000 
#    z 0.000000 0.000000 1.836530 
# 
# From -- ./inp_files/4497.got.cif
#   From: 2010.05.17/outbox.cif.g08.bks.cpg/sg19_3_cif.got.tgz:4497.got - 2010.06.03 22:46:19.
