data_PCOD9315419
_publ_section_title
;
Structure prediction by ZEFSAII (Michael W. Deem and Ramdas Pophale) SiO2 
 PCOD9315419
Probable space group: P 21 21 21
;
_chemical_formula_sum "Si O2"
_cell_formula_units_Z 32
_cell_length_a 18.555095
_cell_length_b 5.091546
_cell_length_c 13.528972
_cell_angle_alpha 90.000000
_cell_angle_beta 90.000000
_cell_angle_gamma 90.000000
_cell_volume 1278.137721
_symmetry_space_group_name_H-M "P 21 21 21"
_symmetry_group_IT_number 19
_symmetry_cell_setting 'orthorhombic'
loop_
_space_group_symop_operation_xyz
x,y,z
1/2-x,-y,1/2+z
1/2+x,1/2-y,-z
-x,1/2+y,1/2-z
loop_
_atom_site_type_symbol
_atom_site_label
_atom_site_fract_x
_atom_site_fract_y
_atom_site_fract_z
Si Si1 0.218427 0.506823 0.406516
Si Si2 0.957075 0.576030 0.066249
Si Si3 0.870169 0.658600 0.249360
Si Si4 0.553401 0.394864 0.947401
Si Si5 0.352759 0.170631 0.396145
Si Si6 0.272869 0.878628 0.244032
Si Si7 0.995758 0.285964 0.691631
Si Si8 0.865780 0.885868 0.921272
O O1 0.167267 0.376603 0.321421
O O2 0.257522 0.734802 0.347773
O O3 0.172460 0.582092 0.502420
O O4 0.283682 0.316953 0.440911
O O5 0.924163 0.514174 0.173891
O O6 0.010026 0.831867 0.073920
O O7 0.890438 0.655921 0.996461
O O8 0.996892 0.326357 0.022144
O O9 0.913205 0.728008 0.347327
O O10 0.804114 0.484343 0.288222
O O11 0.615020 0.454285 0.028428
O O12 0.323922 0.105951 0.285540
O O13 0.427759 0.316460 0.370967
O O14 0.310740 0.704274 0.162546
O O15 0.058466 0.434910 0.631322
O O16 0.028935 0.026811 0.739628
#
# Coordination Sequence:
#
# PCOD9315419 Si02
#       8
#     4   4   4   4   4   4   4   4
#     4  10  25  46  68 107 142 192 243 299 358 437
#     4  11  27  44  72 106 143 185 241 296 362 431
#     4  10  25  45  69 103 140 190 239 295 360 433
#     4  12  26  44  74 106 143 190 235 300 363 428
#     4  11  25  42  66 104 142 181 245 295 357 433
#     4  11  24  45  73  98 147 191 243 298 360 433
#     4  12  26  45  75 104 142 185 241 295 361 424
#     4  11  24  47  73 106 145 194 237 304 363 429
#
# _framework density 25.036427
#
# number of rings (size 3 to 8) (size 9 to 14) (size 15 to 20)
#    0.000    1.000    2.500    2.250    8.750    1.000 
#    9.000    0.000    0.000    0.000    0.000    0.000 
#    0.000    0.000    0.000    0.000    0.000    0.000 
#
# Total GULP energy -178801.964747 kJ/mol
# GULP energy per Si atom -5587.561398 kJ/mol
# Density = 2.497944 g / cm^3
# Si number density = 25.036427 Si / 1000 Ang^3
#
#
#
# Elastic Constant Matrix: (Units=GPa)
#
#
# Indices 1 2 3 4 5 6 
#
# 1 108.9283 16.4775 30.4913 0.0000 0.0000 0.0000
# 2 16.4775 58.9945 -9.7544 0.0000 0.0000 0.0000
# 3 30.4913 -9.7544 76.9808 0.0000 0.0000 0.0000
# 4 0.0000 0.0000 0.0000 15.6996 0.0000 0.0000
# 5 0.0000 0.0000 0.0000 0.0000 -217.7646 0.0000
# 6 0.0000 0.0000 0.0000 0.0000 0.0000 25.1451
#
#
#
# Elastic Compliance Matrix: (Units=1/GPa)
#
#
# Indices 1 2 3 4 5 6 
#
# 1 0.011150 -0.003927 -0.004914 0.000000 0.000000 0.000000
# 2 -0.003927 0.018696 0.003924 0.000000 0.000000 0.000000
# 3 -0.004914 0.003924 0.015434 0.000000 0.000000 0.000000
# 4 0.000000 0.000000 0.000000 0.063696 0.000000 0.000000
# 5 0.000000 0.000000 0.000000 0.000000 -0.004592 0.000000
# 6 0.000000 0.000000 0.000000 0.000000 0.000000 0.039769
#
#
# Mechanical properties :
#
#
# Convention : Reuss Voigt Hill
#
# Bulk Modulus (GPa) = 28.21063 35.48138 31.84600
# Shear Modulus (GPa) = 30.15654 -21.53805 4.30925
#
# Velocity S-wave (km/s) = 3.47437 -2.93622 1.31336
# Velocity P-wave (km/s) = 5.23328 1.64545 3.87910
#
# Compressibility (1/GPa) = 0.03544764
#
# Stress axis : x y z
#
# Youngs Moduli (GPa) = 89.68731 53.48636 64.79256
#
# Poissons Ratio (x) = 0.21003 0.31838
# Poissons Ratio (y) = 0.35218 -0.25427
# Poissons Ratio (z) = 0.44072 -0.20990
#
# Static dielectric constant tensor:
#      x y z
#    x 1.998780 0.000000 0.000000 
#    y 0.000000 2.261160 0.000000 
#    z 0.000000 0.000000 2.079850 
# 
# From -- ./inp_files/6294.got.cif
#   From: 2010.05.17/outbox.cif.g08.bks.cpg/sg19_4_cif.got.tgz:6294.got - 2010.06.03 22:46:19.
