data_PCOD9315589
_publ_section_title
;
Structure prediction by ZEFSAII (Michael W. Deem and Ramdas Pophale) SiO2 
 PCOD9315589
Probable space group: P 21 21 21
;
_chemical_formula_sum "Si O2"
_cell_formula_units_Z 24
_cell_length_a 5.039227
_cell_length_b 12.900729
_cell_length_c 14.178409
_cell_angle_alpha 90.000000
_cell_angle_beta 90.000000
_cell_angle_gamma 90.000000
_cell_volume 921.734142
_symmetry_space_group_name_H-M "P 21 21 21"
_symmetry_group_IT_number 19
_symmetry_cell_setting 'orthorhombic'
loop_
_space_group_symop_operation_xyz
x,y,z
1/2-x,-y,1/2+z
1/2+x,1/2-y,-z
-x,1/2+y,1/2-z
loop_
_atom_site_type_symbol
_atom_site_label
_atom_site_fract_x
_atom_site_fract_y
_atom_site_fract_z
Si Si1 0.535732 0.376955 0.768299
Si Si2 0.619444 0.237592 0.944570
Si Si3 0.600181 0.622584 0.041746
Si Si4 0.718426 0.291827 0.348118
Si Si5 0.460490 0.498516 0.305155
Si Si6 0.592386 0.009309 0.967394
O O1 0.543062 0.325554 0.871923
O O2 0.410413 0.283043 0.709236
O O3 0.830621 0.422378 0.758113
O O4 0.328592 0.471950 0.767964
O O5 0.548337 0.119706 0.919875
O O6 0.931871 0.240577 0.965518
O O7 0.500130 0.721477 0.098796
O O8 0.384963 0.532456 0.050242
O O9 0.885887 0.577010 0.067079
O O10 0.615790 0.654440 0.931905
O O11 0.565978 0.381942 0.291599
O O12 0.453613 0.516276 0.419149
#
# Coordination Sequence:
#
# PCOD9315589 Si02
#       6
#     4   4   4   4   4   4
#     4  12  26  43  70 104 138 181 228 291 344 422
#     4  12  22  42  69 103 139 185 226 278 349 425
#     4  11  25  44  69 102 131 189 229 293 331 421
#     4  11  27  47  73 101 143 182 242 284 359 408
#     4  11  24  44  68  97 141 183 221 289 355 401
#     4  11  22  42  73 101 138 180 238 271 352 415
#
# _framework density 26.037875
#
# number of rings (size 3 to 8) (size 9 to 14) (size 15 to 20)
#    0.000    0.667    3.333    5.000    0.000   10.667 
#    0.000    0.000    0.000    0.000    0.000    0.000 
#    0.000    0.000    0.000    0.000    0.000    0.000 
#
# Total GULP energy -134720.305232 kJ/mol
# GULP energy per Si atom -5613.346051 kJ/mol
# Density = 2.597861 g / cm^3
# Si number density = 26.037875 Si / 1000 Ang^3
#
#
#
# Elastic Constant Matrix: (Units=GPa)
#
#
# Indices 1 2 3 4 5 6 
#
# 1 122.6341 21.3768 9.1190 0.0000 0.0000 0.0000
# 2 21.3768 114.3360 10.2471 0.0000 0.0000 0.0000
# 3 9.1190 10.2471 42.4356 0.0000 0.0000 0.0000
# 4 0.0000 0.0000 0.0000 42.5198 0.0000 0.0000
# 5 0.0000 0.0000 0.0000 0.0000 35.7380 0.0000
# 6 0.0000 0.0000 0.0000 0.0000 0.0000 47.3424
#
#
#
# Elastic Compliance Matrix: (Units=1/GPa)
#
#
# Indices 1 2 3 4 5 6 
#
# 1 0.008519 -0.001460 -0.001478 0.000000 0.000000 0.000000
# 2 -0.001460 0.009190 -0.001905 0.000000 0.000000 0.000000
# 3 -0.001478 -0.001905 0.024343 0.000000 0.000000 0.000000
# 4 0.000000 0.000000 0.000000 0.023518 0.000000 0.000000
# 5 0.000000 0.000000 0.000000 0.000000 0.027981 0.000000
# 6 0.000000 0.000000 0.000000 0.000000 0.000000 0.021123
#
#
# Mechanical properties :
#
#
# Convention : Reuss Voigt Hill
#
# Bulk Modulus (GPa) = 30.89816 40.09904 35.49860
# Shear Modulus (GPa) = 36.99610 41.03090 39.01350
#
# Velocity S-wave (km/s) = 3.77352 3.97396 3.87503
# Velocity P-wave (km/s) = 5.55682 6.04071 5.80381
#
# Compressibility (1/GPa) = 0.03236439
#
# Stress axis : x y z
#
# Youngs Moduli (GPa) = 117.38771 108.81475 41.07986
#
# Poissons Ratio (x) = 0.15890 0.06072
# Poissons Ratio (y) = 0.17142 0.07827
# Poissons Ratio (z) = 0.17350 0.20733
#
# Static dielectric constant tensor:
#      x y z
#    x 1.953890 0.000000 0.000000 
#    y 0.000000 1.961940 0.000000 
#    z 0.000000 0.000000 2.140530 
# 
# From -- ./inp_files/6413.got.cif
#   From: 2010.05.17/outbox.cif.g08.bks.cpg/sg19_4_cif.got.tgz:6413.got - 2010.06.03 22:46:19.
