data_PCOD9315188
_publ_section_title
;
Structure prediction by ZEFSAII (Michael W. Deem and Ramdas Pophale) SiO2 
 PCOD9315188
Probable space group: P 21 21 21
;
_chemical_formula_sum "Si O2"
_cell_formula_units_Z 32
_cell_length_a 30.882568
_cell_length_b 8.714799
_cell_length_c 5.253756
_cell_angle_alpha 90.000000
_cell_angle_beta 90.000000
_cell_angle_gamma 90.000000
_cell_volume 1413.971579
_symmetry_space_group_name_H-M "P 21 21 21"
_symmetry_group_IT_number 19
_symmetry_cell_setting 'orthorhombic'
loop_
_space_group_symop_operation_xyz
x,y,z
1/2-x,-y,1/2+z
1/2+x,1/2-y,-z
-x,1/2+y,1/2-z
loop_
_atom_site_type_symbol
_atom_site_label
_atom_site_fract_x
_atom_site_fract_y
_atom_site_fract_z
Si Si1 0.862077 0.630615 0.332328
Si Si2 0.558294 0.929534 0.910981
Si Si3 0.769319 0.068727 0.766252
Si Si4 0.975693 0.567656 0.780129
Si Si5 0.638179 0.068022 0.148715
Si Si6 0.736054 0.409569 0.673939
Si Si7 0.064405 0.920992 0.216532
Si Si8 0.070402 0.335553 0.474522
O O1 0.855553 0.753091 0.563471
O O2 0.815746 0.614847 0.198775
O O3 0.885490 0.465689 0.357969
O O4 0.900089 0.713875 0.175836
O O5 0.608091 0.976442 0.953214
O O6 0.526392 0.934209 0.153199
O O7 0.556330 0.759329 0.805369
O O8 0.543367 0.063437 0.720171
O O9 0.759158 0.246994 0.724146
O O10 0.740370 0.978963 0.556653
O O11 0.817358 0.015229 0.698582
O O12 0.951311 0.470875 0.002211
O O13 0.958280 0.740276 0.827288
O O14 0.961486 0.510250 0.505953
O O15 0.606943 0.065877 0.389393
O O16 0.749062 0.476348 0.399796
#
# Coordination Sequence:
#
# PCOD9315188 Si02
#       8
#     4   4   4   4   4   4   4   4
#     4  10  23  47  69  98 142 186 228 283 363 422
#     4  11  27  40  68 106 138 177 237 294 333 413
#     4  12  26  48  76 105 139 189 240 290 350 433
#     4  11  25  45  69  96 144 184 231 274 361 411
#     4  11  24  44  73  99 140 182 240 283 353 417
#     4  12  28  45  73 107 145 184 229 299 360 423
#     4  11  26  44  71 102 136 187 230 294 344 415
#     4  10  23  45  71  97 136 195 227 287 344 424
#
# _framework density 22.631288999999999
#
# number of rings (size 3 to 8) (size 9 to 14) (size 15 to 20)
#    0.000    1.000    2.500    2.250   10.500    1.000 
#    0.000    0.000    0.000    0.000    0.000    0.000 
#    0.000    0.000    0.000    0.000    0.000    0.000 
#
# Total GULP energy -178897.443252 kJ/mol
# GULP energy per Si atom -5590.545102 kJ/mol
# Density = 2.257978 g / cm^3
# Si number density = 22.631289 Si / 1000 Ang^3
#
#
#
# Elastic Constant Matrix: (Units=GPa)
#
#
# Indices 1 2 3 4 5 6 
#
# 1 115.5327 9.9143 13.5292 0.0000 0.0000 0.0000
# 2 9.9143 75.1005 -3.3847 0.0000 0.0000 0.0000
# 3 13.5292 -3.3847 54.8347 0.0000 0.0000 0.0000
# 4 0.0000 0.0000 0.0000 31.7270 0.0000 0.0000
# 5 0.0000 0.0000 0.0000 0.0000 16.8953 0.0000
# 6 0.0000 0.0000 0.0000 0.0000 0.0000 23.5630
#
#
#
# Elastic Compliance Matrix: (Units=1/GPa)
#
#
# Indices 1 2 3 4 5 6 
#
# 1 0.009037 -0.001297 -0.002310 0.000000 0.000000 0.000000
# 2 -0.001297 0.013539 0.001156 0.000000 0.000000 0.000000
# 3 -0.002310 0.001156 0.018878 0.000000 0.000000 0.000000
# 4 0.000000 0.000000 0.000000 0.031519 0.000000 0.000000
# 5 0.000000 0.000000 0.000000 0.000000 0.059188 0.000000
# 6 0.000000 0.000000 0.000000 0.000000 0.000000 0.042439
#
#
# Mechanical properties :
#
#
# Convention : Reuss Voigt Hill
#
# Bulk Modulus (GPa) = 27.35863 31.73172 29.54518
# Shear Modulus (GPa) = 26.08421 29.46434 27.77427
#
# Velocity S-wave (km/s) = 3.39864 3.61214 3.50701
# Velocity P-wave (km/s) = 5.24558 5.60788 5.42975
#
# Compressibility (1/GPa) = 0.03655154
#
# Stress axis : x y z
#
# Youngs Moduli (GPa) = 110.65174 73.86170 52.97214
#
# Poissons Ratio (x) = 0.09581 0.12236
# Poissons Ratio (y) = 0.14353 -0.06122
# Poissons Ratio (z) = 0.25559 -0.08537
#
# Static dielectric constant tensor:
#      x y z
#    x 1.817750 0.000000 0.000000 
#    y 0.000000 1.924950 0.000000 
#    z 0.000000 0.000000 1.875120 
# 
# From -- ./inp_files/707.got.cif
#   From: 2010.05.17/outbox.cif.g08.bks.cpg/sg19_1_cif.got.tgz:707.got - 2010.06.03 22:46:19.
