data_PCOD9315828
_publ_section_title
;
Structure prediction by ZEFSAII (Michael W. Deem and Ramdas Pophale) SiO2 
 PCOD9315828
Probable space group: P 21 21 21
;
_chemical_formula_sum "Si O2"
_cell_formula_units_Z 24
_cell_length_a 9.168140
_cell_length_b 10.397222
_cell_length_c 10.853021
_cell_angle_alpha 90.000000
_cell_angle_beta 90.000000
_cell_angle_gamma 90.000000
_cell_volume 1034.544549
_symmetry_space_group_name_H-M "P 21 21 21"
_symmetry_group_IT_number 19
_symmetry_cell_setting 'orthorhombic'
loop_
_space_group_symop_operation_xyz
x,y,z
1/2-x,-y,1/2+z
1/2+x,1/2-y,-z
-x,1/2+y,1/2-z
loop_
_atom_site_type_symbol
_atom_site_label
_atom_site_fract_x
_atom_site_fract_y
_atom_site_fract_z
Si Si1 0.790043 0.467988 0.683542
Si Si2 0.834899 0.813416 0.240148
Si Si3 0.514299 0.556088 0.552396
Si Si4 0.810427 0.704310 0.850812
Si Si5 0.396855 0.546133 0.275039
Si Si6 0.957821 0.223926 0.461525
O O1 0.736205 0.328824 0.731445
O O2 0.686865 0.527806 0.575306
O O3 0.764314 0.574941 0.787573
O O4 0.967327 0.469015 0.678288
O O5 0.935938 0.839239 0.360787
O O6 0.712519 0.924845 0.231129
O O7 0.946501 0.815290 0.124708
O O8 0.467161 0.570797 0.410314
O O9 0.450833 0.417996 0.596025
O O10 0.703748 0.724850 0.965668
O O11 0.809540 0.824782 0.760257
O O12 0.969691 0.701889 0.907939
#
# Coordination Sequence:
#
# PCOD9315828 Si02
#       6
#     4   4   4   4   4   4
#     4  11  26  46  71 109 150 191 245 297 368 434
#     4  11  25  48  74 107 150 194 243 300 371 436
#     4  11  24  48  72 103 151 187 245 302 358 433
#     4  12  25  46  79 106 146 194 243 302 367 438
#     4  12  26  46  76 113 147 194 248 303 363 442
#     4  11  24  46  76 106 144 198 240 300 367 439
#
# _framework density 23.198613999999999
#
# number of rings (size 3 to 8) (size 9 to 14) (size 15 to 20)
#    0.000    0.667    5.000    2.000    4.667    1.333 
#    0.000    1.667    0.000    0.000    0.000    0.000 
#    0.000    0.000    0.000    0.000    0.000    0.000 
#
# Total GULP energy -133999.937719 kJ/mol
# GULP energy per Si atom -5583.330738 kJ/mol
# Density = 2.314581 g / cm^3
# Si number density = 23.198614 Si / 1000 Ang^3
#
#
#
# Elastic Constant Matrix: (Units=GPa)
#
#
# Indices 1 2 3 4 5 6 
#
# 1 97.3950 49.2497 46.9545 0.0000 0.0000 0.0000
# 2 49.2497 145.5672 40.4315 0.0000 0.0000 0.0000
# 3 46.9545 40.4315 98.4808 0.0000 0.0000 0.0000
# 4 0.0000 0.0000 0.0000 27.7537 0.0000 0.0000
# 5 0.0000 0.0000 0.0000 0.0000 50.7164 0.0000
# 6 0.0000 0.0000 0.0000 0.0000 0.0000 39.5967
#
#
#
# Elastic Compliance Matrix: (Units=1/GPa)
#
#
# Indices 1 2 3 4 5 6 
#
# 1 0.014697 -0.003416 -0.005605 0.000000 0.000000 0.000000
# 2 -0.003416 0.008548 -0.001881 0.000000 0.000000 0.000000
# 3 -0.005605 -0.001881 0.013599 0.000000 0.000000 0.000000
# 4 0.000000 0.000000 0.000000 0.036031 0.000000 0.000000
# 5 0.000000 0.000000 0.000000 0.000000 0.019717 0.000000
# 6 0.000000 0.000000 0.000000 0.000000 0.000000 0.025255
#
#
# Mechanical properties :
#
#
# Convention : Reuss Voigt Hill
#
# Bulk Modulus (GPa) = 66.48657 68.30158 67.39408
# Shear Modulus (GPa) = 34.56315 37.26719 35.91517
#
# Velocity S-wave (km/s) = 3.86408 4.01239 3.93894
# Velocity P-wave (km/s) = 6.97353 7.13945 7.05698
#
# Compressibility (1/GPa) = 0.01504063
#
# Stress axis : x y z
#
# Youngs Moduli (GPa) = 68.04204 116.99122 73.53588
#
# Poissons Ratio (x) = 0.39959 0.41217
# Poissons Ratio (y) = 0.23240 0.13830
# Poissons Ratio (z) = 0.38137 0.22003
#
# Static dielectric constant tensor:
#      x y z
#    x 1.936480 0.000000 0.000000 
#    y 0.000000 1.897050 0.000000 
#    z 0.000000 0.000000 1.871380 
# 
# From -- ./inp_files/4554.got.cif
#   From: 2010.05.17/outbox.cif.g08.bks.cpg/sg19_3_cif.got.tgz:4554.got - 2010.06.03 22:46:19.
