data_PCOD9315826
_publ_section_title
;
Structure prediction by ZEFSAII (Michael W. Deem and Ramdas Pophale) SiO2 
 PCOD9315826
Probable space group: P 21 21 21
;
_chemical_formula_sum "Si O2"
_cell_formula_units_Z 28
_cell_length_a 12.663060
_cell_length_b 5.504274
_cell_length_c 16.348967
_cell_angle_alpha 90.000000
_cell_angle_beta 90.000000
_cell_angle_gamma 90.000000
_cell_volume 1139.538563
_symmetry_space_group_name_H-M "P 21 21 21"
_symmetry_group_IT_number 19
_symmetry_cell_setting 'orthorhombic'
loop_
_space_group_symop_operation_xyz
x,y,z
1/2-x,-y,1/2+z
1/2+x,1/2-y,-z
-x,1/2+y,1/2-z
loop_
_atom_site_type_symbol
_atom_site_label
_atom_site_fract_x
_atom_site_fract_y
_atom_site_fract_z
Si Si1 0.807106 0.387529 0.024127
Si Si2 0.018543 0.635882 0.017755
Si Si3 0.613049 0.204723 0.106620
Si Si4 0.901772 0.017539 0.915285
Si Si5 0.061284 0.317777 0.233992
Si Si6 0.665835 0.527195 0.875348
Si Si7 0.737816 0.087449 0.260969
O O1 0.708596 0.388149 0.084765
O O2 0.845730 0.120403 0.996605
O O3 0.760379 0.497583 0.939805
O O4 0.914601 0.509069 0.054657
O O5 0.103330 0.465323 0.973065
O O6 0.077917 0.808180 0.080795
O O7 0.966173 0.782366 0.942284
O O8 0.495457 0.305388 0.112555
O O9 0.649465 0.099437 0.192209
O O10 0.817720 0.002229 0.843666
O O11 0.169158 0.417440 0.274085
O O12 0.991271 0.564895 0.235062
O O13 0.107317 0.224549 0.146763
O O14 0.709831 0.660217 0.793798
#
# Coordination Sequence:
#
# PCOD9315826 Si02
#       7
#     4   4   4   4   4   4   4
#     4  11  24  48  75 110 150 206 261 332 395 481
#     4  11  26  46  75 108 151 202 267 330 395 485
#     4  11  28  45  74 117 153 202 272 332 405 488
#     4  11  24  46  75 109 150 207 257 325 406 473
#     4  12  28  52  78 118 160 211 263 325 407 477
#     4  12  25  49  78 110 163 210 264 329 404 481
#     4  12  27  48  79 114 167 208 266 337 412 477
#
# _framework density 24.571349999999999
#
# number of rings (size 3 to 8) (size 9 to 14) (size 15 to 20)
#    0.000    0.571    5.714    0.857    2.000    4.571 
#    0.000    0.000    0.000    0.000    0.000    0.000 
#    0.000    0.000    0.000    0.000    0.000    0.000 
#
# Total GULP energy -156501.285397 kJ/mol
# GULP energy per Si atom -5589.331621 kJ/mol
# Density = 2.451542 g / cm^3
# Si number density = 24.571350 Si / 1000 Ang^3
#
#
#
# Elastic Constant Matrix: (Units=GPa)
#
#
# Indices 1 2 3 4 5 6 
#
# 1 109.9355 20.8836 7.4037 0.0000 0.0000 0.0000
# 2 20.8836 63.7121 8.9206 0.0000 0.0000 0.0000
# 3 7.4037 8.9206 55.0890 0.0000 0.0000 0.0000
# 4 0.0000 0.0000 0.0000 33.8737 0.0000 0.0000
# 5 0.0000 0.0000 0.0000 0.0000 46.2347 0.0000
# 6 0.0000 0.0000 0.0000 0.0000 0.0000 20.2556
#
#
#
# Elastic Compliance Matrix: (Units=1/GPa)
#
#
# Indices 1 2 3 4 5 6 
#
# 1 0.009735 -0.003078 -0.000810 0.000000 0.000000 0.000000
# 2 -0.003078 0.017033 -0.002344 0.000000 0.000000 0.000000
# 3 -0.000810 -0.002344 0.018641 0.000000 0.000000 0.000000
# 4 0.000000 0.000000 0.000000 0.029521 0.000000 0.000000
# 5 0.000000 0.000000 0.000000 0.000000 0.021629 0.000000
# 6 0.000000 0.000000 0.000000 0.000000 0.000000 0.049369
#
#
# Mechanical properties :
#
#
# Convention : Reuss Voigt Hill
#
# Bulk Modulus (GPa) = 30.35391 33.68360 32.01876
# Shear Modulus (GPa) = 29.52043 32.84138 31.18091
#
# Velocity S-wave (km/s) = 3.46991 3.65988 3.56616
# Velocity P-wave (km/s) = 5.33234 5.62120 5.47867
#
# Compressibility (1/GPa) = 0.03294468
#
# Stress axis : x y z
#
# Youngs Moduli (GPa) = 102.71751 58.71068 53.64538
#
# Poissons Ratio (x) = 0.18069 0.04345
# Poissons Ratio (y) = 0.31613 0.12577
# Poissons Ratio (z) = 0.08320 0.13765
#
# Static dielectric constant tensor:
#      x y z
#    x 1.892990 0.000000 0.000000 
#    y 0.000000 2.068590 0.000000 
#    z 0.000000 0.000000 1.949980 
# 
# From -- ./inp_files/6713.got.cif
#   From: 2010.05.17/outbox.cif.g08.bks.cpg/sg19_4_cif.got.tgz:6713.got - 2010.06.03 22:46:19.
