data_PCOD9315716
_publ_section_title
;
Structure prediction by ZEFSAII (Michael W. Deem and Ramdas Pophale) SiO2 
 PCOD9315716
Probable space group: P 21 21 21
;
_chemical_formula_sum "Si O2"
_cell_formula_units_Z 32
_cell_length_a 8.954672
_cell_length_b 13.975188
_cell_length_c 11.104047
_cell_angle_alpha 90.000000
_cell_angle_beta 90.000000
_cell_angle_gamma 90.000000
_cell_volume 1389.596249
_symmetry_space_group_name_H-M "P 21 21 21"
_symmetry_group_IT_number 19
_symmetry_cell_setting 'orthorhombic'
loop_
_space_group_symop_operation_xyz
x,y,z
1/2-x,-y,1/2+z
1/2+x,1/2-y,-z
-x,1/2+y,1/2-z
loop_
_atom_site_type_symbol
_atom_site_label
_atom_site_fract_x
_atom_site_fract_y
_atom_site_fract_z
Si Si1 0.625090 0.505508 0.075231
Si Si2 0.804868 0.475921 0.839188
Si Si3 0.635870 0.845169 0.926302
Si Si4 0.417171 0.807044 0.724147
Si Si5 0.614031 0.853681 0.530347
Si Si6 0.679713 0.826537 0.273992
Si Si7 0.645854 0.007893 0.120123
Si Si8 0.528225 0.209893 0.382698
O O1 0.695623 0.474441 0.205333
O O2 0.542814 0.604812 0.106385
O O3 0.735053 0.523181 0.960517
O O4 0.505697 0.428292 0.026931
O O5 0.708489 0.381122 0.817946
O O6 0.977052 0.456821 0.870055
O O7 0.525240 0.860553 0.816036
O O8 0.794357 0.800386 0.889308
O O9 0.662838 0.941005 0.002452
O O10 0.544579 0.772872 0.011559
O O11 0.522120 0.780592 0.612042
O O12 0.327313 0.720431 0.783947
O O13 0.697778 0.813390 0.415413
O O14 0.732727 0.910243 0.610931
O O15 0.670421 0.935340 0.231201
O O16 0.534407 0.768093 0.231881
#
# Coordination Sequence:
#
# PCOD9315716 Si02
#       8
#     4   4   4   4   4   4   4   4
#     4  11  23  46  69 105 140 187 232 302 357 431
#     4  11  24  44  74 103 145 183 242 299 358 432
#     4  11  24  43  70 106 130 187 237 300 354 431
#     4  11  26  43  67 101 142 180 238 294 363 431
#     4  11  26  44  68 101 142 186 240 291 372 430
#     4  11  25  46  67 100 141 188 237 298 364 432
#     4  11  24  42  73 100 137 189 236 299 359 426
#     4  11  24  42  72  96 141 178 244 295 361 423
#
# _framework density 23.028274
#
# number of rings (size 3 to 8) (size 9 to 14) (size 15 to 20)
#    0.000    1.000    3.750    2.250    7.000    2.000 
#    0.000    2.500    0.000    0.000    0.000    0.000 
#    0.000    0.000    0.000    0.000    0.000    0.000 
#
# Total GULP energy -178914.666723 kJ/mol
# GULP energy per Si atom -5591.083335 kJ/mol
# Density = 2.297586 g / cm^3
# Si number density = 23.028274 Si / 1000 Ang^3
#
#
#
# Elastic Constant Matrix: (Units=GPa)
#
#
# Indices 1 2 3 4 5 6 
#
# 1 147.1493 32.8206 42.4894 0.0000 0.0000 0.0000
# 2 32.8206 38.7855 6.5089 0.0000 0.0000 0.0000
# 3 42.4894 6.5089 71.8180 0.0000 0.0000 0.0000
# 4 0.0000 0.0000 0.0000 3.4202 0.0000 0.0000
# 5 0.0000 0.0000 0.0000 0.0000 37.8115 0.0000
# 6 0.0000 0.0000 0.0000 0.0000 0.0000 29.8693
#
#
#
# Elastic Compliance Matrix: (Units=1/GPa)
#
#
# Indices 1 2 3 4 5 6 
#
# 1 0.009996 -0.007582 -0.005227 0.000000 0.000000 0.000000
# 2 -0.007582 0.031931 0.001592 0.000000 0.000000 0.000000
# 3 -0.005227 0.001592 0.016872 0.000000 0.000000 0.000000
# 4 0.000000 0.000000 0.000000 0.292379 0.000000 0.000000
# 5 0.000000 0.000000 0.000000 0.000000 0.026447 0.000000
# 6 0.000000 0.000000 0.000000 0.000000 0.000000 0.033479
#
#
# Mechanical properties :
#
#
# Convention : Reuss Voigt Hill
#
# Bulk Modulus (GPa) = 27.49836 46.82117 37.15976
# Shear Modulus (GPa) = 11.21930 25.94912 18.58421
#
# Velocity S-wave (km/s) = 2.20965 3.36048 2.84389
# Velocity P-wave (km/s) = 4.29850 5.95259 5.19184
#
# Compressibility (1/GPa) = 0.03636581
#
# Stress axis : x y z
#
# Youngs Moduli (GPa) = 100.03906 31.31715 59.26919
#
# Poissons Ratio (x) = 0.23743 0.30979
# Poissons Ratio (y) = 0.75846 -0.09433
# Poissons Ratio (z) = 0.52289 -0.04984
#
# Static dielectric constant tensor:
#      x y z
#    x 1.829250 0.000000 0.000000 
#    y 0.000000 1.847240 0.000000 
#    z 0.000000 0.000000 1.972690 
# 
# From -- ./inp_files/4687.got.cif
#   From: 2010.05.17/outbox.cif.g08.bks.cpg/sg19_3_cif.got.tgz:4687.got - 2010.06.03 22:46:19.
