data_PCOD9315112
_publ_section_title
;
Structure prediction by ZEFSAII (Michael W. Deem and Ramdas Pophale) SiO2 
 PCOD9315112
Probable space group: P 21 21 21
;
_chemical_formula_sum "Si O2"
_cell_formula_units_Z 24
_cell_length_a 4.894270
_cell_length_b 7.122982
_cell_length_c 24.620441
_cell_angle_alpha 90.000000
_cell_angle_beta 90.000000
_cell_angle_gamma 90.000000
_cell_volume 858.312819
_symmetry_space_group_name_H-M "P 21 21 21"
_symmetry_group_IT_number 19
_symmetry_cell_setting 'orthorhombic'
loop_
_space_group_symop_operation_xyz
x,y,z
1/2-x,-y,1/2+z
1/2+x,1/2-y,-z
-x,1/2+y,1/2-z
loop_
_atom_site_type_symbol
_atom_site_label
_atom_site_fract_x
_atom_site_fract_y
_atom_site_fract_z
Si Si1 0.727624 0.358896 0.316349
Si Si2 0.053827 0.573561 0.926242
Si Si3 0.098623 0.707526 0.709210
Si Si4 0.463701 0.300847 0.035426
Si Si5 0.359689 0.890970 0.949704
Si Si6 0.415371 0.975656 0.832865
O O1 0.590966 0.332432 0.375491
O O2 0.546534 0.276276 0.267516
O O3 0.702822 0.583585 0.307310
O O4 0.128859 0.413708 0.204173
O O5 0.044519 0.350806 0.919451
O O6 0.343953 0.673915 0.932079
O O7 0.946312 0.603378 0.987809
O O8 0.488435 0.757723 0.818120
O O9 0.871046 0.583110 0.676293
O O10 0.560020 0.508606 0.048726
O O11 0.659646 0.238278 0.984756
O O12 0.488694 0.991846 0.897220
#
# Coordination Sequence:
#
# PCOD9315112 Si02
#       6
#     4   4   4   4   4   4
#     4  12  28  53  84 118 165 218 280 347 419 494
#     4  11  24  44  76 117 155 210 262 331 413 499
#     4  12  30  53  82 119 161 219 284 347 412 494
#     4  10  23  43  71 108 160 210 257 319 400 492
#     4  11  24  44  76 115 162 202 262 331 415 499
#     4  12  29  51  83 119 163 215 273 343 421 496
#
# _framework density 27.961832000000001
#
# number of rings (size 3 to 8) (size 9 to 14) (size 15 to 20)
#    0.000    0.667    1.667    4.000    2.333   14.667 
#    0.000    0.000    0.000    0.000    0.000    0.000 
#    0.000    0.000    0.000    0.000    0.000    0.000 
#
# Total GULP energy -134154.256298 kJ/mol
# GULP energy per Si atom -5589.760679 kJ/mol
# Density = 2.789819 g / cm^3
# Si number density = 27.961832 Si / 1000 Ang^3
#
#
#
# Elastic Constant Matrix: (Units=GPa)
#
#
# Indices 1 2 3 4 5 6 
#
# 1 77.1261 39.0749 22.7488 0.0000 0.0000 0.0000
# 2 39.0749 189.7602 50.5623 0.0000 0.0000 0.0000
# 3 22.7488 50.5623 175.0313 0.0000 0.0000 0.0000
# 4 0.0000 0.0000 0.0000 53.8708 0.0000 0.0000
# 5 0.0000 0.0000 0.0000 0.0000 39.8287 0.0000
# 6 0.0000 0.0000 0.0000 0.0000 0.0000 53.5050
#
#
#
# Elastic Compliance Matrix: (Units=1/GPa)
#
#
# Indices 1 2 3 4 5 6 
#
# 1 0.014676 -0.002723 -0.001121 0.000000 0.000000 0.000000
# 2 -0.002723 0.006215 -0.001441 0.000000 0.000000 0.000000
# 3 -0.001121 -0.001441 0.006275 0.000000 0.000000 0.000000
# 4 0.000000 0.000000 0.000000 0.018563 0.000000 0.000000
# 5 0.000000 0.000000 0.000000 0.000000 0.025108 0.000000
# 6 0.000000 0.000000 0.000000 0.000000 0.000000 0.018690
#
#
# Mechanical properties :
#
#
# Convention : Reuss Voigt Hill
#
# Bulk Modulus (GPa) = 60.25859 74.07662 67.16760
# Shear Modulus (GPa) = 47.33547 51.40966 49.37257
#
# Velocity S-wave (km/s) = 4.11890 4.29250 4.20660
# Velocity P-wave (km/s) = 6.64963 7.14961 6.90415
#
# Compressibility (1/GPa) = 0.01659514
#
# Stress axis : x y z
#
# Youngs Moduli (GPa) = 68.13780 160.91005 159.35544
#
# Poissons Ratio (x) = 0.43823 0.17859
# Poissons Ratio (y) = 0.18557 0.22968
# Poissons Ratio (z) = 0.07636 0.23192
#
# Static dielectric constant tensor:
#      x y z
#    x 2.212910 0.000000 0.000000 
#    y 0.000000 2.244280 0.000000 
#    z 0.000000 0.000000 2.169540 
# 
# From -- ./inp_files/7251.got.cif
#   From: 2010.05.17/outbox.cif.g08.bks.cpg/sg19_4_cif.got.tgz:7251.got - 2010.06.03 22:46:19.
