data_PCOD9315081
_publ_section_title
;
Structure prediction by ZEFSAII (Michael W. Deem and Ramdas Pophale) SiO2 
 PCOD9315081
Probable space group: P 21 21 21
;
_chemical_formula_sum "Si O2"
_cell_formula_units_Z 28
_cell_length_a 9.459199
_cell_length_b 10.908032
_cell_length_c 11.217587
_cell_angle_alpha 90.000000
_cell_angle_beta 90.000000
_cell_angle_gamma 90.000000
_cell_volume 1157.444597
_symmetry_space_group_name_H-M "P 21 21 21"
_symmetry_group_IT_number 19
_symmetry_cell_setting 'orthorhombic'
loop_
_space_group_symop_operation_xyz
x,y,z
1/2-x,-y,1/2+z
1/2+x,1/2-y,-z
-x,1/2+y,1/2-z
loop_
_atom_site_type_symbol
_atom_site_label
_atom_site_fract_x
_atom_site_fract_y
_atom_site_fract_z
Si Si1 0.684625 0.016289 0.055371
Si Si2 0.836866 0.552751 0.369018
Si Si3 0.791594 0.701967 0.590352
Si Si4 0.002360 0.927052 0.328622
Si Si5 0.914428 0.340575 0.555311
Si Si6 0.133062 0.296857 0.390129
Si Si7 0.955482 0.521164 0.753944
O O1 0.723134 0.153187 0.097254
O O2 0.582341 0.960745 0.156367
O O3 0.816961 0.926664 0.052817
O O4 0.603793 0.029318 0.930333
O O5 0.845542 0.666839 0.457979
O O6 0.940198 0.537291 0.256195
O O7 0.866821 0.436635 0.454158
O O8 0.678089 0.533590 0.324171
O O9 0.642501 0.634292 0.614430
O O10 0.901373 0.641949 0.684312
O O11 0.928654 0.831438 0.238073
O O12 0.771910 0.284933 0.608814
O O13 0.991476 0.417432 0.657275
O O14 0.015529 0.248803 0.482858
#
# Coordination Sequence:
#
# PCOD9315081 Si02
#       7
#     4   4   4   4   4   4   4
#     4  12  27  44  73 113 146 189 251 319 366 446
#     4   9  20  46  69 104 138 192 245 290 364 448
#     4  10  23  46  74 104 148 194 249 305 378 437
#     4  10  24  47  70 108 144 197 239 312 374 438
#     4  10  25  46  72 102 142 196 238 304 360 447
#     4  11  28  47  71 106 149 188 256 299 376 437
#     4  10  23  42  71 101 141 188 244 291 368 437
#
# _framework density 24.191222
#
# number of rings (size 3 to 8) (size 9 to 14) (size 15 to 20)
#    0.000    1.714    1.429    0.000    8.000    5.714 
#    7.714    0.000    0.000    0.000    0.000    0.000 
#    0.000    0.000    0.000    0.000    0.000    0.000 
#
# Total GULP energy -156860.423457 kJ/mol
# GULP energy per Si atom -5602.157981 kJ/mol
# Density = 2.413616 g / cm^3
# Si number density = 24.191222 Si / 1000 Ang^3
#
#
#
# Elastic Constant Matrix: (Units=GPa)
#
#
# Indices 1 2 3 4 5 6 
#
# 1 82.8679 8.8215 55.8174 0.0000 0.0000 0.0000
# 2 8.8215 81.4897 19.8973 0.0000 0.0000 0.0000
# 3 55.8174 19.8973 143.2369 0.0000 0.0000 0.0000
# 4 0.0000 0.0000 0.0000 20.6613 0.0000 0.0000
# 5 0.0000 0.0000 0.0000 0.0000 46.9626 0.0000
# 6 0.0000 0.0000 0.0000 0.0000 0.0000 30.1265
#
#
#
# Elastic Compliance Matrix: (Units=1/GPa)
#
#
# Indices 1 2 3 4 5 6 
#
# 1 0.016366 -0.000222 -0.006347 0.000000 0.000000 0.000000
# 2 -0.000222 0.012705 -0.001678 0.000000 0.000000 0.000000
# 3 -0.006347 -0.001678 0.009688 0.000000 0.000000 0.000000
# 4 0.000000 0.000000 0.000000 0.048400 0.000000 0.000000
# 5 0.000000 0.000000 0.000000 0.000000 0.021294 0.000000
# 6 0.000000 0.000000 0.000000 0.000000 0.000000 0.033193
#
#
# Mechanical properties :
#
#
# Convention : Reuss Voigt Hill
#
# Bulk Modulus (GPa) = 44.91385 52.96302 48.93843
# Shear Modulus (GPa) = 30.20020 34.42062 32.31041
#
# Velocity S-wave (km/s) = 3.53710 3.77617 3.65859
# Velocity P-wave (km/s) = 5.94036 6.39950 6.17420
#
# Compressibility (1/GPa) = 0.02226485
#
# Stress axis : x y z
#
# Youngs Moduli (GPa) = 61.10214 78.70710 103.22215
#
# Poissons Ratio (x) = 0.01747 0.65513
# Poissons Ratio (y) = 0.01356 0.17325
# Poissons Ratio (z) = 0.38780 0.13210
#
# Static dielectric constant tensor:
#      x y z
#    x 1.875820 0.000000 0.000000 
#    y 0.000000 1.951350 0.000000 
#    z 0.000000 0.000000 1.910810 
# 
# From -- ./inp_files/4603.got.cif
#   From: 2010.05.17/outbox.cif.g08.bks.cpg/sg19_3_cif.got.tgz:4603.got - 2010.06.03 22:46:19.
