data_PCOD9315161
_publ_section_title
;
Structure prediction by ZEFSAII (Michael W. Deem and Ramdas Pophale) SiO2 
 PCOD9315161
Probable space group: P 21 21 21
;
_chemical_formula_sum "Si O2"
_cell_formula_units_Z 32
_cell_length_a 9.689936
_cell_length_b 20.774296
_cell_length_c 6.953601
_cell_angle_alpha 90.000000
_cell_angle_beta 90.000000
_cell_angle_gamma 90.000000
_cell_volume 1399.770998
_symmetry_space_group_name_H-M "P 21 21 21"
_symmetry_group_IT_number 19
_symmetry_cell_setting 'orthorhombic'
loop_
_space_group_symop_operation_xyz
x,y,z
1/2-x,-y,1/2+z
1/2+x,1/2-y,-z
-x,1/2+y,1/2-z
loop_
_atom_site_type_symbol
_atom_site_label
_atom_site_fract_x
_atom_site_fract_y
_atom_site_fract_z
Si Si1 0.223933 0.907364 0.826277
Si Si2 0.639614 0.802842 0.335821
Si Si3 0.809357 0.278100 0.487390
Si Si4 0.366962 0.528068 0.750817
Si Si5 0.428771 0.451509 0.111782
Si Si6 0.947882 0.863954 0.984248
Si Si7 0.363793 0.723178 0.346490
Si Si8 0.403357 0.009507 0.050203
O O1 0.305526 0.068924 0.111214
O O2 0.325468 0.956859 0.924355
O O3 0.256199 0.832928 0.871891
O O4 0.677521 0.785775 0.115020
O O5 0.589256 0.875098 0.370644
O O6 0.513683 0.753717 0.384597
O O7 0.771122 0.789700 0.469559
O O8 0.719704 0.269852 0.298713
O O9 0.964713 0.302569 0.439295
O O10 0.211994 0.514100 0.686814
O O11 0.465995 0.534297 0.568338
O O12 0.431468 0.474284 0.891259
O O13 0.362328 0.595699 0.865069
O O14 0.547902 0.473229 0.256717
O O15 0.881720 0.840818 0.785143
O O16 0.074910 0.910862 0.930784
#
# Coordination Sequence:
#
# PCOD9315161 Si02
#       8
#     4   4   4   4   4   4   4   4
#     4  10  23  44  71 100 136 181 231 293 348 415
#     4  11  27  43  73 105 137 196 241 286 363 420
#     4   9  22  46  67  98 141 178 236 293 343 411
#     4  12  25  43  69 101 143 191 227 293 361 427
#     4  12  26  43  66 108 143 183 238 293 356 429
#     4   9  22  44  68  95 138 181 229 285 352 405
#     4  11  24  46  70 103 142 181 240 294 349 433
#     4  12  25  45  72 102 142 177 240 285 364 424
#
# _framework density 22.860880999999999
#
# number of rings (size 3 to 8) (size 9 to 14) (size 15 to 20)
#    0.750    0.500    2.500    2.250    3.500    6.000 
#    0.000    0.000    0.000    0.000    0.000    0.000 
#    0.000    0.000    0.000    0.000    0.000    0.000 
#
# Total GULP energy -178777.770176 kJ/mol
# GULP energy per Si atom -5586.805318 kJ/mol
# Density = 2.280885 g / cm^3
# Si number density = 22.860881 Si / 1000 Ang^3
#
#
#
# Elastic Constant Matrix: (Units=GPa)
#
#
# Indices 1 2 3 4 5 6 
#
# 1 47.4672 -11.3441 24.2464 0.0000 0.0000 0.0000
# 2 -11.3441 80.7451 10.0749 0.0000 0.0000 0.0000
# 3 24.2464 10.0749 58.1934 0.0000 0.0000 0.0000
# 4 0.0000 0.0000 0.0000 22.5421 0.0000 0.0000
# 5 0.0000 0.0000 0.0000 0.0000 52.7132 0.0000
# 6 0.0000 0.0000 0.0000 0.0000 0.0000 24.3023
#
#
#
# Elastic Compliance Matrix: (Units=1/GPa)
#
#
# Indices 1 2 3 4 5 6 
#
# 1 0.029148 0.005734 -0.013138 0.000000 0.000000 0.000000
# 2 0.005734 0.013786 -0.004776 0.000000 0.000000 0.000000
# 3 -0.013138 -0.004776 0.023485 0.000000 0.000000 0.000000
# 4 0.000000 0.000000 0.000000 0.044361 0.000000 0.000000
# 5 0.000000 0.000000 0.000000 0.000000 0.018971 0.000000
# 6 0.000000 0.000000 0.000000 0.000000 0.000000 0.041148
#
#
# Mechanical properties :
#
#
# Convention : Reuss Voigt Hill
#
# Bulk Modulus (GPa) = 23.77502 25.81778 24.79640
# Shear Modulus (GPa) = 23.89163 30.80676 27.34920
#
# Velocity S-wave (km/s) = 3.23629 3.67492 3.46256
# Velocity P-wave (km/s) = 4.93834 5.41522 5.18227
#
# Compressibility (1/GPa) = 0.04206096
#
# Stress axis : x y z
#
# Youngs Moduli (GPa) = 34.30726 72.53629 42.58088
#
# Poissons Ratio (x) = -0.41595 0.55941
# Poissons Ratio (y) = -0.19673 0.20337
# Poissons Ratio (z) = 0.45071 0.34643
#
# Static dielectric constant tensor:
#      x y z
#    x 1.869540 0.000000 0.000000 
#    y 0.000000 1.892610 0.000000 
#    z 0.000000 0.000000 1.837470 
# 
# From -- ./inp_files/1234.got.cif
#   From: 2010.05.17/outbox.cif.g08.bks.cpg/sg19_1_cif.got.tgz:1234.got - 2010.06.03 22:46:19.
