data_PCOD9315867
_publ_section_title
;
Structure prediction by ZEFSAII (Michael W. Deem and Ramdas Pophale) SiO2 
 PCOD9315867
Probable space group: P 21 21 21
;
_chemical_formula_sum "Si O2"
_cell_formula_units_Z 20
_cell_length_a 11.452571
_cell_length_b 9.011091
_cell_length_c 7.486050
_cell_angle_alpha 90.000000
_cell_angle_beta 90.000000
_cell_angle_gamma 90.000000
_cell_volume 772.561554
_symmetry_space_group_name_H-M "P 21 21 21"
_symmetry_group_IT_number 19
_symmetry_cell_setting 'orthorhombic'
loop_
_space_group_symop_operation_xyz
x,y,z
1/2-x,-y,1/2+z
1/2+x,1/2-y,-z
-x,1/2+y,1/2-z
loop_
_atom_site_type_symbol
_atom_site_label
_atom_site_fract_x
_atom_site_fract_y
_atom_site_fract_z
Si Si1 0.052135 0.535644 0.732263
Si Si2 0.840532 0.722720 0.820912
Si Si3 0.042185 0.499754 0.122721
Si Si4 0.833573 0.281522 0.010396
Si Si5 0.352293 0.784215 0.773778
O O1 0.918725 0.590767 0.739577
O O2 0.937387 0.393611 0.051899
O O3 0.074176 0.365822 0.682470
O O4 0.117902 0.639791 0.593865
O O5 0.732598 0.754795 0.693584
O O6 0.808110 0.694810 0.025205
O O7 0.124377 0.388694 0.230145
O O8 0.975749 0.628138 0.229164
O O9 0.097040 0.557260 0.937206
O O10 0.735357 0.344538 0.874731
#
# Coordination Sequence:
#
# PCOD9315867 Si02
#       5
#     4   4   4   4   4
#     4  11  24  50  71 106 158 189 252 309 378 439
#     4  11  27  46  76 109 145 210 245 316 380 444
#     4  11  27  51  74 113 151 203 240 320 383 438
#     4  12  26  48  77 109 153 194 263 301 374 456
#     4  11  28  47  78 109 151 194 254 310 377 451
#
# _framework density 25.887906000000001
#
# number of rings (size 3 to 8) (size 9 to 14) (size 15 to 20)
#    0.000    0.800    4.000    0.000   14.000    3.200 
#    0.000    0.000    0.000    0.000    0.000    0.000 
#    0.000    0.000    0.000    0.000    0.000    0.000 
#
# Total GULP energy -112228.601234 kJ/mol
# GULP energy per Si atom -5611.430062 kJ/mol
# Density = 2.582898 g / cm^3
# Si number density = 25.887906 Si / 1000 Ang^3
#
#
#
# Elastic Constant Matrix: (Units=GPa)
#
#
# Indices 1 2 3 4 5 6 
#
# 1 76.5573 18.9400 57.9354 0.0000 0.0000 0.0000
# 2 18.9400 87.3321 20.2405 0.0000 0.0000 0.0000
# 3 57.9354 20.2405 174.6731 0.0000 0.0000 0.0000
# 4 0.0000 0.0000 0.0000 46.9691 0.0000 0.0000
# 5 0.0000 0.0000 0.0000 0.0000 59.6793 0.0000
# 6 0.0000 0.0000 0.0000 0.0000 0.0000 36.8829
#
#
#
# Elastic Compliance Matrix: (Units=1/GPa)
#
#
# Indices 1 2 3 4 5 6 
#
# 1 0.017991 -0.002588 -0.005667 0.000000 0.000000 0.000000
# 2 -0.002588 0.012139 -0.000548 0.000000 0.000000 0.000000
# 3 -0.005667 -0.000548 0.007668 0.000000 0.000000 0.000000
# 4 0.000000 0.000000 0.000000 0.021291 0.000000 0.000000
# 5 0.000000 0.000000 0.000000 0.000000 0.016756 0.000000
# 6 0.000000 0.000000 0.000000 0.000000 0.000000 0.027113
#
#
# Mechanical properties :
#
#
# Convention : Reuss Voigt Hill
#
# Bulk Modulus (GPa) = 49.52762 59.19939 54.36351
# Shear Modulus (GPa) = 39.27850 44.80270 42.04060
#
# Velocity S-wave (km/s) = 3.89942 4.16461 4.03419
# Velocity P-wave (km/s) = 6.28069 6.78547 6.53795
#
# Compressibility (1/GPa) = 0.02019075
#
# Stress axis : x y z
#
# Youngs Moduli (GPa) = 55.58237 82.37969 130.40774
#
# Poissons Ratio (x) = 0.21323 0.73907
# Poissons Ratio (y) = 0.14387 0.07148
# Poissons Ratio (z) = 0.31501 0.04515
#
# Static dielectric constant tensor:
#      x y z
#    x 2.016790 0.000000 0.000000 
#    y 0.000000 2.038740 0.000000 
#    z 0.000000 0.000000 2.028020 
# 
# From -- ./inp_files/2629.got.cif
#   From: 2010.05.17/outbox.cif.g08.bks.cpg/sg19_2_cif.got.tgz:2629.got - 2010.06.03 22:46:19.
