data_PCOD9315852
_publ_section_title
;
Structure prediction by ZEFSAII (Michael W. Deem and Ramdas Pophale) SiO2 
 PCOD9315852
Probable space group: P 21 21 21
;
_chemical_formula_sum "Si O2"
_cell_formula_units_Z 28
_cell_length_a 23.400178
_cell_length_b 9.063977
_cell_length_c 5.535690
_cell_angle_alpha 90.000000
_cell_angle_beta 90.000000
_cell_angle_gamma 90.000000
_cell_volume 1174.112515
_symmetry_space_group_name_H-M "P 21 21 21"
_symmetry_group_IT_number 19
_symmetry_cell_setting 'orthorhombic'
loop_
_space_group_symop_operation_xyz
x,y,z
1/2-x,-y,1/2+z
1/2+x,1/2-y,-z
-x,1/2+y,1/2-z
loop_
_atom_site_type_symbol
_atom_site_label
_atom_site_fract_x
_atom_site_fract_y
_atom_site_fract_z
Si Si1 0.860156 0.253567 0.595758
Si Si2 0.744845 0.583914 0.943011
Si Si3 0.284629 0.480447 0.227306
Si Si4 0.032353 0.570199 0.967790
Si Si5 0.949577 0.776280 0.258032
Si Si6 0.353405 0.733327 0.063610
Si Si7 0.068408 0.044165 0.853358
O O1 0.814484 0.327024 0.413612
O O2 0.817559 0.175677 0.786233
O O3 0.903047 0.384931 0.665110
O O4 0.902584 0.122312 0.524500
O O5 0.762611 0.522430 0.677946
O O6 0.797384 0.685153 0.030679
O O7 0.248398 0.491218 0.475153
O O8 0.330167 0.612941 0.246873
O O9 0.998678 0.550995 0.714545
O O10 0.025498 0.409364 0.085646
O O11 0.998784 0.703965 0.096959
O O12 0.925888 0.632662 0.398682
O O13 0.894667 0.844330 0.125817
O O14 0.395153 0.855042 0.172944
#
# Coordination Sequence:
#
# PCOD9315852 Si02
#       7
#     4   4   4   4   4   4   4
#     4  12  26  46  78 110 154 207 261 324 405 468
#     4  12  27  48  76 115 151 200 261 321 388 470
#     4  12  30  49  72 115 158 200 256 316 393 472
#     4  11  26  46  72 114 144 208 250 336 383 483
#     4  11  25  47  75 104 155 194 263 318 395 462
#     4  11  26  44  74 101 148 195 245 320 384 459
#     4  11  24  48  73 107 146 196 262 319 392 464
#
# _framework density 23.847797
#
# number of rings (size 3 to 8) (size 9 to 14) (size 15 to 20)
#    0.000    0.571    2.857    3.429    6.000    5.714 
#    7.714    0.000    0.000    0.000    0.000    0.000 
#    0.000    0.000    0.000    0.000    0.000    0.000 
#
# Total GULP energy -156351.706501 kJ/mol
# GULP energy per Si atom -5583.989518 kJ/mol
# Density = 2.379352 g / cm^3
# Si number density = 23.847797 Si / 1000 Ang^3
#
#
#
# Elastic Constant Matrix: (Units=GPa)
#
#
# Indices 1 2 3 4 5 6 
#
# 1 126.3113 27.8210 35.4137 0.0000 0.0000 0.0000
# 2 27.8210 99.3419 23.1135 0.0000 0.0000 0.0000
# 3 35.4137 23.1135 74.5335 0.0000 0.0000 0.0000
# 4 0.0000 0.0000 0.0000 30.3117 0.0000 0.0000
# 5 0.0000 0.0000 0.0000 0.0000 22.3637 0.0000
# 6 0.0000 0.0000 0.0000 0.0000 0.0000 54.9664
#
#
#
# Elastic Compliance Matrix: (Units=1/GPa)
#
#
# Indices 1 2 3 4 5 6 
#
# 1 0.009398 -0.001717 -0.003933 0.000000 0.000000 0.000000
# 2 -0.001717 0.011163 -0.002646 0.000000 0.000000 0.000000
# 3 -0.003933 -0.002646 0.016106 0.000000 0.000000 0.000000
# 4 0.000000 0.000000 0.000000 0.032991 0.000000 0.000000
# 5 0.000000 0.000000 0.000000 0.000000 0.044715 0.000000
# 6 0.000000 0.000000 0.000000 0.000000 0.000000 0.018193
#
#
# Mechanical properties :
#
#
# Convention : Reuss Voigt Hill
#
# Bulk Modulus (GPa) = 49.81267 52.54259 51.17763
# Shear Modulus (GPa) = 32.08252 35.78424 33.93338
#
# Velocity S-wave (km/s) = 3.67182 3.87786 3.77625
# Velocity P-wave (km/s) = 6.23774 6.49082 6.36554
#
# Compressibility (1/GPa) = 0.02007522
#
# Stress axis : x y z
#
# Youngs Moduli (GPa) = 106.40866 89.58436 62.08886
#
# Poissons Ratio (x) = 0.15380 0.24418
# Poissons Ratio (y) = 0.18269 0.16428
# Poissons Ratio (z) = 0.41849 0.23703
#
# Static dielectric constant tensor:
#      x y z
#    x 1.917910 0.000000 0.000000 
#    y 0.000000 1.902200 0.000000 
#    z 0.000000 0.000000 1.961790 
# 
# From -- ./inp_files/2129.got.cif
#   From: 2010.05.17/outbox.cif.g08.bks.cpg/sg19_2_cif.got.tgz:2129.got - 2010.06.03 22:46:19.
