data_PCOD9315172
_publ_section_title
;
Structure prediction by ZEFSAII (Michael W. Deem and Ramdas Pophale) SiO2 
 PCOD9315172
Probable space group: P 21 21 21
;
_chemical_formula_sum "Si O2"
_cell_formula_units_Z 32
_cell_length_a 4.843835
_cell_length_b 12.914220
_cell_length_c 18.704364
_cell_angle_alpha 90.000000
_cell_angle_beta 90.000000
_cell_angle_gamma 90.000000
_cell_volume 1170.039348
_symmetry_space_group_name_H-M "P 21 21 21"
_symmetry_group_IT_number 19
_symmetry_cell_setting 'orthorhombic'
loop_
_space_group_symop_operation_xyz
x,y,z
1/2-x,-y,1/2+z
1/2+x,1/2-y,-z
-x,1/2+y,1/2-z
loop_
_atom_site_type_symbol
_atom_site_label
_atom_site_fract_x
_atom_site_fract_y
_atom_site_fract_z
Si Si1 0.081274 0.658788 0.799465
Si Si2 0.309567 0.962745 0.715251
Si Si3 0.666700 0.319299 0.511525
Si Si4 0.826465 0.881696 0.512554
Si Si5 0.814302 0.665452 0.577072
Si Si6 0.474576 0.127080 0.347308
Si Si7 0.838156 0.931300 0.328579
Si Si8 0.524391 0.047281 0.591056
O O1 0.183410 0.661313 0.715682
O O2 0.325088 0.627816 0.855055
O O3 0.881502 0.561703 0.796893
O O4 0.918504 0.756447 0.833627
O O5 0.567319 0.998795 0.761155
O O6 0.413500 0.947490 0.635925
O O7 0.159394 0.887715 0.768970
O O8 0.352817 0.284313 0.502299
O O9 0.789106 0.397148 0.453604
O O10 0.748781 0.362775 0.589493
O O11 0.781582 0.788609 0.568596
O O12 0.638080 0.855971 0.440755
O O13 0.144192 0.877796 0.490591
O O14 0.740813 0.992736 0.539166
O O15 0.628480 0.611750 0.638599
O O16 0.656945 0.025462 0.364177
#
# Coordination Sequence:
#
# PCOD9315172 Si02
#       8
#     4   4   4   4   4   4   4   4
#     4  10  23  46  63  99 141 182 243 303 357 443
#     4  10  25  44  67 100 142 190 243 298 364 442
#     4  12  27  44  74 107 148 197 245 315 379 440
#     4  10  24  42  70 100 143 183 236 300 359 432
#     4  10  23  45  66 106 139 182 239 294 360 432
#     4  11  24  45  72 103 145 193 253 301 383 435
#     4  10  24  41  69 100 136 191 238 299 364 438
#     4  11  24  43  69 103 142 188 249 298 374 438
#
# _framework density 27.349506000000002
#
# number of rings (size 3 to 8) (size 9 to 14) (size 15 to 20)
#    0.000    1.500    1.250    1.500   10.500    2.000 
#    4.500    0.000    0.000    0.000    0.000    0.000 
#    0.000    0.000    0.000    0.000    0.000    0.000 
#
# Total GULP energy -178798.182557 kJ/mol
# GULP energy per Si atom -5587.443205 kJ/mol
# Density = 2.728726 g / cm^3
# Si number density = 27.349506 Si / 1000 Ang^3
#
#
#
# Elastic Constant Matrix: (Units=GPa)
#
#
# Indices 1 2 3 4 5 6 
#
# 1 74.5493 8.8066 -9.4124 0.0000 0.0000 0.0000
# 2 8.8066 107.5458 30.6759 0.0000 0.0000 0.0000
# 3 -9.4124 30.6759 88.4346 0.0000 0.0000 0.0000
# 4 0.0000 0.0000 0.0000 46.3129 0.0000 0.0000
# 5 0.0000 0.0000 0.0000 0.0000 15.4789 0.0000
# 6 0.0000 0.0000 0.0000 0.0000 0.0000 30.1917
#
#
#
# Elastic Compliance Matrix: (Units=1/GPa)
#
#
# Indices 1 2 3 4 5 6 
#
# 1 0.013880 -0.001729 0.002077 0.000000 0.000000 0.000000
# 2 -0.001729 0.010535 -0.003838 0.000000 0.000000 0.000000
# 3 0.002077 -0.003838 0.012860 0.000000 0.000000 0.000000
# 4 0.000000 0.000000 0.000000 0.021592 0.000000 0.000000
# 5 0.000000 0.000000 0.000000 0.000000 0.064604 0.000000
# 6 0.000000 0.000000 0.000000 0.000000 0.000000 0.033122
#
#
# Mechanical properties :
#
#
# Convention : Reuss Voigt Hill
#
# Bulk Modulus (GPa) = 33.00877 36.74110 34.87494
# Shear Modulus (GPa) = 28.78986 34.42734 31.60860
#
# Velocity S-wave (km/s) = 3.24800 3.55179 3.40329
# Velocity P-wave (km/s) = 5.11483 5.50304 5.31248
#
# Compressibility (1/GPa) = 0.03029498
#
# Stress axis : x y z
#
# Youngs Moduli (GPa) = 72.04373 94.92372 77.75874
#
# Poissons Ratio (x) = 0.16413 -0.16152
# Poissons Ratio (y) = 0.12457 0.29846
# Poissons Ratio (z) = -0.14964 0.36435
#
# Static dielectric constant tensor:
#      x y z
#    x 2.176990 0.000000 0.000000 
#    y 0.000000 2.176990 0.000000 
#    z 0.000000 0.000000 2.445140 
# 
# From -- ./inp_files/1999.got.cif
#   From: 2010.05.17/outbox.cif.g08.bks.cpg/sg19_1_cif.got.tgz:1999.got - 2010.06.03 22:46:19.
