data_PCOD9315401
_publ_section_title
;
Structure prediction by ZEFSAII (Michael W. Deem and Ramdas Pophale) SiO2 
 PCOD9315401
Probable space group: P 21 21 21
;
_chemical_formula_sum "Si O2"
_cell_formula_units_Z 20
_cell_length_a 8.772995
_cell_length_b 17.996262
_cell_length_c 5.179250
_cell_angle_alpha 90.000000
_cell_angle_beta 90.000000
_cell_angle_gamma 90.000000
_cell_volume 817.705773
_symmetry_space_group_name_H-M "P 21 21 21"
_symmetry_group_IT_number 19
_symmetry_cell_setting 'orthorhombic'
loop_
_space_group_symop_operation_xyz
x,y,z
1/2-x,-y,1/2+z
1/2+x,1/2-y,-z
-x,1/2+y,1/2-z
loop_
_atom_site_type_symbol
_atom_site_label
_atom_site_fract_x
_atom_site_fract_y
_atom_site_fract_z
Si Si1 0.072352 0.464173 0.971653
Si Si2 0.080219 0.103816 0.360213
Si Si3 0.895907 0.227719 0.493117
Si Si4 0.087251 0.903872 0.024187
Si Si5 0.151435 0.639916 0.503965
O O1 0.047729 0.551801 0.007195
O O2 0.960838 0.430963 0.193343
O O3 0.237166 0.429832 0.026327
O O4 0.023996 0.436959 0.690811
O O5 0.243853 0.073420 0.429864
O O6 0.061551 0.187082 0.467702
O O7 0.020739 0.111516 0.065378
O O8 0.914261 0.314824 0.481512
O O9 0.833100 0.195176 0.758347
O O10 0.811513 0.190244 0.248906
#
# Coordination Sequence:
#
# PCOD9315401 Si02
#       5
#     4   4   4   4   4
#     4  12  27  44  73 106 146 186 239 297 364 429
#     4  10  28  44  75 100 150 183 243 287 365 424
#     4  10  25  43  72 100 139 187 240 290 348 425
#     4  12  27  45  71 105 149 185 240 298 369 421
#     4  10  25  42  73  97 140 181 244 284 354 417
#
# _framework density 24.458674999999999
#
# number of rings (size 3 to 8) (size 9 to 14) (size 15 to 20)
#    1.200    0.000    0.000    3.600   14.000    0.000 
#    0.000    0.000    0.000    0.000    0.000    0.000 
#    0.000    0.000    0.000    0.000    0.000    0.000 
#
# Total GULP energy -111874.399354 kJ/mol
# GULP energy per Si atom -5593.719968 kJ/mol
# Density = 2.440301 g / cm^3
# Si number density = 24.458675 Si / 1000 Ang^3
#
#
#
# Elastic Constant Matrix: (Units=GPa)
#
#
# Indices 1 2 3 4 5 6 
#
# 1 73.9090 13.2704 5.7303 0.0000 0.0000 0.0000
# 2 13.2704 140.0507 38.8433 0.0000 0.0000 0.0000
# 3 5.7303 38.8433 120.3631 0.0000 0.0000 0.0000
# 4 0.0000 0.0000 0.0000 34.2698 0.0000 0.0000
# 5 0.0000 0.0000 0.0000 0.0000 32.0590 0.0000
# 6 0.0000 0.0000 0.0000 0.0000 0.0000 32.0576
#
#
#
# Elastic Compliance Matrix: (Units=1/GPa)
#
#
# Indices 1 2 3 4 5 6 
#
# 1 0.013772 -0.001233 -0.000258 0.000000 0.000000 0.000000
# 2 -0.001233 0.007953 -0.002508 0.000000 0.000000 0.000000
# 3 -0.000258 -0.002508 0.009130 0.000000 0.000000 0.000000
# 4 0.000000 0.000000 0.000000 0.029180 0.000000 0.000000
# 5 0.000000 0.000000 0.000000 0.000000 0.031192 0.000000
# 6 0.000000 0.000000 0.000000 0.000000 0.000000 0.031194
#
#
# Mechanical properties :
#
#
# Convention : Reuss Voigt Hill
#
# Bulk Modulus (GPa) = 43.75140 50.00120 46.87630
# Shear Modulus (GPa) = 36.22220 38.10922 37.16571
#
# Velocity S-wave (km/s) = 3.85249 3.95157 3.90234
# Velocity P-wave (km/s) = 6.14131 6.42708 6.28582
#
# Compressibility (1/GPa) = 0.02285641
#
# Stress axis : x y z
#
# Youngs Moduli (GPa) = 72.61327 125.74388 109.53205
#
# Poissons Ratio (x) = 0.15510 0.02821
# Poissons Ratio (y) = 0.08957 0.27468
# Poissons Ratio (z) = 0.01870 0.31533
#
# Static dielectric constant tensor:
#      x y z
#    x 1.993690 0.000000 0.000000 
#    y 0.000000 1.911080 0.000000 
#    z 0.000000 0.000000 1.936400 
# 
# From -- ./inp_files/352.got.cif
#   From: 2010.05.17/outbox.cif.g08.bks.cpg/sg19_1_cif.got.tgz:352.got - 2010.06.03 22:46:19.
