data_PCOD9315674
_publ_section_title
;
Structure prediction by ZEFSAII (Michael W. Deem and Ramdas Pophale) SiO2 
 PCOD9315674
Probable space group: P 21 21 21
;
_chemical_formula_sum "Si O2"
_cell_formula_units_Z 32
_cell_length_a 9.210587
_cell_length_b 12.350774
_cell_length_c 13.435313
_cell_angle_alpha 90.000000
_cell_angle_beta 90.000000
_cell_angle_gamma 90.000000
_cell_volume 1528.372703
_symmetry_space_group_name_H-M "P 21 21 21"
_symmetry_group_IT_number 19
_symmetry_cell_setting 'orthorhombic'
loop_
_space_group_symop_operation_xyz
x,y,z
1/2-x,-y,1/2+z
1/2+x,1/2-y,-z
-x,1/2+y,1/2-z
loop_
_atom_site_type_symbol
_atom_site_label
_atom_site_fract_x
_atom_site_fract_y
_atom_site_fract_z
Si Si1 0.769068 0.171205 0.199539
Si Si2 0.436331 0.939661 0.641468
Si Si3 0.895252 0.742629 0.509922
Si Si4 0.769068 0.328795 0.699539
Si Si5 0.337403 0.317773 0.117729
Si Si6 0.895252 0.757371 0.009922
Si Si7 0.563669 0.060339 0.358533
Si Si8 0.662597 0.682227 0.882271
O O1 0.689683 0.235059 0.111514
O O2 0.654737 0.101502 0.263347
O O3 0.834154 0.257044 0.277643
O O4 0.897515 0.095856 0.157946
O O5 0.380067 0.872682 0.545516
O O6 0.345263 0.898498 0.736653
O O7 0.409449 0.065689 0.627449
O O8 0.063335 0.750874 0.540833
O O9 0.824146 0.822902 0.428607
O O10 0.689683 0.264941 0.611514
O O11 0.834154 0.242956 0.777643
O O12 0.897515 0.404144 0.657946
O O13 0.409449 0.434311 0.127449
O O14 0.063335 0.749126 0.040833
O O15 0.880067 0.872682 0.954484
O O16 0.824146 0.677098 0.928607
#
# Coordination Sequence:
#
# PCOD9315674 Si02
#       8
#     4   4   4   4   4   4   4   4
#     4  11  24  43  65  99 134 166 225 270 320 392
#     4  11  25  42  68  98 129 182 213 267 335 383
#     4  11  23  43  65  95 131 169 215 273 318 387
#     4  11  24  43  65  99 134 166 225 270 320 392
#     4  11  25  44  68  94 134 172 218 271 323 391
#     4  11  23  43  65  95 131 169 215 273 318 387
#     4  11  25  42  68  98 129 182 213 267 335 383
#     4  11  25  44  68  94 134 172 218 271 323 391
#
# _framework density 20.937303
#
# number of rings (size 3 to 8) (size 9 to 14) (size 15 to 20)
#    0.000    1.000    5.000    0.750    3.500    0.000 
#    0.000    2.500    0.000    0.000    0.000    0.000 
#    0.000    0.000    0.000    0.000    0.000    0.000 
#
# Total GULP energy -178748.252742 kJ/mol
# GULP energy per Si atom -5585.882898 kJ/mol
# Density = 2.088965 g / cm^3
# Si number density = 20.937303 Si / 1000 Ang^3
#
#
#
# Elastic Constant Matrix: (Units=GPa)
#
#
# Indices 1 2 3 4 5 6 
#
# 1 81.8757 13.8481 16.5123 0.0000 0.0000 0.0000
# 2 13.8481 11.9144 15.3735 0.0000 0.0000 0.0000
# 3 16.5123 15.3735 84.8945 0.0000 0.0000 0.0000
# 4 0.0000 0.0000 0.0000 14.7676 0.0000 0.0000
# 5 0.0000 0.0000 0.0000 0.0000 42.1782 0.0000
# 6 0.0000 0.0000 0.0000 0.0000 0.0000 22.1718
#
#
#
# Elastic Compliance Matrix: (Units=1/GPa)
#
#
# Indices 1 2 3 4 5 6 
#
# 1 0.015209 -0.018086 0.000317 0.000000 0.000000 0.000000
# 2 -0.018086 0.131033 -0.020211 0.000000 0.000000 0.000000
# 3 0.000317 -0.020211 0.015378 0.000000 0.000000 0.000000
# 4 0.000000 0.000000 0.000000 0.067716 0.000000 0.000000
# 5 0.000000 0.000000 0.000000 0.000000 0.023709 0.000000
# 6 0.000000 0.000000 0.000000 0.000000 0.000000 0.045102
#
#
# Mechanical properties :
#
#
# Convention : Reuss Voigt Hill
#
# Bulk Modulus (GPa) = 11.67422 30.01693 20.84557
# Shear Modulus (GPa) = 12.41746 24.68690 18.55218
#
# Velocity S-wave (km/s) = 2.43796 3.43751 2.97994
# Velocity P-wave (km/s) = 3.67597 5.48844 4.67096
#
# Compressibility (1/GPa) = 0.08565886
#
# Stress axis : x y z
#
# Youngs Moduli (GPa) = 65.75176 7.63169 65.02949
#
# Poissons Ratio (x) = 0.13803 -0.02062
# Poissons Ratio (y) = 1.18920 1.31430
# Poissons Ratio (z) = -0.02085 0.15424
#
# Static dielectric constant tensor:
#      x y z
#    x 1.777610 0.000000 0.000000 
#    y 0.000000 1.709720 0.000000 
#    z 0.000000 0.000000 1.754950 
# 
# From -- ./inp_files/5921.got.cif
#   From: 2010.05.17/outbox.cif.g08.bks.cpg/sg19_3_cif.got.tgz:5921.got - 2010.06.03 22:46:19.
