data_PCOD9315903
_publ_section_title
;
Structure prediction by ZEFSAII (Michael W. Deem and Ramdas Pophale) SiO2 
 PCOD9315903
Probable space group: P 21 21 21
;
_chemical_formula_sum "Si O2"
_cell_formula_units_Z 20
_cell_length_a 8.367446
_cell_length_b 7.714926
_cell_length_c 11.134665
_cell_angle_alpha 90.000000
_cell_angle_beta 90.000000
_cell_angle_gamma 90.000000
_cell_volume 718.789689
_symmetry_space_group_name_H-M "P 21 21 21"
_symmetry_group_IT_number 19
_symmetry_cell_setting 'orthorhombic'
loop_
_space_group_symop_operation_xyz
x,y,z
1/2-x,-y,1/2+z
1/2+x,1/2-y,-z
-x,1/2+y,1/2-z
loop_
_atom_site_type_symbol
_atom_site_label
_atom_site_fract_x
_atom_site_fract_y
_atom_site_fract_z
Si Si1 0.079045 0.863905 0.526899
Si Si2 0.244220 0.500789 0.547594
Si Si3 0.827839 0.843916 0.188959
Si Si4 0.181452 0.978432 0.178086
Si Si5 0.122973 0.342874 0.734872
O O1 0.151186 0.674987 0.500858
O O2 0.230774 0.985493 0.551694
O O3 0.935360 0.927114 0.443696
O O4 0.002373 0.855944 0.661778
O O5 0.275654 0.379312 0.428341
O O6 0.091107 0.373889 0.597013
O O7 0.823152 0.657216 0.248379
O O8 0.745312 0.988426 0.279604
O O9 0.007475 0.899981 0.167481
O O10 0.282710 0.833521 0.248587
#
# Coordination Sequence:
#
# PCOD9315903 Si02
#       5
#     4   4   4   4   4
#     4  11  25  47  80 112 161 201 266 332 395 478
#     4  11  25  48  74 116 151 211 267 320 402 478
#     4  11  25  47  71 108 152 200 264 317 389 478
#     4  12  24  47  73 106 156 203 251 330 396 459
#     4  11  25  47  74 110 160 201 258 327 396 463
#
# _framework density 27.824548
#
# number of rings (size 3 to 8) (size 9 to 14) (size 15 to 20)
#    0.000    0.800    4.000    2.400    2.800    1.600 
#   10.800    0.000    0.000    0.000    0.000    0.000 
#    0.000    0.000    0.000    0.000    0.000    0.000 
#
# Total GULP energy -111708.836448 kJ/mol
# GULP energy per Si atom -5585.441822 kJ/mol
# Density = 2.776122 g / cm^3
# Si number density = 27.824548 Si / 1000 Ang^3
#
#
#
# Elastic Constant Matrix: (Units=GPa)
#
#
# Indices 1 2 3 4 5 6 
#
# 1 136.0076 53.8663 35.7535 0.0000 0.0000 0.0000
# 2 53.8663 189.0203 32.6114 0.0000 0.0000 0.0000
# 3 35.7535 32.6114 88.4276 0.0000 0.0000 0.0000
# 4 0.0000 0.0000 0.0000 27.0422 0.0000 0.0000
# 5 0.0000 0.0000 0.0000 0.0000 42.1417 0.0000
# 6 0.0000 0.0000 0.0000 0.0000 0.0000 54.5037
#
#
#
# Elastic Compliance Matrix: (Units=1/GPa)
#
#
# Indices 1 2 3 4 5 6 
#
# 1 0.008913 -0.002048 -0.002848 0.000000 0.000000 0.000000
# 2 -0.002048 0.006121 -0.001429 0.000000 0.000000 0.000000
# 3 -0.002848 -0.001429 0.012987 0.000000 0.000000 0.000000
# 4 0.000000 0.000000 0.000000 0.036979 0.000000 0.000000
# 5 0.000000 0.000000 0.000000 0.000000 0.023729 0.000000
# 6 0.000000 0.000000 0.000000 0.000000 0.000000 0.018347
#
#
# Mechanical properties :
#
#
# Convention : Reuss Voigt Hill
#
# Bulk Modulus (GPa) = 65.06468 73.10200 69.08334
# Shear Modulus (GPa) = 40.04775 44.15248 42.10012
#
# Velocity S-wave (km/s) = 3.79792 3.98781 3.89402
# Velocity P-wave (km/s) = 6.53199 6.89442 6.71565
#
# Compressibility (1/GPa) = 0.01536932
#
# Stress axis : x y z
#
# Youngs Moduli (GPa) = 112.20141 163.37858 76.99853
#
# Poissons Ratio (x) = 0.33468 0.21930
# Poissons Ratio (y) = 0.22984 0.11003
# Poissons Ratio (z) = 0.31956 0.23347
#
# Static dielectric constant tensor:
#      x y z
#    x 2.234070 0.000000 0.000000 
#    y 0.000000 2.231800 0.000000 
#    z 0.000000 0.000000 2.406190 
# 
# From -- ./inp_files/5820.got.cif
#   From: 2010.05.17/outbox.cif.g08.bks.cpg/sg19_3_cif.got.tgz:5820.got - 2010.06.03 22:46:19.
