data_PCOD9315111
_publ_section_title
;
Structure prediction by ZEFSAII (Michael W. Deem and Ramdas Pophale) SiO2 
 PCOD9315111
Probable space group: P 21 21 21
;
_chemical_formula_sum "Si O2"
_cell_formula_units_Z 24
_cell_length_a 11.199203
_cell_length_b 13.921259
_cell_length_c 6.288458
_cell_angle_alpha 90.000000
_cell_angle_beta 90.000000
_cell_angle_gamma 90.000000
_cell_volume 980.414656
_symmetry_space_group_name_H-M "P 21 21 21"
_symmetry_group_IT_number 19
_symmetry_cell_setting 'orthorhombic'
loop_
_space_group_symop_operation_xyz
x,y,z
1/2-x,-y,1/2+z
1/2+x,1/2-y,-z
-x,1/2+y,1/2-z
loop_
_atom_site_type_symbol
_atom_site_label
_atom_site_fract_x
_atom_site_fract_y
_atom_site_fract_z
Si Si1 0.429532 0.466746 0.598979
Si Si2 0.781505 0.514129 0.467800
Si Si3 0.506245 0.019515 0.314282
Si Si4 0.057499 0.679221 0.454141
Si Si5 0.809671 0.739768 0.406862
Si Si6 0.685801 0.111473 0.567843
O O1 0.526145 0.506930 0.433049
O O2 0.462792 0.371034 0.725234
O O3 0.312322 0.438062 0.467052
O O4 0.385137 0.547593 0.759767
O O5 0.758586 0.478086 0.222576
O O6 0.900532 0.453661 0.528752
O O7 0.794458 0.626562 0.415973
O O8 0.611760 0.094836 0.353194
O O9 0.542512 0.911774 0.388576
O O10 0.193202 0.715789 0.476056
O O11 0.947319 0.752171 0.488015
O O12 0.803866 0.784474 0.169818
#
# Coordination Sequence:
#
# PCOD9315111 Si02
#       6
#     4   4   4   4   4   4
#     4  11  20  41  70 105 149 184 239 323 400 445
#     4  11  29  52  74 105 159 214 259 315 398 486
#     4  10  23  43  71 104 146 195 244 318 392 459
#     4  10  24  44  67 104 150 192 250 321 375 468
#     4  11  25  47  72 110 147 197 268 316 389 467
#     4  11  21  39  70 108 137 186 248 315 382 455
#
# _framework density 24.479438999999999
#
# number of rings (size 3 to 8) (size 9 to 14) (size 15 to 20)
#    0.000    1.333    3.333    1.000    9.333    1.333 
#    3.000    0.000    0.000    0.000    0.000    0.000 
#    0.000    0.000    0.000    0.000    0.000    0.000 
#
# Total GULP energy -133633.408554 kJ/mol
# GULP energy per Si atom -5568.058690 kJ/mol
# Density = 2.442372 g / cm^3
# Si number density = 24.479439 Si / 1000 Ang^3
#
#
#
# Elastic Constant Matrix: (Units=GPa)
#
#
# Indices 1 2 3 4 5 6 
#
# 1 77.9620 10.7532 59.4711 0.0000 0.0000 0.0000
# 2 10.7532 57.8923 33.6654 0.0000 0.0000 0.0000
# 3 59.4711 33.6654 146.4119 0.0000 0.0000 0.0000
# 4 0.0000 0.0000 0.0000 35.7684 0.0000 0.0000
# 5 0.0000 0.0000 0.0000 0.0000 50.3334 0.0000
# 6 0.0000 0.0000 0.0000 0.0000 0.0000 26.5818
#
#
#
# Elastic Compliance Matrix: (Units=1/GPa)
#
#
# Indices 1 2 3 4 5 6 
#
# 1 0.018644 0.001086 -0.007823 0.000000 0.000000 0.000000
# 2 0.001086 0.020003 -0.005041 0.000000 0.000000 0.000000
# 3 -0.007823 -0.005041 0.011167 0.000000 0.000000 0.000000
# 4 0.000000 0.000000 0.000000 0.027958 0.000000 0.000000
# 5 0.000000 0.000000 0.000000 0.000000 0.019868 0.000000
# 6 0.000000 0.000000 0.000000 0.000000 0.000000 0.037620
#
#
# Mechanical properties :
#
#
# Convention : Reuss Voigt Hill
#
# Bulk Modulus (GPa) = 38.08195 54.44953 46.26574
# Shear Modulus (GPa) = 29.83887 34.42850 32.13368
#
# Velocity S-wave (km/s) = 3.49511 3.75430 3.62702
# Velocity P-wave (km/s) = 5.64608 6.40970 6.03997
#
# Compressibility (1/GPa) = 0.02625916
#
# Stress axis : x y z
#
# Youngs Moduli (GPa) = 53.63531 49.99282 89.55252
#
# Poissons Ratio (x) = -0.05429 0.70056
# Poissons Ratio (y) = -0.05825 0.45139
# Poissons Ratio (z) = 0.41958 0.25199
#
# Static dielectric constant tensor:
#      x y z
#    x 2.108160 0.000000 0.000000 
#    y 0.000000 1.869060 0.000000 
#    z 0.000000 0.000000 2.032390 
# 
# From -- ./inp_files/946.got.cif
#   From: 2010.05.17/outbox.cif.g08.bks.cpg/sg19_1_cif.got.tgz:946.got - 2010.06.03 22:46:19.
