data_PCOD9315979
_publ_section_title
;
Structure prediction by ZEFSAII (Michael W. Deem and Ramdas Pophale) SiO2 
 PCOD9315979
Probable space group: P 21 21 21
;
_chemical_formula_sum "Si O2"
_cell_formula_units_Z 20
_cell_length_a 5.215757
_cell_length_b 14.332847
_cell_length_c 9.971500
_cell_angle_alpha 90.000000
_cell_angle_beta 90.000000
_cell_angle_gamma 90.000000
_cell_volume 745.435906
_symmetry_space_group_name_H-M "P 21 21 21"
_symmetry_group_IT_number 19
_symmetry_cell_setting 'orthorhombic'
loop_
_space_group_symop_operation_xyz
x,y,z
1/2-x,-y,1/2+z
1/2+x,1/2-y,-z
-x,1/2+y,1/2-z
loop_
_atom_site_type_symbol
_atom_site_label
_atom_site_fract_x
_atom_site_fract_y
_atom_site_fract_z
Si Si1 0.935432 0.900310 0.673630
Si Si2 0.877586 0.022729 0.927800
Si Si3 0.319407 0.813946 0.520816
Si Si4 0.745042 0.720853 0.832056
Si Si5 0.259247 0.653907 0.908085
O O1 0.837248 0.929505 0.525042
O O2 0.824640 0.805166 0.736417
O O3 0.235407 0.872001 0.655383
O O4 0.849266 0.979853 0.779178
O O5 0.102599 0.098709 0.927499
O O6 0.906311 0.928657 0.015286
O O7 0.566376 0.746690 0.511844
O O8 0.463649 0.683838 0.796523
O O9 0.974135 0.646975 0.849350
O O10 0.715372 0.767474 0.978639
#
# Coordination Sequence:
#
# PCOD9315979 Si02
#       5
#     4   4   4   4   4
#     4  11  27  52  83 124 170 218 282 347 423 506
#     4  11  27  52  85 125 166 219 286 353 415 503
#     4  12  28  56  79 118 170 226 273 342 427 510
#     4   9  20  40  69 106 154 200 255 331 405 477
#     4   9  20  40  70 107 150 203 262 327 400 474
#
# _framework density 26.829940000000001
#
# number of rings (size 3 to 8) (size 9 to 14) (size 15 to 20)
#    0.000    1.600    2.000    0.000    5.600    3.200 
#    7.200    0.000    0.000    0.000    0.000    0.000 
#    0.000    0.000    0.000    0.000    0.000    0.000 
#
# Total GULP energy -111527.980255 kJ/mol
# GULP energy per Si atom -5576.399013 kJ/mol
# Density = 2.676887 g / cm^3
# Si number density = 26.829940 Si / 1000 Ang^3
#
#
#
# Elastic Constant Matrix: (Units=GPa)
#
#
# Indices 1 2 3 4 5 6 
#
# 1 139.7649 19.2791 34.1640 0.0000 0.0000 0.0000
# 2 19.2791 87.3595 22.0817 0.0000 0.0000 0.0000
# 3 34.1640 22.0817 117.9454 0.0000 0.0000 0.0000
# 4 0.0000 0.0000 0.0000 46.7401 0.0000 0.0000
# 5 0.0000 0.0000 0.0000 0.0000 36.8894 0.0000
# 6 0.0000 0.0000 0.0000 0.0000 0.0000 40.7280
#
#
#
# Elastic Compliance Matrix: (Units=1/GPa)
#
#
# Indices 1 2 3 4 5 6 
#
# 1 0.007820 -0.001211 -0.002039 0.000000 0.000000 0.000000
# 2 -0.001211 0.012203 -0.001934 0.000000 0.000000 0.000000
# 3 -0.002039 -0.001934 0.009431 0.000000 0.000000 0.000000
# 4 0.000000 0.000000 0.000000 0.021395 0.000000 0.000000
# 5 0.000000 0.000000 0.000000 0.000000 0.027108 0.000000
# 6 0.000000 0.000000 0.000000 0.000000 0.000000 0.024553
#
#
# Mechanical properties :
#
#
# Convention : Reuss Voigt Hill
#
# Bulk Modulus (GPa) = 52.38883 55.12438 53.75660
# Shear Modulus (GPa) = 41.93256 42.84116 42.38686
#
# Velocity S-wave (km/s) = 3.95764 4.00029 3.97903
# Velocity P-wave (km/s) = 6.36023 6.47510 6.41792
#
# Compressibility (1/GPa) = 0.01908804
#
# Stress axis : x y z
#
# Youngs Moduli (GPa) = 127.87468 81.94741 106.03256
#
# Poissons Ratio (x) = 0.09920 0.21615
# Poissons Ratio (y) = 0.15480 0.20507
# Poissons Ratio (z) = 0.26068 0.15849
#
# Static dielectric constant tensor:
#      x y z
#    x 2.189990 0.000000 0.000000 
#    y 0.000000 2.145920 0.000000 
#    z 0.000000 0.000000 2.179470 
# 
# From -- ./inp_files/4415.got.cif
#   From: 2010.05.17/outbox.cif.g08.bks.cpg/sg19_3_cif.got.tgz:4415.got - 2010.06.03 22:46:19.
