data_PCOD9315149
_publ_section_title
;
Structure prediction by ZEFSAII (Michael W. Deem and Ramdas Pophale) SiO2 
 PCOD9315149
Probable space group: P 21 21 21
;
_chemical_formula_sum "Si O2"
_cell_formula_units_Z 32
_cell_length_a 13.067007
_cell_length_b 17.646549
_cell_length_c 5.297963
_cell_angle_alpha 90.000000
_cell_angle_beta 90.000000
_cell_angle_gamma 90.000000
_cell_volume 1221.644463
_symmetry_space_group_name_H-M "P 21 21 21"
_symmetry_group_IT_number 19
_symmetry_cell_setting 'orthorhombic'
loop_
_space_group_symop_operation_xyz
x,y,z
1/2-x,-y,1/2+z
1/2+x,1/2-y,-z
-x,1/2+y,1/2-z
loop_
_atom_site_type_symbol
_atom_site_label
_atom_site_fract_x
_atom_site_fract_y
_atom_site_fract_z
Si Si1 0.477057 0.222927 0.320098
Si Si2 0.740043 0.948915 0.814466
Si Si3 0.333156 0.947931 0.525144
Si Si4 0.763656 0.237549 0.803496
Si Si5 0.396507 0.626030 0.862157
Si Si6 0.520349 0.966349 0.844177
Si Si7 0.601892 0.562316 0.295134
Si Si8 0.683062 0.308929 0.291834
O O1 0.379110 0.275697 0.285590
O O2 0.514130 0.186880 0.587327
O O3 0.444631 0.144939 0.182202
O O4 0.576677 0.266830 0.236326
O O5 0.756578 0.991493 0.550158
O O6 0.624038 0.917581 0.829882
O O7 0.830104 0.890480 0.882352
O O8 0.213684 0.944533 0.584297
O O9 0.337121 0.895466 0.278591
O O10 0.423500 0.924651 0.716839
O O11 0.366380 0.034972 0.482889
O O12 0.690506 0.164612 0.807740
O O13 0.719880 0.290923 0.575175
O O14 0.758566 0.276606 0.076079
O O15 0.441297 0.545429 0.785091
O O16 0.480049 0.001267 0.106278
#
# Coordination Sequence:
#
# PCOD9315149 Si02
#       8
#     4   4   4   4   4   4   4   4
#     4  11  24  48  74 102 142 199 236 294 369 425
#     4  10  23  44  68 104 138 176 236 295 348 428
#     4  12  26  42  69 111 145 185 245 301 367 426
#     4  11  26  47  73 101 142 188 243 292 351 430
#     4  10  23  47  71 102 136 191 241 293 354 439
#     4  11  24  42  73 100 142 191 232 298 371 422
#     4  12  24  42  74 104 146 190 242 297 364 435
#     4  11  28  48  70 108 147 184 245 300 348 441
#
# _framework density 26.194199999999999
#
# number of rings (size 3 to 8) (size 9 to 14) (size 15 to 20)
#    0.000    1.000    3.750    1.500    7.000    6.000 
#   11.250    0.000    0.000    0.000    0.000    0.000 
#    0.000    0.000    0.000    0.000    0.000    0.000 
#
# Total GULP energy -178806.653973 kJ/mol
# GULP energy per Si atom -5587.707937 kJ/mol
# Density = 2.613458 g / cm^3
# Si number density = 26.194200 Si / 1000 Ang^3
#
#
#
# Elastic Constant Matrix: (Units=GPa)
#
#
# Indices 1 2 3 4 5 6 
#
# 1 146.1190 0.2006 8.6452 0.0000 0.0000 0.0000
# 2 0.2006 51.8233 4.7689 0.0000 0.0000 0.0000
# 3 8.6452 4.7689 72.3565 0.0000 0.0000 0.0000
# 4 0.0000 0.0000 0.0000 36.6637 0.0000 0.0000
# 5 0.0000 0.0000 0.0000 0.0000 40.4558 0.0000
# 6 0.0000 0.0000 0.0000 0.0000 0.0000 35.2982
#
#
#
# Elastic Compliance Matrix: (Units=1/GPa)
#
#
# Indices 1 2 3 4 5 6 
#
# 1 0.006893 0.000049 -0.000827 0.000000 0.000000 0.000000
# 2 0.000049 0.019414 -0.001285 0.000000 0.000000 0.000000
# 3 -0.000827 -0.001285 0.014004 0.000000 0.000000 0.000000
# 4 0.000000 0.000000 0.000000 0.027275 0.000000 0.000000
# 5 0.000000 0.000000 0.000000 0.000000 0.024718 0.000000
# 6 0.000000 0.000000 0.000000 0.000000 0.000000 0.028330
#
#
# Mechanical properties :
#
#
# Convention : Reuss Voigt Hill
#
# Bulk Modulus (GPa) = 27.63554 33.05869 30.34712
# Shear Modulus (GPa) = 36.54386 39.59579 38.06982
#
# Velocity S-wave (km/s) = 3.73917 3.89218 3.81644
# Velocity P-wave (km/s) = 5.40509 5.73121 5.57054
#
# Compressibility (1/GPa) = 0.03618528
#
# Stress axis : x y z
#
# Youngs Moduli (GPa) = 145.08339 51.50802 71.40829
#
# Poissons Ratio (x) = -0.00254 0.05904
# Poissons Ratio (y) = -0.00717 0.09179
# Poissons Ratio (z) = 0.11995 0.06621
#
# Static dielectric constant tensor:
#      x y z
#    x 2.077870 0.000000 0.000000 
#    y 0.000000 2.089180 0.000000 
#    z 0.000000 0.000000 2.152920 
# 
# From -- ./inp_files/1190.got.cif
#   From: 2010.05.17/outbox.cif.g08.bks.cpg/sg19_1_cif.got.tgz:1190.got - 2010.06.03 22:46:19.
