data_PCOD9315323
_publ_section_title
;
Structure prediction by ZEFSAII (Michael W. Deem and Ramdas Pophale) SiO2 
 PCOD9315323
Probable space group: P 21 21 21
;
_chemical_formula_sum "Si O2"
_cell_formula_units_Z 24
_cell_length_a 7.728355
_cell_length_b 12.135672
_cell_length_c 11.231847
_cell_angle_alpha 90.000000
_cell_angle_beta 90.000000
_cell_angle_gamma 90.000000
_cell_volume 1053.421243
_symmetry_space_group_name_H-M "P 21 21 21"
_symmetry_group_IT_number 19
_symmetry_cell_setting 'orthorhombic'
loop_
_space_group_symop_operation_xyz
x,y,z
1/2-x,-y,1/2+z
1/2+x,1/2-y,-z
-x,1/2+y,1/2-z
loop_
_atom_site_type_symbol
_atom_site_label
_atom_site_fract_x
_atom_site_fract_y
_atom_site_fract_z
Si Si1 0.764080 0.959142 0.744864
Si Si2 0.608962 0.550654 0.681596
Si Si3 0.097850 0.677437 0.670183
Si Si4 0.156184 0.762250 0.138781
Si Si5 0.602014 0.160469 0.016686
Si Si6 0.740400 0.315647 0.627645
O O1 0.753240 0.850142 0.825546
O O2 0.811907 0.922627 0.611545
O O3 0.572335 0.012233 0.755920
O O4 0.897721 0.049953 0.793149
O O5 0.691093 0.642695 0.765516
O O6 0.554377 0.601505 0.553814
O O7 0.722980 0.442595 0.664114
O O8 0.266143 0.691320 0.586608
O O9 0.130023 0.749587 0.787412
O O10 0.952123 0.731620 0.589165
O O11 0.951764 0.735004 0.143733
O O12 0.206064 0.801166 0.008280
#
# Coordination Sequence:
#
# PCOD9315323 Si02
#       6
#     4   4   4   4   4   4
#     4  10  24  44  75 102 141 185 229 294 354 414
#     4  10  24  46  70 103 139 183 237 294 351 413
#     4  11  26  47  71 106 138 187 240 287 358 418
#     4  11  24  48  70 103 144 185 233 296 350 420
#     4  11  24  47  71 101 142 183 234 289 352 423
#     4  11  26  44  69 103 140 185 241 284 353 424
#
# _framework density 22.782907999999999
#
# number of rings (size 3 to 8) (size 9 to 14) (size 15 to 20)
#    0.000    1.333    3.333    1.000   14.000    0.000 
#    3.000    0.000    0.000    0.000    0.000    0.000 
#    0.000    0.000    0.000    0.000    0.000    0.000 
#
# Total GULP energy -134421.678137 kJ/mol
# GULP energy per Si atom -5600.903256 kJ/mol
# Density = 2.273105 g / cm^3
# Si number density = 22.782908 Si / 1000 Ang^3
#
#
#
# Elastic Constant Matrix: (Units=GPa)
#
#
# Indices 1 2 3 4 5 6 
#
# 1 45.0392 35.5795 24.5821 0.0000 0.0000 0.0000
# 2 35.5795 146.3090 64.9920 0.0000 0.0000 0.0000
# 3 24.5821 64.9920 145.2450 0.0000 0.0000 0.0000
# 4 0.0000 0.0000 0.0000 30.1719 0.0000 0.0000
# 5 0.0000 0.0000 0.0000 0.0000 43.9543 0.0000
# 6 0.0000 0.0000 0.0000 0.0000 0.0000 23.4585
#
#
#
# Elastic Compliance Matrix: (Units=1/GPa)
#
#
# Indices 1 2 3 4 5 6 
#
# 1 0.027992 -0.005869 -0.002111 0.000000 0.000000 0.000000
# 2 -0.005869 0.009761 -0.003374 0.000000 0.000000 0.000000
# 3 -0.002111 -0.003374 0.008752 0.000000 0.000000 0.000000
# 4 0.000000 0.000000 0.000000 0.033143 0.000000 0.000000
# 5 0.000000 0.000000 0.000000 0.000000 0.022751 0.000000
# 6 0.000000 0.000000 0.000000 0.000000 0.000000 0.042629
#
#
# Mechanical properties :
#
#
# Convention : Reuss Voigt Hill
#
# Bulk Modulus (GPa) = 42.02518 65.21115 53.61816
# Shear Modulus (GPa) = 28.46261 33.61291 31.03776
#
# Velocity S-wave (km/s) = 3.53837 3.84520 3.69498
# Velocity P-wave (km/s) = 5.93122 6.95695 6.46446
#
# Compressibility (1/GPa) = 0.02379526
#
# Stress axis : x y z
#
# Youngs Moduli (GPa) = 35.72495 102.44776 114.25764
#
# Poissons Ratio (x) = 0.60129 0.24122
# Poissons Ratio (y) = 0.20968 0.38555
# Poissons Ratio (z) = 0.07542 0.34570
#
# Static dielectric constant tensor:
#      x y z
#    x 1.926900 0.000000 0.000000 
#    y 0.000000 1.829020 0.000000 
#    z 0.000000 0.000000 1.767400 
# 
# From -- ./inp_files/3322.got.cif
#   From: 2010.05.17/outbox.cif.g08.bks.cpg/sg19_2_cif.got.tgz:3322.got - 2010.06.03 22:46:19.
