data_PCOD9315095
_publ_section_title
;
Structure prediction by ZEFSAII (Michael W. Deem and Ramdas Pophale) SiO2 
 PCOD9315095
Probable space group: P 21 21 21
;
_chemical_formula_sum "Si O2"
_cell_formula_units_Z 32
_cell_length_a 9.079003
_cell_length_b 8.731325
_cell_length_c 16.249891
_cell_angle_alpha 90.000000
_cell_angle_beta 90.000000
_cell_angle_gamma 90.000000
_cell_volume 1288.156905
_symmetry_space_group_name_H-M "P 21 21 21"
_symmetry_group_IT_number 19
_symmetry_cell_setting 'orthorhombic'
loop_
_space_group_symop_operation_xyz
x,y,z
1/2-x,-y,1/2+z
1/2+x,1/2-y,-z
-x,1/2+y,1/2-z
loop_
_atom_site_type_symbol
_atom_site_label
_atom_site_fract_x
_atom_site_fract_y
_atom_site_fract_z
Si Si1 0.096567 0.095813 0.527005
Si Si2 0.375428 0.444909 0.093432
Si Si3 0.594695 0.874832 0.898713
Si Si4 0.633342 0.658266 0.094653
Si Si5 0.255009 0.646375 0.767334
Si Si6 0.652501 0.533330 0.872073
Si Si7 0.351095 0.378885 0.900159
Si Si8 0.425390 0.100662 0.798577
O O1 0.220585 0.160473 0.463163
O O2 0.193739 0.995164 0.586379
O O3 0.972769 0.020165 0.471136
O O4 0.993332 0.219646 0.570606
O O5 0.264601 0.588822 0.106937
O O6 0.544733 0.499404 0.090595
O O7 0.338042 0.366284 0.181682
O O8 0.332806 0.387675 0.000127
O O9 0.584573 0.693617 0.908004
O O10 0.495440 0.940472 0.827002
O O11 0.689477 0.713298 0.182269
O O12 0.268548 0.502922 0.836785
O O13 0.421980 0.670420 0.736927
O O14 0.523729 0.416715 0.887314
O O15 0.678617 0.573564 0.778228
O O16 0.342079 0.208112 0.863135
#
# Coordination Sequence:
#
# PCOD9315095 Si02
#       8
#     4   4   4   4   4   4   4   4
#     4  12  21  37  68  95 126 169 227 282 330 395
#     4  11  22  45  66  97 141 181 223 287 348 409
#     4  11  22  42  68  96 128 176 230 276 334 409
#     4  12  22  41  65 100 131 169 231 284 338 401
#     4  10  24  42  68  98 138 180 230 286 343 409
#     4  11  20  37  68  97 124 166 232 275 322 401
#     4  11  22  43  71  97 136 184 222 280 346 412
#     4  10  23  43  66  94 136 181 221 272 353 418
#
# _framework density 24.841691999999998
#
# number of rings (size 3 to 8) (size 9 to 14) (size 15 to 20)
#    0.000    1.000    3.750    5.250    0.000    0.000 
#    9.000    2.500    0.000    0.000    0.000    0.000 
#    0.000    0.000    0.000    0.000    0.000    0.000 
#
# Total GULP energy -178258.504323 kJ/mol
# GULP energy per Si atom -5570.578260 kJ/mol
# Density = 2.478515 g / cm^3
# Si number density = 24.841692 Si / 1000 Ang^3
#
#
#
# Elastic Constant Matrix: (Units=GPa)
#
#
# Indices 1 2 3 4 5 6 
#
# 1 99.4212 15.9147 32.7472 0.0000 0.0000 0.0000
# 2 15.9147 27.3338 21.9772 0.0000 0.0000 0.0000
# 3 32.7472 21.9772 157.9410 0.0000 0.0000 0.0000
# 4 0.0000 0.0000 0.0000 33.6838 0.0000 0.0000
# 5 0.0000 0.0000 0.0000 0.0000 53.1715 0.0000
# 6 0.0000 0.0000 0.0000 0.0000 0.0000 17.6788
#
#
#
# Elastic Compliance Matrix: (Units=1/GPa)
#
#
# Indices 1 2 3 4 5 6 
#
# 1 0.011452 -0.005358 -0.001629 0.000000 0.000000 0.000000
# 2 -0.005358 0.043701 -0.004970 0.000000 0.000000 0.000000
# 3 -0.001629 -0.004970 0.007361 0.000000 0.000000 0.000000
# 4 0.000000 0.000000 0.000000 0.029688 0.000000 0.000000
# 5 0.000000 0.000000 0.000000 0.000000 0.018807 0.000000
# 6 0.000000 0.000000 0.000000 0.000000 0.000000 0.056565
#
#
# Mechanical properties :
#
#
# Convention : Reuss Voigt Hill
#
# Bulk Modulus (GPa) = 25.90707 47.33048 36.61878
# Shear Modulus (GPa) = 24.46730 35.17727 29.82228
#
# Velocity S-wave (km/s) = 3.14176 3.76714 3.46857
# Velocity P-wave (km/s) = 4.85926 6.16571 5.55105
#
# Compressibility (1/GPa) = 0.03859950
#
# Stress axis : x y z
#
# Youngs Moduli (GPa) = 87.31730 22.88303 135.85542
#
# Poissons Ratio (x) = 0.12261 0.22130
# Poissons Ratio (y) = 0.46787 0.67518
# Poissons Ratio (z) = 0.14223 0.11373
#
# Static dielectric constant tensor:
#      x y z
#    x 1.924800 0.000000 0.000000 
#    y 0.000000 2.033450 0.000000 
#    z 0.000000 0.000000 2.227290 
# 
# From -- ./inp_files/5888.got.cif
#   From: 2010.05.17/outbox.cif.g08.bks.cpg/sg19_3_cif.got.tgz:5888.got - 2010.06.03 22:46:19.
