data_PCOD9315243
_publ_section_title
;
Structure prediction by ZEFSAII (Michael W. Deem and Ramdas Pophale) SiO2 
 PCOD9315243
Probable space group: P 21 21 21
;
_chemical_formula_sum "Si O2"
_cell_formula_units_Z 32
_cell_length_a 21.133350
_cell_length_b 5.142886
_cell_length_c 11.675306
_cell_angle_alpha 90.000000
_cell_angle_beta 90.000000
_cell_angle_gamma 90.000000
_cell_volume 1268.947093
_symmetry_space_group_name_H-M "P 21 21 21"
_symmetry_group_IT_number 19
_symmetry_cell_setting 'orthorhombic'
loop_
_space_group_symop_operation_xyz
x,y,z
1/2-x,-y,1/2+z
1/2+x,1/2-y,-z
-x,1/2+y,1/2-z
loop_
_atom_site_type_symbol
_atom_site_label
_atom_site_fract_x
_atom_site_fract_y
_atom_site_fract_z
Si Si1 0.950672 0.324608 0.566160
Si Si2 0.306746 0.557020 0.636942
Si Si3 0.737038 0.687530 0.673916
Si Si4 0.538176 0.706901 0.791278
Si Si5 0.322369 0.280143 0.067261
Si Si6 0.631882 0.350515 0.680785
Si Si7 0.628595 0.151053 0.100383
Si Si8 0.404629 0.762790 0.065754
O O1 0.949565 0.273161 0.427562
O O2 0.921125 0.612490 0.581806
O O3 0.023609 0.282398 0.603810
O O4 0.910010 0.107036 0.633738
O O5 0.283198 0.305711 0.704421
O O6 0.244710 0.740594 0.630188
O O7 0.364170 0.674400 0.709023
O O8 0.334676 0.541311 0.511561
O O9 0.700878 0.822324 0.565066
O O10 0.705857 0.404942 0.653850
O O11 0.811880 0.721110 0.665351
O O12 0.506590 0.960209 0.737639
O O13 0.599813 0.618142 0.720303
O O14 0.359751 0.533144 0.106979
O O15 0.369399 0.037782 0.083329
O O16 0.595437 0.244680 0.572767
#
# Coordination Sequence:
#
# PCOD9315243 Si02
#       8
#     4   4   4   4   4   4   4   4
#     4  12  24  41  64  90 135 174 209 262 325 386
#     4  11  23  40  66  94 133 167 210 272 322 381
#     4  10  24  40  65  92 132 168 215 269 321 377
#     4  12  25  37  60  96 137 171 205 248 317 402
#     4  10  24  40  63  95 127 166 218 256 320 383
#     4  11  23  37  64  92 132 168 211 254 328 384
#     4  11  26  42  64 100 130 171 217 265 326 388
#     4  11  23  41  62  91 130 171 209 260 315 389
#
# _framework density 25.217756999999999
#
# number of rings (size 3 to 8) (size 9 to 14) (size 15 to 20)
#    0.000    1.000    3.750    2.250    8.750    2.000 
#    0.000    0.000    0.000    3.000    0.000    0.000 
#    0.000    0.000    0.000    0.000    0.000    0.000 
#
# Total GULP energy -178888.951463 kJ/mol
# GULP energy per Si atom -5590.279733 kJ/mol
# Density = 2.516036 g / cm^3
# Si number density = 25.217757 Si / 1000 Ang^3
#
#
#
# Elastic Constant Matrix: (Units=GPa)
#
#
# Indices 1 2 3 4 5 6 
#
# 1 161.8364 52.8765 14.7175 0.0000 0.0000 0.0000
# 2 52.8765 125.5505 10.6751 0.0000 0.0000 0.0000
# 3 14.7175 10.6751 40.0234 0.0000 0.0000 0.0000
# 4 0.0000 0.0000 0.0000 17.1034 0.0000 0.0000
# 5 0.0000 0.0000 0.0000 0.0000 24.5479 0.0000
# 6 0.0000 0.0000 0.0000 0.0000 0.0000 51.4368
#
#
#
# Elastic Compliance Matrix: (Units=1/GPa)
#
#
# Indices 1 2 3 4 5 6 
#
# 1 0.007305 -0.002914 -0.001909 0.000000 0.000000 0.000000
# 2 -0.002914 0.009312 -0.001412 0.000000 0.000000 0.000000
# 3 -0.001909 -0.001412 0.026064 0.000000 0.000000 0.000000
# 4 0.000000 0.000000 0.000000 0.058468 0.000000 0.000000
# 5 0.000000 0.000000 0.000000 0.000000 0.040737 0.000000
# 6 0.000000 0.000000 0.000000 0.000000 0.000000 0.019441
#
#
# Mechanical properties :
#
#
# Convention : Reuss Voigt Hill
#
# Bulk Modulus (GPa) = 33.10092 53.77208 43.43650
# Shear Modulus (GPa) = 27.19344 35.22702 31.21023
#
# Velocity S-wave (km/s) = 3.28738 3.74159 3.52181
# Velocity P-wave (km/s) = 5.25011 6.32735 5.81373
#
# Compressibility (1/GPa) = 0.03021064
#
# Stress axis : x y z
#
# Youngs Moduli (GPa) = 136.89595 107.38460 38.36711
#
# Poissons Ratio (x) = 0.31294 0.07324
# Poissons Ratio (y) = 0.39894 0.05418
# Poissons Ratio (z) = 0.26132 0.15165
#
# Static dielectric constant tensor:
#      x y z
#    x 2.027870 0.000000 0.000000 
#    y 0.000000 1.983140 0.000000 
#    z 0.000000 0.000000 2.035730 
# 
# From -- ./inp_files/1583.got.cif
#   From: 2010.05.17/outbox.cif.g08.bks.cpg/sg19_1_cif.got.tgz:1583.got - 2010.06.03 22:46:19.
