data_PCOD9315127
_publ_section_title
;
Structure prediction by ZEFSAII (Michael W. Deem and Ramdas Pophale) SiO2 
 PCOD9315127
Probable space group: P 21 21 21
;
_chemical_formula_sum "Si O2"
_cell_formula_units_Z 28
_cell_length_a 19.467004
_cell_length_b 10.336728
_cell_length_c 6.116848
_cell_angle_alpha 90.000000
_cell_angle_beta 90.000000
_cell_angle_gamma 90.000000
_cell_volume 1230.863505
_symmetry_space_group_name_H-M "P 21 21 21"
_symmetry_group_IT_number 19
_symmetry_cell_setting 'orthorhombic'
loop_
_space_group_symop_operation_xyz
x,y,z
1/2-x,-y,1/2+z
1/2+x,1/2-y,-z
-x,1/2+y,1/2-z
loop_
_atom_site_type_symbol
_atom_site_label
_atom_site_fract_x
_atom_site_fract_y
_atom_site_fract_z
Si Si1 0.515780 0.254793 0.871127
Si Si2 0.608547 0.806559 0.901488
Si Si3 0.559916 0.600211 0.254749
Si Si4 0.874192 0.656335 0.705319
Si Si5 0.762976 0.208644 0.103947
Si Si6 0.685021 0.953445 0.259624
Si Si7 0.075265 0.400815 0.510857
O O1 0.464152 0.334739 0.715590
O O2 0.551687 0.144418 0.725140
O O3 0.465809 0.186882 0.045653
O O4 0.576429 0.329399 0.993760
O O5 0.667198 0.762343 0.732436
O O6 0.592764 0.691935 0.071914
O O7 0.639191 0.921003 0.049654
O O8 0.609827 0.482386 0.308618
O O9 0.489573 0.547191 0.146536
O O10 0.796040 0.685994 0.641121
O O11 0.899085 0.770481 0.866548
O O12 0.732867 0.073959 0.202888
O O13 0.776382 0.172637 0.850428
O O14 0.635953 0.997892 0.458719
#
# Coordination Sequence:
#
# PCOD9315127 Si02
#       7
#     4   4   4   4   4   4   4
#     4  10  23  45  70 102 133 181 222 287 344 404
#     4  11  24  44  64 102 134 179 231 277 359 399
#     4  10  23  44  62  96 138 175 223 281 338 410
#     4  10  24  45  64 103 136 175 236 277 337 417
#     4  11  24  42  70  97 135 183 224 291 339 409
#     4  11  23  42  69 102 136 171 232 285 344 410
#     4   9  23  38  69 102 130 172 220 284 339 399
#
# _framework density 22.748258
#
# number of rings (size 3 to 8) (size 9 to 14) (size 15 to 20)
#    0.000    1.714    1.429    0.857   10.000    3.429 
#   10.286    0.000    0.000    0.000    0.000    0.000 
#    0.000    0.000    0.000    0.000    0.000    0.000 
#
# Total GULP energy -156665.579240 kJ/mol
# GULP energy per Si atom -5595.199259 kJ/mol
# Density = 2.269648 g / cm^3
# Si number density = 22.748258 Si / 1000 Ang^3
#
#
#
# Elastic Constant Matrix: (Units=GPa)
#
#
# Indices 1 2 3 4 5 6 
#
# 1 108.6945 9.4884 28.2450 0.0000 0.0000 0.0000
# 2 9.4884 13.1932 -4.6698 0.0000 0.0000 0.0000
# 3 28.2450 -4.6698 66.7829 0.0000 0.0000 0.0000
# 4 0.0000 0.0000 0.0000 19.5066 0.0000 0.0000
# 5 0.0000 0.0000 0.0000 0.0000 44.9208 0.0000
# 6 0.0000 0.0000 0.0000 0.0000 0.0000 34.6498
#
#
#
# Elastic Compliance Matrix: (Units=1/GPa)
#
#
# Indices 1 2 3 4 5 6 
#
# 1 0.011556 -0.010296 -0.005607 0.000000 0.000000 0.000000
# 2 -0.010296 0.086893 0.010430 0.000000 0.000000 0.000000
# 3 -0.005607 0.010430 0.018075 0.000000 0.000000 0.000000
# 4 0.000000 0.000000 0.000000 0.051265 0.000000 0.000000
# 5 0.000000 0.000000 0.000000 0.000000 0.022261 0.000000
# 6 0.000000 0.000000 0.000000 0.000000 0.000000 0.028860
#
#
# Mechanical properties :
#
#
# Convention : Reuss Voigt Hill
#
# Bulk Modulus (GPa) = 9.47161 28.31086 18.89123
# Shear Modulus (GPa) = 18.86447 30.18923 24.52685
#
# Velocity S-wave (km/s) = 2.88283 3.64689 3.28714
# Velocity P-wave (km/s) = 3.90559 5.49594 4.76755
#
# Compressibility (1/GPa) = 0.10557872
#
# Stress axis : x y z
#
# Youngs Moduli (GPa) = 86.53537 11.50838 55.32559
#
# Poissons Ratio (x) = 0.11849 0.31023
# Poissons Ratio (y) = 0.89094 -0.57707
# Poissons Ratio (z) = 0.48524 -0.12004
#
# Static dielectric constant tensor:
#      x y z
#    x 1.856070 0.000000 0.000000 
#    y 0.000000 1.834020 0.000000 
#    z 0.000000 0.000000 1.867340 
# 
# From -- ./inp_files/1736.got.cif
#   From: 2010.05.17/outbox.cif.g08.bks.cpg/sg19_1_cif.got.tgz:1736.got - 2010.06.03 22:46:19.
