data_PCOD9315909
_publ_section_title
;
Structure prediction by ZEFSAII (Michael W. Deem and Ramdas Pophale) SiO2 
 PCOD9315909
Probable space group: P 21 21 21
;
_chemical_formula_sum "Si O2"
_cell_formula_units_Z 28
_cell_length_a 7.587706
_cell_length_b 25.615145
_cell_length_c 5.462491
_cell_angle_alpha 90.000000
_cell_angle_beta 90.000000
_cell_angle_gamma 90.000000
_cell_volume 1061.690785
_symmetry_space_group_name_H-M "P 21 21 21"
_symmetry_group_IT_number 19
_symmetry_cell_setting 'orthorhombic'
loop_
_space_group_symop_operation_xyz
x,y,z
1/2-x,-y,1/2+z
1/2+x,1/2-y,-z
-x,1/2+y,1/2-z
loop_
_atom_site_type_symbol
_atom_site_label
_atom_site_fract_x
_atom_site_fract_y
_atom_site_fract_z
Si Si1 0.046791 0.925800 0.300682
Si Si2 0.478536 0.678176 0.970664
Si Si3 0.240952 0.135727 0.209291
Si Si4 0.552260 0.461208 0.633687
Si Si5 0.857100 0.066055 0.856775
Si Si6 0.446304 0.316993 0.100968
Si Si7 0.747650 0.753588 0.751914
O O1 0.987236 0.882486 0.102512
O O2 0.171573 0.893090 0.478997
O O3 0.850730 0.942262 0.387302
O O4 0.135552 0.983013 0.289634
O O5 0.579732 0.716931 0.789500
O O6 0.613867 0.675986 0.198171
O O7 0.292994 0.701817 0.050484
O O8 0.186551 0.087896 0.387406
O O9 0.068093 0.167302 0.133962
O O10 0.444180 0.462097 0.378194
O O11 0.441073 0.447328 0.879550
O O12 0.889538 0.127139 0.802713
O O13 0.283372 0.284341 0.999288
O O14 0.582273 0.283764 0.259137
#
# Coordination Sequence:
#
# PCOD9315909 Si02
#       7
#     4   4   4   4   4   4   4
#     4  12  28  46  77 111 154 200 261 319 394 472
#     4  12  28  45  75 109 148 204 258 321 386 468
#     4  11  26  47  73 111 150 198 258 322 392 466
#     4  11  28  49  81 111 160 197 258 320 402 461
#     4  11  27  50  78 114 153 204 256 321 385 478
#     4  11  25  47  75 109 151 199 258 324 383 469
#     4  12  26  46  75 105 156 200 261 321 394 452
#
# _framework density 26.373025999999999
#
# number of rings (size 3 to 8) (size 9 to 14) (size 15 to 20)
#    0.000    0.571    1.429    4.286   16.000    0.000 
#    0.000    0.000    0.000    0.000    0.000    0.000 
#    0.000    0.000    0.000    0.000    0.000    0.000 
#
# Total GULP energy -156710.877711 kJ/mol
# GULP energy per Si atom -5596.817061 kJ/mol
# Density = 2.631300 g / cm^3
# Si number density = 26.373026 Si / 1000 Ang^3
#
#
#
# Elastic Constant Matrix: (Units=GPa)
#
#
# Indices 1 2 3 4 5 6 
#
# 1 89.9993 1.6029 7.5040 0.0000 0.0000 0.0000
# 2 1.6029 130.1095 11.4751 0.0000 0.0000 0.0000
# 3 7.5040 11.4751 61.7175 0.0000 0.0000 0.0000
# 4 0.0000 0.0000 0.0000 54.4252 0.0000 0.0000
# 5 0.0000 0.0000 0.0000 0.0000 28.8765 0.0000
# 6 0.0000 0.0000 0.0000 0.0000 0.0000 37.4931
#
#
#
# Elastic Compliance Matrix: (Units=1/GPa)
#
#
# Indices 1 2 3 4 5 6 
#
# 1 0.011225 -0.000018 -0.001361 0.000000 0.000000 0.000000
# 2 -0.000018 0.007814 -0.001451 0.000000 0.000000 0.000000
# 3 -0.001361 -0.001451 0.016638 0.000000 0.000000 0.000000
# 4 0.000000 0.000000 0.000000 0.018374 0.000000 0.000000
# 5 0.000000 0.000000 0.000000 0.000000 0.034630 0.000000
# 6 0.000000 0.000000 0.000000 0.000000 0.000000 0.026672
#
#
# Mechanical properties :
#
#
# Convention : Reuss Voigt Hill
#
# Bulk Modulus (GPa) = 33.31489 35.88780 34.60134
# Shear Modulus (GPa) = 38.16245 41.57525 39.86885
#
# Velocity S-wave (km/s) = 3.80811 3.97474 3.89231
# Velocity P-wave (km/s) = 5.65643 5.89084 5.77482
#
# Compressibility (1/GPa) = 0.03001660
#
# Stress axis : x y z
#
# Youngs Moduli (GPa) = 89.08663 127.97542 60.10296
#
# Poissons Ratio (x) = 0.00233 0.08183
# Poissons Ratio (y) = 0.00162 0.08719
# Poissons Ratio (z) = 0.12128 0.18565
#
# Static dielectric constant tensor:
#      x y z
#    x 2.049300 0.000000 0.000000 
#    y 0.000000 2.061430 0.000000 
#    z 0.000000 0.000000 2.119180 
# 
# From -- ./inp_files/622.got.cif
#   From: 2010.05.17/outbox.cif.g08.bks.cpg/sg19_1_cif.got.tgz:622.got - 2010.06.03 22:46:19.
