data_PCOD9315455
_publ_section_title
;
Structure prediction by ZEFSAII (Michael W. Deem and Ramdas Pophale) SiO2 
 PCOD9315455
Probable space group: P 21 21 21
;
_chemical_formula_sum "Si O2"
_cell_formula_units_Z 32
_cell_length_a 10.375221
_cell_length_b 13.906577
_cell_length_c 8.350908
_cell_angle_alpha 90.000000
_cell_angle_beta 90.000000
_cell_angle_gamma 90.000000
_cell_volume 1204.900821
_symmetry_space_group_name_H-M "P 21 21 21"
_symmetry_group_IT_number 19
_symmetry_cell_setting 'orthorhombic'
loop_
_space_group_symop_operation_xyz
x,y,z
1/2-x,-y,1/2+z
1/2+x,1/2-y,-z
-x,1/2+y,1/2-z
loop_
_atom_site_type_symbol
_atom_site_label
_atom_site_fract_x
_atom_site_fract_y
_atom_site_fract_z
Si Si1 0.015440 0.453467 0.101249
Si Si2 0.660099 0.858046 0.935406
Si Si3 0.886061 0.198919 0.978011
Si Si4 0.248526 0.852410 0.757136
Si Si5 0.023891 0.137358 0.723166
Si Si6 0.238424 0.017185 0.528544
Si Si7 0.359718 0.653031 0.304807
Si Si8 0.020602 0.276041 0.279413
O O1 0.074280 0.556590 0.139062
O O2 0.053000 0.385521 0.248723
O O3 0.060404 0.418162 0.921609
O O4 0.862121 0.459435 0.085362
O O5 0.801684 0.877963 0.868036
O O6 0.605888 0.755405 0.874269
O O7 0.604093 0.861180 0.112859
O O8 0.831504 0.278690 0.852704
O O9 0.959165 0.111206 0.891927
O O10 0.765429 0.168862 0.083953
O O11 0.988338 0.245720 0.097493
O O12 0.360522 0.787809 0.836221
O O13 0.300680 0.933934 0.634707
O O14 0.187598 0.912382 0.905604
O O15 0.139032 0.077889 0.642440
O O16 0.077310 0.244240 0.762024
#
# Coordination Sequence:
#
# PCOD9315455 Si02
#       8
#     4   4   4   4   4   4   4   4
#     4  11  21  46  67  98 141 183 236 294 351 436
#     4  10  26  43  68 106 141 179 251 297 352 433
#     4  11  23  40  72  98 134 189 233 277 365 435
#     4  12  23  44  67 106 135 193 235 297 375 430
#     4  11  23  46  66 102 143 175 240 307 341 435
#     4  11  27  41  70 104 146 178 245 305 361 436
#     4  11  24  44  74  98 136 198 225 290 375 419
#     4  11  21  44  70  98 140 189 235 295 362 436
#
# _framework density 26.558202999999999
#
# number of rings (size 3 to 8) (size 9 to 14) (size 15 to 20)
#    0.000    1.000    6.250    0.000    5.250    2.000 
#    2.250    0.000    0.000    0.000    0.000    0.000 
#    0.000    0.000    0.000    0.000    0.000    0.000 
#
# Total GULP energy -178669.862105 kJ/mol
# GULP energy per Si atom -5583.433191 kJ/mol
# Density = 2.649776 g / cm^3
# Si number density = 26.558203 Si / 1000 Ang^3
#
#
#
# Elastic Constant Matrix: (Units=GPa)
#
#
# Indices 1 2 3 4 5 6 
#
# 1 43.7379 -1.6749 8.8348 0.0000 0.0000 0.0000
# 2 -1.6749 84.3534 35.6194 0.0000 0.0000 0.0000
# 3 8.8348 35.6194 65.8447 0.0000 0.0000 0.0000
# 4 0.0000 0.0000 0.0000 46.2147 0.0000 0.0000
# 5 0.0000 0.0000 0.0000 0.0000 55.8136 0.0000
# 6 0.0000 0.0000 0.0000 0.0000 0.0000 29.2256
#
#
#
# Elastic Compliance Matrix: (Units=1/GPa)
#
#
# Indices 1 2 3 4 5 6 
#
# 1 0.023859 0.002366 -0.004481 0.000000 0.000000 0.000000
# 2 0.002366 0.015599 -0.008756 0.000000 0.000000 0.000000
# 3 -0.004481 -0.008756 0.020525 0.000000 0.000000 0.000000
# 4 0.000000 0.000000 0.000000 0.021638 0.000000 0.000000
# 5 0.000000 0.000000 0.000000 0.000000 0.017917 0.000000
# 6 0.000000 0.000000 0.000000 0.000000 0.000000 0.034217
#
#
# Mechanical properties :
#
#
# Convention : Reuss Voigt Hill
#
# Bulk Modulus (GPa) = 26.14985 31.05495 28.60240
# Shear Modulus (GPa) = 29.71861 36.32790 33.02325
#
# Velocity S-wave (km/s) = 3.34877 3.70247 3.53006
# Velocity P-wave (km/s) = 4.98197 5.47689 5.23528
#
# Compressibility (1/GPa) = 0.03824114
#
# Stress axis : x y z
#
# Youngs Moduli (GPa) = 41.91238 64.10582 48.72063
#
# Poissons Ratio (x) = -0.15168 0.21833
# Poissons Ratio (y) = -0.09917 0.42660
# Poissons Ratio (z) = 0.18782 0.56131
#
# Static dielectric constant tensor:
#      x y z
#    x 2.126540 0.000000 0.000000 
#    y 0.000000 2.151040 0.000000 
#    z 0.000000 0.000000 2.197950 
# 
# From -- ./inp_files/3580.got.cif
#   From: 2010.05.17/outbox.cif.g08.bks.cpg/sg19_2_cif.got.tgz:3580.got - 2010.06.03 22:46:19.
