data_PCOD9315964
_publ_section_title
;
Structure prediction by ZEFSAII (Michael W. Deem and Ramdas Pophale) SiO2 
 PCOD9315964
Probable space group: P 21 21 21
;
_chemical_formula_sum "Si O2"
_cell_formula_units_Z 28
_cell_length_a 7.333009
_cell_length_b 8.452013
_cell_length_c 16.909531
_cell_angle_alpha 90.000000
_cell_angle_beta 90.000000
_cell_angle_gamma 90.000000
_cell_volume 1048.030536
_symmetry_space_group_name_H-M "P 21 21 21"
_symmetry_group_IT_number 19
_symmetry_cell_setting 'orthorhombic'
loop_
_space_group_symop_operation_xyz
x,y,z
1/2-x,-y,1/2+z
1/2+x,1/2-y,-z
-x,1/2+y,1/2-z
loop_
_atom_site_type_symbol
_atom_site_label
_atom_site_fract_x
_atom_site_fract_y
_atom_site_fract_z
Si Si1 0.760106 0.800788 0.098713
Si Si2 0.271121 0.012368 0.191246
Si Si3 0.730361 0.475888 0.135805
Si Si4 0.151549 0.681780 0.164069
Si Si5 0.221542 0.515105 0.532877
Si Si6 0.336178 0.628228 0.316970
Si Si7 0.173181 0.136265 0.019803
O O1 0.642712 0.648574 0.122266
O O2 0.960233 0.743580 0.128094
O O3 0.716058 0.972764 0.133641
O O4 0.739939 0.845379 0.007541
O O5 0.173310 0.997980 0.277612
O O6 0.282160 0.834768 0.158376
O O7 0.467102 0.080052 0.215568
O O8 0.206554 0.105651 0.112979
O O9 0.635892 0.304893 0.148150
O O10 0.808987 0.442612 0.046318
O O11 0.227666 0.525452 0.122248
O O12 0.169639 0.647384 0.256925
O O13 0.324375 0.675521 0.509291
O O14 0.017932 0.559995 0.505789
#
# Coordination Sequence:
#
# PCOD9315964 Si02
#       7
#     4   4   4   4   4   4   4
#     4  12  28  48  80 114 164 212 271 338 413 493
#     4  11  26  51  80 116 159 214 269 340 410 502
#     4  11  27  48  80 115 160 206 266 334 414 482
#     4  11  28  50  80 114 162 213 281 336 420 491
#     4  12  28  49  77 118 160 222 269 348 410 500
#     4  11  27  50  78 119 159 211 274 335 416 492
#     4  12  26  50  79 114 166 206 278 337 413 490
#
# _framework density 26.716778999999999
#
# number of rings (size 3 to 8) (size 9 to 14) (size 15 to 20)
#    0.000    0.571    2.857    2.571   14.000    0.000 
#    0.000    0.000    0.000    0.000    0.000    0.000 
#    0.000    0.000    0.000    0.000    0.000    0.000 
#
# Total GULP energy -156097.979022 kJ/mol
# GULP energy per Si atom -5574.927822 kJ/mol
# Density = 2.665597 g / cm^3
# Si number density = 26.716779 Si / 1000 Ang^3
#
#
#
# Elastic Constant Matrix: (Units=GPa)
#
#
# Indices 1 2 3 4 5 6 
#
# 1 58.0351 31.5064 13.3300 0.0000 0.0000 0.0000
# 2 31.5064 216.7565 56.5905 0.0000 0.0000 0.0000
# 3 13.3300 56.5905 156.7190 0.0000 0.0000 0.0000
# 4 0.0000 0.0000 0.0000 60.8778 0.0000 0.0000
# 5 0.0000 0.0000 0.0000 0.0000 25.5830 0.0000
# 6 0.0000 0.0000 0.0000 0.0000 0.0000 27.1967
#
#
#
# Elastic Compliance Matrix: (Units=1/GPa)
#
#
# Indices 1 2 3 4 5 6 
#
# 1 0.018772 -0.002552 -0.000675 0.000000 0.000000 0.000000
# 2 -0.002552 0.005441 -0.001748 0.000000 0.000000 0.000000
# 3 -0.000675 -0.001748 0.007069 0.000000 0.000000 0.000000
# 4 0.000000 0.000000 0.000000 0.016426 0.000000 0.000000
# 5 0.000000 0.000000 0.000000 0.000000 0.039088 0.000000
# 6 0.000000 0.000000 0.000000 0.000000 0.000000 0.036769
#
#
# Mechanical properties :
#
#
# Convention : Reuss Voigt Hill
#
# Bulk Modulus (GPa) = 46.87813 70.48492 58.68152
# Shear Modulus (GPa) = 35.55534 44.73708 40.14621
#
# Velocity S-wave (km/s) = 3.65200 4.09650 3.88062
# Velocity P-wave (km/s) = 5.94704 6.98674 6.48775
#
# Compressibility (1/GPa) = 0.02133191
#
# Stress axis : x y z
#
# Youngs Moduli (GPa) = 53.27195 183.79998 141.45702
#
# Poissons Ratio (x) = 0.46911 0.09549
# Poissons Ratio (y) = 0.13597 0.24720
# Poissons Ratio (z) = 0.03596 0.32119
#
# Static dielectric constant tensor:
#      x y z
#    x 2.210630 0.000000 0.000000 
#    y 0.000000 1.984630 0.000000 
#    z 0.000000 0.000000 2.218000 
# 
# From -- ./inp_files/6618.got.cif
#   From: 2010.05.17/outbox.cif.g08.bks.cpg/sg19_4_cif.got.tgz:6618.got - 2010.06.03 22:46:19.
