data_PCOD9315174
_publ_section_title
;
Structure prediction by ZEFSAII (Michael W. Deem and Ramdas Pophale) SiO2 
 PCOD9315174
Probable space group: P 21 21 21
;
_chemical_formula_sum "Si O2"
_cell_formula_units_Z 24
_cell_length_a 9.949696
_cell_length_b 9.100300
_cell_length_c 11.697908
_cell_angle_alpha 90.000000
_cell_angle_beta 90.000000
_cell_angle_gamma 90.000000
_cell_volume 1059.189636
_symmetry_space_group_name_H-M "P 21 21 21"
_symmetry_group_IT_number 19
_symmetry_cell_setting 'orthorhombic'
loop_
_space_group_symop_operation_xyz
x,y,z
1/2-x,-y,1/2+z
1/2+x,1/2-y,-z
-x,1/2+y,1/2-z
loop_
_atom_site_type_symbol
_atom_site_label
_atom_site_fract_x
_atom_site_fract_y
_atom_site_fract_z
Si Si1 0.731030 0.449152 0.806976
Si Si2 0.072138 0.562657 0.320824
Si Si3 0.251311 0.395780 0.623117
Si Si4 0.446999 0.801327 0.239691
Si Si5 0.228790 0.703206 0.878344
Si Si6 0.635406 0.793764 0.450877
O O1 0.578802 0.493759 0.829251
O O2 0.834955 0.576565 0.779459
O O3 0.730508 0.342778 0.696337
O O4 0.784875 0.350579 0.912519
O O5 0.113876 0.617850 0.196185
O O6 0.175690 0.430802 0.342828
O O7 0.096317 0.686219 0.417541
O O8 0.125995 0.348966 0.702526
O O9 0.256858 0.289464 0.514047
O O10 0.223881 0.562027 0.581467
O O11 0.575195 0.826760 0.158245
O O12 0.505381 0.797000 0.367703
#
# Coordination Sequence:
#
# PCOD9315174 Si02
#       6
#     4   4   4   4   4   4
#     4  11  25  43  69 104 130 177 231 278 338 404
#     4  11  25  43  68  98 135 175 227 283 332 393
#     4  11  24  43  71  94 138 183 217 280 343 398
#     4  11  24  43  72  97 134 178 226 270 347 407
#     4  10  25  47  66 101 142 176 225 281 340 408
#     4  10  23  45  66  94 137 175 224 280 338 402
#
# _framework density 22.658835
#
# number of rings (size 3 to 8) (size 9 to 14) (size 15 to 20)
#    0.000    1.333    3.333    2.000    7.000    4.000 
#    0.000    0.000    0.000    0.000    0.000    0.000 
#    0.000    0.000    0.000    0.000    0.000    0.000 
#
# Total GULP energy -134343.917811 kJ/mol
# GULP energy per Si atom -5597.663242 kJ/mol
# Density = 2.260726 g / cm^3
# Si number density = 22.658835 Si / 1000 Ang^3
#
#
#
# Elastic Constant Matrix: (Units=GPa)
#
#
# Indices 1 2 3 4 5 6 
#
# 1 135.9803 16.1058 -14.8309 0.0000 0.0000 0.0000
# 2 16.1058 39.0216 -13.6337 0.0000 0.0000 0.0000
# 3 -14.8309 -13.6337 54.9989 0.0000 0.0000 0.0000
# 4 0.0000 0.0000 0.0000 10.8068 0.0000 0.0000
# 5 0.0000 0.0000 0.0000 0.0000 7.5511 0.0000
# 6 0.0000 0.0000 0.0000 0.0000 0.0000 22.4556
#
#
#
# Elastic Compliance Matrix: (Units=1/GPa)
#
#
# Indices 1 2 3 4 5 6 
#
# 1 0.007834 -0.002732 0.001435 0.000000 0.000000 0.000000
# 2 -0.002732 0.029010 0.006455 0.000000 0.000000 0.000000
# 3 0.001435 0.006455 0.020169 0.000000 0.000000 0.000000
# 4 0.000000 0.000000 0.000000 0.092534 0.000000 0.000000
# 5 0.000000 0.000000 0.000000 0.000000 0.132432 0.000000
# 6 0.000000 0.000000 0.000000 0.000000 0.000000 0.044532
#
#
# Mechanical properties :
#
#
# Convention : Reuss Voigt Hill
#
# Bulk Modulus (GPa) = 14.85253 22.80923 18.83088
# Shear Modulus (GPa) = 14.76500 24.31999 19.54249
#
# Velocity S-wave (km/s) = 2.55546 3.27970 2.93996
# Velocity P-wave (km/s) = 3.90848 4.94268 4.45569
#
# Compressibility (1/GPa) = 0.06732860
#
# Stress axis : x y z
#
# Youngs Moduli (GPa) = 127.64655 34.47141 49.58043
#
# Poissons Ratio (x) = 0.09418 -0.07116
# Poissons Ratio (y) = 0.34873 -0.32002
# Poissons Ratio (z) = -0.18321 -0.22250
#
# Static dielectric constant tensor:
#      x y z
#    x 1.804230 0.000000 0.000000 
#    y 0.000000 1.859920 0.000000 
#    z 0.000000 0.000000 1.874420 
# 
# From -- ./inp_files/4549.got.cif
#   From: 2010.05.17/outbox.cif.g08.bks.cpg/sg19_3_cif.got.tgz:4549.got - 2010.06.03 22:46:19.
