data_PCOD9315647
_publ_section_title
;
Structure prediction by ZEFSAII (Michael W. Deem and Ramdas Pophale) SiO2 
 PCOD9315647
Probable space group: P 21 21 21
;
_chemical_formula_sum "Si O2"
_cell_formula_units_Z 32
_cell_length_a 11.292231
_cell_length_b 21.142167
_cell_length_c 6.560187
_cell_angle_alpha 90.000000
_cell_angle_beta 90.000000
_cell_angle_gamma 90.000000
_cell_volume 1566.193697
_symmetry_space_group_name_H-M "P 21 21 21"
_symmetry_group_IT_number 19
_symmetry_cell_setting 'orthorhombic'
loop_
_space_group_symop_operation_xyz
x,y,z
1/2-x,-y,1/2+z
1/2+x,1/2-y,-z
-x,1/2+y,1/2-z
loop_
_atom_site_type_symbol
_atom_site_label
_atom_site_fract_x
_atom_site_fract_y
_atom_site_fract_z
Si Si1 0.029703 0.332654 0.940949
Si Si2 0.677930 0.221688 0.421405
Si Si3 0.901937 0.456475 0.992808
Si Si4 0.243760 0.639429 0.698391
Si Si5 0.606641 0.781775 0.630818
Si Si6 0.136244 0.036622 0.146492
Si Si7 0.931060 0.650063 0.081780
Si Si8 0.027674 0.560789 0.740420
O O1 0.138684 0.364755 0.061790
O O2 0.983294 0.272907 0.067970
O O3 0.076461 0.308671 0.722452
O O4 0.926584 0.384292 0.938474
O O5 0.722466 0.170516 0.585971
O O6 0.783838 0.240689 0.268577
O O7 0.634641 0.284681 0.534436
O O8 0.768121 0.474896 0.933380
O O9 0.995585 0.498875 0.869848
O O10 0.910778 0.475992 0.229190
O O11 0.159834 0.687561 0.572561
O O12 0.166116 0.575955 0.714315
O O13 0.538722 0.832915 0.767795
O O14 0.141424 0.095580 0.302998
O O15 0.046162 0.054142 0.966811
O O16 0.977328 0.619412 0.872897
#
# Coordination Sequence:
#
# PCOD9315647 Si02
#       8
#     4   4   4   4   4   4   4   4
#     4  11  27  42  65 103 140 175 230 286 334 417
#     4  11  25  41  65 102 139 177 222 276 354 416
#     4  11  26  45  65 100 129 180 233 285 339 404
#     4  11  23  45  66  97 137 179 222 278 345 417
#     4  11  23  40  67  99 136 172 225 279 341 415
#     4  11  24  43  71  95 131 174 235 287 338 404
#     4  11  23  39  68 100 128 178 224 279 351 405
#     4  11  23  45  69  92 132 179 229 284 340 406
#
# _framework density 20.431701
#
# number of rings (size 3 to 8) (size 9 to 14) (size 15 to 20)
#    0.000    1.000    5.000    0.750    3.500    1.000 
#    4.500    0.000    0.000    0.000    0.000    0.000 
#    0.000    0.000    0.000    0.000    0.000    0.000 
#
# Total GULP energy -178831.159279 kJ/mol
# GULP energy per Si atom -5588.473727 kJ/mol
# Density = 2.038520 g / cm^3
# Si number density = 20.431701 Si / 1000 Ang^3
#
#
#
# Elastic Constant Matrix: (Units=GPa)
#
#
# Indices 1 2 3 4 5 6 
#
# 1 38.3877 3.4914 19.4852 0.0000 0.0000 0.0000
# 2 3.4914 35.0133 15.5069 0.0000 0.0000 0.0000
# 3 19.4852 15.5069 98.7639 0.0000 0.0000 0.0000
# 4 0.0000 0.0000 0.0000 29.5156 0.0000 0.0000
# 5 0.0000 0.0000 0.0000 0.0000 26.3470 0.0000
# 6 0.0000 0.0000 0.0000 0.0000 0.0000 40.4986
#
#
#
# Elastic Compliance Matrix: (Units=1/GPa)
#
#
# Indices 1 2 3 4 5 6 
#
# 1 0.028954 -0.000384 -0.005652 0.000000 0.000000 0.000000
# 2 -0.000384 0.030700 -0.004744 0.000000 0.000000 0.000000
# 3 -0.005652 -0.004744 0.011985 0.000000 0.000000 0.000000
# 4 0.000000 0.000000 0.000000 0.033880 0.000000 0.000000
# 5 0.000000 0.000000 0.000000 0.000000 0.037955 0.000000
# 6 0.000000 0.000000 0.000000 0.000000 0.000000 0.024692
#
#
# Mechanical properties :
#
#
# Convention : Reuss Voigt Hill
#
# Bulk Modulus (GPa) = 19.96875 27.68132 23.82504
# Shear Modulus (GPa) = 24.22241 28.18435 26.20338
#
# Velocity S-wave (km/s) = 3.44689 3.71811 3.58507
# Velocity P-wave (km/s) = 5.06320 5.65775 5.36871
#
# Compressibility (1/GPa) = 0.05007824
#
# Stress axis : x y z
#
# Youngs Moduli (GPa) = 34.53771 32.57310 83.43630
#
# Poissons Ratio (x) = 0.01251 0.47159
# Poissons Ratio (y) = 0.01326 0.39586
# Poissons Ratio (z) = 0.19521 0.15454
#
# Static dielectric constant tensor:
#      x y z
#    x 1.741590 0.000000 0.000000 
#    y 0.000000 1.708600 0.000000 
#    z 0.000000 0.000000 1.731500 
# 
# From -- ./inp_files/1229.got.cif
#   From: 2010.05.17/outbox.cif.g08.bks.cpg/sg19_1_cif.got.tgz:1229.got - 2010.06.03 22:46:19.
