data_PCOD9315537
_publ_section_title
;
Structure prediction by ZEFSAII (Michael W. Deem and Ramdas Pophale) SiO2 
 PCOD9315537
Probable space group: P 21 21 21
;
_chemical_formula_sum "Si O2"
_cell_formula_units_Z 24
_cell_length_a 12.252749
_cell_length_b 8.851974
_cell_length_c 7.976924
_cell_angle_alpha 90.000000
_cell_angle_beta 90.000000
_cell_angle_gamma 90.000000
_cell_volume 865.185278
_symmetry_space_group_name_H-M "P 21 21 21"
_symmetry_group_IT_number 19
_symmetry_cell_setting 'orthorhombic'
loop_
_space_group_symop_operation_xyz
x,y,z
1/2-x,-y,1/2+z
1/2+x,1/2-y,-z
-x,1/2+y,1/2-z
loop_
_atom_site_type_symbol
_atom_site_label
_atom_site_fract_x
_atom_site_fract_y
_atom_site_fract_z
Si Si1 0.231099 0.827188 0.825701
Si Si2 0.904432 0.589849 0.406426
Si Si3 0.236818 0.409182 0.616570
Si Si4 0.479003 0.494648 0.575907
Si Si5 0.669617 0.647927 0.697188
Si Si6 0.542836 0.868001 0.274675
O O1 0.301794 0.813722 0.654132
O O2 0.109606 0.782187 0.773584
O O3 0.260377 0.002755 0.863193
O O4 0.277397 0.703892 0.957774
O O5 0.058290 0.861145 0.407459
O O6 0.954214 0.632338 0.581257
O O7 0.870320 0.411328 0.383069
O O8 0.985675 0.596307 0.243456
O O9 0.348902 0.498744 0.579949
O O10 0.266825 0.299995 0.773085
O O11 0.134700 0.512325 0.661361
O O12 0.508749 0.417408 0.401541
#
# Coordination Sequence:
#
# PCOD9315537 Si02
#       6
#     4   4   4   4   4   4
#     4   8  22  46  70 106 151 192 250 302 372 450
#     4   8  21  45  75  98 157 191 239 306 379 432
#     4  11  21  40  78 104 146 196 252 314 363 447
#     4   8  22  40  70 100 142 189 249 292 379 438
#     4   8  21  47  69  95 154 191 231 318 365 423
#     4  11  21  42  84 105 140 209 251 302 376 452
#
# _framework density 27.739722
#
# number of rings (size 3 to 8) (size 9 to 14) (size 15 to 20)
#    2.000    0.667    0.000    0.000    4.667    5.333 
#    3.000   11.667   33.000    0.000    0.000    0.000 
#    0.000    0.000    0.000    0.000    0.000    0.000 
#
# Total GULP energy -134250.552237 kJ/mol
# GULP energy per Si atom -5593.773010 kJ/mol
# Density = 2.767658 g / cm^3
# Si number density = 27.739722 Si / 1000 Ang^3
#
#
#
# Elastic Constant Matrix: (Units=GPa)
#
#
# Indices 1 2 3 4 5 6 
#
# 1 109.2796 34.0654 33.5688 0.0000 0.0000 0.0000
# 2 34.0654 98.6864 18.9213 0.0000 0.0000 0.0000
# 3 33.5688 18.9213 126.5801 0.0000 0.0000 0.0000
# 4 0.0000 0.0000 0.0000 45.5166 0.0000 0.0000
# 5 0.0000 0.0000 0.0000 0.0000 60.7873 0.0000
# 6 0.0000 0.0000 0.0000 0.0000 0.0000 21.7980
#
#
#
# Elastic Compliance Matrix: (Units=1/GPa)
#
#
# Indices 1 2 3 4 5 6 
#
# 1 0.010920 -0.003309 -0.002401 0.000000 0.000000 0.000000
# 2 -0.003309 0.011435 -0.000832 0.000000 0.000000 0.000000
# 3 -0.002401 -0.000832 0.008661 0.000000 0.000000 0.000000
# 4 0.000000 0.000000 0.000000 0.021970 0.000000 0.000000
# 5 0.000000 0.000000 0.000000 0.000000 0.016451 0.000000
# 6 0.000000 0.000000 0.000000 0.000000 0.000000 0.045876
#
#
# Mechanical properties :
#
#
# Convention : Reuss Voigt Hill
#
# Bulk Modulus (GPa) = 55.76654 56.40636 56.08645
# Shear Modulus (GPa) = 37.20952 42.15309 39.68131
#
# Velocity S-wave (km/s) = 3.66646 3.90242 3.78628
# Velocity P-wave (km/s) = 6.17017 6.37836 6.27513
#
# Compressibility (1/GPa) = 0.01793190
#
# Stress axis : x y z
#
# Youngs Moduli (GPa) = 91.57502 87.45221 115.45622
#
# Poissons Ratio (x) = 0.28938 0.27725
# Poissons Ratio (y) = 0.30303 0.09603
# Poissons Ratio (z) = 0.21990 0.07274
#
# Static dielectric constant tensor:
#      x y z
#    x 2.203720 0.000000 0.000000 
#    y 0.000000 2.227270 0.000000 
#    z 0.000000 0.000000 2.227720 
# 
# From -- ./inp_files/4115.got.cif
#   From: 2010.05.17/outbox.cif.g08.bks.cpg/sg19_3_cif.got.tgz:4115.got - 2010.06.03 22:46:19.
