data_PCOD9315595
_publ_section_title
;
Structure prediction by ZEFSAII (Michael W. Deem and Ramdas Pophale) SiO2 
 PCOD9315595
Probable space group: P 21 21 21
;
_chemical_formula_sum "Si O2"
_cell_formula_units_Z 32
_cell_length_a 16.560650
_cell_length_b 13.216578
_cell_length_c 6.741544
_cell_angle_alpha 90.000000
_cell_angle_beta 90.000000
_cell_angle_gamma 90.000000
_cell_volume 1475.556269
_symmetry_space_group_name_H-M "P 21 21 21"
_symmetry_group_IT_number 19
_symmetry_cell_setting 'orthorhombic'
loop_
_space_group_symop_operation_xyz
x,y,z
1/2-x,-y,1/2+z
1/2+x,1/2-y,-z
-x,1/2+y,1/2-z
loop_
_atom_site_type_symbol
_atom_site_label
_atom_site_fract_x
_atom_site_fract_y
_atom_site_fract_z
Si Si1 0.505566 0.726292 0.277794
Si Si2 0.349504 0.966257 0.748899
Si Si3 0.992005 0.455276 0.028736
Si Si4 0.252380 0.680326 0.773148
Si Si5 0.768958 0.359489 0.454436
Si Si6 0.166136 0.205460 0.925480
Si Si7 0.071770 0.379434 0.422861
Si Si8 0.900516 0.063778 0.782814
O O1 0.545765 0.628835 0.382049
O O2 0.417209 0.738744 0.377699
O O3 0.555250 0.828341 0.309719
O O4 0.481824 0.696826 0.053982
O O5 0.354660 0.888773 0.567767
O O6 0.426124 0.966829 0.891228
O O7 0.337615 0.076981 0.655581
O O8 0.274891 0.933865 0.888201
O O9 0.028605 0.400163 0.217467
O O10 0.061455 0.512730 0.910727
O O11 0.273791 0.727076 0.558746
O O12 0.338238 0.660161 0.877606
O O13 0.194005 0.585678 0.744584
O O14 0.208246 0.762142 0.915397
O O15 0.707684 0.327481 0.279234
O O16 0.080776 0.484709 0.542704
#
# Coordination Sequence:
#
# PCOD9315595 Si02
#       8
#     4   4   4   4   4   4   4   4
#     4  11  24  46  67  97 135 170 225 275 331 395
#     4  11  24  41  67  99 135 172 226 268 340 397
#     4  11  26  44  68  97 132 182 216 274 337 396
#     4  11  26  43  69  98 133 179 223 271 338 391
#     4  11  23  41  66 100 132 173 218 279 327 392
#     4  11  22  43  68  92 136 177 211 276 337 387
#     4  11  25  46  68  98 132 179 218 276 334 392
#     4  11  28  44  69 101 133 174 227 277 322 402
#
# _framework density 21.686734999999999
#
# number of rings (size 3 to 8) (size 9 to 14) (size 15 to 20)
#    0.000    1.000    3.750    1.500    7.000    3.000 
#    0.000    0.000    0.000    0.000    0.000    0.000 
#    0.000    0.000    0.000    0.000    0.000    0.000 
#
# Total GULP energy -179025.337666 kJ/mol
# GULP energy per Si atom -5594.541802 kJ/mol
# Density = 2.163738 g / cm^3
# Si number density = 21.686735 Si / 1000 Ang^3
#
#
#
# Elastic Constant Matrix: (Units=GPa)
#
#
# Indices 1 2 3 4 5 6 
#
# 1 19.2276 -5.1186 -1.7593 0.0000 0.0000 0.0000
# 2 -5.1186 48.1242 6.4332 0.0000 0.0000 0.0000
# 3 -1.7593 6.4332 86.6067 0.0000 0.0000 0.0000
# 4 0.0000 0.0000 0.0000 18.8295 0.0000 0.0000
# 5 0.0000 0.0000 0.0000 0.0000 21.8441 0.0000
# 6 0.0000 0.0000 0.0000 0.0000 0.0000 37.9050
#
#
#
# Elastic Compliance Matrix: (Units=1/GPa)
#
#
# Indices 1 2 3 4 5 6 
#
# 1 0.053563 0.005607 0.000672 0.000000 0.000000 0.000000
# 2 0.005607 0.021575 -0.001489 0.000000 0.000000 0.000000
# 3 0.000672 -0.001489 0.011671 0.000000 0.000000 0.000000
# 4 0.000000 0.000000 0.000000 0.053108 0.000000 0.000000
# 5 0.000000 0.000000 0.000000 0.000000 0.045779 0.000000
# 6 0.000000 0.000000 0.000000 0.000000 0.000000 0.026382
#
#
# Mechanical properties :
#
#
# Convention : Reuss Voigt Hill
#
# Bulk Modulus (GPa) = 10.37468 17.00769 13.69119
# Shear Modulus (GPa) = 21.31048 26.00928 23.65988
#
# Velocity S-wave (km/s) = 3.13813 3.46687 3.30659
# Velocity P-wave (km/s) = 4.23376 4.88724 4.57219
#
# Compressibility (1/GPa) = 0.09638848
#
# Stress axis : x y z
#
# Youngs Moduli (GPa) = 18.66973 46.35000 85.68490
#
# Poissons Ratio (x) = -0.25990 -0.05754
# Poissons Ratio (y) = -0.10469 0.12756
# Poissons Ratio (z) = -0.01254 0.06900
#
# Static dielectric constant tensor:
#      x y z
#    x 1.819570 0.000000 0.000000 
#    y 0.000000 1.799930 0.000000 
#    z 0.000000 0.000000 1.750110 
# 
# From -- ./inp_files/1837.got.cif
#   From: 2010.05.17/outbox.cif.g08.bks.cpg/sg19_1_cif.got.tgz:1837.got - 2010.06.03 22:46:19.
