data_PCOD9315621
_publ_section_title
;
Structure prediction by ZEFSAII (Michael W. Deem and Ramdas Pophale) SiO2 
 PCOD9315621
Probable space group: P 21 21 21
;
_chemical_formula_sum "Si O2"
_cell_formula_units_Z 20
_cell_length_a 17.986504
_cell_length_b 6.669213
_cell_length_c 7.417275
_cell_angle_alpha 90.000000
_cell_angle_beta 90.000000
_cell_angle_gamma 90.000000
_cell_volume 889.745352
_symmetry_space_group_name_H-M "P 21 21 21"
_symmetry_group_IT_number 19
_symmetry_cell_setting 'orthorhombic'
loop_
_space_group_symop_operation_xyz
x,y,z
1/2-x,-y,1/2+z
1/2+x,1/2-y,-z
-x,1/2+y,1/2-z
loop_
_atom_site_type_symbol
_atom_site_label
_atom_site_fract_x
_atom_site_fract_y
_atom_site_fract_z
Si Si1 0.927630 0.111681 0.911154
Si Si2 0.330267 0.631013 0.810572
Si Si3 0.161955 0.566239 0.933149
Si Si4 0.070578 0.023417 0.439676
Si Si5 0.951686 0.364690 0.452341
O O1 0.889766 0.014534 0.736882
O O2 0.917001 0.350284 0.915281
O O3 0.882394 0.024723 0.081770
O O4 0.013117 0.050851 0.941066
O O5 0.245600 0.590793 0.864256
O O6 0.341200 0.589023 0.598638
O O7 0.358295 0.847422 0.877860
O O8 0.129039 0.778581 0.004048
O O9 0.042498 0.914165 0.258413
O O10 0.008124 0.182434 0.495387
#
# Coordination Sequence:
#
# PCOD9315621 Si02
#       5
#     4   4   4   4   4
#     4  11  25  45  68 105 143 182 239 293 362 425
#     4  11  25  47  69 100 143 191 231 299 353 431
#     4  12  25  46  71 102 146 190 236 295 365 425
#     4  11  22  45  72 101 141 183 234 293 366 420
#     4  11  23  41  72 102 137 182 232 300 354 429
#
# _framework density 22.478342999999999
#
# number of rings (size 3 to 8) (size 9 to 14) (size 15 to 20)
#    0.000    0.800    6.000    1.200    2.800    1.600 
#    3.600    0.000    0.000    0.000    0.000    0.000 
#    0.000    0.000    0.000    0.000    0.000    0.000 
#
# Total GULP energy -111880.673457 kJ/mol
# GULP energy per Si atom -5594.033673 kJ/mol
# Density = 2.242718 g / cm^3
# Si number density = 22.478343 Si / 1000 Ang^3
#
#
#
# Elastic Constant Matrix: (Units=GPa)
#
#
# Indices 1 2 3 4 5 6 
#
# 1 63.4612 7.4280 9.5447 0.0000 0.0000 0.0000
# 2 7.4280 86.1443 11.8277 0.0000 0.0000 0.0000
# 3 9.5447 11.8277 96.2890 0.0000 0.0000 0.0000
# 4 0.0000 0.0000 0.0000 17.9083 0.0000 0.0000
# 5 0.0000 0.0000 0.0000 0.0000 40.0315 0.0000
# 6 0.0000 0.0000 0.0000 0.0000 0.0000 26.7686
#
#
#
# Elastic Compliance Matrix: (Units=1/GPa)
#
#
# Indices 1 2 3 4 5 6 
#
# 1 0.016115 -0.001190 -0.001451 0.000000 0.000000 0.000000
# 2 -0.001190 0.011895 -0.001343 0.000000 0.000000 0.000000
# 3 -0.001451 -0.001343 0.010694 0.000000 0.000000 0.000000
# 4 0.000000 0.000000 0.000000 0.055840 0.000000 0.000000
# 5 0.000000 0.000000 0.000000 0.000000 0.024980 0.000000
# 6 0.000000 0.000000 0.000000 0.000000 0.000000 0.037357
#
#
# Mechanical properties :
#
#
# Convention : Reuss Voigt Hill
#
# Bulk Modulus (GPa) = 32.53563 33.72168 33.12865
# Shear Modulus (GPa) = 28.55559 31.41462 29.98511
#
# Velocity S-wave (km/s) = 3.56808 3.74244 3.65630
# Velocity P-wave (km/s) = 5.61075 5.80594 5.70918
#
# Compressibility (1/GPa) = 0.03073554
#
# Stress axis : x y z
#
# Youngs Moduli (GPa) = 62.05299 84.06547 93.50818
#
# Poissons Ratio (x) = 0.10006 0.13570
# Poissons Ratio (y) = 0.07386 0.12560
# Poissons Ratio (z) = 0.09005 0.11292
#
# Static dielectric constant tensor:
#      x y z
#    x 1.816770 0.000000 0.000000 
#    y 0.000000 1.857440 0.000000 
#    z 0.000000 0.000000 1.848640 
# 
# From -- ./inp_files/1691.got.cif
#   From: 2010.05.17/outbox.cif.g08.bks.cpg/sg19_1_cif.got.tgz:1691.got - 2010.06.03 22:46:19.
