data_PCOD9315186
_publ_section_title
;
Structure prediction by ZEFSAII (Michael W. Deem and Ramdas Pophale) SiO2 
 PCOD9315186
Probable space group: P 21 21 21
;
_chemical_formula_sum "Si O2"
_cell_formula_units_Z 32
_cell_length_a 14.984556
_cell_length_b 7.759271
_cell_length_c 11.532925
_cell_angle_alpha 90.000000
_cell_angle_beta 90.000000
_cell_angle_gamma 90.000000
_cell_volume 1340.924319
_symmetry_space_group_name_H-M "P 21 21 21"
_symmetry_group_IT_number 19
_symmetry_cell_setting 'orthorhombic'
loop_
_space_group_symop_operation_xyz
x,y,z
1/2-x,-y,1/2+z
1/2+x,1/2-y,-z
-x,1/2+y,1/2-z
loop_
_atom_site_type_symbol
_atom_site_label
_atom_site_fract_x
_atom_site_fract_y
_atom_site_fract_z
Si Si1 0.878027 0.434568 0.227744
Si Si2 0.094999 0.782495 0.516700
Si Si3 0.151186 0.338092 0.714525
Si Si4 0.465224 0.181102 0.393192
Si Si5 0.454213 0.543290 0.877325
Si Si6 0.412389 0.561067 0.436592
Si Si7 0.183971 0.947934 0.727600
Si Si8 0.661962 0.960442 0.815500
O O1 0.788488 0.541049 0.248375
O O2 0.864396 0.237346 0.277270
O O3 0.964024 0.512752 0.292755
O O4 0.891744 0.415148 0.090013
O O5 0.093931 0.598758 0.456470
O O6 0.158328 0.819311 0.624347
O O7 0.994647 0.809698 0.560825
O O8 0.161040 0.356559 0.853260
O O9 0.160724 0.139066 0.681532
O O10 0.232107 0.449349 0.667119
O O11 0.051089 0.383175 0.678173
O O12 0.444443 0.382286 0.380213
O O13 0.495862 0.158569 0.526835
O O14 0.377449 0.088922 0.340657
O O15 0.376748 0.585763 0.784784
O O16 0.380125 0.518264 0.564300
#
# Coordination Sequence:
#
# PCOD9315186 Si02
#       8
#     4   4   4   4   4   4   4   4
#     4  10  23  45  70  99 132 180 229 287 341 416
#     4  11  23  43  70  93 137 177 224 281 342 407
#     4  11  24  43  68  97 139 179 225 284 337 412
#     4  12  24  42  69  96 138 178 227 280 344 405
#     4  11  24  43  69  98 134 179 229 281 344 407
#     4  12  23  44  68  96 136 181 221 283 347 404
#     4  11  25  45  66 101 136 181 233 280 345 414
#     4  10  24  45  66 102 140 179 232 282 350 407
#
# _framework density 23.864135000000001
#
# number of rings (size 3 to 8) (size 9 to 14) (size 15 to 20)
#    0.000    1.000    5.000    0.750    5.250    0.000 
#    4.500    0.000    0.000    0.000    0.000    0.000 
#    0.000    0.000    0.000    0.000    0.000    0.000 
#
# Total GULP energy -178886.040363 kJ/mol
# GULP energy per Si atom -5590.188761 kJ/mol
# Density = 2.380982 g / cm^3
# Si number density = 23.864135 Si / 1000 Ang^3
#
#
#
# Elastic Constant Matrix: (Units=GPa)
#
#
# Indices 1 2 3 4 5 6 
#
# 1 60.0491 22.4892 9.5176 0.0000 0.0000 0.0000
# 2 22.4892 53.0871 36.5194 0.0000 0.0000 0.0000
# 3 9.5176 36.5194 84.8487 0.0000 0.0000 0.0000
# 4 0.0000 0.0000 0.0000 48.8552 0.0000 0.0000
# 5 0.0000 0.0000 0.0000 0.0000 35.0333 0.0000
# 6 0.0000 0.0000 0.0000 0.0000 0.0000 12.8116
#
#
#
# Elastic Compliance Matrix: (Units=1/GPa)
#
#
# Indices 1 2 3 4 5 6 
#
# 1 0.020029 -0.009858 0.001996 0.000000 0.000000 0.000000
# 2 -0.009858 0.031612 -0.012500 0.000000 0.000000 0.000000
# 3 0.001996 -0.012500 0.016942 0.000000 0.000000 0.000000
# 4 0.000000 0.000000 0.000000 0.020469 0.000000 0.000000
# 5 0.000000 0.000000 0.000000 0.000000 0.028544 0.000000
# 6 0.000000 0.000000 0.000000 0.000000 0.000000 0.078054
#
#
# Mechanical properties :
#
#
# Convention : Reuss Voigt Hill
#
# Bulk Modulus (GPa) = 35.89527 37.22636 36.56082
# Shear Modulus (GPa) = 20.35335 27.97061 24.16198
#
# Velocity S-wave (km/s) = 2.92359 3.42728 3.18540
# Velocity P-wave (km/s) = 5.14496 5.59417 5.37426
#
# Compressibility (1/GPa) = 0.02785882
#
# Stress axis : x y z
#
# Youngs Moduli (GPa) = 49.92870 31.63335 59.02503
#
# Poissons Ratio (x) = 0.31184 -0.11783
# Poissons Ratio (y) = 0.49219 0.73783
# Poissons Ratio (z) = -0.09967 0.39543
#
# Static dielectric constant tensor:
#      x y z
#    x 1.858280 0.000000 0.000000 
#    y 0.000000 1.945020 0.000000 
#    z 0.000000 0.000000 1.969650 
# 
# From -- ./inp_files/3598.got.cif
#   From: 2010.05.17/outbox.cif.g08.bks.cpg/sg19_2_cif.got.tgz:3598.got - 2010.06.03 22:46:19.
