data_PCOD9315606
_publ_section_title
;
Structure prediction by ZEFSAII (Michael W. Deem and Ramdas Pophale) SiO2 
 PCOD9315606
Probable space group: P 21 21 21
;
_chemical_formula_sum "Si O2"
_cell_formula_units_Z 28
_cell_length_a 6.820551
_cell_length_b 14.526674
_cell_length_c 14.121697
_cell_angle_alpha 90.000000
_cell_angle_beta 90.000000
_cell_angle_gamma 90.000000
_cell_volume 1399.176621
_symmetry_space_group_name_H-M "P 21 21 21"
_symmetry_group_IT_number 19
_symmetry_cell_setting 'orthorhombic'
loop_
_space_group_symop_operation_xyz
x,y,z
1/2-x,-y,1/2+z
1/2+x,1/2-y,-z
-x,1/2+y,1/2-z
loop_
_atom_site_type_symbol
_atom_site_label
_atom_site_fract_x
_atom_site_fract_y
_atom_site_fract_z
Si Si1 0.961003 0.777268 0.642567
Si Si2 0.445565 0.643586 0.909779
Si Si3 0.903033 0.155042 0.449758
Si Si4 0.774634 0.869492 0.292528
Si Si5 0.294995 0.036107 0.459409
Si Si6 0.615482 0.662701 0.561112
Si Si7 0.611269 0.074466 0.299111
O O1 0.099930 0.704015 0.696183
O O2 0.059270 0.798332 0.541361
O O3 0.748683 0.733704 0.620148
O O4 0.940998 0.868509 0.705807
O O5 0.541719 0.738050 0.946371
O O6 0.407491 0.649026 0.799083
O O7 0.237177 0.634617 0.961757
O O8 0.583257 0.561526 0.946408
O O9 0.780604 0.128096 0.356605
O O10 0.096594 0.094325 0.457082
O O11 0.917120 0.862546 0.383028
O O12 0.685888 0.971270 0.281724
O O13 0.428331 0.066856 0.370818
O O14 0.243407 0.929362 0.451904
#
# Coordination Sequence:
#
# PCOD9315606 Si02
#       7
#     4   4   4   4   4   4   4
#     4  12  27  47  72 103 138 192 238 285 351 420
#     4  11  25  40  71 101 139 178 228 288 353 413
#     4  11  22  44  67 100 141 176 221 288 351 413
#     4  12  26  46  69 105 137 181 238 290 347 419
#     4  11  24  45  68 104 138 182 228 290 353 411
#     4  12  26  48  73  97 148 185 237 291 343 424
#     4  11  26  44  72 100 139 182 234 290 348 414
#
# _framework density 20.011769000000001
#
# number of rings (size 3 to 8) (size 9 to 14) (size 15 to 20)
#    0.000    0.571    5.714    1.714    4.000    3.429 
#    2.571    0.000    0.000    0.000    0.000    0.000 
#    0.000    0.000    0.000    0.000    0.000    0.000 
#
# Total GULP energy -156691.439412 kJ/mol
# GULP energy per Si atom -5596.122836 kJ/mol
# Density = 1.996622 g / cm^3
# Si number density = 20.011769 Si / 1000 Ang^3
#
#
#
# Elastic Constant Matrix: (Units=GPa)
#
#
# Indices 1 2 3 4 5 6 
#
# 1 94.1050 33.7782 13.9351 0.0000 0.0000 0.0000
# 2 33.7782 89.0382 17.5990 0.0000 0.0000 0.0000
# 3 13.9351 17.5990 72.3916 0.0000 0.0000 0.0000
# 4 0.0000 0.0000 0.0000 28.7414 0.0000 0.0000
# 5 0.0000 0.0000 0.0000 0.0000 10.2078 0.0000
# 6 0.0000 0.0000 0.0000 0.0000 0.0000 32.8029
#
#
#
# Elastic Compliance Matrix: (Units=1/GPa)
#
#
# Indices 1 2 3 4 5 6 
#
# 1 0.012418 -0.004453 -0.001308 0.000000 0.000000 0.000000
# 2 -0.004453 0.013395 -0.002399 0.000000 0.000000 0.000000
# 3 -0.001308 -0.002399 0.014649 0.000000 0.000000 0.000000
# 4 0.000000 0.000000 0.000000 0.034793 0.000000 0.000000
# 5 0.000000 0.000000 0.000000 0.000000 0.097965 0.000000
# 6 0.000000 0.000000 0.000000 0.000000 0.000000 0.030485
#
#
# Mechanical properties :
#
#
# Convention : Reuss Voigt Hill
#
# Bulk Modulus (GPa) = 41.42153 42.90662 42.16407
# Shear Modulus (GPa) = 21.92295 27.03191 24.47743
#
# Velocity S-wave (km/s) = 3.31343 3.67931 3.50115
# Velocity P-wave (km/s) = 5.94827 6.28785 6.12041
#
# Compressibility (1/GPa) = 0.02414203
#
# Stress axis : x y z
#
# Youngs Moduli (GPa) = 80.52604 74.65738 68.26494
#
# Poissons Ratio (x) = 0.33242 0.08929
# Poissons Ratio (y) = 0.35855 0.16378
# Poissons Ratio (z) = 0.10533 0.17912
#
# Static dielectric constant tensor:
#      x y z
#    x 1.687630 0.000000 0.000000 
#    y 0.000000 1.680270 0.000000 
#    z 0.000000 0.000000 1.695450 
# 
# From -- ./inp_files/5707.got.cif
#   From: 2010.05.17/outbox.cif.g08.bks.cpg/sg19_3_cif.got.tgz:5707.got - 2010.06.03 22:46:19.
