data_PCOD9315030
_publ_section_title
;
Structure prediction by ZEFSAII (Michael W. Deem and Ramdas Pophale) SiO2 
 PCOD9315030
Probable space group: P 21 21 21
;
_chemical_formula_sum "Si O2"
_cell_formula_units_Z 32
_cell_length_a 10.733680
_cell_length_b 22.564501
_cell_length_c 5.805023
_cell_angle_alpha 90.000000
_cell_angle_beta 90.000000
_cell_angle_gamma 90.000000
_cell_volume 1405.977343
_symmetry_space_group_name_H-M "P 21 21 21"
_symmetry_group_IT_number 19
_symmetry_cell_setting 'orthorhombic'
loop_
_space_group_symop_operation_xyz
x,y,z
1/2-x,-y,1/2+z
1/2+x,1/2-y,-z
-x,1/2+y,1/2-z
loop_
_atom_site_type_symbol
_atom_site_label
_atom_site_fract_x
_atom_site_fract_y
_atom_site_fract_z
Si Si1 0.929986 0.955981 0.710017
Si Si2 0.216961 0.971911 0.666266
Si Si3 0.779818 0.655672 0.411873
Si Si4 0.462746 0.318169 0.072355
Si Si5 0.843028 0.859242 0.036616
Si Si6 0.696485 0.929193 0.386901
Si Si7 0.948750 0.304397 0.189918
Si Si8 0.297889 0.250481 0.431789
O O1 0.820904 0.947081 0.522766
O O2 0.068816 0.966230 0.624505
O O3 0.925369 0.896855 0.864443
O O4 0.888886 0.013513 0.856463
O O5 0.283208 0.908295 0.702305
O O6 0.267058 0.995994 0.416945
O O7 0.893905 0.662363 0.589701
O O8 0.644065 0.660873 0.525274
O O9 0.784586 0.711669 0.241177
O O10 0.397949 0.290751 0.297106
O O11 0.379814 0.374772 0.999409
O O12 0.459480 0.262444 0.901366
O O13 0.739222 0.903409 0.138530
O O14 0.786150 0.798547 0.934276
O O15 0.923205 0.836756 0.255453
O O16 0.873679 0.296812 0.425048
#
# Coordination Sequence:
#
# PCOD9315030 Si02
#       8
#     4   4   4   4   4   4   4   4
#     4  12  25  46  76 103 150 194 263 320 387 471
#     4  12  31  53  79 114 156 213 267 324 392 473
#     4  11  24  45  71 102 147 196 250 317 391 466
#     4  10  23  43  65 103 145 183 246 313 387 464
#     4  11  23  43  68 106 141 192 243 311 382 467
#     4  11  24  44  70 106 141 192 246 319 388 450
#     4  11  23  41  70  99 140 187 240 308 384 463
#     4  10  23  41  67 105 140 187 245 310 389 456
#
# _framework density 22.759967
#
# number of rings (size 3 to 8) (size 9 to 14) (size 15 to 20)
#    0.000    1.000    2.500    3.000    7.000    2.000 
#    4.500    0.000    0.000    0.000    0.000    0.000 
#    0.000    0.000    0.000    0.000    0.000    0.000 
#
# Total GULP energy -178764.021271 kJ/mol
# GULP energy per Si atom -5586.375665 kJ/mol
# Density = 2.270816 g / cm^3
# Si number density = 22.759967 Si / 1000 Ang^3
#
#
#
# Elastic Constant Matrix: (Units=GPa)
#
#
# Indices 1 2 3 4 5 6 
#
# 1 71.4784 38.6331 0.6021 0.0000 0.0000 0.0000
# 2 38.6331 116.3319 29.7320 0.0000 0.0000 0.0000
# 3 0.6021 29.7320 41.4615 0.0000 0.0000 0.0000
# 4 0.0000 0.0000 0.0000 20.9244 0.0000 0.0000
# 5 0.0000 0.0000 0.0000 0.0000 10.5180 0.0000
# 6 0.0000 0.0000 0.0000 0.0000 0.0000 29.8269
#
#
#
# Elastic Compliance Matrix: (Units=1/GPa)
#
#
# Indices 1 2 3 4 5 6 
#
# 1 0.017822 -0.007166 0.004880 0.000000 0.000000 0.000000
# 2 -0.007166 0.013406 -0.009510 0.000000 0.000000 0.000000
# 3 0.004880 -0.009510 0.030867 0.000000 0.000000 0.000000
# 4 0.000000 0.000000 0.000000 0.047791 0.000000 0.000000
# 5 0.000000 0.000000 0.000000 0.000000 0.095075 0.000000
# 6 0.000000 0.000000 0.000000 0.000000 0.000000 0.033527
#
#
# Mechanical properties :
#
#
# Convention : Reuss Voigt Hill
#
# Bulk Modulus (GPa) = 25.97102 40.80067 33.38585
# Shear Modulus (GPa) = 18.18749 22.94085 20.56417
#
# Velocity S-wave (km/s) = 2.82990 3.17826 3.00913
# Velocity P-wave (km/s) = 4.70249 5.60659 5.17433
#
# Compressibility (1/GPa) = 0.03850445
#
# Stress axis : x y z
#
# Youngs Moduli (GPa) = 56.10997 74.59213 32.39690
#
# Poissons Ratio (x) = 0.53451 -0.15809
# Poissons Ratio (y) = 0.40207 0.30808
# Poissons Ratio (z) = -0.27380 0.70934
#
# Static dielectric constant tensor:
#      x y z
#    x 1.820330 0.000000 0.000000 
#    y 0.000000 1.841250 0.000000 
#    z 0.000000 0.000000 1.886590 
# 
# From -- ./inp_files/1170.got.cif
#   From: 2010.05.17/outbox.cif.g08.bks.cpg/sg19_1_cif.got.tgz:1170.got - 2010.06.03 22:46:19.
