data_PCOD9315336
_publ_section_title
;
Structure prediction by ZEFSAII (Michael W. Deem and Ramdas Pophale) SiO2 
 PCOD9315336
Probable space group: P 21 21 21
;
_chemical_formula_sum "Si O2"
_cell_formula_units_Z 24
_cell_length_a 9.323452
_cell_length_b 18.614371
_cell_length_c 6.038142
_cell_angle_alpha 90.000000
_cell_angle_beta 90.000000
_cell_angle_gamma 90.000000
_cell_volume 1047.920719
_symmetry_space_group_name_H-M "P 21 21 21"
_symmetry_group_IT_number 19
_symmetry_cell_setting 'orthorhombic'
loop_
_space_group_symop_operation_xyz
x,y,z
1/2-x,-y,1/2+z
1/2+x,1/2-y,-z
-x,1/2+y,1/2-z
loop_
_atom_site_type_symbol
_atom_site_label
_atom_site_fract_x
_atom_site_fract_y
_atom_site_fract_z
Si Si1 0.517848 0.829197 0.898628
Si Si2 0.552730 0.940159 0.243377
Si Si3 0.751608 0.462150 0.103426
Si Si4 0.800858 0.290138 0.652937
Si Si5 0.781114 0.172898 0.999381
Si Si6 0.999889 0.899384 0.650009
O O1 0.354262 0.808792 0.935980
O O2 0.582100 0.826462 0.657000
O O3 0.537263 0.908597 0.997038
O O4 0.613537 0.770204 0.022279
O O5 0.402300 0.923747 0.368523
O O6 0.684014 0.895162 0.341517
O O7 0.564074 0.025691 0.237723
O O8 0.761095 0.499635 0.352782
O O9 0.896904 0.416917 0.060387
O O10 0.893909 0.361421 0.677525
O O11 0.774544 0.250099 0.885527
O O12 0.629532 0.154744 0.107619
#
# Coordination Sequence:
#
# PCOD9315336 Si02
#       6
#     4   4   4   4   4   4
#     4  11  25  47  73 103 153 191 260 311 385 459
#     4  10  26  42  70 104 145 191 247 321 378 454
#     4  10  24  45  68 110 149 194 250 308 382 448
#     4  11  25  47  71 106 140 207 245 319 375 473
#     4  11  25  46  67 105 147 193 254 311 390 452
#     4  11  25  43  73 106 144 198 248 316 386 454
#
# _framework density 22.902494000000001
#
# number of rings (size 3 to 8) (size 9 to 14) (size 15 to 20)
#    0.000    1.333    0.000    3.000   16.333    5.333 
#    9.000    0.000    0.000    0.000    0.000    0.000 
#    0.000    0.000    0.000    0.000    0.000    0.000 
#
# Total GULP energy -133924.277036 kJ/mol
# GULP energy per Si atom -5580.178210 kJ/mol
# Density = 2.285037 g / cm^3
# Si number density = 22.902494 Si / 1000 Ang^3
#
#
#
# Elastic Constant Matrix: (Units=GPa)
#
#
# Indices 1 2 3 4 5 6 
#
# 1 45.0613 -15.0438 -4.3084 0.0000 0.0000 0.0000
# 2 -15.0438 93.6062 17.6841 0.0000 0.0000 0.0000
# 3 -4.3084 17.6841 48.2595 0.0000 0.0000 0.0000
# 4 0.0000 0.0000 0.0000 17.4039 0.0000 0.0000
# 5 0.0000 0.0000 0.0000 0.0000 21.8383 0.0000
# 6 0.0000 0.0000 0.0000 0.0000 0.0000 24.0376
#
#
#
# Elastic Compliance Matrix: (Units=1/GPa)
#
#
# Indices 1 2 3 4 5 6 
#
# 1 0.023477 0.003628 0.000766 0.000000 0.000000 0.000000
# 2 0.003628 0.012038 -0.004087 0.000000 0.000000 0.000000
# 3 0.000766 -0.004087 0.022288 0.000000 0.000000 0.000000
# 4 0.000000 0.000000 0.000000 0.057459 0.000000 0.000000
# 5 0.000000 0.000000 0.000000 0.000000 0.045791 0.000000
# 6 0.000000 0.000000 0.000000 0.000000 0.000000 0.041602
#
#
# Mechanical properties :
#
#
# Convention : Reuss Voigt Hill
#
# Bulk Modulus (GPa) = 17.11834 20.39895 18.75865
# Shear Modulus (GPa) = 22.57220 25.22895 23.90058
#
# Velocity S-wave (km/s) = 3.14280 3.32261 3.23395
# Velocity P-wave (km/s) = 4.54535 4.86270 4.70670
#
# Compressibility (1/GPa) = 0.05841688
#
# Stress axis : x y z
#
# Youngs Moduli (GPa) = 42.59566 83.06784 44.86819
#
# Poissons Ratio (x) = -0.30139 -0.03439
# Poissons Ratio (y) = -0.15455 0.18339
# Poissons Ratio (z) = -0.03264 0.33953
#
# Static dielectric constant tensor:
#      x y z
#    x 1.821010 0.000000 0.000000 
#    y 0.000000 1.855850 0.000000 
#    z 0.000000 0.000000 1.968510 
# 
# From -- ./inp_files/433.got.cif
#   From: 2010.05.17/outbox.cif.g08.bks.cpg/sg19_1_cif.got.tgz:433.got - 2010.06.03 22:46:19.
