data_PCOD9315421
_publ_section_title
;
Structure prediction by ZEFSAII (Michael W. Deem and Ramdas Pophale) SiO2 
 PCOD9315421
Probable space group: P 21 21 21
;
_chemical_formula_sum "Si O2"
_cell_formula_units_Z 28
_cell_length_a 11.576639
_cell_length_b 18.254543
_cell_length_c 5.056751
_cell_angle_alpha 90.000000
_cell_angle_beta 90.000000
_cell_angle_gamma 90.000000
_cell_volume 1068.624248
_symmetry_space_group_name_H-M "P 21 21 21"
_symmetry_group_IT_number 19
_symmetry_cell_setting 'orthorhombic'
loop_
_space_group_symop_operation_xyz
x,y,z
1/2-x,-y,1/2+z
1/2+x,1/2-y,-z
-x,1/2+y,1/2-z
loop_
_atom_site_type_symbol
_atom_site_label
_atom_site_fract_x
_atom_site_fract_y
_atom_site_fract_z
Si Si1 0.270586 0.451519 0.542001
Si Si2 0.487500 0.406104 0.893342
Si Si3 0.572580 0.775679 0.249782
Si Si4 0.938626 0.850762 0.916998
Si Si5 0.349729 0.197748 0.738479
Si Si6 0.183679 0.102852 0.432924
Si Si7 0.086401 0.970876 0.742614
O O1 0.282983 0.491595 0.259703
O O2 0.386263 0.426327 0.691115
O O3 0.182243 0.384264 0.502299
O O4 0.444313 0.355788 0.135402
O O5 0.587653 0.359069 0.746574
O O6 0.545176 0.479335 0.011473
O O7 0.453141 0.729872 0.206543
O O8 0.639637 0.763238 0.976370
O O9 0.641716 0.730359 0.472980
O O10 0.035043 0.848030 0.151531
O O11 0.990265 0.909398 0.708340
O O12 0.239119 0.148970 0.669798
O O13 0.115846 0.031357 0.529340
O O14 0.295177 0.073377 0.280726
#
# Coordination Sequence:
#
# PCOD9315421 Si02
#       7
#     4   4   4   4   4   4   4
#     4  12  27  45  71  99 138 189 237 288 340 414
#     4  12  27  44  69 108 139 180 242 291 344 419
#     4  10  25  45  70 101 143 181 229 281 350 419
#     4   9  23  45  71  95 141 185 229 283 352 412
#     4   9  24  45  69 100 137 185 224 275 360 412
#     4  11  24  38  73 103 139 179 229 301 348 412
#     4  11  22  42  71 104 135 177 238 291 356 404
#
# _framework density 26.201913000000001
#
# number of rings (size 3 to 8) (size 9 to 14) (size 15 to 20)
#    0.857    0.571    2.857    0.857    8.000    1.143 
#    2.571    0.000    0.000    0.000    0.000    0.000 
#    0.000    0.000    0.000    0.000    0.000    0.000 
#
# Total GULP energy -156757.018077 kJ/mol
# GULP energy per Si atom -5598.464931 kJ/mol
# Density = 2.614228 g / cm^3
# Si number density = 26.201913 Si / 1000 Ang^3
#
#
#
# Elastic Constant Matrix: (Units=GPa)
#
#
# Indices 1 2 3 4 5 6 
#
# 1 95.4204 31.1945 -5.7529 0.0000 0.0000 0.0000
# 2 31.1945 108.5076 15.9022 0.0000 0.0000 0.0000
# 3 -5.7529 15.9022 77.3903 0.0000 0.0000 0.0000
# 4 0.0000 0.0000 0.0000 46.1386 0.0000 0.0000
# 5 0.0000 0.0000 0.0000 0.0000 22.5492 0.0000
# 6 0.0000 0.0000 0.0000 0.0000 0.0000 43.4036
#
#
#
# Elastic Compliance Matrix: (Units=1/GPa)
#
#
# Indices 1 2 3 4 5 6 
#
# 1 0.011760 -0.003618 0.001618 0.000000 0.000000 0.000000
# 2 -0.003618 0.010615 -0.002450 0.000000 0.000000 0.000000
# 3 0.001618 -0.002450 0.013545 0.000000 0.000000 0.000000
# 4 0.000000 0.000000 0.000000 0.021674 0.000000 0.000000
# 5 0.000000 0.000000 0.000000 0.000000 0.044347 0.000000
# 6 0.000000 0.000000 0.000000 0.000000 0.000000 0.023040
#
#
# Mechanical properties :
#
#
# Convention : Reuss Voigt Hill
#
# Bulk Modulus (GPa) = 37.01015 40.44509 38.72762
# Shear Modulus (GPa) = 34.99220 38.41659 36.70440
#
# Velocity S-wave (km/s) = 3.65839 3.83322 3.74683
# Velocity P-wave (km/s) = 5.65692 5.92122 5.79058
#
# Compressibility (1/GPa) = 0.02701961
#
# Stress axis : x y z
#
# Youngs Moduli (GPa) = 85.03227 94.20499 73.82679
#
# Poissons Ratio (x) = 0.34083 -0.11943
# Poissons Ratio (y) = 0.30765 0.18089
# Poissons Ratio (z) = -0.13755 0.23082
#
# Static dielectric constant tensor:
#      x y z
#    x 2.044560 0.000000 0.000000 
#    y 0.000000 2.068640 0.000000 
#    z 0.000000 0.000000 2.078740 
# 
# From -- ./inp_files/1131.got.cif
#   From: 2010.05.17/outbox.cif.g08.bks.cpg/sg19_1_cif.got.tgz:1131.got - 2010.06.03 22:46:19.
