data_PCOD9315368
_publ_section_title
;
Structure prediction by ZEFSAII (Michael W. Deem and Ramdas Pophale) SiO2 
 PCOD9315368
Probable space group: P 21 21 21
;
_chemical_formula_sum "Si O2"
_cell_formula_units_Z 28
_cell_length_a 15.383215
_cell_length_b 5.280093
_cell_length_c 13.838893
_cell_angle_alpha 90.000000
_cell_angle_beta 90.000000
_cell_angle_gamma 90.000000
_cell_volume 1124.061397
_symmetry_space_group_name_H-M "P 21 21 21"
_symmetry_group_IT_number 19
_symmetry_cell_setting 'orthorhombic'
loop_
_space_group_symop_operation_xyz
x,y,z
1/2-x,-y,1/2+z
1/2+x,1/2-y,-z
-x,1/2+y,1/2-z
loop_
_atom_site_type_symbol
_atom_site_label
_atom_site_fract_x
_atom_site_fract_y
_atom_site_fract_z
Si Si1 0.279697 0.450850 0.473176
Si Si2 0.030669 0.059214 0.299656
Si Si3 0.189052 0.674538 0.639544
Si Si4 0.073263 0.170738 0.661551
Si Si5 0.392318 0.818855 0.371015
Si Si6 0.051821 0.799829 0.009989
Si Si7 0.220087 0.141753 0.321068
O O1 0.240883 0.665350 0.539621
O O2 0.341521 0.563037 0.390674
O O3 0.347998 0.278546 0.530328
O O4 0.204629 0.305920 0.417267
O O5 0.132799 0.988467 0.302979
O O6 0.017461 0.294127 0.224144
O O7 0.999576 0.195771 0.398366
O O8 0.135861 0.413114 0.646246
O O9 0.257610 0.697339 0.726371
O O10 0.127320 0.916633 0.643058
O O11 0.048938 0.179815 0.775561
O O12 0.995973 0.184550 0.584968
O O13 0.439100 0.912337 0.469078
O O14 0.310190 0.999587 0.345235
#
# Coordination Sequence:
#
# PCOD9315368 Si02
#       7
#     4   4   4   4   4   4   4
#     4  11  24  44  72 101 141 189 238 294 357 434
#     4  12  30  49  74 107 151 193 244 304 359 429
#     4  11  25  43  73  99 140 185 239 287 356 424
#     4  11  26  47  70 108 139 186 236 304 357 428
#     4  10  25  43  73 101 144 185 239 296 364 428
#     4  11  28  43  72 107 145 190 241 297 374 423
#     4  10  24  47  68 103 138 188 237 290 353 432
#
# _framework density 24.909668
#
# number of rings (size 3 to 8) (size 9 to 14) (size 15 to 20)
#    0.000    1.143    1.429    1.714   16.000    1.143 
#    0.000    0.000    0.000    0.000    0.000    0.000 
#    0.000    0.000    0.000    0.000    0.000    0.000 
#
# Total GULP energy -156533.288077 kJ/mol
# GULP energy per Si atom -5590.474574 kJ/mol
# Density = 2.485297 g / cm^3
# Si number density = 24.909668 Si / 1000 Ang^3
#
#
#
# Elastic Constant Matrix: (Units=GPa)
#
#
# Indices 1 2 3 4 5 6 
#
# 1 61.2796 12.6598 3.7719 0.0000 0.0000 0.0000
# 2 12.6598 81.2268 -9.8956 0.0000 0.0000 0.0000
# 3 3.7719 -9.8956 65.1201 0.0000 0.0000 0.0000
# 4 0.0000 0.0000 0.0000 27.8548 0.0000 0.0000
# 5 0.0000 0.0000 0.0000 0.0000 26.1406 0.0000
# 6 0.0000 0.0000 0.0000 0.0000 0.0000 29.7896
#
#
#
# Elastic Compliance Matrix: (Units=1/GPa)
#
#
# Indices 1 2 3 4 5 6 
#
# 1 0.016988 -0.002820 -0.001412 0.000000 0.000000 0.000000
# 2 -0.002820 0.013011 0.002141 0.000000 0.000000 0.000000
# 3 -0.001412 0.002141 0.015763 0.000000 0.000000 0.000000
# 4 0.000000 0.000000 0.000000 0.035900 0.000000 0.000000
# 5 0.000000 0.000000 0.000000 0.000000 0.038255 0.000000
# 6 0.000000 0.000000 0.000000 0.000000 0.000000 0.033569
#
#
# Mechanical properties :
#
#
# Convention : Reuss Voigt Hill
#
# Bulk Modulus (GPa) = 24.05038 24.52210 24.28624
# Shear Modulus (GPa) = 29.14941 30.16304 29.65623
#
# Velocity S-wave (km/s) = 3.42454 3.48357 3.45418
# Velocity P-wave (km/s) = 5.03116 5.10354 5.06748
#
# Compressibility (1/GPa) = 0.04157939
#
# Stress axis : x y z
#
# Youngs Moduli (GPa) = 58.86465 76.85530 63.43841
#
# Poissons Ratio (x) = 0.21672 0.08961
# Poissons Ratio (y) = 0.16599 -0.13579
# Poissons Ratio (z) = 0.08315 -0.16451
#
# Static dielectric constant tensor:
#      x y z
#    x 1.977500 0.000000 0.000000 
#    y 0.000000 2.022640 0.000000 
#    z 0.000000 0.000000 1.994580 
# 
# From -- ./inp_files/1511.got.cif
#   From: 2010.05.17/outbox.cif.g08.bks.cpg/sg19_1_cif.got.tgz:1511.got - 2010.06.03 22:46:19.
