data_PCOD9315509
_publ_section_title
;
Structure prediction by ZEFSAII (Michael W. Deem and Ramdas Pophale) SiO2 
 PCOD9315509
Probable space group: P 21 21 21
;
_chemical_formula_sum "Si O2"
_cell_formula_units_Z 28
_cell_length_a 12.514654
_cell_length_b 18.006182
_cell_length_c 5.342751
_cell_angle_alpha 90.000000
_cell_angle_beta 90.000000
_cell_angle_gamma 90.000000
_cell_volume 1203.941588
_symmetry_space_group_name_H-M "P 21 21 21"
_symmetry_group_IT_number 19
_symmetry_cell_setting 'orthorhombic'
loop_
_space_group_symop_operation_xyz
x,y,z
1/2-x,-y,1/2+z
1/2+x,1/2-y,-z
-x,1/2+y,1/2-z
loop_
_atom_site_type_symbol
_atom_site_label
_atom_site_fract_x
_atom_site_fract_y
_atom_site_fract_z
Si Si1 0.242987 0.797052 0.810511
Si Si2 0.501559 0.486945 0.079964
Si Si3 0.514635 0.639803 0.332721
Si Si4 0.144277 0.937023 0.297711
Si Si5 0.141107 0.086158 0.584427
Si Si6 0.290542 0.460305 0.804256
Si Si7 0.208131 0.292758 0.808847
O O1 0.125921 0.835739 0.797606
O O2 0.258727 0.751651 0.556596
O O3 0.336551 0.858652 0.856234
O O4 0.253364 0.744135 0.051293
O O5 0.468279 0.561934 0.225483
O O6 0.531958 0.418492 0.260396
O O7 0.606616 0.516096 0.939161
O O8 0.415386 0.466638 0.872961
O O9 0.552859 0.619730 0.613996
O O10 0.420949 0.698936 0.309869
O O11 0.256488 0.897911 0.257961
O O12 0.153979 0.000287 0.506529
O O13 0.265594 0.494346 0.532155
O O14 0.255489 0.375365 0.820766
#
# Coordination Sequence:
#
# PCOD9315509 Si02
#       7
#     4   4   4   4   4   4   4
#     4  12  28  48  74 105 158 195 239 297 366 467
#     4  11  24  41  80 108 141 192 245 320 360 424
#     4  11  25  48  73 104 144 204 241 298 384 421
#     4  11  20  40  74 107 144 188 247 304 361 432
#     4  11  22  40  67 113 147 186 241 301 367 425
#     4  12  26  51  79 109 139 190 260 313 357 433
#     4  12  29  50  75 108 147 201 245 297 369 458
#
# _framework density 23.256941999999999
#
# number of rings (size 3 to 8) (size 9 to 14) (size 15 to 20)
#    0.000    0.571    4.286    3.429    6.000    1.143 
#    2.571    0.000    0.000    0.000    0.000    0.000 
#    0.000    0.000    0.000    0.000    0.000    0.000 
#
# Total GULP energy -156574.980178 kJ/mol
# GULP energy per Si atom -5591.963578 kJ/mol
# Density = 2.320401 g / cm^3
# Si number density = 23.256942 Si / 1000 Ang^3
#
#
#
# Elastic Constant Matrix: (Units=GPa)
#
#
# Indices 1 2 3 4 5 6 
#
# 1 73.2407 33.6311 17.7174 0.0000 0.0000 0.0000
# 2 33.6311 114.7391 50.1117 0.0000 0.0000 0.0000
# 3 17.7174 50.1117 119.9910 0.0000 0.0000 0.0000
# 4 0.0000 0.0000 0.0000 42.8326 0.0000 0.0000
# 5 0.0000 0.0000 0.0000 0.0000 40.6156 0.0000
# 6 0.0000 0.0000 0.0000 0.0000 0.0000 35.7053
#
#
#
# Elastic Compliance Matrix: (Units=1/GPa)
#
#
# Indices 1 2 3 4 5 6 
#
# 1 0.015800 -0.004418 -0.000488 0.000000 0.000000 0.000000
# 2 -0.004418 0.011895 -0.004315 0.000000 0.000000 0.000000
# 3 -0.000488 -0.004315 0.010208 0.000000 0.000000 0.000000
# 4 0.000000 0.000000 0.000000 0.023347 0.000000 0.000000
# 5 0.000000 0.000000 0.000000 0.000000 0.024621 0.000000
# 6 0.000000 0.000000 0.000000 0.000000 0.000000 0.028007
#
#
# Mechanical properties :
#
#
# Convention : Reuss Voigt Hill
#
# Bulk Modulus (GPa) = 51.38503 56.76568 54.07536
# Shear Modulus (GPa) = 36.02088 37.59807 36.80947
#
# Velocity S-wave (km/s) = 3.93978 4.02511 3.98267
# Velocity P-wave (km/s) = 6.54509 6.78697 6.66713
#
# Compressibility (1/GPa) = 0.01946092
#
# Stress axis : x y z
#
# Youngs Moduli (GPa) = 63.28962 84.06795 97.96024
#
# Poissons Ratio (x) = 0.37143 0.04779
# Poissons Ratio (y) = 0.27962 0.42274
# Poissons Ratio (z) = 0.03088 0.36279
#
# Static dielectric constant tensor:
#      x y z
#    x 1.901810 0.000000 0.000000 
#    y 0.000000 1.867140 0.000000 
#    z 0.000000 0.000000 1.922460 
# 
# From -- ./inp_files/1070.got.cif
#   From: 2010.05.17/outbox.cif.g08.bks.cpg/sg19_1_cif.got.tgz:1070.got - 2010.06.03 22:46:19.
