data_PCOD9315287
_publ_section_title
;
Structure prediction by ZEFSAII (Michael W. Deem and Ramdas Pophale) SiO2 
 PCOD9315287
Probable space group: P 21 21 21
;
_chemical_formula_sum "Si O2"
_cell_formula_units_Z 24
_cell_length_a 27.080226
_cell_length_b 5.136199
_cell_length_c 5.689249
_cell_angle_alpha 90.000000
_cell_angle_beta 90.000000
_cell_angle_gamma 90.000000
_cell_volume 791.314399
_symmetry_space_group_name_H-M "P 21 21 21"
_symmetry_group_IT_number 19
_symmetry_cell_setting 'orthorhombic'
loop_
_space_group_symop_operation_xyz
x,y,z
1/2-x,-y,1/2+z
1/2+x,1/2-y,-z
-x,1/2+y,1/2-z
loop_
_atom_site_type_symbol
_atom_site_label
_atom_site_fract_x
_atom_site_fract_y
_atom_site_fract_z
Si Si1 0.270442 0.606653 0.172623
Si Si2 0.521683 0.042506 0.124759
Si Si3 0.644810 0.033980 0.617600
Si Si4 0.688923 0.534882 0.872975
Si Si5 0.103136 0.073845 0.838082
Si Si6 0.435899 0.925677 0.837804
O O1 0.161666 0.716826 0.242286
O O2 0.255559 0.531772 0.440883
O O3 0.327476 0.529363 0.132233
O O4 0.245980 0.891617 0.135137
O O5 0.505271 0.809401 0.292654
O O6 0.421878 0.636198 0.356037
O O7 0.493574 0.960207 0.887096
O O8 0.588809 0.134873 0.645272
O O9 0.673771 0.283291 0.726232
O O10 0.660424 0.477421 0.114920
O O11 0.089432 0.966918 0.580113
O O12 0.077638 0.966720 0.080343
#
# Coordination Sequence:
#
# PCOD9315287 Si02
#       6
#     4   4   4   4   4   4
#     4  10  24  46  74 106 146 188 236 290 352 422
#     4  10  24  46  72 102 140 186 238 296 356 420
#     4  10  24  45  72 106 143 187 237 291 352 421
#     4  10  24  45  72 106 143 187 237 291 352 421
#     4  10  24  43  69 100 138 182 232 290 350 416
#     4  10  24  43  69 100 138 182 232 290 350 416
#
# _framework density 30.32929
#
# number of rings (size 3 to 8) (size 9 to 14) (size 15 to 20)
#    0.000    2.000    0.000    0.000    0.000   33.333 
#    0.000    3.333    0.000    2.000    0.000    0.000 
#    0.000    0.000    0.000    0.000    0.000    0.000 
#
# Total GULP energy -134074.338276 kJ/mol
# GULP energy per Si atom -5586.430762 kJ/mol
# Density = 3.026026 g / cm^3
# Si number density = 30.329290 Si / 1000 Ang^3
#
#
#
# Elastic Constant Matrix: (Units=GPa)
#
#
# Indices 1 2 3 4 5 6 
#
# 1 204.3678 42.5182 49.4379 0.0000 0.0000 0.0000
# 2 42.5182 157.2225 27.2115 0.0000 0.0000 0.0000
# 3 49.4379 27.2115 202.6348 0.0000 0.0000 0.0000
# 4 0.0000 0.0000 0.0000 63.5920 0.0000 0.0000
# 5 0.0000 0.0000 0.0000 0.0000 67.9135 0.0000
# 6 0.0000 0.0000 0.0000 0.0000 0.0000 62.9149
#
#
#
# Elastic Compliance Matrix: (Units=1/GPa)
#
#
# Indices 1 2 3 4 5 6 
#
# 1 0.005437 -0.001270 -0.001156 0.000000 0.000000 0.000000
# 2 -0.001270 0.006809 -0.000604 0.000000 0.000000 0.000000
# 3 -0.001156 -0.000604 0.005298 0.000000 0.000000 0.000000
# 4 0.000000 0.000000 0.000000 0.015725 0.000000 0.000000
# 5 0.000000 0.000000 0.000000 0.000000 0.014725 0.000000
# 6 0.000000 0.000000 0.000000 0.000000 0.000000 0.015894
#
#
# Mechanical properties :
#
#
# Convention : Reuss Voigt Hill
#
# Bulk Modulus (GPa) = 87.08863 89.17334 88.13098
# Shear Modulus (GPa) = 67.77197 68.55459 68.16328
#
# Velocity S-wave (km/s) = 4.73222 4.75946 4.74586
# Velocity P-wave (km/s) = 7.65736 7.72456 7.69104
#
# Compressibility (1/GPa) = 0.01148256
#
# Stress axis : x y z
#
# Youngs Moduli (GPa) = 183.92342 146.87418 188.74465
#
# Poissons Ratio (x) = 0.18657 0.21817
# Poissons Ratio (y) = 0.23364 0.11407
# Poissons Ratio (z) = 0.21260 0.08877
#
# Static dielectric constant tensor:
#      x y z
#    x 2.693140 0.000000 0.000000 
#    y 0.000000 2.437640 0.000000 
#    z 0.000000 0.000000 2.451260 
# 
# From -- ./inp_files/2294.got.cif
#   From: 2010.05.17/outbox.cif.g08.bks.cpg/sg19_2_cif.got.tgz:2294.got - 2010.06.03 22:46:19.
