data_PCOD9315469
_publ_section_title
;
Structure prediction by ZEFSAII (Michael W. Deem and Ramdas Pophale) SiO2 
 PCOD9315469
Probable space group: P 21 21 21
;
_chemical_formula_sum "Si O2"
_cell_formula_units_Z 16
_cell_length_a 7.558914
_cell_length_b 7.127486
_cell_length_c 9.869165
_cell_angle_alpha 90.000000
_cell_angle_beta 90.000000
_cell_angle_gamma 90.000000
_cell_volume 531.711664
_symmetry_space_group_name_H-M "P 21 21 21"
_symmetry_group_IT_number 19
_symmetry_cell_setting 'orthorhombic'
loop_
_space_group_symop_operation_xyz
x,y,z
1/2-x,-y,1/2+z
1/2+x,1/2-y,-z
-x,1/2+y,1/2-z
loop_
_atom_site_type_symbol
_atom_site_label
_atom_site_fract_x
_atom_site_fract_y
_atom_site_fract_z
Si Si1 0.057183 0.312516 0.239144
Si Si2 0.936923 0.836038 0.951541
Si Si3 0.130543 0.945597 0.692009
Si Si4 0.254769 0.362232 0.883548
O O1 0.012404 0.267472 0.397251
O O2 0.176276 0.495658 0.265058
O O3 0.184162 0.157711 0.170010
O O4 0.880449 0.314123 0.148498
O O5 0.870259 0.652720 0.870942
O O6 0.812229 0.011541 0.989698
O O7 0.088350 0.914531 0.851980
O O8 0.954824 0.850626 0.626490
#
# Coordination Sequence:
#
# PCOD9315469 Si02
#       4
#     4   4   4   4
#     4  10  26  46  77 106 149 198 255 314 373 445
#     4  10  26  50  72 112 146 192 256 306 372 452
#     4  12  24  48  76 106 156 200 244 320 374 442
#     4  10  26  46  77 106 149 198 255 314 373 445
#
# _framework density 30.091494999999998
#
# number of rings (size 3 to 8) (size 9 to 14) (size 15 to 20)
#    1.500    0.000    2.500    0.000   17.500    0.000 
#    4.500    0.000    0.000    0.000    0.000    0.000 
#    0.000    0.000    0.000    0.000    0.000    0.000 
#
# Total GULP energy -89612.974424 kJ/mol
# GULP energy per Si atom -5600.810901 kJ/mol
# Density = 3.002301 g / cm^3
# Si number density = 30.091495 Si / 1000 Ang^3
#
#
#
# Elastic Constant Matrix: (Units=GPa)
#
#
# Indices 1 2 3 4 5 6 
#
# 1 210.5303 44.0654 71.1641 0.0000 0.0000 0.0000
# 2 44.0654 154.5263 43.1566 0.0000 0.0000 0.0000
# 3 71.1641 43.1566 176.0396 0.0000 0.0000 0.0000
# 4 0.0000 0.0000 0.0000 66.1496 0.0000 0.0000
# 5 0.0000 0.0000 0.0000 0.0000 47.4660 0.0000
# 6 0.0000 0.0000 0.0000 0.0000 0.0000 58.8259
#
#
#
# Elastic Compliance Matrix: (Units=1/GPa)
#
#
# Indices 1 2 3 4 5 6 
#
# 1 0.005655 -0.001046 -0.002030 0.000000 0.000000 0.000000
# 2 -0.001046 0.007140 -0.001328 0.000000 0.000000 0.000000
# 3 -0.002030 -0.001328 0.006827 0.000000 0.000000 0.000000
# 4 0.000000 0.000000 0.000000 0.015117 0.000000 0.000000
# 5 0.000000 0.000000 0.000000 0.000000 0.021068 0.000000
# 6 0.000000 0.000000 0.000000 0.000000 0.000000 0.016999
#
#
# Mechanical properties :
#
#
# Convention : Reuss Voigt Hill
#
# Bulk Modulus (GPa) = 92.45918 95.31872 93.88895
# Shear Modulus (GPa) = 58.67343 60.00230 59.33786
#
# Velocity S-wave (km/s) = 4.42048 4.47026 4.44544
# Velocity P-wave (km/s) = 7.53969 7.64129 7.59066
#
# Compressibility (1/GPa) = 0.01081558
#
# Stress axis : x y z
#
# Youngs Moduli (GPa) = 176.83958 140.04791 146.48760
#
# Poissons Ratio (x) = 0.14645 0.29731
# Poissons Ratio (y) = 0.18493 0.19450
# Poissons Ratio (z) = 0.35892 0.18595
#
# Static dielectric constant tensor:
#      x y z
#    x 2.269200 0.000000 0.000000 
#    y 0.000000 2.566530 0.000000 
#    z 0.000000 0.000000 2.338490 
# 
# From -- ./inp_files/2537.got.cif
#   From: 2010.05.17/outbox.cif.g08.bks.cpg/sg19_2_cif.got.tgz:2537.got - 2010.06.03 22:46:19.
