data_PCOD9315045
_publ_section_title
;
Structure prediction by ZEFSAII (Michael W. Deem and Ramdas Pophale) SiO2 
 PCOD9315045
Probable space group: P 21 21 21
;
_chemical_formula_sum "Si O2"
_cell_formula_units_Z 32
_cell_length_a 14.014617
_cell_length_b 11.764504
_cell_length_c 8.913717
_cell_angle_alpha 90.000000
_cell_angle_beta 90.000000
_cell_angle_gamma 90.000000
_cell_volume 1469.649249
_symmetry_space_group_name_H-M "P 21 21 21"
_symmetry_group_IT_number 19
_symmetry_cell_setting 'orthorhombic'
loop_
_space_group_symop_operation_xyz
x,y,z
1/2-x,-y,1/2+z
1/2+x,1/2-y,-z
-x,1/2+y,1/2-z
loop_
_atom_site_type_symbol
_atom_site_label
_atom_site_fract_x
_atom_site_fract_y
_atom_site_fract_z
Si Si1 0.956060 0.453912 0.338972
Si Si2 0.888698 0.229283 0.990720
Si Si3 0.690995 0.390208 0.248879
Si Si4 0.159215 0.746085 0.067648
Si Si5 0.841661 0.478757 0.046006
Si Si6 0.657567 0.953388 0.718552
Si Si7 0.393548 0.806423 0.544560
Si Si8 0.733895 0.822565 0.248754
O O1 0.928149 0.335787 0.419506
O O2 0.926240 0.471233 0.165695
O O3 0.900872 0.560631 0.411198
O O4 0.067668 0.475574 0.341692
O O5 0.839145 0.350708 0.986526
O O6 0.829371 0.141835 0.092109
O O7 0.870598 0.184598 0.824959
O O8 0.996345 0.236041 0.052093
O O9 0.771374 0.308477 0.315409
O O10 0.746240 0.487343 0.149766
O O11 0.646574 0.443091 0.400483
O O12 0.631761 0.315293 0.131597
O O13 0.135811 0.621469 0.133338
O O14 0.216659 0.732759 0.913393
O O15 0.739196 0.045017 0.739076
O O16 0.319673 0.738299 0.652812
#
# Coordination Sequence:
#
# PCOD9315045 Si02
#       8
#     4   4   4   4   4   4   4   4
#     4  10  23  41  70  97 145 177 238 293 357 433
#     4  11  24  44  66  99 143 182 236 295 353 439
#     4  11  22  38  67  97 133 176 232 288 353 418
#     4  11  24  42  70 106 137 185 245 293 357 450
#     4  11  21  39  66  97 130 177 224 290 347 420
#     4  11  23  46  71  97 142 192 233 292 369 429
#     4  11  24  43  67 104 138 187 232 300 366 423
#     4  12  25  43  73 101 142 192 240 295 370 434
#
# _framework density 21.773903000000001
#
# number of rings (size 3 to 8) (size 9 to 14) (size 15 to 20)
#    0.000    1.000    3.750    3.750    5.250    1.000 
#    2.250    2.500    0.000    0.000    0.000    0.000 
#    0.000    0.000    0.000    0.000    0.000    0.000 
#
# Total GULP energy -178319.567744 kJ/mol
# GULP energy per Si atom -5572.486492 kJ/mol
# Density = 2.172434 g / cm^3
# Si number density = 21.773903 Si / 1000 Ang^3
#
#
#
# Elastic Constant Matrix: (Units=GPa)
#
#
# Indices 1 2 3 4 5 6 
#
# 1 38.7157 32.3436 21.7489 0.0000 0.0000 0.0000
# 2 32.3436 81.2663 25.0029 0.0000 0.0000 0.0000
# 3 21.7489 25.0029 97.5962 0.0000 0.0000 0.0000
# 4 0.0000 0.0000 0.0000 24.0894 0.0000 0.0000
# 5 0.0000 0.0000 0.0000 0.0000 16.2224 0.0000
# 6 0.0000 0.0000 0.0000 0.0000 0.0000 26.8366
#
#
#
# Elastic Compliance Matrix: (Units=1/GPa)
#
#
# Indices 1 2 3 4 5 6 
#
# 1 0.041161 -0.014720 -0.005401 0.000000 0.000000 0.000000
# 2 -0.014720 0.018622 -0.001491 0.000000 0.000000 0.000000
# 3 -0.005401 -0.001491 0.011832 0.000000 0.000000 0.000000
# 4 0.000000 0.000000 0.000000 0.041512 0.000000 0.000000
# 5 0.000000 0.000000 0.000000 0.000000 0.061643 0.000000
# 6 0.000000 0.000000 0.000000 0.000000 0.000000 0.037263
#
#
# Mechanical properties :
#
#
# Convention : Reuss Voigt Hill
#
# Bulk Modulus (GPa) = 35.22230 41.75211 38.48721
# Shear Modulus (GPa) = 18.88787 22.66187 20.77487
#
# Velocity S-wave (km/s) = 2.94845 3.22961 3.09223
# Velocity P-wave (km/s) = 5.27282 5.75536 5.51937
#
# Compressibility (1/GPa) = 0.02839110
#
# Stress axis : x y z
#
# Youngs Moduli (GPa) = 24.29494 53.69911 84.51771
#
# Poissons Ratio (x) = 0.79045 0.45652
# Poissons Ratio (y) = 0.35762 0.12597
# Poissons Ratio (z) = 0.13123 0.08004
#
# Static dielectric constant tensor:
#      x y z
#    x 1.845810 0.000000 0.000000 
#    y 0.000000 1.867640 0.000000 
#    z 0.000000 0.000000 1.871430 
# 
# From -- ./inp_files/3959.got.cif
#   From: 2010.05.17/outbox.cif.g08.bks.cpg/sg19_2_cif.got.tgz:3959.got - 2010.06.03 22:46:19.
