data_PCOD9315153
_publ_section_title
;
Structure prediction by ZEFSAII (Michael W. Deem and Ramdas Pophale) SiO2 
 PCOD9315153
Probable space group: P 21 21 21
;
_chemical_formula_sum "Si O2"
_cell_formula_units_Z 24
_cell_length_a 8.674453
_cell_length_b 17.182675
_cell_length_c 7.086647
_cell_angle_alpha 90.000000
_cell_angle_beta 90.000000
_cell_angle_gamma 90.000000
_cell_volume 1056.266909
_symmetry_space_group_name_H-M "P 21 21 21"
_symmetry_group_IT_number 19
_symmetry_cell_setting 'orthorhombic'
loop_
_space_group_symop_operation_xyz
x,y,z
1/2-x,-y,1/2+z
1/2+x,1/2-y,-z
-x,1/2+y,1/2-z
loop_
_atom_site_type_symbol
_atom_site_label
_atom_site_fract_x
_atom_site_fract_y
_atom_site_fract_z
Si Si1 0.074824 0.402548 0.394434
Si Si2 0.409058 0.338253 0.318130
Si Si3 0.775363 0.283921 0.949364
Si Si4 0.461108 0.985145 0.315634
Si Si5 0.537702 0.764398 0.787517
Si Si6 0.871588 0.457545 0.065569
O O1 0.245651 0.382389 0.329595
O O2 0.987562 0.319537 0.388192
O O3 0.071275 0.454669 0.580490
O O4 0.978715 0.452637 0.245791
O O5 0.381056 0.257701 0.208826
O O6 0.509819 0.392966 0.181714
O O7 0.459342 0.322697 0.534489
O O8 0.606607 0.277777 0.854129
O O9 0.829397 0.371590 0.989158
O O10 0.811816 0.240442 0.150440
O O11 0.287953 0.000058 0.387823
O O12 0.464698 0.000636 0.095478
#
# Coordination Sequence:
#
# PCOD9315153 Si02
#       6
#     4   4   4   4   4   4
#     4  10  25  46  64 101 137 177 222 278 340 396
#     4  11  26  42  71 100 137 180 227 282 337 404
#     4  10  23  44  68  99 135 176 229 283 336 401
#     4  12  25  42  68  97 136 181 226 277 338 405
#     4  10  23  44  72 100 136 177 229 277 342 401
#     4  11  24  42  69  95 133 177 227 281 337 403
#
# _framework density 22.721526999999998
#
# number of rings (size 3 to 8) (size 9 to 14) (size 15 to 20)
#    0.000    1.333    1.667    2.000    4.667   13.333 
#    0.000    0.000    0.000    0.000    0.000    0.000 
#    0.000    0.000    0.000    0.000    0.000    0.000 
#
# Total GULP energy -134046.885012 kJ/mol
# GULP energy per Si atom -5585.286876 kJ/mol
# Density = 2.266981 g / cm^3
# Si number density = 22.721527 Si / 1000 Ang^3
#
#
#
# Elastic Constant Matrix: (Units=GPa)
#
#
# Indices 1 2 3 4 5 6 
#
# 1 48.9122 -2.5219 23.6347 0.0000 0.0000 0.0000
# 2 -2.5219 29.8855 13.9826 0.0000 0.0000 0.0000
# 3 23.6347 13.9826 77.8059 0.0000 0.0000 0.0000
# 4 0.0000 0.0000 0.0000 5.1706 0.0000 0.0000
# 5 0.0000 0.0000 0.0000 0.0000 30.6653 0.0000
# 6 0.0000 0.0000 0.0000 0.0000 0.0000 21.5412
#
#
#
# Elastic Compliance Matrix: (Units=1/GPa)
#
#
# Indices 1 2 3 4 5 6 
#
# 1 0.024963 0.006173 -0.008692 0.000000 0.000000 0.000000
# 2 0.006173 0.038059 -0.008715 0.000000 0.000000 0.000000
# 3 -0.008692 -0.008715 0.017059 0.000000 0.000000 0.000000
# 4 0.000000 0.000000 0.000000 0.193401 0.000000 0.000000
# 5 0.000000 0.000000 0.000000 0.000000 0.032610 0.000000
# 6 0.000000 0.000000 0.000000 0.000000 0.000000 0.046423
#
#
# Mechanical properties :
#
#
# Convention : Reuss Voigt Hill
#
# Bulk Modulus (GPa) = 17.35688 25.19938 21.27813
# Shear Modulus (GPa) = 12.68428 19.57596 16.13012
#
# Velocity S-wave (km/s) = 2.36529 2.93842 2.66729
# Velocity P-wave (km/s) = 3.88781 4.75679 4.34408
#
# Compressibility (1/GPa) = 0.05761403
#
# Stress axis : x y z
#
# Youngs Moduli (GPa) = 40.05878 26.27466 58.61968
#
# Poissons Ratio (x) = -0.16221 0.50955
# Poissons Ratio (y) = -0.24730 0.51087
# Poissons Ratio (z) = 0.34821 0.22898
#
# Static dielectric constant tensor:
#      x y z
#    x 1.849520 0.000000 0.000000 
#    y 0.000000 1.853330 0.000000 
#    z 0.000000 0.000000 1.826230 
# 
# From -- ./inp_files/430.got.cif
#   From: 2010.05.17/outbox.cif.g08.bks.cpg/sg19_1_cif.got.tgz:430.got - 2010.06.03 22:46:19.
