data_PCOD9315741
_publ_section_title
;
Structure prediction by ZEFSAII (Michael W. Deem and Ramdas Pophale) SiO2 
 PCOD9315741
Probable space group: P 21 21 21
;
_chemical_formula_sum "Si O2"
_cell_formula_units_Z 20
_cell_length_a 14.429895
_cell_length_b 7.492720
_cell_length_c 7.232687
_cell_angle_alpha 90.000000
_cell_angle_beta 90.000000
_cell_angle_gamma 90.000000
_cell_volume 781.992064
_symmetry_space_group_name_H-M "P 21 21 21"
_symmetry_group_IT_number 19
_symmetry_cell_setting 'orthorhombic'
loop_
_space_group_symop_operation_xyz
x,y,z
1/2-x,-y,1/2+z
1/2+x,1/2-y,-z
-x,1/2+y,1/2-z
loop_
_atom_site_type_symbol
_atom_site_label
_atom_site_fract_x
_atom_site_fract_y
_atom_site_fract_z
Si Si1 0.169270 0.379004 0.963536
Si Si2 0.118809 0.953261 0.259168
Si Si3 0.014564 0.672984 0.459634
Si Si4 0.840880 0.204725 0.761885
Si Si5 0.682090 0.405501 0.359925
O O1 0.175952 0.588104 0.918990
O O2 0.174843 0.265942 0.770931
O O3 0.063235 0.629636 0.652059
O O4 0.251633 0.329548 0.105010
O O5 0.097594 0.762026 0.345614
O O6 0.931528 0.817196 0.467040
O O7 0.030921 0.009635 0.142583
O O8 0.139429 0.085218 0.434326
O O9 0.791139 0.447571 0.366608
O O10 0.856957 0.417063 0.757893
#
# Coordination Sequence:
#
# PCOD9315741 Si02
#       5
#     4   4   4   4   4
#     4  12  27  47  72 102 144 185 236 289 351 414
#     4  11  24  46  73  99 144 179 236 289 346 418
#     4  11  26  47  67 110 136 186 237 284 355 411
#     4  11  28  46  70 106 138 187 236 286 352 415
#     4  11  23  50  70  99 138 193 223 290 352 408
#
# _framework density 25.575709
#
# number of rings (size 3 to 8) (size 9 to 14) (size 15 to 20)
#    0.000    0.800    6.000    0.000   14.000    0.000 
#    3.600    0.000    0.000    0.000    0.000    0.000 
#    0.000    0.000    0.000    0.000    0.000    0.000 
#
# Total GULP energy -111973.491729 kJ/mol
# GULP energy per Si atom -5598.674586 kJ/mol
# Density = 2.551750 g / cm^3
# Si number density = 25.575709 Si / 1000 Ang^3
#
#
#
# Elastic Constant Matrix: (Units=GPa)
#
#
# Indices 1 2 3 4 5 6 
#
# 1 91.3970 -5.6293 13.7223 0.0000 0.0000 0.0000
# 2 -5.6293 67.9281 10.4092 0.0000 0.0000 0.0000
# 3 13.7223 10.4092 67.0194 0.0000 0.0000 0.0000
# 4 0.0000 0.0000 0.0000 49.6634 0.0000 0.0000
# 5 0.0000 0.0000 0.0000 0.0000 53.9791 0.0000
# 6 0.0000 0.0000 0.0000 0.0000 0.0000 36.5935
#
#
#
# Elastic Compliance Matrix: (Units=1/GPa)
#
#
# Indices 1 2 3 4 5 6 
#
# 1 0.011405 0.001335 -0.002543 0.000000 0.000000 0.000000
# 2 0.001335 0.015237 -0.002640 0.000000 0.000000 0.000000
# 3 -0.002543 -0.002640 0.015852 0.000000 0.000000 0.000000
# 4 0.000000 0.000000 0.000000 0.020136 0.000000 0.000000
# 5 0.000000 0.000000 0.000000 0.000000 0.018526 0.000000
# 6 0.000000 0.000000 0.000000 0.000000 0.000000 0.027327
#
#
# Mechanical properties :
#
#
# Convention : Reuss Voigt Hill
#
# Bulk Modulus (GPa) = 28.73701 29.26100 28.99901
# Shear Modulus (GPa) = 39.13081 41.90335 40.51708
#
# Velocity S-wave (km/s) = 3.91576 4.05211 3.98452
# Velocity P-wave (km/s) = 5.63069 5.77569 5.70365
#
# Compressibility (1/GPa) = 0.03479834
#
# Stress axis : x y z
#
# Youngs Moduli (GPa) = 87.67911 65.63148 63.08490
#
# Poissons Ratio (x) = -0.08760 0.16040
# Poissons Ratio (y) = -0.11703 0.16653
# Poissons Ratio (z) = 0.22293 0.17325
#
# Static dielectric constant tensor:
#      x y z
#    x 2.016290 0.000000 0.000000 
#    y 0.000000 2.011680 0.000000 
#    z 0.000000 0.000000 2.043090 
# 
# From -- ./inp_files/3804.got.cif
#   From: 2010.05.17/outbox.cif.g08.bks.cpg/sg19_2_cif.got.tgz:3804.got - 2010.06.03 22:46:19.
