data_PCOD9315398
_publ_section_title
;
Structure prediction by ZEFSAII (Michael W. Deem and Ramdas Pophale) SiO2 
 PCOD9315398
Probable space group: P 21 21 21
;
_chemical_formula_sum "Si O2"
_cell_formula_units_Z 24
_cell_length_a 9.580711
_cell_length_b 19.026497
_cell_length_c 5.033205
_cell_angle_alpha 90.000000
_cell_angle_beta 90.000000
_cell_angle_gamma 90.000000
_cell_volume 917.489698
_symmetry_space_group_name_H-M "P 21 21 21"
_symmetry_group_IT_number 19
_symmetry_cell_setting 'orthorhombic'
loop_
_space_group_symop_operation_xyz
x,y,z
1/2-x,-y,1/2+z
1/2+x,1/2-y,-z
-x,1/2+y,1/2-z
loop_
_atom_site_type_symbol
_atom_site_label
_atom_site_fract_x
_atom_site_fract_y
_atom_site_fract_z
Si Si1 0.476036 0.195979 0.632875
Si Si2 0.014954 0.454361 0.291980
Si Si3 0.773729 0.612767 0.776285
Si Si4 0.682544 0.812597 0.046555
Si Si5 0.052653 0.540892 0.822806
Si Si6 0.849370 0.753866 0.542857
O O1 0.556763 0.122539 0.600007
O O2 0.322283 0.166132 0.556826
O O3 0.467679 0.271553 0.493463
O O4 0.500258 0.215556 0.944951
O O5 0.852854 0.440118 0.201307
O O6 0.036351 0.510191 0.526897
O O7 0.093157 0.480136 0.029924
O O8 0.898603 0.569723 0.898307
O O9 0.840721 0.669450 0.572606
O O10 0.773413 0.795726 0.781319
O O11 0.647873 0.892011 0.124572
O O12 0.765143 0.776983 0.283808
#
# Coordination Sequence:
#
# PCOD9315398 Si02
#       6
#     4   4   4   4   4   4
#     4   9  25  44  71 103 143 187 241 289 364 425
#     4  10  25  42  68 107 141 190 227 301 368 420
#     4   9  24  41  73 104 142 180 233 304 363 418
#     4  11  27  43  73 106 142 191 241 293 364 422
#     4  12  24  44  70 105 147 178 240 297 362 432
#     4  11  25  46  69 107 141 186 242 298 349 441
#
# _framework density 26.158331
#
# number of rings (size 3 to 8) (size 9 to 14) (size 15 to 20)
#    1.000    0.667    0.000    2.000   14.000    1.333 
#    0.000    3.333    0.000    0.000    0.000    0.000 
#    0.000    0.000    0.000    0.000    0.000    0.000 
#
# Total GULP energy -133726.426583 kJ/mol
# GULP energy per Si atom -5571.934441 kJ/mol
# Density = 2.609879 g / cm^3
# Si number density = 26.158331 Si / 1000 Ang^3
#
#
#
# Elastic Constant Matrix: (Units=GPa)
#
#
# Indices 1 2 3 4 5 6 
#
# 1 87.4485 18.7664 9.6637 0.0000 0.0000 0.0000
# 2 18.7664 116.1629 47.3354 0.0000 0.0000 0.0000
# 3 9.6637 47.3354 123.3091 0.0000 0.0000 0.0000
# 4 0.0000 0.0000 0.0000 56.1638 0.0000 0.0000
# 5 0.0000 0.0000 0.0000 0.0000 33.6195 0.0000
# 6 0.0000 0.0000 0.0000 0.0000 0.0000 44.9891
#
#
#
# Elastic Compliance Matrix: (Units=1/GPa)
#
#
# Indices 1 2 3 4 5 6 
#
# 1 0.011851 -0.001821 -0.000230 0.000000 0.000000 0.000000
# 2 -0.001821 0.010485 -0.003882 0.000000 0.000000 0.000000
# 3 -0.000230 -0.003882 0.009618 0.000000 0.000000 0.000000
# 4 0.000000 0.000000 0.000000 0.017805 0.000000 0.000000
# 5 0.000000 0.000000 0.000000 0.000000 0.029745 0.000000
# 6 0.000000 0.000000 0.000000 0.000000 0.000000 0.022228
#
#
# Mechanical properties :
#
#
# Convention : Reuss Voigt Hill
#
# Bulk Modulus (GPa) = 49.77999 53.16127 51.47063
# Shear Modulus (GPa) = 41.56505 43.69814 42.63160
#
# Velocity S-wave (km/s) = 3.99053 4.09164 4.04140
# Velocity P-wave (km/s) = 6.34854 6.53368 6.44178
#
# Compressibility (1/GPa) = 0.02008839
#
# Stress axis : x y z
#
# Youngs Moduli (GPa) = 84.37761 95.37689 103.97219
#
# Poissons Ratio (x) = 0.17368 0.02389
# Poissons Ratio (y) = 0.15365 0.40363
# Poissons Ratio (z) = 0.01939 0.37026
#
# Static dielectric constant tensor:
#      x y z
#    x 2.554450 0.000000 0.000000 
#    y 0.000000 2.065490 0.000000 
#    z 0.000000 0.000000 1.989910 
# 
# From -- ./inp_files/1084.got.cif
#   From: 2010.05.17/outbox.cif.g08.bks.cpg/sg19_1_cif.got.tgz:1084.got - 2010.06.03 22:46:19.
