data_PCOD9315079
_publ_section_title
;
Structure prediction by ZEFSAII (Michael W. Deem and Ramdas Pophale) SiO2 
 PCOD9315079
Probable space group: P 21 21 21
;
_chemical_formula_sum "Si O2"
_cell_formula_units_Z 32
_cell_length_a 5.361806
_cell_length_b 15.581624
_cell_length_c 15.660894
_cell_angle_alpha 90.000000
_cell_angle_beta 90.000000
_cell_angle_gamma 90.000000
_cell_volume 1308.399491
_symmetry_space_group_name_H-M "P 21 21 21"
_symmetry_group_IT_number 19
_symmetry_cell_setting 'orthorhombic'
loop_
_space_group_symop_operation_xyz
x,y,z
1/2-x,-y,1/2+z
1/2+x,1/2-y,-z
-x,1/2+y,1/2-z
loop_
_atom_site_type_symbol
_atom_site_label
_atom_site_fract_x
_atom_site_fract_y
_atom_site_fract_z
Si Si1 0.790660 0.956652 0.384580
Si Si2 0.220627 0.171621 0.581895
Si Si3 0.998251 0.496225 0.462089
Si Si4 0.222480 0.134353 0.233975
Si Si5 0.219784 0.242360 0.389650
Si Si6 0.721110 0.034297 0.202794
Si Si7 0.175384 0.864884 0.466857
Si Si8 0.066015 0.729902 0.609114
O O1 0.723019 0.856967 0.402847
O O2 0.063344 0.950950 0.424795
O O3 0.627611 0.017680 0.445597
O O4 0.764989 0.975502 0.285798
O O5 0.297318 0.073628 0.566110
O O6 0.213988 0.215646 0.488567
O O7 0.456176 0.213037 0.630894
O O8 0.956842 0.195209 0.623629
O O9 0.210838 0.496764 0.389440
O O10 0.881518 0.591143 0.470807
O O11 0.243974 0.157639 0.333142
O O12 0.437200 0.066572 0.208236
O O13 0.312756 0.219660 0.185909
O O14 0.939839 0.106068 0.214878
O O15 0.051372 0.796620 0.530466
O O16 0.290292 0.810016 0.389080
#
# Coordination Sequence:
#
# PCOD9315079 Si02
#       8
#     4   4   4   4   4   4   4   4
#     4  11  27  45  75 107 146 195 247 304 365 442
#     4  10  23  42  70  96 134 181 236 287 351 425
#     4  11  26  45  71 104 148 191 240 303 372 430
#     4  12  27  47  71 102 148 188 238 303 365 427
#     4  10  23  43  67 100 130 183 236 283 350 421
#     4  12  29  46  72 108 148 190 245 296 372 438
#     4  11  23  44  70 103 137 192 240 296 366 431
#     4  11  24  42  72 100 141 184 244 294 361 428
#
# _framework density 24.457362
#
# number of rings (size 3 to 8) (size 9 to 14) (size 15 to 20)
#    0.000    1.000    2.500    2.250   12.250    2.000 
#    0.000    0.000    0.000    0.000    0.000    0.000 
#    0.000    0.000    0.000    0.000    0.000    0.000 
#
# Total GULP energy -178756.389616 kJ/mol
# GULP energy per Si atom -5586.137176 kJ/mol
# Density = 2.440170 g / cm^3
# Si number density = 24.457362 Si / 1000 Ang^3
#
#
#
# Elastic Constant Matrix: (Units=GPa)
#
#
# Indices 1 2 3 4 5 6 
#
# 1 68.4452 7.7644 4.9452 0.0000 0.0000 0.0000
# 2 7.7644 62.7932 12.7789 0.0000 0.0000 0.0000
# 3 4.9452 12.7789 58.9175 0.0000 0.0000 0.0000
# 4 0.0000 0.0000 0.0000 38.4843 0.0000 0.0000
# 5 0.0000 0.0000 0.0000 0.0000 23.2129 0.0000
# 6 0.0000 0.0000 0.0000 0.0000 0.0000 30.7746
#
#
#
# Elastic Compliance Matrix: (Units=1/GPa)
#
#
# Indices 1 2 3 4 5 6 
#
# 1 0.014862 -0.001657 -0.000888 0.000000 0.000000 0.000000
# 2 -0.001657 0.016845 -0.003515 0.000000 0.000000 0.000000
# 3 -0.000888 -0.003515 0.017810 0.000000 0.000000 0.000000
# 4 0.000000 0.000000 0.000000 0.025985 0.000000 0.000000
# 5 0.000000 0.000000 0.000000 0.000000 0.043079 0.000000
# 6 0.000000 0.000000 0.000000 0.000000 0.000000 0.032494
#
#
# Mechanical properties :
#
#
# Convention : Reuss Voigt Hill
#
# Bulk Modulus (GPa) = 26.73927 26.79252 26.76589
# Shear Modulus (GPa) = 28.46386 29.47219 28.96802
#
# Velocity S-wave (km/s) = 3.41517 3.47514 3.44529
# Velocity P-wave (km/s) = 5.14859 5.20391 5.17632
#
# Compressibility (1/GPa) = 0.03739819
#
# Stress axis : x y z
#
# Youngs Moduli (GPa) = 67.28409 59.36327 56.14910
#
# Poissons Ratio (x) = 0.09837 0.04986
# Poissons Ratio (y) = 0.11149 0.19734
# Poissons Ratio (z) = 0.05975 0.20864
#
# Static dielectric constant tensor:
#      x y z
#    x 2.575790 0.000000 0.000000 
#    y 0.000000 1.942870 0.000000 
#    z 0.000000 0.000000 1.955710 
# 
# From -- ./inp_files/1551.got.cif
#   From: 2010.05.17/outbox.cif.g08.bks.cpg/sg19_1_cif.got.tgz:1551.got - 2010.06.03 22:46:19.
