data_PCOD9315856
_publ_section_title
;
Structure prediction by ZEFSAII (Michael W. Deem and Ramdas Pophale) SiO2 
 PCOD9315856
Probable space group: P 21 21 21
;
_chemical_formula_sum "Si O2"
_cell_formula_units_Z 32
_cell_length_a 22.407329
_cell_length_b 4.949484
_cell_length_c 12.195838
_cell_angle_alpha 90.000000
_cell_angle_beta 90.000000
_cell_angle_gamma 90.000000
_cell_volume 1352.575954
_symmetry_space_group_name_H-M "P 21 21 21"
_symmetry_group_IT_number 19
_symmetry_cell_setting 'orthorhombic'
loop_
_space_group_symop_operation_xyz
x,y,z
1/2-x,-y,1/2+z
1/2+x,1/2-y,-z
-x,1/2+y,1/2-z
loop_
_atom_site_type_symbol
_atom_site_label
_atom_site_fract_x
_atom_site_fract_y
_atom_site_fract_z
Si Si1 0.610983 0.728604 0.875380
Si Si2 0.390912 0.440486 0.076943
Si Si3 0.244267 0.965327 0.847860
Si Si4 0.984509 0.669362 0.035707
Si Si5 0.628089 0.625112 0.633744
Si Si6 0.781236 0.969037 0.789815
Si Si7 0.017107 0.905987 0.680475
Si Si8 0.316854 0.718030 0.549550
O O1 0.540604 0.720720 0.899064
O O2 0.622209 0.788096 0.746910
O O3 0.640973 0.439148 0.893543
O O4 0.642450 0.948302 0.954160
O O5 0.343445 0.589592 0.150949
O O6 0.417278 0.201324 0.151739
O O7 0.446565 0.610629 0.032146
O O8 0.361103 0.319300 0.969146
O O9 0.314903 0.926895 0.869145
O O10 0.243153 0.184233 0.750179
O O11 0.215481 0.684000 0.810027
O O12 0.210195 0.122998 0.945168
O O13 0.934953 0.521001 0.109668
O O14 0.008972 0.476082 0.938753
O O15 0.737885 0.115994 0.875879
O O16 0.983728 0.665852 0.742488
#
# Coordination Sequence:
#
# PCOD9315856 Si02
#       8
#     4   4   4   4   4   4   4   4
#     4  12  29  49  75 107 156 193 248 308 381 441
#     4  11  27  47  77 110 145 198 251 307 368 456
#     4  12  27  48  77 112 148 195 250 313 371 441
#     4  11  29  47  77 113 149 202 251 306 376 451
#     4  11  26  46  77 107 148 192 249 308 368 442
#     4  12  26  47  75 108 146 192 251 302 381 436
#     4  11  24  48  74 104 149 192 245 303 366 438
#     4  12  26  50  72 111 149 196 243 311 375 445
#
# _framework density 23.658559
#
# number of rings (size 3 to 8) (size 9 to 14) (size 15 to 20)
#    0.000    0.500    5.000    0.750   12.250    4.000 
#    0.000    0.000    0.000    0.000    0.000    0.000 
#    0.000    0.000    0.000    0.000    0.000    0.000 
#
# Total GULP energy -179080.414089 kJ/mol
# GULP energy per Si atom -5596.262940 kJ/mol
# Density = 2.360471 g / cm^3
# Si number density = 23.658559 Si / 1000 Ang^3
#
#
#
# Elastic Constant Matrix: (Units=GPa)
#
#
# Indices 1 2 3 4 5 6 
#
# 1 90.9674 24.1012 64.7641 0.0000 0.0000 0.0000
# 2 24.1012 94.2762 2.1360 0.0000 0.0000 0.0000
# 3 64.7641 2.1360 52.2635 0.0000 0.0000 0.0000
# 4 0.0000 0.0000 0.0000 30.9574 0.0000 0.0000
# 5 0.0000 0.0000 0.0000 0.0000 29.4027 0.0000
# 6 0.0000 0.0000 0.0000 0.0000 0.0000 15.8828
#
#
#
# Elastic Compliance Matrix: (Units=1/GPa)
#
#
# Indices 1 2 3 4 5 6 
#
# 1 0.171645 -0.039097 -0.211102 0.000000 0.000000 0.000000
# 2 -0.039097 0.019522 0.047651 0.000000 0.000000 0.000000
# 3 -0.211102 0.047651 0.278780 0.000000 0.000000 0.000000
# 4 0.000000 0.000000 0.000000 0.032302 0.000000 0.000000
# 5 0.000000 0.000000 0.000000 0.000000 0.034011 0.000000
# 6 0.000000 0.000000 0.000000 0.000000 0.000000 0.062961
#
#
# Mechanical properties :
#
#
# Convention : Reuss Voigt Hill
#
# Bulk Modulus (GPa) = 15.41994 46.61221 31.01608
# Shear Modulus (GPa) = 4.87360 25.01562 14.94461
#
# Velocity S-wave (km/s) = 1.43682 3.25524 2.51605
# Velocity P-wave (km/s) = 3.04704 5.82010 4.64532
#
# Compressibility (1/GPa) = 0.06485108
#
# Stress axis : x y z
#
# Youngs Moduli (GPa) = 5.82598 51.22296 3.58706
#
# Poissons Ratio (x) = 2.00267 0.75723
# Poissons Ratio (y) = 0.22778 -0.17093
# Poissons Ratio (z) = 1.22987 -2.44081
#
# Static dielectric constant tensor:
#      x y z
#    x 2.941300 0.000000 0.000000 
#    y 0.000000 1.907970 0.000000 
#    z 0.000000 0.000000 1.931400 
# 
# From -- ./inp_files/5522.got.cif
#   From: 2010.05.17/outbox.cif.g08.bks.cpg/sg19_3_cif.got.tgz:5522.got - 2010.06.03 22:46:19.
