data_PCOD9315520
_publ_section_title
;
Structure prediction by ZEFSAII (Michael W. Deem and Ramdas Pophale) SiO2 
 PCOD9315520
Probable space group: P 21 21 21
;
_chemical_formula_sum "Si O2"
_cell_formula_units_Z 32
_cell_length_a 23.038978
_cell_length_b 12.618658
_cell_length_c 5.291026
_cell_angle_alpha 90.000000
_cell_angle_beta 90.000000
_cell_angle_gamma 90.000000
_cell_volume 1538.212285
_symmetry_space_group_name_H-M "P 21 21 21"
_symmetry_group_IT_number 19
_symmetry_cell_setting 'orthorhombic'
loop_
_space_group_symop_operation_xyz
x,y,z
1/2-x,-y,1/2+z
1/2+x,1/2-y,-z
-x,1/2+y,1/2-z
loop_
_atom_site_type_symbol
_atom_site_label
_atom_site_fract_x
_atom_site_fract_y
_atom_site_fract_z
Si Si1 0.841498 0.213018 0.009548
Si Si2 0.438600 0.759331 0.459128
Si Si3 0.560178 0.634980 0.413977
Si Si4 0.590683 0.966197 0.734294
Si Si5 0.872257 0.818357 0.043488
Si Si6 0.174865 0.523503 0.873276
Si Si7 0.541597 0.501418 0.907970
Si Si8 0.740779 0.167513 0.313532
O O1 0.784472 0.244612 0.167729
O O2 0.889200 0.152954 0.181129
O O3 0.879258 0.302341 0.877693
O O4 0.820996 0.117311 0.830152
O O5 0.504080 0.711193 0.461304
O O6 0.408533 0.726583 0.194087
O O7 0.437587 0.885354 0.506403
O O8 0.403420 0.714977 0.699064
O O9 0.567961 0.558634 0.659256
O O10 0.546670 0.573778 0.155394
O O11 0.625597 0.052960 0.566337
O O12 0.524882 0.985228 0.673808
O O13 0.609402 0.983175 0.022620
O O14 0.804663 0.785463 0.014184
O O15 0.197397 0.404101 0.851360
O O16 0.216743 0.575785 0.084059
#
# Coordination Sequence:
#
# PCOD9315520 Si02
#       8
#     4   4   4   4   4   4   4   4
#     4  11  25  39  65 102 142 182 219 281 348 427
#     4  12  25  44  68 100 131 180 229 280 339 403
#     4  12  26  45  68  99 137 188 223 276 354 412
#     4  11  22  36  65  99 141 174 213 278 331 422
#     4  12  24  41  68 100 136 177 229 269 346 413
#     4  11  21  36  63 100 143 176 212 277 358 406
#     4  12  27  45  67  99 142 177 231 287 334 410
#     4  11  22  38  62 101 136 182 216 284 340 417
#
# _framework density 20.803370000000001
#
# number of rings (size 3 to 8) (size 9 to 14) (size 15 to 20)
#    0.000    0.500    6.250    2.250    7.000    1.000 
#    0.000    0.000    0.000    3.000    0.000    0.000 
#    0.000    0.000    0.000    0.000    0.000    0.000 
#
# Total GULP energy -178540.985616 kJ/mol
# GULP energy per Si atom -5579.405800 kJ/mol
# Density = 2.075602 g / cm^3
# Si number density = 20.803370 Si / 1000 Ang^3
#
#
#
# Elastic Constant Matrix: (Units=GPa)
#
#
# Indices 1 2 3 4 5 6 
#
# 1 82.0194 8.8075 13.5643 0.0000 0.0000 0.0000
# 2 8.8075 41.7202 3.2680 0.0000 0.0000 0.0000
# 3 13.5643 3.2680 86.8748 0.0000 0.0000 0.0000
# 4 0.0000 0.0000 0.0000 15.6241 0.0000 0.0000
# 5 0.0000 0.0000 0.0000 0.0000 28.3365 0.0000
# 6 0.0000 0.0000 0.0000 0.0000 0.0000 25.9024
#
#
#
# Elastic Compliance Matrix: (Units=1/GPa)
#
#
# Indices 1 2 3 4 5 6 
#
# 1 0.012780 -0.002549 -0.001900 0.000000 0.000000 0.000000
# 2 -0.002549 0.024549 -0.000525 0.000000 0.000000 0.000000
# 3 -0.001900 -0.000525 0.011827 0.000000 0.000000 0.000000
# 4 0.000000 0.000000 0.000000 0.064004 0.000000 0.000000
# 5 0.000000 0.000000 0.000000 0.000000 0.035290 0.000000
# 6 0.000000 0.000000 0.000000 0.000000 0.000000 0.038606
#
#
# Mechanical properties :
#
#
# Convention : Reuss Voigt Hill
#
# Bulk Modulus (GPa) = 25.50535 29.09934 27.30234
# Shear Modulus (GPa) = 23.80117 26.30424 25.05271
#
# Velocity S-wave (km/s) = 3.38613 3.55973 3.47401
# Velocity P-wave (km/s) = 5.25115 5.56001 5.40779
#
# Compressibility (1/GPa) = 0.03920747
#
# Stress axis : x y z
#
# Youngs Moduli (GPa) = 78.24653 40.73564 84.55113
#
# Poissons Ratio (x) = 0.10384 0.16061
# Poissons Ratio (y) = 0.19947 0.04442
# Poissons Ratio (z) = 0.14863 0.02140
#
# Static dielectric constant tensor:
#      x y z
#    x 1.773340 0.000000 0.000000 
#    y 0.000000 1.771340 0.000000 
#    z 0.000000 0.000000 1.899460 
# 
# From -- ./inp_files/2192.got.cif
#   From: 2010.05.17/outbox.cif.g08.bks.cpg/sg19_2_cif.got.tgz:2192.got - 2010.06.03 22:46:19.
