data_PCOD9315447
_publ_section_title
;
Structure prediction by ZEFSAII (Michael W. Deem and Ramdas Pophale) SiO2 
 PCOD9315447
Probable space group: P 21 21 21
;
_chemical_formula_sum "Si O2"
_cell_formula_units_Z 20
_cell_length_a 10.878030
_cell_length_b 13.936357
_cell_length_c 4.659291
_cell_angle_alpha 90.000000
_cell_angle_beta 90.000000
_cell_angle_gamma 90.000000
_cell_volume 706.349026
_symmetry_space_group_name_H-M "P 21 21 21"
_symmetry_group_IT_number 19
_symmetry_cell_setting 'orthorhombic'
loop_
_space_group_symop_operation_xyz
x,y,z
1/2-x,-y,1/2+z
1/2+x,1/2-y,-z
-x,1/2+y,1/2-z
loop_
_atom_site_type_symbol
_atom_site_label
_atom_site_fract_x
_atom_site_fract_y
_atom_site_fract_z
Si Si1 0.734095 0.070488 0.039428
Si Si2 0.120636 0.704228 0.088959
Si Si3 0.075514 0.094073 0.770549
Si Si4 0.221287 0.165095 0.266624
Si Si5 0.022328 0.885517 0.820421
O O1 0.833410 0.151979 0.125629
O O2 0.602074 0.109706 0.141710
O O3 0.730977 0.024180 0.727373
O O4 0.245738 0.736689 0.927090
O O5 0.038635 0.801541 0.056618
O O6 0.039740 0.629869 0.910645
O O7 0.180522 0.094158 0.523993
O O8 0.045009 0.994088 0.920883
O O9 0.121308 0.164744 0.019539
O O10 0.352733 0.134225 0.137430
#
# Coordination Sequence:
#
# PCOD9315447 Si02
#       5
#     4   4   4   4   4
#     4  12  27  50  74 109 151 193 246 303 374 436
#     4  10  26  48  75 110 146 196 242 310 361 446
#     4  12  23  50  69 109 147 192 246 304 367 437
#     4  10  27  43  75 104 146 188 250 301 362 437
#     4  10  25  49  75 108 144 199 242 306 368 438
#
# _framework density 28.314613999999999
#
# number of rings (size 3 to 8) (size 9 to 14) (size 15 to 20)
#    1.200    0.000    2.000    2.400    2.800    6.400 
#    0.000    0.000    0.000    0.000    0.000    0.000 
#    0.000    0.000    0.000    0.000    0.000    0.000 
#
# Total GULP energy -112003.344526 kJ/mol
# GULP energy per Si atom -5600.167226 kJ/mol
# Density = 2.825017 g / cm^3
# Si number density = 28.314614 Si / 1000 Ang^3
#
#
#
# Elastic Constant Matrix: (Units=GPa)
#
#
# Indices 1 2 3 4 5 6 
#
# 1 153.3426 23.4679 16.1395 0.0000 0.0000 0.0000
# 2 23.4679 166.8273 9.7164 0.0000 0.0000 0.0000
# 3 16.1395 9.7164 87.2100 0.0000 0.0000 0.0000
# 4 0.0000 0.0000 0.0000 38.0817 0.0000 0.0000
# 5 0.0000 0.0000 0.0000 0.0000 31.0060 0.0000
# 6 0.0000 0.0000 0.0000 0.0000 0.0000 50.8780
#
#
#
# Elastic Compliance Matrix: (Units=1/GPa)
#
#
# Indices 1 2 3 4 5 6 
#
# 1 0.006779 -0.000886 -0.001156 0.000000 0.000000 0.000000
# 2 -0.000886 0.006149 -0.000521 0.000000 0.000000 0.000000
# 3 -0.001156 -0.000521 0.011739 0.000000 0.000000 0.000000
# 4 0.000000 0.000000 0.000000 0.026259 0.000000 0.000000
# 5 0.000000 0.000000 0.000000 0.000000 0.032252 0.000000
# 6 0.000000 0.000000 0.000000 0.000000 0.000000 0.019655
#
#
# Mechanical properties :
#
#
# Convention : Reuss Voigt Hill
#
# Bulk Modulus (GPa) = 51.17654 56.22527 53.70090
# Shear Modulus (GPa) = 43.67881 47.86354 45.77118
#
# Velocity S-wave (km/s) = 3.93189 4.11593 4.02496
# Velocity P-wave (km/s) = 6.22306 6.51830 6.37239
#
# Compressibility (1/GPa) = 0.01954020
#
# Stress axis : x y z
#
# Youngs Moduli (GPa) = 147.52260 162.62165 85.18964
#
# Poissons Ratio (x) = 0.14412 0.09846
# Poissons Ratio (y) = 0.13074 0.04439
# Poissons Ratio (z) = 0.17050 0.08474
#
# Static dielectric constant tensor:
#      x y z
#    x 2.235300 0.000000 0.000000 
#    y 0.000000 2.242630 0.000000 
#    z 0.000000 0.000000 2.121300 
# 
# From -- ./inp_files/825.got.cif
#   From: 2010.05.17/outbox.cif.g08.bks.cpg/sg19_1_cif.got.tgz:825.got - 2010.06.03 22:46:19.
