data_PCOD9315738
_publ_section_title
;
Structure prediction by ZEFSAII (Michael W. Deem and Ramdas Pophale) SiO2 
 PCOD9315738
Probable space group: P 21 21 21
;
_chemical_formula_sum "Si O2"
_cell_formula_units_Z 24
_cell_length_a 12.668872
_cell_length_b 10.160791
_cell_length_c 7.612097
_cell_angle_alpha 90.000000
_cell_angle_beta 90.000000
_cell_angle_gamma 90.000000
_cell_volume 979.872976
_symmetry_space_group_name_H-M "P 21 21 21"
_symmetry_group_IT_number 19
_symmetry_cell_setting 'orthorhombic'
loop_
_space_group_symop_operation_xyz
x,y,z
1/2-x,-y,1/2+z
1/2+x,1/2-y,-z
-x,1/2+y,1/2-z
loop_
_atom_site_type_symbol
_atom_site_label
_atom_site_fract_x
_atom_site_fract_y
_atom_site_fract_z
Si Si1 0.444787 0.645545 0.719376
Si Si2 0.445267 0.183985 0.152087
Si Si3 0.404576 0.932331 0.685851
Si Si4 0.173187 0.316776 0.696794
Si Si5 0.698608 0.455224 0.192400
Si Si6 0.221180 0.591051 0.559469
O O1 0.505928 0.639757 0.533233
O O2 0.451257 0.798978 0.766464
O O3 0.505011 0.540527 0.837241
O O4 0.323119 0.614541 0.682270
O O5 0.548714 0.202126 0.270593
O O6 0.374835 0.315074 0.122317
O O7 0.375409 0.068939 0.233586
O O8 0.348507 0.907992 0.495638
O O9 0.314663 0.985319 0.814235
O O10 0.211478 0.167943 0.674746
O O11 0.193098 0.436883 0.566583
O O12 0.236871 0.363867 0.870286
#
# Coordination Sequence:
#
# PCOD9315738 Si02
#       6
#     4   4   4   4   4   4
#     4  11  26  48  73 105 146 187 242 304 362 427
#     4  11  23  49  71 102 146 190 244 300 362 425
#     4  12  26  49  75 106 146 194 237 305 360 430
#     4  11  25  42  73 102 142 192 235 301 357 430
#     4  12  24  50  73 105 147 192 240 296 361 435
#     4  11  24  46  69 104 147 181 240 304 358 423
#
# _framework density 24.492968999999999
#
# number of rings (size 3 to 8) (size 9 to 14) (size 15 to 20)
#    0.000    0.667    5.000    3.000    4.667    1.333 
#   12.000    0.000    0.000    0.000    0.000    0.000 
#    0.000    0.000    0.000    0.000    0.000    0.000 
#
# Total GULP energy -134438.960479 kJ/mol
# GULP energy per Si atom -5601.623353 kJ/mol
# Density = 2.443722 g / cm^3
# Si number density = 24.492969 Si / 1000 Ang^3
#
#
#
# Elastic Constant Matrix: (Units=GPa)
#
#
# Indices 1 2 3 4 5 6 
#
# 1 117.8794 45.6589 21.5958 0.0000 0.0000 0.0000
# 2 45.6589 90.1283 0.4988 0.0000 0.0000 0.0000
# 3 21.5958 0.4988 48.8503 0.0000 0.0000 0.0000
# 4 0.0000 0.0000 0.0000 28.7657 0.0000 0.0000
# 5 0.0000 0.0000 0.0000 0.0000 37.3319 0.0000
# 6 0.0000 0.0000 0.0000 0.0000 0.0000 57.7374
#
#
#
# Elastic Compliance Matrix: (Units=1/GPa)
#
#
# Indices 1 2 3 4 5 6 
#
# 1 0.011706 -0.005902 -0.005115 0.000000 0.000000 0.000000
# 2 -0.005902 0.014072 0.002466 0.000000 0.000000 0.000000
# 3 -0.005115 0.002466 0.022707 0.000000 0.000000 0.000000
# 4 0.000000 0.000000 0.000000 0.034764 0.000000 0.000000
# 5 0.000000 0.000000 0.000000 0.000000 0.026787 0.000000
# 6 0.000000 0.000000 0.000000 0.000000 0.000000 0.017320
#
#
# Mechanical properties :
#
#
# Convention : Reuss Voigt Hill
#
# Bulk Modulus (GPa) = 31.86564 43.59610 37.73087
# Shear Modulus (GPa) = 32.27501 37.37397 34.82449
#
# Velocity S-wave (km/s) = 3.63399 3.91052 3.77479
# Velocity P-wave (km/s) = 5.53590 6.18285 5.86830
#
# Compressibility (1/GPa) = 0.03138177
#
# Stress axis : x y z
#
# Youngs Moduli (GPa) = 85.42314 71.06477 44.03983
#
# Poissons Ratio (x) = 0.41944 0.22526
# Poissons Ratio (y) = 0.50418 -0.10858
# Poissons Ratio (z) = 0.43693 -0.17521
#
# Static dielectric constant tensor:
#      x y z
#    x 1.925010 0.000000 0.000000 
#    y 0.000000 1.970720 0.000000 
#    z 0.000000 0.000000 1.982510 
# 
# From -- ./inp_files/3317.got.cif
#   From: 2010.05.17/outbox.cif.g08.bks.cpg/sg19_2_cif.got.tgz:3317.got - 2010.06.03 22:46:19.
