data_PCOD9315312
_publ_section_title
;
Structure prediction by ZEFSAII (Michael W. Deem and Ramdas Pophale) SiO2 
 PCOD9315312
Probable space group: P 21 21 21
;
_chemical_formula_sum "Si O2"
_cell_formula_units_Z 32
_cell_length_a 20.300126
_cell_length_b 11.273542
_cell_length_c 5.161775
_cell_angle_alpha 90.000000
_cell_angle_beta 90.000000
_cell_angle_gamma 90.000000
_cell_volume 1181.294523
_symmetry_space_group_name_H-M "P 21 21 21"
_symmetry_group_IT_number 19
_symmetry_cell_setting 'orthorhombic'
loop_
_space_group_symop_operation_xyz
x,y,z
1/2-x,-y,1/2+z
1/2+x,1/2-y,-z
-x,1/2+y,1/2-z
loop_
_atom_site_type_symbol
_atom_site_label
_atom_site_fract_x
_atom_site_fract_y
_atom_site_fract_z
Si Si1 0.551622 0.771333 0.309818
Si Si2 0.309877 0.759928 0.662415
Si Si3 0.293167 0.525136 0.941076
Si Si4 0.505870 0.488975 0.920113
Si Si5 0.323116 0.168556 0.992987
Si Si6 0.064743 0.365822 0.005083
Si Si7 0.660145 0.525292 0.985623
Si Si8 0.402274 0.396318 0.619100
O O1 0.515873 0.897962 0.353032
O O2 0.604353 0.727752 0.523039
O O3 0.494525 0.672999 0.319817
O O4 0.601718 0.786032 0.069707
O O5 0.312245 0.665111 0.899848
O O6 0.235770 0.742253 0.558530
O O7 0.377443 0.727909 0.515583
O O8 0.313394 0.901869 0.634597
O O9 0.238932 0.495763 0.718700
O O10 0.354676 0.443355 0.847128
O O11 0.467562 0.601043 0.786707
O O12 0.581540 0.517298 0.944130
O O13 0.479609 0.395656 0.701024
O O14 0.328467 0.066497 0.217181
O O15 0.307884 0.118625 0.710452
O O16 0.102391 0.486312 0.935445
#
# Coordination Sequence:
#
# PCOD9315312 Si02
#       8
#     4   4   4   4   4   4   4   4
#     4  12  23  43  73 102 145 196 241 312 376 431
#     4  11  25  48  77 107 155 203 246 311 390 440
#     4  11  26  47  75 107 150 196 251 305 375 452
#     4  10  24  44  70 104 146 186 255 308 364 445
#     4  12  29  46  77 109 152 195 254 308 376 455
#     4   9  22  44  65 107 136 196 244 305 365 451
#     4  12  27  50  73 110 152 196 256 308 368 462
#     4   9  24  42  66 106 138 182 251 303 364 438
#
# _framework density 27.088925
#
# number of rings (size 3 to 8) (size 9 to 14) (size 15 to 20)
#    0.750    0.500    2.500    1.500    8.750    2.000 
#    0.000    3.750    0.000    0.000    0.000    0.000 
#    0.000    0.000    0.000    0.000    0.000    0.000 
#
# Total GULP energy -178278.160442 kJ/mol
# GULP energy per Si atom -5571.192514 kJ/mol
# Density = 2.702727 g / cm^3
# Si number density = 27.088925 Si / 1000 Ang^3
#
#
#
# Elastic Constant Matrix: (Units=GPa)
#
#
# Indices 1 2 3 4 5 6 
#
# 1 160.0683 29.1289 14.5920 0.0000 0.0000 0.0000
# 2 29.1289 77.8691 15.1137 0.0000 0.0000 0.0000
# 3 14.5920 15.1137 106.2120 0.0000 0.0000 0.0000
# 4 0.0000 0.0000 0.0000 9.1447 0.0000 0.0000
# 5 0.0000 0.0000 0.0000 0.0000 32.0991 0.0000
# 6 0.0000 0.0000 0.0000 0.0000 0.0000 51.3265
#
#
#
# Elastic Compliance Matrix: (Units=1/GPa)
#
#
# Indices 1 2 3 4 5 6 
#
# 1 0.006739 -0.002408 -0.000583 0.000000 0.000000 0.000000
# 2 -0.002408 0.014067 -0.001671 0.000000 0.000000 0.000000
# 3 -0.000583 -0.001671 0.009733 0.000000 0.000000 0.000000
# 4 0.000000 0.000000 0.000000 0.109353 0.000000 0.000000
# 5 0.000000 0.000000 0.000000 0.000000 0.031154 0.000000
# 6 0.000000 0.000000 0.000000 0.000000 0.000000 0.019483
#
#
# Mechanical properties :
#
#
# Convention : Reuss Voigt Hill
#
# Bulk Modulus (GPa) = 47.13591 51.31319 49.22455
# Shear Modulus (GPa) = 24.16350 37.53503 30.84927
#
# Velocity S-wave (km/s) = 2.98989 3.72643 3.37829
# Velocity P-wave (km/s) = 5.41825 6.12362 5.78170
#
# Compressibility (1/GPa) = 0.02121525
#
# Stress axis : x y z
#
# Youngs Moduli (GPa) = 148.39834 71.08844 102.74293
#
# Poissons Ratio (x) = 0.17115 0.05992
# Poissons Ratio (y) = 0.35728 0.17168
# Poissons Ratio (z) = 0.08655 0.11878
#
# Static dielectric constant tensor:
#      x y z
#    x 2.109090 0.000000 0.000000 
#    y 0.000000 2.273960 0.000000 
#    z 0.000000 0.000000 2.222530 
# 
# From -- ./inp_files/2022.got.cif
#   From: 2010.05.17/outbox.cif.g08.bks.cpg/sg19_2_cif.got.tgz:2022.got - 2010.06.03 22:46:19.
