data_PCOD9315775
_publ_section_title
;
Structure prediction by ZEFSAII (Michael W. Deem and Ramdas Pophale) SiO2 
 PCOD9315775
Probable space group: P 21 21 21
;
_chemical_formula_sum "Si O2"
_cell_formula_units_Z 20
_cell_length_a 17.169299
_cell_length_b 5.127025
_cell_length_c 8.958211
_cell_angle_alpha 90.000000
_cell_angle_beta 90.000000
_cell_angle_gamma 90.000000
_cell_volume 788.568249
_symmetry_space_group_name_H-M "P 21 21 21"
_symmetry_group_IT_number 19
_symmetry_cell_setting 'orthorhombic'
loop_
_space_group_symop_operation_xyz
x,y,z
1/2-x,-y,1/2+z
1/2+x,1/2-y,-z
-x,1/2+y,1/2-z
loop_
_atom_site_type_symbol
_atom_site_label
_atom_site_fract_x
_atom_site_fract_y
_atom_site_fract_z
Si Si1 0.294925 0.831617 0.421833
Si Si2 0.687261 0.940027 0.813177
Si Si3 0.550706 0.655804 0.739893
Si Si4 0.347366 0.825068 0.955785
Si Si5 0.553606 0.268811 0.254872
O O1 0.252382 0.720730 0.274174
O O2 0.286133 0.623470 0.553991
O O3 0.241921 0.077207 0.470002
O O4 0.384571 0.852712 0.373154
O O5 0.653985 0.130357 0.683406
O O6 0.614857 0.756907 0.856952
O O7 0.506385 0.396039 0.788914
O O8 0.601608 0.574044 0.596849
O O9 0.393830 0.720613 0.097447
O O10 0.493788 0.506545 0.280911
#
# Coordination Sequence:
#
# PCOD9315775 Si02
#       5
#     4   4   4   4   4
#     4  11  27  49  79 115 157 217 270 333 405 491
#     4  11  25  47  79 111 155 208 274 328 394 495
#     4  11  24  43  72 113 145 192 251 325 392 466
#     4  11  26  49  80 110 159 205 273 322 402 489
#     4  12  32  52  78 121 168 210 268 346 419 477
#
# _framework density 25.362421999999999
#
# number of rings (size 3 to 8) (size 9 to 14) (size 15 to 20)
#    0.000    0.800    2.000    2.400   14.000    3.200 
#    0.000    0.000    0.000    0.000    0.000    0.000 
#    0.000    0.000    0.000    0.000    0.000    0.000 
#
# Total GULP energy -112066.528033 kJ/mol
# GULP energy per Si atom -5603.326402 kJ/mol
# Density = 2.530470 g / cm^3
# Si number density = 25.362422 Si / 1000 Ang^3
#
#
#
# Elastic Constant Matrix: (Units=GPa)
#
#
# Indices 1 2 3 4 5 6 
#
# 1 141.0473 37.7921 26.6558 0.0000 0.0000 0.0000
# 2 37.7921 101.8056 13.7233 0.0000 0.0000 0.0000
# 3 26.6558 13.7233 99.1373 0.0000 0.0000 0.0000
# 4 0.0000 0.0000 0.0000 44.9663 0.0000 0.0000
# 5 0.0000 0.0000 0.0000 0.0000 43.1884 0.0000
# 6 0.0000 0.0000 0.0000 0.0000 0.0000 54.4082
#
#
#
# Elastic Compliance Matrix: (Units=1/GPa)
#
#
# Indices 1 2 3 4 5 6 
#
# 1 0.008181 -0.002792 -0.001813 0.000000 0.000000 0.000000
# 2 -0.002792 0.010963 -0.000767 0.000000 0.000000 0.000000
# 3 -0.001813 -0.000767 0.010681 0.000000 0.000000 0.000000
# 4 0.000000 0.000000 0.000000 0.022239 0.000000 0.000000
# 5 0.000000 0.000000 0.000000 0.000000 0.023154 0.000000
# 6 0.000000 0.000000 0.000000 0.000000 0.000000 0.018380
#
#
# Mechanical properties :
#
#
# Convention : Reuss Voigt Hill
#
# Bulk Modulus (GPa) = 52.41214 55.37031 53.89123
# Shear Modulus (GPa) = 45.16678 46.10054 45.63366
#
# Velocity S-wave (km/s) = 4.22460 4.26804 4.24637
# Velocity P-wave (km/s) = 6.67131 6.79465 6.73326
#
# Compressibility (1/GPa) = 0.01907955
#
# Stress axis : x y z
#
# Youngs Moduli (GPa) = 122.23965 91.21939 93.62733
#
# Poissons Ratio (x) = 0.25472 0.16975
# Poissons Ratio (y) = 0.34134 0.07178
# Poissons Ratio (z) = 0.22163 0.06994
#
# Static dielectric constant tensor:
#      x y z
#    x 2.053730 0.000000 0.000000 
#    y 0.000000 1.984870 0.000000 
#    z 0.000000 0.000000 2.058490 
# 
# From -- ./inp_files/4081.got.cif
#   From: 2010.05.17/outbox.cif.g08.bks.cpg/sg19_3_cif.got.tgz:4081.got - 2010.06.03 22:46:19.
