data_PCOD9315571
_publ_section_title
;
Structure prediction by ZEFSAII (Michael W. Deem and Ramdas Pophale) SiO2 
 PCOD9315571
Probable space group: P 21 21 21
;
_chemical_formula_sum "Si O2"
_cell_formula_units_Z 24
_cell_length_a 15.838079
_cell_length_b 11.568121
_cell_length_c 4.996494
_cell_angle_alpha 90.000000
_cell_angle_beta 90.000000
_cell_angle_gamma 90.000000
_cell_volume 915.441713
_symmetry_space_group_name_H-M "P 21 21 21"
_symmetry_group_IT_number 19
_symmetry_cell_setting 'orthorhombic'
loop_
_space_group_symop_operation_xyz
x,y,z
1/2-x,-y,1/2+z
1/2+x,1/2-y,-z
-x,1/2+y,1/2-z
loop_
_atom_site_type_symbol
_atom_site_label
_atom_site_fract_x
_atom_site_fract_y
_atom_site_fract_z
Si Si1 0.814438 0.781113 0.733150
Si Si2 0.445115 0.096907 0.842375
Si Si3 0.354769 0.579281 0.757452
Si Si4 0.285133 0.065148 0.546842
Si Si5 0.972112 0.617181 0.801748
Si Si6 0.917572 0.153341 0.187472
O O1 0.801621 0.843429 0.449771
O O2 0.748291 0.690358 0.857294
O O3 0.898767 0.702592 0.711065
O O4 0.834156 0.879274 0.948050
O O5 0.545858 0.105454 0.802626
O O6 0.527977 0.828325 0.957190
O O7 0.407452 0.219695 0.933944
O O8 0.434958 0.994986 0.054270
O O9 0.347344 0.440363 0.731904
O O10 0.252112 0.029056 0.257017
O O11 0.385465 0.064774 0.592817
O O12 0.030306 0.590918 0.548541
#
# Coordination Sequence:
#
# PCOD9315571 Si02
#       6
#     4   4   4   4   4   4
#     4  12  22  45  63  99 137 176 220 281 351 399
#     4  11  24  44  68 100 137 175 232 285 335 414
#     4  11  24  41  69  96 133 180 228 281 339 402
#     4  12  28  43  68 104 141 180 221 287 361 408
#     4  11  22  39  66  99 133 169 224 285 334 394
#     4  11  24  40  66 102 127 176 233 279 336 399
#
# _framework density 26.216851999999999
#
# number of rings (size 3 to 8) (size 9 to 14) (size 15 to 20)
#    0.000    0.667    5.000    3.000    4.667    2.667 
#    0.000    1.667    0.000    0.000    0.000    0.000 
#    0.000    0.000    0.000    0.000    0.000    0.000 
#
# Total GULP energy -134493.157841 kJ/mol
# GULP energy per Si atom -5603.881577 kJ/mol
# Density = 2.615718 g / cm^3
# Si number density = 26.216852 Si / 1000 Ang^3
#
#
#
# Elastic Constant Matrix: (Units=GPa)
#
#
# Indices 1 2 3 4 5 6 
#
# 1 83.3076 0.6882 -4.2334 0.0000 0.0000 0.0000
# 2 0.6882 134.8846 -11.0268 0.0000 0.0000 0.0000
# 3 -4.2334 -11.0268 75.8010 0.0000 0.0000 0.0000
# 4 0.0000 0.0000 0.0000 33.2931 0.0000 0.0000
# 5 0.0000 0.0000 0.0000 0.0000 17.8647 0.0000
# 6 0.0000 0.0000 0.0000 0.0000 0.0000 29.5748
#
#
#
# Elastic Compliance Matrix: (Units=1/GPa)
#
#
# Indices 1 2 3 4 5 6 
#
# 1 0.012038 -0.000007 0.000671 0.000000 0.000000 0.000000
# 2 -0.000007 0.007503 0.001091 0.000000 0.000000 0.000000
# 3 0.000671 0.001091 0.013389 0.000000 0.000000 0.000000
# 4 0.000000 0.000000 0.000000 0.030036 0.000000 0.000000
# 5 0.000000 0.000000 0.000000 0.000000 0.055976 0.000000
# 6 0.000000 0.000000 0.000000 0.000000 0.000000 0.033813
#
#
# Mechanical properties :
#
#
# Convention : Reuss Voigt Hill
#
# Bulk Modulus (GPa) = 27.44138 29.42768 28.43453
# Shear Modulus (GPa) = 30.98083 36.71752 33.84918
#
# Velocity S-wave (km/s) = 3.44134 3.74643 3.59712
# Velocity P-wave (km/s) = 5.12642 5.47388 5.30300
#
# Compressibility (1/GPa) = 0.03644132
#
# Stress axis : x y z
#
# Youngs Moduli (GPa) = 83.07115 133.28041 74.69014
#
# Poissons Ratio (x) = 0.00087 -0.05014
# Poissons Ratio (y) = 0.00054 -0.08149
# Poissons Ratio (z) = -0.05577 -0.14542
#
# Static dielectric constant tensor:
#      x y z
#    x 2.135150 0.000000 0.000000 
#    y 0.000000 2.114510 0.000000 
#    z 0.000000 0.000000 1.942490 
# 
# From -- ./inp_files/1919.got.cif
#   From: 2010.05.17/outbox.cif.g08.bks.cpg/sg19_1_cif.got.tgz:1919.got - 2010.06.03 22:46:19.
