data_PCOD9315341
_publ_section_title
;
Structure prediction by ZEFSAII (Michael W. Deem and Ramdas Pophale) SiO2 
 PCOD9315341
Probable space group: P 21 21 21
;
_chemical_formula_sum "Si O2"
_cell_formula_units_Z 28
_cell_length_a 9.338718
_cell_length_b 11.557714
_cell_length_c 10.849406
_cell_angle_alpha 90.000000
_cell_angle_beta 90.000000
_cell_angle_gamma 90.000000
_cell_volume 1171.022302
_symmetry_space_group_name_H-M "P 21 21 21"
_symmetry_group_IT_number 19
_symmetry_cell_setting 'orthorhombic'
loop_
_space_group_symop_operation_xyz
x,y,z
1/2-x,-y,1/2+z
1/2+x,1/2-y,-z
-x,1/2+y,1/2-z
loop_
_atom_site_type_symbol
_atom_site_label
_atom_site_fract_x
_atom_site_fract_y
_atom_site_fract_z
Si Si1 0.828806 0.455337 0.446430
Si Si2 0.998177 0.828317 0.842995
Si Si3 0.968773 0.842271 0.216422
Si Si4 0.106950 0.702621 0.630720
Si Si5 0.776030 0.027032 0.306504
Si Si6 0.869920 0.711887 0.454499
Si Si7 0.965528 0.633193 0.035885
O O1 0.872893 0.372114 0.332673
O O2 0.860177 0.583669 0.402608
O O3 0.669869 0.445049 0.501244
O O4 0.935745 0.415075 0.556059
O O5 0.841433 0.870519 0.797746
O O6 0.106238 0.803159 0.731949
O O7 0.996649 0.704347 0.911625
O O8 0.944854 0.796442 0.354962
O O9 0.919506 0.735558 0.130628
O O10 0.875461 0.961216 0.204100
O O11 0.169338 0.580033 0.667601
O O12 0.212640 0.740578 0.522846
O O13 0.949703 0.699132 0.581268
O O14 0.895593 0.068894 0.406880
#
# Coordination Sequence:
#
# PCOD9315341 Si02
#       7
#     4   4   4   4   4   4   4
#     4  11  23  44  75 102 146 188 245 296 362 437
#     4  11  24  49  74 106 142 191 249 299 357 443
#     4  10  24  45  70 109 144 190 245 302 364 439
#     4  11  27  48  69 109 146 192 245 303 366 443
#     4  11  24  48  75 105 149 194 237 312 369 426
#     4  11  25  46  68 106 150 189 244 300 367 437
#     4  11  25  46  75 109 139 196 245 298 365 441
#
# _framework density 23.910734000000001
#
# number of rings (size 3 to 8) (size 9 to 14) (size 15 to 20)
#    0.000    1.143    1.429    4.286    4.000    6.857 
#    7.714    0.000    0.000    0.000    0.000    0.000 
#    0.000    0.000    0.000    0.000    0.000    0.000 
#
# Total GULP energy -156151.298607 kJ/mol
# GULP energy per Si atom -5576.832093 kJ/mol
# Density = 2.385631 g / cm^3
# Si number density = 23.910734 Si / 1000 Ang^3
#
#
#
# Elastic Constant Matrix: (Units=GPa)
#
#
# Indices 1 2 3 4 5 6 
#
# 1 113.4586 37.1600 32.2089 0.0000 0.0000 0.0000
# 2 37.1600 94.7175 23.8210 0.0000 0.0000 0.0000
# 3 32.2089 23.8210 33.0499 0.0000 0.0000 0.0000
# 4 0.0000 0.0000 0.0000 21.2098 0.0000 0.0000
# 5 0.0000 0.0000 0.0000 0.0000 42.7592 0.0000
# 6 0.0000 0.0000 0.0000 0.0000 0.0000 31.6069
#
#
#
# Elastic Compliance Matrix: (Units=1/GPa)
#
#
# Indices 1 2 3 4 5 6 
#
# 1 0.012569 -0.002260 -0.010620 0.000000 0.000000 0.000000
# 2 -0.002260 0.013302 -0.007385 0.000000 0.000000 0.000000
# 3 -0.010620 -0.007385 0.045930 0.000000 0.000000 0.000000
# 4 0.000000 0.000000 0.000000 0.047148 0.000000 0.000000
# 5 0.000000 0.000000 0.000000 0.000000 0.023387 0.000000
# 6 0.000000 0.000000 0.000000 0.000000 0.000000 0.031639
#
#
# Mechanical properties :
#
#
# Convention : Reuss Voigt Hill
#
# Bulk Modulus (GPa) = 31.97901 47.51174 39.74537
# Shear Modulus (GPa) = 22.22948 28.98426 25.60687
#
# Velocity S-wave (km/s) = 3.05238 3.48542 3.27607
# Velocity P-wave (km/s) = 5.08194 6.00926 5.56495
#
# Compressibility (1/GPa) = 0.03127051
#
# Stress axis : x y z
#
# Youngs Moduli (GPa) = 79.56156 75.17875 21.77247
#
# Poissons Ratio (x) = 0.16992 0.23122
# Poissons Ratio (y) = 0.17982 0.16078
# Poissons Ratio (z) = 0.84494 0.55516
#
# Static dielectric constant tensor:
#      x y z
#    x 1.923130 0.000000 0.000000 
#    y 0.000000 1.937780 0.000000 
#    z 0.000000 0.000000 1.938880 
# 
# From -- ./inp_files/4607.got.cif
#   From: 2010.05.17/outbox.cif.g08.bks.cpg/sg19_3_cif.got.tgz:4607.got - 2010.06.03 22:46:19.
