data_PCOD9315377
_publ_section_title
;
Structure prediction by ZEFSAII (Michael W. Deem and Ramdas Pophale) SiO2 
 PCOD9315377
Probable space group: P 21 21 21
;
_chemical_formula_sum "Si O2"
_cell_formula_units_Z 28
_cell_length_a 11.546112
_cell_length_b 10.892849
_cell_length_c 8.833471
_cell_angle_alpha 90.000000
_cell_angle_beta 90.000000
_cell_angle_gamma 90.000000
_cell_volume 1110.986130
_symmetry_space_group_name_H-M "P 21 21 21"
_symmetry_group_IT_number 19
_symmetry_cell_setting 'orthorhombic'
loop_
_space_group_symop_operation_xyz
x,y,z
1/2-x,-y,1/2+z
1/2+x,1/2-y,-z
-x,1/2+y,1/2-z
loop_
_atom_site_type_symbol
_atom_site_label
_atom_site_fract_x
_atom_site_fract_y
_atom_site_fract_z
Si Si1 0.451255 0.959191 0.244336
Si Si2 0.245883 0.609122 0.442791
Si Si3 0.314375 0.733836 0.136071
Si Si4 0.304500 0.134895 0.088841
Si Si5 0.529631 0.057516 0.551931
Si Si6 0.399548 0.393153 0.515421
Si Si7 0.381340 0.981486 0.806218
O O1 0.348648 0.869407 0.188444
O O2 0.466755 0.978157 0.420894
O O3 0.561689 0.900869 0.160104
O O4 0.421034 0.092278 0.174640
O O5 0.305546 0.656574 0.290341
O O6 0.205090 0.726103 0.537168
O O7 0.136731 0.526702 0.397698
O O8 0.328963 0.520188 0.536949
O O9 0.412891 0.674017 0.029935
O O10 0.191383 0.713843 0.052528
O O11 0.311575 0.051964 0.936816
O O12 0.201165 0.101914 0.203474
O O13 0.445765 0.075446 0.692964
O O14 0.515612 0.404426 0.614369
#
# Coordination Sequence:
#
# PCOD9315377 Si02
#       7
#     4   4   4   4   4   4   4
#     4  11  25  45  70 106 149 182 236 307 351 430
#     4  11  23  45  74  99 141 190 243 289 348 449
#     4  11  23  44  72 104 142 186 250 288 356 432
#     4  11  26  45  69 104 143 180 243 288 359 421
#     4  11  24  43  74 101 138 190 237 293 364 417
#     4  10  24  48  69 103 141 192 241 285 363 420
#     4  11  23  46  70 101 144 180 230 300 351 423
#
# _framework density 25.202832999999998
#
# number of rings (size 3 to 8) (size 9 to 14) (size 15 to 20)
#    0.000    1.143    2.857    2.571    2.000    4.571 
#   12.857    0.000    0.000    0.000    0.000    0.000 
#    0.000    0.000    0.000    0.000    0.000    0.000 
#
# Total GULP energy -156903.587835 kJ/mol
# GULP energy per Si atom -5603.699566 kJ/mol
# Density = 2.514547 g / cm^3
# Si number density = 25.202833 Si / 1000 Ang^3
#
#
#
# Elastic Constant Matrix: (Units=GPa)
#
#
# Indices 1 2 3 4 5 6 
#
# 1 108.5736 24.7090 43.2605 0.0000 0.0000 0.0000
# 2 24.7090 92.9697 27.0683 0.0000 0.0000 0.0000
# 3 43.2605 27.0683 130.6034 0.0000 0.0000 0.0000
# 4 0.0000 0.0000 0.0000 30.9811 0.0000 0.0000
# 5 0.0000 0.0000 0.0000 0.0000 63.4928 0.0000
# 6 0.0000 0.0000 0.0000 0.0000 0.0000 28.2265
#
#
#
# Elastic Compliance Matrix: (Units=1/GPa)
#
#
# Indices 1 2 3 4 5 6 
#
# 1 0.010940 -0.001972 -0.003215 0.000000 0.000000 0.000000
# 2 -0.001972 0.011802 -0.001793 0.000000 0.000000 0.000000
# 3 -0.003215 -0.001793 0.009093 0.000000 0.000000 0.000000
# 4 0.000000 0.000000 0.000000 0.032278 0.000000 0.000000
# 5 0.000000 0.000000 0.000000 0.000000 0.015750 0.000000
# 6 0.000000 0.000000 0.000000 0.000000 0.000000 0.035428
#
#
# Mechanical properties :
#
#
# Convention : Reuss Voigt Hill
#
# Bulk Modulus (GPa) = 55.94007 58.02470 56.98239
# Shear Modulus (GPa) = 36.97978 40.34733 38.66356
#
# Velocity S-wave (km/s) = 3.83467 4.00547 3.92100
# Velocity P-wave (km/s) = 6.46919 6.66819 6.56945
#
# Compressibility (1/GPa) = 0.01787627
#
# Stress axis : x y z
#
# Youngs Moduli (GPa) = 91.40713 84.72985 109.97039
#
# Poissons Ratio (x) = 0.16704 0.35357
# Poissons Ratio (y) = 0.18021 0.19718
# Poissons Ratio (z) = 0.29389 0.15192
#
# Static dielectric constant tensor:
#      x y z
#    x 2.026700 0.000000 0.000000 
#    y 0.000000 1.959400 0.000000 
#    z 0.000000 0.000000 1.968070 
# 
# From -- ./inp_files/3468.got.cif
#   From: 2010.05.17/outbox.cif.g08.bks.cpg/sg19_2_cif.got.tgz:3468.got - 2010.06.03 22:46:19.
