data_PCOD9315526
_publ_section_title
;
Structure prediction by ZEFSAII (Michael W. Deem and Ramdas Pophale) SiO2 
 PCOD9315526
Probable space group: P 21 21 21
;
_chemical_formula_sum "Si O2"
_cell_formula_units_Z 20
_cell_length_a 8.348771
_cell_length_b 4.883246
_cell_length_c 23.150206
_cell_angle_alpha 90.000000
_cell_angle_beta 90.000000
_cell_angle_gamma 90.000000
_cell_volume 943.813123
_symmetry_space_group_name_H-M "P 21 21 21"
_symmetry_group_IT_number 19
_symmetry_cell_setting 'orthorhombic'
loop_
_space_group_symop_operation_xyz
x,y,z
1/2-x,-y,1/2+z
1/2+x,1/2-y,-z
-x,1/2+y,1/2-z
loop_
_atom_site_type_symbol
_atom_site_label
_atom_site_fract_x
_atom_site_fract_y
_atom_site_fract_z
Si Si1 0.004891 0.234085 0.789524
Si Si2 0.282837 0.222686 0.100761
Si Si3 0.435205 0.517809 0.914650
Si Si4 0.736829 0.501002 0.117349
Si Si5 0.565776 0.216138 0.454678
O O1 0.152907 0.104296 0.824544
O O2 0.953981 0.018087 0.740906
O O3 0.867288 0.278855 0.837059
O O4 0.105595 0.105587 0.102644
O O5 0.388814 0.026578 0.059361
O O6 0.297560 0.525149 0.074258
O O7 0.312528 0.264049 0.912998
O O8 0.368066 0.762160 0.874877
O O9 0.445374 0.646826 0.978411
O O10 0.597803 0.632295 0.077489
#
# Coordination Sequence:
#
# PCOD9315526 Si02
#       5
#     4   4   4   4   4
#     4  11  23  45  68  84 114 166 215 259 304 361
#     4  11  24  39  63  94 123 163 210 245 299 370
#     4  12  22  38  61  97 133 154 191 258 304 355
#     4  11  24  39  63  94 123 163 210 245 299 369
#     4  11  21  39  61  91 131 172 194 227 300 385
#
# _framework density 21.190635
#
# number of rings (size 3 to 8) (size 9 to 14) (size 15 to 20)
#    0.000    0.800    0.000   10.800    0.000    0.000 
#    0.000    4.000    0.000    2.400    0.000    0.000 
#    0.000    0.000    0.000    0.000    0.000    0.000 
#
# Total GULP energy -112022.235325 kJ/mol
# GULP energy per Si atom -5601.111766 kJ/mol
# Density = 2.114240 g / cm^3
# Si number density = 21.190635 Si / 1000 Ang^3
#
#
#
# Elastic Constant Matrix: (Units=GPa)
#
#
# Indices 1 2 3 4 5 6 
#
# 1 72.8147 -2.5778 15.1678 0.0000 0.0000 0.0000
# 2 -2.5778 61.1126 -14.1705 0.0000 0.0000 0.0000
# 3 15.1678 -14.1705 52.0632 0.0000 0.0000 0.0000
# 4 0.0000 0.0000 0.0000 43.7192 0.0000 0.0000
# 5 0.0000 0.0000 0.0000 0.0000 2.8615 0.0000
# 6 0.0000 0.0000 0.0000 0.0000 0.0000 26.6745
#
#
#
# Elastic Compliance Matrix: (Units=1/GPa)
#
#
# Indices 1 2 3 4 5 6 
#
# 1 0.014630 -0.000396 -0.004370 0.000000 0.000000 0.000000
# 2 -0.000396 0.017476 0.004872 0.000000 0.000000 0.000000
# 3 -0.004370 0.004872 0.021807 0.000000 0.000000 0.000000
# 4 0.000000 0.000000 0.000000 0.022873 0.000000 0.000000
# 5 0.000000 0.000000 0.000000 0.000000 0.349468 0.000000
# 6 0.000000 0.000000 0.000000 0.000000 0.000000 0.037489
#
#
# Mechanical properties :
#
#
# Convention : Reuss Voigt Hill
#
# Bulk Modulus (GPa) = 18.47592 20.31438 19.39515
# Shear Modulus (GPa) = 10.38264 27.15578 18.76921
#
# Velocity S-wave (km/s) = 2.21591 3.58369 2.97935
# Velocity P-wave (km/s) = 3.90959 5.17021 4.58344
#
# Compressibility (1/GPa) = 0.05412450
#
# Stress axis : x y z
#
# Youngs Moduli (GPa) = 68.35382 57.22050 45.85754
#
# Poissons Ratio (x) = 0.02267 0.20040
# Poissons Ratio (y) = 0.02708 -0.22342
# Poissons Ratio (z) = 0.29871 -0.27878
#
# Static dielectric constant tensor:
#      x y z
#    x 1.783780 0.000000 0.000000 
#    y 0.000000 1.758620 0.000000 
#    z 0.000000 0.000000 1.723840 
# 
# From -- ./inp_files/6984.got.cif
#   From: 2010.05.17/outbox.cif.g08.bks.cpg/sg19_4_cif.got.tgz:6984.got - 2010.06.03 22:46:19.
