data_PCOD9315550
_publ_section_title
;
Structure prediction by ZEFSAII (Michael W. Deem and Ramdas Pophale) SiO2 
 PCOD9315550
Probable space group: P 21 21 21
;
_chemical_formula_sum "Si O2"
_cell_formula_units_Z 32
_cell_length_a 8.233805
_cell_length_b 12.619947
_cell_length_c 15.667187
_cell_angle_alpha 90.000000
_cell_angle_beta 90.000000
_cell_angle_gamma 90.000000
_cell_volume 1627.980264
_symmetry_space_group_name_H-M "P 21 21 21"
_symmetry_group_IT_number 19
_symmetry_cell_setting 'orthorhombic'
loop_
_space_group_symop_operation_xyz
x,y,z
1/2-x,-y,1/2+z
1/2+x,1/2-y,-z
-x,1/2+y,1/2-z
loop_
_atom_site_type_symbol
_atom_site_label
_atom_site_fract_x
_atom_site_fract_y
_atom_site_fract_z
Si Si1 0.286413 0.219580 0.114474
Si Si2 0.961738 0.339220 0.056336
Si Si3 0.885079 0.075894 0.787742
Si Si4 0.323215 0.456562 0.566260
Si Si5 0.169328 0.441609 0.380154
Si Si6 0.756662 0.387812 0.212870
Si Si7 0.578175 0.419691 0.791521
Si Si8 0.933724 0.247165 0.337501
O O1 0.357766 0.303987 0.180117
O O2 0.241745 0.110040 0.159504
O O3 0.113683 0.268278 0.085323
O O4 0.399462 0.200589 0.034164
O O5 0.815769 0.335385 0.124826
O O6 0.031664 0.458780 0.054031
O O7 0.805236 0.062560 0.694510
O O8 0.078385 0.063197 0.789751
O O9 0.790829 0.002335 0.856961
O O10 0.234352 0.450935 0.475487
O O11 0.381174 0.339928 0.593802
O O12 0.059045 0.542962 0.356826
O O13 0.054796 0.337787 0.371156
O O14 0.886688 0.480531 0.231520
O O15 0.783589 0.305514 0.290459
O O16 0.523828 0.320306 0.735834
#
# Coordination Sequence:
#
# PCOD9315550 Si02
#       8
#     4   4   4   4   4   4   4   4
#     4  11  23  39  66  95 130 164 216 268 323 381
#     4  11  23  39  64  98 129 169 217 270 325 382
#     4  11  24  43  64 101 130 166 223 269 322 389
#     4  11  25  45  67  95 137 171 215 271 327 393
#     4  11  25  43  68  94 129 176 216 265 332 388
#     4  11  24  40  67  95 131 171 218 268 323 388
#     4  11  21  43  67  88 126 177 209 266 321 384
#     4  11  21  48  67  88 132 178 212 263 329 389
#
# _framework density 19.656257
#
# number of rings (size 3 to 8) (size 9 to 14) (size 15 to 20)
#    0.000    1.000    5.000    2.250    7.000    3.000 
#    4.500    0.000    0.000    0.000    0.000    0.000 
#    0.000    0.000    0.000    0.000    0.000    0.000 
#
# Total GULP energy -178763.529422 kJ/mol
# GULP energy per Si atom -5586.360294 kJ/mol
# Density = 1.961152 g / cm^3
# Si number density = 19.656257 Si / 1000 Ang^3
#
#
#
# Elastic Constant Matrix: (Units=GPa)
#
#
# Indices 1 2 3 4 5 6 
#
# 1 66.2308 2.1576 26.7612 0.0000 0.0000 0.0000
# 2 2.1576 61.3411 19.2796 0.0000 0.0000 0.0000
# 3 26.7612 19.2796 103.0749 0.0000 0.0000 0.0000
# 4 0.0000 0.0000 0.0000 27.1843 0.0000 0.0000
# 5 0.0000 0.0000 0.0000 0.0000 39.9740 0.0000
# 6 0.0000 0.0000 0.0000 0.0000 0.0000 17.6507
#
#
#
# Elastic Compliance Matrix: (Units=1/GPa)
#
#
# Indices 1 2 3 4 5 6 
#
# 1 0.016908 0.000834 -0.004546 0.000000 0.000000 0.000000
# 2 0.000834 0.017362 -0.003464 0.000000 0.000000 0.000000
# 3 -0.004546 -0.003464 0.011530 0.000000 0.000000 0.000000
# 4 0.000000 0.000000 0.000000 0.036786 0.000000 0.000000
# 5 0.000000 0.000000 0.000000 0.000000 0.025016 0.000000
# 6 0.000000 0.000000 0.000000 0.000000 0.000000 0.056655
#
#
# Mechanical properties :
#
#
# Convention : Reuss Voigt Hill
#
# Bulk Modulus (GPa) = 31.79825 36.33818 34.06822
# Shear Modulus (GPa) = 26.44225 29.12503 27.78364
#
# Velocity S-wave (km/s) = 3.67172 3.85349 3.76370
# Velocity P-wave (km/s) = 5.84702 6.19081 6.02137
#
# Compressibility (1/GPa) = 0.03144827
#
# Stress axis : x y z
#
# Youngs Moduli (GPa) = 59.14232 57.59818 86.73150
#
# Poissons Ratio (x) = -0.04804 0.39427
# Poissons Ratio (y) = -0.04933 0.30043
# Poissons Ratio (z) = 0.26885 0.19952
#
# Static dielectric constant tensor:
#      x y z
#    x 1.686940 0.000000 0.000000 
#    y 0.000000 1.703150 0.000000 
#    z 0.000000 0.000000 1.703020 
# 
# From -- ./inp_files/3999.got.cif
#   From: 2010.05.17/outbox.cif.g08.bks.cpg/sg19_2_cif.got.tgz:3999.got - 2010.06.03 22:46:19.
