data_PCOD9315305
_publ_section_title
;
Structure prediction by ZEFSAII (Michael W. Deem and Ramdas Pophale) SiO2 
 PCOD9315305
Probable space group: P 21 21 21
;
_chemical_formula_sum "Si O2"
_cell_formula_units_Z 32
_cell_length_a 7.765369
_cell_length_b 8.323839
_cell_length_c 19.341002
_cell_angle_alpha 90.000000
_cell_angle_beta 90.000000
_cell_angle_gamma 90.000000
_cell_volume 1250.157524
_symmetry_space_group_name_H-M "P 21 21 21"
_symmetry_group_IT_number 19
_symmetry_cell_setting 'orthorhombic'
loop_
_space_group_symop_operation_xyz
x,y,z
1/2-x,-y,1/2+z
1/2+x,1/2-y,-z
-x,1/2+y,1/2-z
loop_
_atom_site_type_symbol
_atom_site_label
_atom_site_fract_x
_atom_site_fract_y
_atom_site_fract_z
Si Si1 0.476639 0.784638 0.608655
Si Si2 0.903768 0.423601 0.473844
Si Si3 0.475522 0.082870 0.021773
Si Si4 0.596065 0.778497 0.099861
Si Si5 0.477707 0.955655 0.233019
Si Si6 0.092887 0.743672 0.651761
Si Si7 0.516429 0.272903 0.646011
Si Si8 0.410352 0.086027 0.776710
O O1 0.467179 0.644244 0.551980
O O2 0.290719 0.798139 0.644625
O O3 0.602249 0.731733 0.668925
O O4 0.517120 0.944498 0.566244
O O5 0.717706 0.508515 0.482619
O O6 0.970953 0.356866 0.546574
O O7 0.894712 0.278877 0.417554
O O8 0.476176 0.235328 0.074150
O O9 0.585509 0.942082 0.055598
O O10 0.505753 0.823167 0.172346
O O11 0.790767 0.729698 0.116479
O O12 0.581917 0.914275 0.302161
O O13 0.281048 0.962857 0.257006
O O14 0.510896 0.124473 0.196347
O O15 0.501607 0.142475 0.707042
O O16 0.492641 0.442712 0.683828
#
# Coordination Sequence:
#
# PCOD9315305 Si02
#       8
#     4   4   4   4   4   4   4   4
#     4  11  24  45  71 102 138 179 229 282 344 410
#     4  11  24  46  70 100 138 179 229 283 339 414
#     4  10  24  45  68 101 138 175 230 288 337 407
#     4  11  23  44  69  99 135 180 228 280 346 406
#     4  11  24  44  69 100 140 177 228 285 338 408
#     4  10  24  44  67  98 134 178 226 280 342 406
#     4  12  26  44  72 101 136 181 227 280 344 410
#     4  12  25  44  68 101 137 179 229 286 342 405
#
# _framework density 25.596774
#
# number of rings (size 3 to 8) (size 9 to 14) (size 15 to 20)
#    0.000    1.000    0.000    7.500    0.000   11.000 
#    0.000   11.250    0.000    0.000    0.000    0.000 
#    0.000    0.000    0.000    0.000    0.000    0.000 
#
# Total GULP energy -179256.945617 kJ/mol
# GULP energy per Si atom -5601.779551 kJ/mol
# Density = 2.553851 g / cm^3
# Si number density = 25.596774 Si / 1000 Ang^3
#
#
#
# Elastic Constant Matrix: (Units=GPa)
#
#
# Indices 1 2 3 4 5 6 
#
# 1 -402.0789 239.7240 215.2494 0.0000 0.0000 0.0000
# 2 239.7240 -55.3914 -79.6672 0.0000 0.0000 0.0000
# 3 215.2494 -79.6672 35.1733 0.0000 0.0000 0.0000
# 4 0.0000 0.0000 0.0000 74.8642 0.0000 0.0000
# 5 0.0000 0.0000 0.0000 0.0000 20.7540 0.0000
# 6 0.0000 0.0000 0.0000 0.0000 0.0000 26.0419
#
#
#
# Elastic Compliance Matrix: (Units=1/GPa)
#
#
# Indices 1 2 3 4 5 6 
#
# 1 0.001911 0.005892 0.001653 0.000000 0.000000 0.000000
# 2 0.005892 0.013930 -0.004507 0.000000 0.000000 0.000000
# 3 0.001653 -0.004507 0.008107 0.000000 0.000000 0.000000
# 4 0.000000 0.000000 0.000000 0.013358 0.000000 0.000000
# 5 0.000000 0.000000 0.000000 0.000000 0.048183 0.000000
# 6 0.000000 0.000000 0.000000 0.000000 0.000000 0.038400
#
#
# Mechanical properties :
#
#
# Convention : Reuss Voigt Hill
#
# Bulk Modulus (GPa) = 33.30757 36.47947 34.89352
# Shear Modulus (GPa) = 39.11722 -28.84151 5.13786
#
# Velocity S-wave (km/s) = 3.91347 -3.36037 1.41830
# Velocity P-wave (km/s) = 5.78455 0.87954 4.04274
#
# Compressibility (1/GPa) = 0.03002320
#
# Stress axis : x y z
#
# Youngs Moduli (GPa) = 523.35710 71.78757 123.34770
#
# Poissons Ratio (x) = -0.42299 -0.20386
# Poissons Ratio (y) = -3.08375 0.55597
# Poissons Ratio (z) = -0.86498 0.32357
#
# Static dielectric constant tensor:
#      x y z
#    x 1.982030 0.000000 0.000000 
#    y 0.000000 2.096060 0.000000 
#    z 0.000000 0.000000 1.955670 
# 
# From -- ./inp_files/7029.got.cif
#   From: 2010.05.17/outbox.cif.g08.bks.cpg/sg19_4_cif.got.tgz:7029.got - 2010.06.03 22:46:19.
