data_PCOD9315651
_publ_section_title
;
Structure prediction by ZEFSAII (Michael W. Deem and Ramdas Pophale) SiO2 
 PCOD9315651
Probable space group: P 21 21 21
;
_chemical_formula_sum "Si O2"
_cell_formula_units_Z 28
_cell_length_a 4.935682
_cell_length_b 17.264725
_cell_length_c 16.448389
_cell_angle_alpha 90.000000
_cell_angle_beta 90.000000
_cell_angle_gamma 90.000000
_cell_volume 1401.619737
_symmetry_space_group_name_H-M "P 21 21 21"
_symmetry_group_IT_number 19
_symmetry_cell_setting 'orthorhombic'
loop_
_space_group_symop_operation_xyz
x,y,z
1/2-x,-y,1/2+z
1/2+x,1/2-y,-z
-x,1/2+y,1/2-z
loop_
_atom_site_type_symbol
_atom_site_label
_atom_site_fract_x
_atom_site_fract_y
_atom_site_fract_z
Si Si1 0.389458 0.383996 0.237848
Si Si2 0.700307 0.995021 0.890609
Si Si3 0.631136 0.890508 0.740601
Si Si4 0.202478 0.968825 0.993795
Si Si5 0.676523 0.290696 0.464835
Si Si6 0.887524 0.469352 0.835397
Si Si7 0.128931 0.785666 0.220621
O O1 0.289077 0.428648 0.157895
O O2 0.499666 0.450280 0.298640
O O3 0.636764 0.325380 0.225734
O O4 0.136857 0.338630 0.276105
O O5 0.733227 0.924625 0.826768
O O6 0.392614 0.996945 0.920210
O O7 0.893642 0.980406 0.967288
O O8 0.366273 0.939023 0.716534
O O9 0.568289 0.800594 0.749394
O O10 0.867369 0.909098 0.676089
O O11 0.266524 0.878573 0.008660
O O12 0.284256 0.015093 0.074264
O O13 0.370387 0.265698 0.483024
O O14 0.754289 0.281976 0.370703
#
# Coordination Sequence:
#
# PCOD9315651 Si02
#       7
#     4   4   4   4   4   4   4
#     4  11  23  41  65  90 123 171 221 254 309 384
#     4  11  24  40  64  91 127 163 215 259 311 378
#     4  11  23  41  64  94 127 166 215 266 311 384
#     4  12  23  40  63  91 127 167 205 262 318 376
#     4  12  25  37  59  96 137 162 194 248 335 402
#     4  11  23  41  65  90 126 170 222 255 313 387
#     4  12  23  40  66  92 129 167 210 264 317 377
#
# _framework density 19.976889
#
# number of rings (size 3 to 8) (size 9 to 14) (size 15 to 20)
#    0.000    0.571    1.429    9.429    2.000    0.000 
#    0.000    0.000    0.000   17.143    0.000    0.000 
#    0.000    0.000    0.000    0.000    0.000    0.000 
#
# Total GULP energy -156749.873830 kJ/mol
# GULP energy per Si atom -5598.209780 kJ/mol
# Density = 1.993142 g / cm^3
# Si number density = 19.976889 Si / 1000 Ang^3
#
#
#
# Elastic Constant Matrix: (Units=GPa)
#
#
# Indices 1 2 3 4 5 6 
#
# 1 72.9613 16.1751 -5.2859 0.0000 0.0000 0.0000
# 2 16.1751 95.8908 37.7062 0.0000 0.0000 0.0000
# 3 -5.2859 37.7062 49.6252 0.0000 0.0000 0.0000
# 4 0.0000 0.0000 0.0000 15.9822 0.0000 0.0000
# 5 0.0000 0.0000 0.0000 0.0000 34.7666 0.0000
# 6 0.0000 0.0000 0.0000 0.0000 0.0000 31.7298
#
#
#
# Elastic Compliance Matrix: (Units=1/GPa)
#
#
# Indices 1 2 3 4 5 6 
#
# 1 0.015075 -0.004527 0.005045 0.000000 0.000000 0.000000
# 2 -0.004527 0.016231 -0.012815 0.000000 0.000000 0.000000
# 3 0.005045 -0.012815 0.030426 0.000000 0.000000 0.000000
# 4 0.000000 0.000000 0.000000 0.062570 0.000000 0.000000
# 5 0.000000 0.000000 0.000000 0.000000 0.028763 0.000000
# 6 0.000000 0.000000 0.000000 0.000000 0.000000 0.031516
#
#
# Mechanical properties :
#
#
# Convention : Reuss Voigt Hill
#
# Bulk Modulus (GPa) = 26.92604 35.07425 31.00014
# Shear Modulus (GPa) = 22.56790 27.82117 25.19453
#
# Velocity S-wave (km/s) = 3.36475 3.73589 3.55517
# Velocity P-wave (km/s) = 5.34820 6.01704 5.69245
#
# Compressibility (1/GPa) = 0.03713877
#
# Stress axis : x y z
#
# Youngs Moduli (GPa) = 66.33509 61.60955 32.86705
#
# Poissons Ratio (x) = 0.27889 -0.16582
# Poissons Ratio (y) = 0.30029 0.42119
# Poissons Ratio (z) = -0.33468 0.78953
#
# Static dielectric constant tensor:
#      x y z
#    x 1.698520 0.000000 0.000000 
#    y 0.000000 1.687480 0.000000 
#    z 0.000000 0.000000 1.697750 
# 
# From -- ./inp_files/5688.got.cif
#   From: 2010.05.17/outbox.cif.g08.bks.cpg/sg19_3_cif.got.tgz:5688.got - 2010.06.03 22:46:19.
