data_PCOD9315433
_publ_section_title
;
Structure prediction by ZEFSAII (Michael W. Deem and Ramdas Pophale) SiO2 
 PCOD9315433
Probable space group: P 21 21 21
;
_chemical_formula_sum "Si O2"
_cell_formula_units_Z 24
_cell_length_a 5.051205
_cell_length_b 5.169489
_cell_length_c 32.688099
_cell_angle_alpha 90.000000
_cell_angle_beta 90.000000
_cell_angle_gamma 90.000000
_cell_volume 853.556501
_symmetry_space_group_name_H-M "P 21 21 21"
_symmetry_group_IT_number 19
_symmetry_cell_setting 'orthorhombic'
loop_
_space_group_symop_operation_xyz
x,y,z
1/2-x,-y,1/2+z
1/2+x,1/2-y,-z
-x,1/2+y,1/2-z
loop_
_atom_site_type_symbol
_atom_site_label
_atom_site_fract_x
_atom_site_fract_y
_atom_site_fract_z
Si Si1 0.786561 0.288018 0.294420
Si Si2 0.420946 0.722170 0.473659
Si Si3 0.512577 0.943238 0.632495
Si Si4 0.442030 0.421455 0.149117
Si Si5 0.822134 0.277120 0.578259
Si Si6 0.769413 0.841892 0.703540
O O1 0.009412 0.488407 0.316295
O O2 0.847611 0.194620 0.249310
O O3 0.523596 0.464538 0.295202
O O4 0.819354 0.062487 0.326775
O O5 0.709151 0.800806 0.489662
O O6 0.430695 0.448563 0.450668
O O7 0.304719 0.954874 0.445977
O O8 0.254571 0.784149 0.625450
O O9 0.780430 0.785269 0.641861
O O10 0.559397 0.151817 0.598183
O O11 0.517469 0.656769 0.118962
O O12 0.591516 0.434787 0.195874
#
# Coordination Sequence:
#
# PCOD9315433 Si02
#       6
#     4   4   4   4   4   4
#     4  10  26  43  75 103 166 220 293 347 407 485
#     4  12  31  61  92 134 175 223 276 351 446 555
#     4  10  28  47  73 121 159 216 287 347 420 491
#     4  12  28  49  77 117 162 222 285 351 429 490
#     4  12  30  53  92 126 171 216 279 353 435 530
#     4  10  25  47  67 111 157 227 286 349 405 483
#
# _framework density 28.117645
#
# number of rings (size 3 to 8) (size 9 to 14) (size 15 to 20)
#    1.000    0.000    0.000    3.000   16.333    0.000 
#    0.000    0.000    0.000    0.000    0.000    0.000 
#    0.000    0.000    0.000    0.000    0.000    0.000 
#
# Total GULP energy -134054.261162 kJ/mol
# GULP energy per Si atom -5585.594215 kJ/mol
# Density = 2.805365 g / cm^3
# Si number density = 28.117645 Si / 1000 Ang^3
#
#
#
# Elastic Constant Matrix: (Units=GPa)
#
#
# Indices 1 2 3 4 5 6 
#
# 1 123.9919 26.5874 -16.9196 0.0000 0.0000 0.0000
# 2 26.5874 141.2020 34.9327 0.0000 0.0000 0.0000
# 3 -16.9196 34.9327 71.8981 0.0000 0.0000 0.0000
# 4 0.0000 0.0000 0.0000 66.4287 0.0000 0.0000
# 5 0.0000 0.0000 0.0000 0.0000 33.5825 0.0000
# 6 0.0000 0.0000 0.0000 0.0000 0.0000 39.4992
#
#
#
# Elastic Compliance Matrix: (Units=1/GPa)
#
#
# Indices 1 2 3 4 5 6 
#
# 1 0.009070 -0.002541 0.003369 0.000000 0.000000 0.000000
# 2 -0.002541 0.008762 -0.004855 0.000000 0.000000 0.000000
# 3 0.003369 -0.004855 0.017060 0.000000 0.000000 0.000000
# 4 0.000000 0.000000 0.000000 0.015054 0.000000 0.000000
# 5 0.000000 0.000000 0.000000 0.000000 0.029777 0.000000
# 6 0.000000 0.000000 0.000000 0.000000 0.000000 0.025317
#
#
# Mechanical properties :
#
#
# Convention : Reuss Voigt Hill
#
# Bulk Modulus (GPa) = 37.26171 47.36589 42.31380
# Shear Modulus (GPa) = 40.97023 47.40152 44.18588
#
# Velocity S-wave (km/s) = 3.82134 4.11034 3.96847
# Velocity P-wave (km/s) = 5.72285 6.27763 6.00665
#
# Compressibility (1/GPa) = 0.02683720
#
# Stress axis : x y z
#
# Youngs Moduli (GPa) = 110.25739 114.13370 58.61577
#
# Poissons Ratio (x) = 0.29004 -0.19748
# Poissons Ratio (y) = 0.28019 0.28458
# Poissons Ratio (z) = -0.37146 0.55412
#
# Static dielectric constant tensor:
#      x y z
#    x 2.397080 0.000000 0.000000 
#    y 0.000000 2.225860 0.000000 
#    z 0.000000 0.000000 3.099000 
# 
# From -- ./inp_files/7514.got.cif
#   From: 2010.05.17/outbox.cif.g08.bks.cpg/sg19_4_cif.got.tgz:7514.got - 2010.06.03 22:46:19.
