data_PCOD9315209
_publ_section_title
;
Structure prediction by ZEFSAII (Michael W. Deem and Ramdas Pophale) SiO2 
 PCOD9315209
Probable space group: P 21 21 21
;
_chemical_formula_sum "Si O2"
_cell_formula_units_Z 28
_cell_length_a 7.673964
_cell_length_b 10.519077
_cell_length_c 13.013978
_cell_angle_alpha 90.000000
_cell_angle_beta 90.000000
_cell_angle_gamma 90.000000
_cell_volume 1050.527583
_symmetry_space_group_name_H-M "P 21 21 21"
_symmetry_group_IT_number 19
_symmetry_cell_setting 'orthorhombic'
loop_
_space_group_symop_operation_xyz
x,y,z
1/2-x,-y,1/2+z
1/2+x,1/2-y,-z
-x,1/2+y,1/2-z
loop_
_atom_site_type_symbol
_atom_site_label
_atom_site_fract_x
_atom_site_fract_y
_atom_site_fract_z
Si Si1 0.653805 0.303297 0.915821
Si Si2 0.686136 0.170895 0.401140
Si Si3 0.147454 0.094492 0.853612
Si Si4 0.187358 0.645052 0.305983
Si Si5 0.831500 0.650267 0.076940
Si Si6 0.853097 0.975141 0.504823
Si Si7 0.131814 0.730807 0.763253
O O1 0.499019 0.367152 0.854836
O O2 0.623474 0.153551 0.939697
O O3 0.820248 0.307137 0.841351
O O4 0.651797 0.365229 0.026928
O O5 0.811788 0.116476 0.312994
O O6 0.515678 0.214848 0.340241
O O7 0.250698 0.215615 0.525327
O O8 0.675012 0.049060 0.474308
O O9 0.265824 0.205366 0.806177
O O10 0.237125 0.959325 0.857922
O O11 0.967386 0.109604 0.789533
O O12 0.322714 0.570619 0.378425
O O13 0.805835 0.764642 0.163913
O O14 0.992841 0.574670 0.021343
#
# Coordination Sequence:
#
# PCOD9315209 Si02
#       7
#     4   4   4   4   4   4   4
#     4  11  23  46  76 112 154 217 276 341 409 504
#     4  11  27  48  71 117 159 212 276 350 418 507
#     4  10  23  46  74 113 151 213 275 340 410 500
#     4  10  23  48  75 109 156 210 276 338 415 497
#     4  12  26  49  77 113 162 216 279 347 420 508
#     4  11  25  48  78 110 163 218 273 340 422 504
#     4  11  27  45  77 118 165 212 281 348 430 502
#
# _framework density 26.653274
#
# number of rings (size 3 to 8) (size 9 to 14) (size 15 to 20)
#    0.000    1.143    1.429    3.429    8.000    4.571 
#    7.714    0.000    0.000    0.000    0.000    0.000 
#    0.000    0.000    0.000    0.000    0.000    0.000 
#
# Total GULP energy -156188.981086 kJ/mol
# GULP energy per Si atom -5578.177896 kJ/mol
# Density = 2.659261 g / cm^3
# Si number density = 26.653274 Si / 1000 Ang^3
#
#
#
# Elastic Constant Matrix: (Units=GPa)
#
#
# Indices 1 2 3 4 5 6 
#
# 1 72.2177 35.8729 33.7511 0.0000 0.0000 0.0000
# 2 35.8729 95.7558 56.9498 0.0000 0.0000 0.0000
# 3 33.7511 56.9498 147.1437 0.0000 0.0000 0.0000
# 4 0.0000 0.0000 0.0000 28.7883 0.0000 0.0000
# 5 0.0000 0.0000 0.0000 0.0000 49.8945 0.0000
# 6 0.0000 0.0000 0.0000 0.0000 0.0000 47.0655
#
#
#
# Elastic Compliance Matrix: (Units=1/GPa)
#
#
# Indices 1 2 3 4 5 6 
#
# 1 0.017416 -0.005389 -0.001909 0.000000 0.000000 0.000000
# 2 -0.005389 0.015234 -0.004660 0.000000 0.000000 0.000000
# 3 -0.001909 -0.004660 0.009037 0.000000 0.000000 0.000000
# 4 0.000000 0.000000 0.000000 0.034736 0.000000 0.000000
# 5 0.000000 0.000000 0.000000 0.000000 0.020042 0.000000
# 6 0.000000 0.000000 0.000000 0.000000 0.000000 0.021247
#
#
# Mechanical properties :
#
#
# Convention : Reuss Voigt Hill
#
# Bulk Modulus (GPa) = 56.27095 63.14052 59.70574
# Shear Modulus (GPa) = 33.88622 37.71922 35.80272
#
# Velocity S-wave (km/s) = 3.56950 3.76597 3.66905
# Velocity P-wave (km/s) = 6.17628 6.53078 6.35600
#
# Compressibility (1/GPa) = 0.01777116
#
# Stress axis : x y z
#
# Youngs Moduli (GPa) = 57.41773 65.64456 110.65070
#
# Poissons Ratio (x) = 0.35378 0.21123
# Poissons Ratio (y) = 0.30944 0.51561
# Poissons Ratio (z) = 0.10961 0.30589
#
# Static dielectric constant tensor:
#      x y z
#    x 2.283040 0.000000 0.000000 
#    y 0.000000 2.131410 0.000000 
#    z 0.000000 0.000000 2.055510 
# 
# From -- ./inp_files/4642.got.cif
#   From: 2010.05.17/outbox.cif.g08.bks.cpg/sg19_3_cif.got.tgz:4642.got - 2010.06.03 22:46:19.
