data_PCOD9315539
_publ_section_title
;
Structure prediction by ZEFSAII (Michael W. Deem and Ramdas Pophale) SiO2 
 PCOD9315539
Probable space group: P 21 21 21
;
_chemical_formula_sum "Si O2"
_cell_formula_units_Z 32
_cell_length_a 14.726608
_cell_length_b 7.684797
_cell_length_c 10.885870
_cell_angle_alpha 90.000000
_cell_angle_beta 90.000000
_cell_angle_gamma 90.000000
_cell_volume 1231.964717
_symmetry_space_group_name_H-M "P 21 21 21"
_symmetry_group_IT_number 19
_symmetry_cell_setting 'orthorhombic'
loop_
_space_group_symop_operation_xyz
x,y,z
1/2-x,-y,1/2+z
1/2+x,1/2-y,-z
-x,1/2+y,1/2-z
loop_
_atom_site_type_symbol
_atom_site_label
_atom_site_fract_x
_atom_site_fract_y
_atom_site_fract_z
Si Si1 0.961321 0.029390 0.939250
Si Si2 0.189407 0.808310 0.189740
Si Si3 0.179465 0.994564 0.546193
Si Si4 0.825196 0.873555 0.630668
Si Si5 0.550555 0.687032 0.613209
Si Si6 0.967372 0.363916 0.779083
Si Si7 0.870198 0.942642 0.377654
Si Si8 0.680382 0.162171 0.608543
O O1 0.941411 0.173479 0.832427
O O2 0.994956 0.139627 0.057899
O O3 0.028858 0.899448 0.866991
O O4 0.876058 0.931387 0.998907
O O5 0.227031 0.971968 0.116696
O O6 0.267685 0.758286 0.287540
O O7 0.091839 0.820492 0.253098
O O8 0.179185 0.627738 0.116851
O O9 0.183729 0.142814 0.440638
O O10 0.140084 0.833364 0.470506
O O11 0.100482 0.997977 0.652078
O O12 0.827847 0.830257 0.486466
O O13 0.928206 0.879856 0.676697
O O14 0.773268 0.058556 0.636343
O O15 0.477119 0.538155 0.593772
O O16 0.866995 0.860817 0.241784
#
# Coordination Sequence:
#
# PCOD9315539 Si02
#       8
#     4   4   4   4   4   4   4   4
#     4  11  21  43  66 100 133 179 228 281 343 398
#     4  11  24  46  70  98 143 185 224 307 342 417
#     4  11  24  45  66 103 141 176 237 289 354 417
#     4  11  21  41  69  98 130 182 236 264 354 414
#     4  11  25  45  67 105 142 182 234 293 351 419
#     4  11  24  41  72  98 139 180 226 292 335 419
#     4  11  23  42  71  97 136 187 235 278 346 433
#     4  11  24  39  71  97 134 187 226 288 343 419
#
# _framework density 25.974768999999998
#
# number of rings (size 3 to 8) (size 9 to 14) (size 15 to 20)
#    0.000    1.000    6.250    2.250    3.500    0.000 
#    6.750    1.250    0.000    0.000    0.000    0.000 
#    0.000    0.000    0.000    0.000    0.000    0.000 
#
# Total GULP energy -178601.099048 kJ/mol
# GULP energy per Si atom -5581.284345 kJ/mol
# Density = 2.591565 g / cm^3
# Si number density = 25.974769 Si / 1000 Ang^3
#
#
#
# Elastic Constant Matrix: (Units=GPa)
#
#
# Indices 1 2 3 4 5 6 
#
# 1 69.1339 -5.1193 26.7904 0.0000 0.0000 0.0000
# 2 -5.1193 42.6909 17.6165 0.0000 0.0000 0.0000
# 3 26.7904 17.6165 78.6159 0.0000 0.0000 0.0000
# 4 0.0000 0.0000 0.0000 35.6147 0.0000 0.0000
# 5 0.0000 0.0000 0.0000 0.0000 50.0746 0.0000
# 6 0.0000 0.0000 0.0000 0.0000 0.0000 26.4044
#
#
#
# Elastic Compliance Matrix: (Units=1/GPa)
#
#
# Indices 1 2 3 4 5 6 
#
# 1 0.017602 0.005053 -0.007131 0.000000 0.000000 0.000000
# 2 0.005053 0.027262 -0.007831 0.000000 0.000000 0.000000
# 3 -0.007131 -0.007831 0.016905 0.000000 0.000000 0.000000
# 4 0.000000 0.000000 0.000000 0.028078 0.000000 0.000000
# 5 0.000000 0.000000 0.000000 0.000000 0.019970 0.000000
# 6 0.000000 0.000000 0.000000 0.000000 0.000000 0.037873
#
#
# Mechanical properties :
#
#
# Convention : Reuss Voigt Hill
#
# Bulk Modulus (GPa) = 23.83684 29.89064 26.86374
# Shear Modulus (GPa) = 27.54969 32.49560 30.02265
#
# Velocity S-wave (km/s) = 3.26027 3.54085 3.40345
# Velocity P-wave (km/s) = 4.83418 5.31501 5.08029
#
# Compressibility (1/GPa) = 0.04195188
#
# Stress axis : x y z
#
# Youngs Moduli (GPa) = 56.81125 36.68167 59.15474
#
# Poissons Ratio (x) = -0.18536 0.42182
# Poissons Ratio (y) = -0.28708 0.46323
# Poissons Ratio (z) = 0.40511 0.28725
#
# Static dielectric constant tensor:
#      x y z
#    x 2.027900 0.000000 0.000000 
#    y 0.000000 2.123960 0.000000 
#    z 0.000000 0.000000 2.141480 
# 
# From -- ./inp_files/5277.got.cif
#   From: 2010.05.17/outbox.cif.g08.bks.cpg/sg19_3_cif.got.tgz:5277.got - 2010.06.03 22:46:19.
