data_PCOD9315060
_publ_section_title
;
Structure prediction by ZEFSAII (Michael W. Deem and Ramdas Pophale) SiO2 
 PCOD9315060
Probable space group: P 21 21 21
;
_chemical_formula_sum "Si O2"
_cell_formula_units_Z 32
_cell_length_a 15.092586
_cell_length_b 10.832664
_cell_length_c 8.682267
_cell_angle_alpha 90.000000
_cell_angle_beta 90.000000
_cell_angle_gamma 90.000000
_cell_volume 1419.489124
_symmetry_space_group_name_H-M "P 21 21 21"
_symmetry_group_IT_number 19
_symmetry_cell_setting 'orthorhombic'
loop_
_space_group_symop_operation_xyz
x,y,z
1/2-x,-y,1/2+z
1/2+x,1/2-y,-z
-x,1/2+y,1/2-z
loop_
_atom_site_type_symbol
_atom_site_label
_atom_site_fract_x
_atom_site_fract_y
_atom_site_fract_z
Si Si1 0.229392 0.093692 0.899805
Si Si2 0.383394 0.650043 0.021740
Si Si3 0.506367 0.615920 0.749262
Si Si4 0.407383 0.946736 0.991038
Si Si5 0.678453 0.614959 0.917493
Si Si6 0.280188 0.329356 0.354960
Si Si7 0.428688 0.508275 0.322972
Si Si8 0.351178 0.682475 0.566280
O O1 0.247513 0.094913 0.716782
O O2 0.319764 0.031496 0.967750
O O3 0.199214 0.228156 0.949323
O O4 0.157858 0.012096 0.994205
O O5 0.416244 0.604958 0.186199
O O6 0.443514 0.587331 0.892143
O O7 0.392139 0.799209 0.997370
O O8 0.282420 0.609442 0.987256
O O9 0.535545 0.493969 0.655993
O O10 0.595712 0.669283 0.823591
O O11 0.449056 0.707365 0.640339
O O12 0.469678 0.983217 0.134508
O O13 0.701037 0.700949 0.061057
O O14 0.371926 0.385381 0.296064
O O15 0.214507 0.323840 0.210450
O O16 0.376190 0.561801 0.470500
#
# Coordination Sequence:
#
# PCOD9315060 Si02
#       8
#     4   4   4   4   4   4   4   4
#     4  11  23  39  70 104 136 181 240 303 357 430
#     4  11  22  44  69  98 137 188 237 297 364 432
#     4   9  23  41  65  99 137 190 233 294 371 419
#     4  10  23  44  66 101 142 179 241 302 358 436
#     4  11  22  41  68 105 133 185 236 302 374 423
#     4  11  22  42  67  94 137 186 237 292 358 441
#     4  11  24  43  68 103 141 186 235 299 361 435
#     4  10  23  42  65 100 143 185 241 289 365 432
#
# _framework density 22.543323000000001
#
# number of rings (size 3 to 8) (size 9 to 14) (size 15 to 20)
#    0.000    1.500    1.250    3.000    5.250    3.000 
#    0.000    7.500    0.000    0.000    0.000    0.000 
#    0.000    0.000    0.000    0.000    0.000    0.000 
#
# Total GULP energy -178256.667386 kJ/mol
# GULP energy per Si atom -5570.520856 kJ/mol
# Density = 2.249201 g / cm^3
# Si number density = 22.543323 Si / 1000 Ang^3
#
#
#
# Elastic Constant Matrix: (Units=GPa)
#
#
# Indices 1 2 3 4 5 6 
#
# 1 56.7260 26.3087 5.5956 0.0000 0.0000 0.0000
# 2 26.3087 47.4742 11.8223 0.0000 0.0000 0.0000
# 3 5.5956 11.8223 63.2754 0.0000 0.0000 0.0000
# 4 0.0000 0.0000 0.0000 33.4679 0.0000 0.0000
# 5 0.0000 0.0000 0.0000 0.0000 22.4766 0.0000
# 6 0.0000 0.0000 0.0000 0.0000 0.0000 19.3390
#
#
#
# Elastic Compliance Matrix: (Units=1/GPa)
#
#
# Indices 1 2 3 4 5 6 
#
# 1 0.023735 -0.013247 0.000376 0.000000 0.000000 0.000000
# 2 -0.013247 0.029485 -0.004338 0.000000 0.000000 0.000000
# 3 0.000376 -0.004338 0.016581 0.000000 0.000000 0.000000
# 4 0.000000 0.000000 0.000000 0.029879 0.000000 0.000000
# 5 0.000000 0.000000 0.000000 0.000000 0.044491 0.000000
# 6 0.000000 0.000000 0.000000 0.000000 0.000000 0.051709
#
#
# Mechanical properties :
#
#
# Convention : Reuss Voigt Hill
#
# Bulk Modulus (GPa) = 28.26075 28.32543 28.29309
# Shear Modulus (GPa) = 20.65327 23.30663 21.97995
#
# Velocity S-wave (km/s) = 3.03010 3.21886 3.12590
# Velocity P-wave (km/s) = 4.98050 5.13876 5.06025
#
# Compressibility (1/GPa) = 0.03538476
#
# Stress axis : x y z
#
# Youngs Moduli (GPa) = 42.13143 33.91527 60.30965
#
# Poissons Ratio (x) = 0.44927 -0.02268
# Poissons Ratio (y) = 0.55811 0.26159
# Poissons Ratio (z) = -0.01584 0.14711
#
# Static dielectric constant tensor:
#      x y z
#    x 1.979520 0.000000 0.000000 
#    y 0.000000 1.987810 0.000000 
#    z 0.000000 0.000000 1.859450 
# 
# From -- ./inp_files/3984.got.cif
#   From: 2010.05.17/outbox.cif.g08.bks.cpg/sg19_2_cif.got.tgz:3984.got - 2010.06.03 22:46:19.
