data_PCOD9315519
_publ_section_title
;
Structure prediction by ZEFSAII (Michael W. Deem and Ramdas Pophale) SiO2 
 PCOD9315519
Probable space group: P 21 21 21
;
_chemical_formula_sum "Si O2"
_cell_formula_units_Z 32
_cell_length_a 14.528490
_cell_length_b 17.514375
_cell_length_c 6.616744
_cell_angle_alpha 90.000000
_cell_angle_beta 90.000000
_cell_angle_gamma 90.000000
_cell_volume 1683.679621
_symmetry_space_group_name_H-M "P 21 21 21"
_symmetry_group_IT_number 19
_symmetry_cell_setting 'orthorhombic'
loop_
_space_group_symop_operation_xyz
x,y,z
1/2-x,-y,1/2+z
1/2+x,1/2-y,-z
-x,1/2+y,1/2-z
loop_
_atom_site_type_symbol
_atom_site_label
_atom_site_fract_x
_atom_site_fract_y
_atom_site_fract_z
Si Si1 0.694897 0.400131 0.188854
Si Si2 0.472807 0.950313 0.576933
Si Si3 0.106109 0.758695 0.856622
Si Si4 0.532529 0.215707 0.032777
Si Si5 0.038426 0.917198 0.780802
Si Si6 0.347461 0.986887 0.957479
Si Si7 0.599639 0.814691 0.722967
Si Si8 0.255800 0.747846 0.513162
O O1 0.757027 0.471868 0.123396
O O2 0.676072 0.408109 0.427075
O O3 0.748231 0.325704 0.116409
O O4 0.600772 0.405267 0.062459
O O5 0.416612 0.978079 0.772562
O O6 0.548389 0.891488 0.656647
O O7 0.503208 0.022032 0.437896
O O8 0.197151 0.755664 0.717871
O O9 0.015043 0.739147 0.721968
O O10 0.089178 0.848678 0.902425
O O11 0.110928 0.701943 0.041852
O O12 0.462806 0.243170 0.858365
O O13 0.524528 0.129890 0.121802
O O14 0.636497 0.230721 0.969230
O O15 0.107673 0.962213 0.634410
O O16 0.698465 0.812613 0.616575
#
# Coordination Sequence:
#
# PCOD9315519 Si02
#       8
#     4   4   4   4   4   4   4   4
#     4  11  21  34  56  92 125 161 203 259 322 391
#     4  11  24  37  58  93 133 163 211 270 329 393
#     4   9  22  37  62  93 128 168 216 267 334 386
#     4   9  21  41  63  88 125 172 215 268 312 396
#     4   9  22  39  61  83 125 172 209 255 324 387
#     4  11  21  34  58  89 130 166 201 257 331 395
#     4  11  23  39  62  93 131 167 218 275 332 384
#     4  11  22  39  64  91 129 165 225 271 314 396
#
# _framework density 19.005990000000001
#
# number of rings (size 3 to 8) (size 9 to 14) (size 15 to 20)
#    0.750    1.000    3.750    0.000    5.250    3.000 
#    0.000    0.000    2.750    0.000    0.000    0.000 
#    0.000    0.000    0.000    0.000    0.000    0.000 
#
# Total GULP energy -178238.103512 kJ/mol
# GULP energy per Si atom -5569.940735 kJ/mol
# Density = 1.896273 g / cm^3
# Si number density = 19.005990 Si / 1000 Ang^3
#
#
#
# Elastic Constant Matrix: (Units=GPa)
#
#
# Indices 1 2 3 4 5 6 
#
# 1 78.2642 17.4330 12.5360 0.0000 0.0000 0.0000
# 2 17.4330 69.0111 32.6882 0.0000 0.0000 0.0000
# 3 12.5360 32.6882 58.7984 0.0000 0.0000 0.0000
# 4 0.0000 0.0000 0.0000 30.0292 0.0000 0.0000
# 5 0.0000 0.0000 0.0000 0.0000 20.1324 0.0000
# 6 0.0000 0.0000 0.0000 0.0000 0.0000 34.0332
#
#
#
# Elastic Compliance Matrix: (Units=1/GPa)
#
#
# Indices 1 2 3 4 5 6 
#
# 1 0.013617 -0.002803 -0.001345 0.000000 0.000000 0.000000
# 2 -0.002803 0.020247 -0.010658 0.000000 0.000000 0.000000
# 3 -0.001345 -0.010658 0.023219 0.000000 0.000000 0.000000
# 4 0.000000 0.000000 0.000000 0.033301 0.000000 0.000000
# 5 0.000000 0.000000 0.000000 0.000000 0.049671 0.000000
# 6 0.000000 0.000000 0.000000 0.000000 0.000000 0.029383
#
#
# Mechanical properties :
#
#
# Convention : Reuss Voigt Hill
#
# Bulk Modulus (GPa) = 36.40210 36.82090 36.61150
# Shear Modulus (GPa) = 24.01445 26.40006 25.20725
#
# Velocity S-wave (km/s) = 3.55846 3.73102 3.64576
# Velocity P-wave (km/s) = 6.00650 6.16247 6.08499
#
# Compressibility (1/GPa) = 0.02747094
#
# Stress axis : x y z
#
# Youngs Moduli (GPa) = 73.43781 49.39013 43.06728
#
# Poissons Ratio (x) = 0.13843 0.05793
# Poissons Ratio (y) = 0.20582 0.45903
# Poissons Ratio (z) = 0.09878 0.52642
#
# Static dielectric constant tensor:
#      x y z
#    x 1.643180 0.000000 0.000000 
#    y 0.000000 1.718880 0.000000 
#    z 0.000000 0.000000 1.685980 
# 
# From -- ./inp_files/1620.got.cif
#   From: 2010.05.17/outbox.cif.g08.bks.cpg/sg19_1_cif.got.tgz:1620.got - 2010.06.03 22:46:19.
