data_PCOD9315998
_publ_section_title
;
Structure prediction by ZEFSAII (Michael W. Deem and Ramdas Pophale) SiO2 
 PCOD9315998
Probable space group: P 21 21 21
;
_chemical_formula_sum "Si O2"
_cell_formula_units_Z 24
_cell_length_a 8.763653
_cell_length_b 18.686375
_cell_length_c 6.829358
_cell_angle_alpha 90.000000
_cell_angle_beta 90.000000
_cell_angle_gamma 90.000000
_cell_volume 1118.381856
_symmetry_space_group_name_H-M "P 21 21 21"
_symmetry_group_IT_number 19
_symmetry_cell_setting 'orthorhombic'
loop_
_space_group_symop_operation_xyz
x,y,z
1/2-x,-y,1/2+z
1/2+x,1/2-y,-z
-x,1/2+y,1/2-z
loop_
_atom_site_type_symbol
_atom_site_label
_atom_site_fract_x
_atom_site_fract_y
_atom_site_fract_z
Si Si1 0.396833 0.028476 0.423408
Si Si2 0.123913 0.706567 0.886179
Si Si3 0.097964 0.510489 0.248995
Si Si4 0.915702 0.579106 0.930549
Si Si5 0.236049 0.377812 0.040057
Si Si6 0.412329 0.664546 0.164225
O O1 0.237013 0.068187 0.445731
O O2 0.533024 0.083064 0.371235
O O3 0.441202 0.002686 0.637986
O O4 0.395859 0.962198 0.274390
O O5 0.174853 0.679748 0.670671
O O6 0.971604 0.659725 0.923688
O O7 0.057683 0.786376 0.889542
O O8 0.262756 0.688640 0.037720
O O9 0.173477 0.434332 0.200622
O O10 0.178177 0.569825 0.385158
O O11 0.057142 0.541198 0.038228
O O12 0.123027 0.334623 0.896731
#
# Coordination Sequence:
#
# PCOD9315998 Si02
#       6
#     4   4   4   4   4   4
#     4  12  24  43  72 106 139 178 230 293 350 414
#     4  12  27  48  70 100 142 188 236 290 350 418
#     4  12  22  42  74 104 138 170 236 292 352 418
#     4  12  24  43  72 106 139 178 230 293 350 414
#     4  12  24  44  74 104 138 184 234 290 356 420
#     4  12  27  48  70 100 142 188 236 290 350 418
#
# _framework density 21.459575999999998
#
# number of rings (size 3 to 8) (size 9 to 14) (size 15 to 20)
#    0.000    0.000    8.333    3.000    0.000    1.333 
#    9.000    0.000    0.000    0.000    0.000    0.000 
#    0.000    0.000    0.000    0.000    0.000    0.000 
#
# Total GULP energy -133889.510864 kJ/mol
# GULP energy per Si atom -5578.729619 kJ/mol
# Density = 2.141073 g / cm^3
# Si number density = 21.459576 Si / 1000 Ang^3
#
#
#
# Elastic Constant Matrix: (Units=GPa)
#
#
# Indices 1 2 3 4 5 6 
#
# 1 76.3256 11.7499 27.7237 0.0000 0.0000 0.0000
# 2 11.7499 59.7556 5.0049 0.0000 0.0000 0.0000
# 3 27.7237 5.0049 85.0916 0.0000 0.0000 0.0000
# 4 0.0000 0.0000 0.0000 22.0977 0.0000 0.0000
# 5 0.0000 0.0000 0.0000 0.0000 41.8336 0.0000
# 6 0.0000 0.0000 0.0000 0.0000 0.0000 42.2059
#
#
#
# Elastic Compliance Matrix: (Units=1/GPa)
#
#
# Indices 1 2 3 4 5 6 
#
# 1 0.015251 -0.002595 -0.004816 0.000000 0.000000 0.000000
# 2 -0.002595 0.017259 -0.000170 0.000000 0.000000 0.000000
# 3 -0.004816 -0.000170 0.013331 0.000000 0.000000 0.000000
# 4 0.000000 0.000000 0.000000 0.045254 0.000000 0.000000
# 5 0.000000 0.000000 0.000000 0.000000 0.023904 0.000000
# 6 0.000000 0.000000 0.000000 0.000000 0.000000 0.023693
#
#
# Mechanical properties :
#
#
# Convention : Reuss Voigt Hill
#
# Bulk Modulus (GPa) = 32.59559 34.45886 33.52722
# Shear Modulus (GPa) = 30.47276 33.00706 31.73991
#
# Velocity S-wave (km/s) = 3.77239 3.92612 3.85002
# Velocity P-wave (km/s) = 5.84780 6.05351 5.95155
#
# Compressibility (1/GPa) = 0.03067900
#
# Stress axis : x y z
#
# Youngs Moduli (GPa) = 65.57081 57.93953 75.01214
#
# Poissons Ratio (x) = 0.15038 0.36127
# Poissons Ratio (y) = 0.17018 0.01272
# Poissons Ratio (z) = 0.31580 0.00982
#
# Static dielectric constant tensor:
#      x y z
#    x 1.829040 0.000000 0.000000 
#    y 0.000000 1.826850 0.000000 
#    z 0.000000 0.000000 1.784510 
# 
# From -- ./inp_files/427.got.cif
#   From: 2010.05.17/outbox.cif.g08.bks.cpg/sg19_1_cif.got.tgz:427.got - 2010.06.03 22:46:19.
