data_PCOD9315863
_publ_section_title
;
Structure prediction by ZEFSAII (Michael W. Deem and Ramdas Pophale) SiO2 
 PCOD9315863
Probable space group: P 21 21 21
;
_chemical_formula_sum "Si O2"
_cell_formula_units_Z 24
_cell_length_a 14.380521
_cell_length_b 6.809513
_cell_length_c 11.883813
_cell_angle_alpha 90.000000
_cell_angle_beta 90.000000
_cell_angle_gamma 90.000000
_cell_volume 1163.714601
_symmetry_space_group_name_H-M "P 21 21 21"
_symmetry_group_IT_number 19
_symmetry_cell_setting 'orthorhombic'
loop_
_space_group_symop_operation_xyz
x,y,z
1/2-x,-y,1/2+z
1/2+x,1/2-y,-z
-x,1/2+y,1/2-z
loop_
_atom_site_type_symbol
_atom_site_label
_atom_site_fract_x
_atom_site_fract_y
_atom_site_fract_z
Si Si1 0.376223 0.733708 0.429303
Si Si2 0.078755 0.236640 0.343044
Si Si3 0.916315 0.395130 0.976171
Si Si4 0.893372 0.490190 0.367549
Si Si5 0.303202 0.814222 0.180723
Si Si6 0.799617 0.002646 0.009855
O O1 0.481491 0.659397 0.433521
O O2 0.341684 0.782520 0.304753
O O3 0.306290 0.568967 0.476626
O O4 0.370853 0.924465 0.509597
O O5 0.164215 0.366930 0.388228
O O6 0.984823 0.356933 0.366005
O O7 0.076950 0.038111 0.416455
O O8 0.088171 0.175573 0.213901
O O9 0.859628 0.513232 0.881574
O O10 0.861327 0.198414 0.007169
O O11 0.804802 0.374096 0.320467
O O12 0.314429 0.621647 0.103431
#
# Coordination Sequence:
#
# PCOD9315863 Si02
#       6
#     4   4   4   4   4   4
#     4  12  26  44  74 100 144 188 232 291 359 422
#     4  11  26  45  76 103 144 181 241 293 350 428
#     4  11  24  49  69 105 143 182 236 287 358 429
#     4  12  25  46  74 105 140 188 235 296 356 415
#     4  11  28  44  72 102 142 183 234 292 354 429
#     4  11  25  48  69 105 139 190 236 291 353 427
#
# _framework density 20.623615000000001
#
# number of rings (size 3 to 8) (size 9 to 14) (size 15 to 20)
#    0.000    0.667    3.333    3.000    9.333    0.000 
#    0.000    0.000    0.000    0.000    0.000    0.000 
#    0.000    0.000    0.000    0.000    0.000    0.000 
#
# Total GULP energy -134425.132359 kJ/mol
# GULP energy per Si atom -5601.047182 kJ/mol
# Density = 2.057667 g / cm^3
# Si number density = 20.623615 Si / 1000 Ang^3
#
#
#
# Elastic Constant Matrix: (Units=GPa)
#
#
# Indices 1 2 3 4 5 6 
#
# 1 69.3686 0.6013 -12.4643 0.0000 0.0000 0.0000
# 2 0.6013 87.8900 28.2204 0.0000 0.0000 0.0000
# 3 -12.4643 28.2204 88.4253 0.0000 0.0000 0.0000
# 4 0.0000 0.0000 0.0000 21.2340 0.0000 0.0000
# 5 0.0000 0.0000 0.0000 0.0000 17.9753 0.0000
# 6 0.0000 0.0000 0.0000 0.0000 0.0000 53.9552
#
#
#
# Elastic Compliance Matrix: (Units=1/GPa)
#
#
# Indices 1 2 3 4 5 6 
#
# 1 0.014849 -0.000862 0.002368 0.000000 0.000000 0.000000
# 2 -0.000862 0.012727 -0.004183 0.000000 0.000000 0.000000
# 3 0.002368 -0.004183 0.012978 0.000000 0.000000 0.000000
# 4 0.000000 0.000000 0.000000 0.047094 0.000000 0.000000
# 5 0.000000 0.000000 0.000000 0.000000 0.055632 0.000000
# 6 0.000000 0.000000 0.000000 0.000000 0.000000 0.018534
#
#
# Mechanical properties :
#
#
# Convention : Reuss Voigt Hill
#
# Bulk Modulus (GPa) = 28.40958 30.93321 29.67140
# Shear Modulus (GPa) = 27.94847 33.92134 30.93490
#
# Velocity S-wave (km/s) = 3.68525 4.05999 3.87715
# Velocity P-wave (km/s) = 5.64919 6.08354 5.87038
#
# Compressibility (1/GPa) = 0.03519939
#
# Stress axis : x y z
#
# Youngs Moduli (GPa) = 67.34583 78.57351 77.05445
#
# Poissons Ratio (x) = 0.06773 -0.18248
# Poissons Ratio (y) = 0.05805 0.32234
# Poissons Ratio (z) = -0.15948 0.32869
#
# Static dielectric constant tensor:
#      x y z
#    x 1.706260 0.000000 0.000000 
#    y 0.000000 1.718340 0.000000 
#    z 0.000000 0.000000 1.718090 
# 
# From -- ./inp_files/889.got.cif
#   From: 2010.05.17/outbox.cif.g08.bks.cpg/sg19_1_cif.got.tgz:889.got - 2010.06.03 22:46:19.
