data_PCOD9315780
_publ_section_title
;
Structure prediction by ZEFSAII (Michael W. Deem and Ramdas Pophale) SiO2 
 PCOD9315780
Probable space group: P 21 21 21
;
_chemical_formula_sum "Si O2"
_cell_formula_units_Z 32
_cell_length_a 17.780734
_cell_length_b 7.949395
_cell_length_c 9.270501
_cell_angle_alpha 90.000000
_cell_angle_beta 90.000000
_cell_angle_gamma 90.000000
_cell_volume 1310.348957
_symmetry_space_group_name_H-M "P 21 21 21"
_symmetry_group_IT_number 19
_symmetry_cell_setting 'orthorhombic'
loop_
_space_group_symop_operation_xyz
x,y,z
1/2-x,-y,1/2+z
1/2+x,1/2-y,-z
-x,1/2+y,1/2-z
loop_
_atom_site_type_symbol
_atom_site_label
_atom_site_fract_x
_atom_site_fract_y
_atom_site_fract_z
Si Si1 0.213833 0.826335 0.581242
Si Si2 0.055359 0.744824 0.696710
Si Si3 0.947120 0.885512 0.455651
Si Si4 0.303836 0.015694 0.785223
Si Si5 0.470865 0.965285 0.711337
Si Si6 0.790169 0.800003 0.876255
Si Si7 0.457480 0.625624 0.064773
Si Si8 0.284350 0.527771 0.417880
O O1 0.138061 0.815676 0.672135
O O2 0.209814 0.969087 0.455785
O O3 0.224658 0.660059 0.484620
O O4 0.280963 0.851257 0.694482
O O5 0.051704 0.551825 0.648705
O O6 0.001606 0.846659 0.588539
O O7 0.022421 0.771648 0.854748
O O8 0.953044 0.715229 0.359222
O O9 0.865166 0.921208 0.518569
O O10 0.978610 0.033250 0.354513
O O11 0.391237 0.049138 0.753900
O O12 0.246931 0.147647 0.710600
O O13 0.516576 0.071183 0.592884
O O14 0.877126 0.783083 0.921773
O O15 0.785544 0.947956 0.753384
O O16 0.741229 0.852922 0.013905
#
# Coordination Sequence:
#
# PCOD9315780 Si02
#       8
#     4   4   4   4   4   4   4   4
#     4  11  24  44  66  92 134 174 216 270 331 387
#     4  11  24  44  66  92 134 174 216 270 331 387
#     4  11  24  44  66  92 134 174 216 270 331 387
#     4  11  26  43  67  99 132 174 222 270 326 391
#     4  11  26  43  67  99 132 174 222 270 326 391
#     4  11  26  43  67  99 132 174 222 270 326 391
#     4  11  26  43  67  99 132 174 222 270 326 391
#     4  11  24  44  66  92 134 174 216 270 331 387
#
# _framework density 24.420974000000001
#
# number of rings (size 3 to 8) (size 9 to 14) (size 15 to 20)
#    0.000    1.000    5.000    0.000    7.000    4.000 
#    0.000    0.000    0.000    0.000    0.000    0.000 
#    0.000    0.000    0.000    0.000    0.000    0.000 
#
# Total GULP energy -179265.893497 kJ/mol
# GULP energy per Si atom -5602.059172 kJ/mol
# Density = 2.436539 g / cm^3
# Si number density = 24.420974 Si / 1000 Ang^3
#
#
#
# Elastic Constant Matrix: (Units=GPa)
#
#
# Indices 1 2 3 4 5 6 
#
# 1 103.0597 -5.5532 34.1901 0.0000 0.0000 0.0000
# 2 -5.5532 46.1451 19.9863 0.0000 0.0000 0.0000
# 3 34.1901 19.9863 127.2554 0.0000 0.0000 0.0000
# 4 0.0000 0.0000 0.0000 39.5008 0.0000 0.0000
# 5 0.0000 0.0000 0.0000 0.0000 36.0027 0.0000
# 6 0.0000 0.0000 0.0000 0.0000 0.0000 28.3515
#
#
#
# Elastic Compliance Matrix: (Units=1/GPa)
#
#
# Indices 1 2 3 4 5 6 
#
# 1 0.010977 0.002788 -0.003387 0.000000 0.000000 0.000000
# 2 0.002788 0.023961 -0.004512 0.000000 0.000000 0.000000
# 3 -0.003387 -0.004512 0.009477 0.000000 0.000000 0.000000
# 4 0.000000 0.000000 0.000000 0.025316 0.000000 0.000000
# 5 0.000000 0.000000 0.000000 0.000000 0.027776 0.000000
# 6 0.000000 0.000000 0.000000 0.000000 0.000000 0.035272
#
#
# Mechanical properties :
#
#
# Convention : Reuss Voigt Hill
#
# Bulk Modulus (GPa) = 29.24671 41.52298 35.38484
# Shear Modulus (GPa) = 32.38390 35.96012 34.17201
#
# Velocity S-wave (km/s) = 3.64547 3.84149 3.74477
# Velocity P-wave (km/s) = 5.45173 6.05937 5.76356
#
# Compressibility (1/GPa) = 0.03419188
#
# Stress axis : x y z
#
# Youngs Moduli (GPa) = 91.09952 41.73512 105.51962
#
# Poissons Ratio (x) = -0.11636 0.35741
# Poissons Ratio (y) = -0.25399 0.47613
# Poissons Ratio (z) = 0.30856 0.18832
#
# Static dielectric constant tensor:
#      x y z
#    x 1.867900 0.000000 0.000000 
#    y 0.000000 2.041430 0.000000 
#    z 0.000000 0.000000 1.889370 
# 
# From -- ./inp_files/4193.got.cif
#   From: 2010.05.17/outbox.cif.g08.bks.cpg/sg19_3_cif.got.tgz:4193.got - 2010.06.03 22:46:19.
