data_PCOD9315663
_publ_section_title
;
Structure prediction by ZEFSAII (Michael W. Deem and Ramdas Pophale) SiO2 
 PCOD9315663
Probable space group: P 21 21 21
;
_chemical_formula_sum "Si O2"
_cell_formula_units_Z 32
_cell_length_a 6.474744
_cell_length_b 26.151868
_cell_length_c 8.495102
_cell_angle_alpha 90.000000
_cell_angle_beta 90.000000
_cell_angle_gamma 90.000000
_cell_volume 1438.447167
_symmetry_space_group_name_H-M "P 21 21 21"
_symmetry_group_IT_number 19
_symmetry_cell_setting 'orthorhombic'
loop_
_space_group_symop_operation_xyz
x,y,z
1/2-x,-y,1/2+z
1/2+x,1/2-y,-z
-x,1/2+y,1/2-z
loop_
_atom_site_type_symbol
_atom_site_label
_atom_site_fract_x
_atom_site_fract_y
_atom_site_fract_z
Si Si1 0.958898 0.401423 0.953510
Si Si2 0.907432 0.149258 0.580729
Si Si3 0.803452 0.573294 0.759121
Si Si4 0.911661 0.934267 0.068666
Si Si5 0.635561 0.348537 0.742314
Si Si6 0.583140 0.748155 0.252115
Si Si7 0.258130 0.305300 0.937859
Si Si8 0.141441 0.487591 0.755843
O O1 0.784858 0.390525 0.820258
O O2 0.104677 0.446700 0.893561
O O3 0.094677 0.350321 0.974670
O O4 0.840299 0.415648 0.111232
O O5 0.044134 0.120536 0.711689
O O6 0.009549 0.137270 0.412876
O O7 0.685596 0.121908 0.588196
O O8 0.910573 0.208773 0.619240
O O9 0.655113 0.567533 0.909742
O O10 0.939884 0.523064 0.739130
O O11 0.822235 0.973589 0.197921
O O12 0.833692 0.956360 0.903741
O O13 0.785736 0.301112 0.703740
O O14 0.465815 0.329923 0.868760
O O15 0.355988 0.729867 0.307196
O O16 0.688186 0.772798 0.407897
#
# Coordination Sequence:
#
# PCOD9315663 Si02
#       8
#     4   4   4   4   4   4   4   4
#     4  11  24  42  67  96 129 173 219 271 325 392
#     4  11  26  42  64  96 132 171 215 267 331 391
#     4  11  24  42  68  95 131 175 217 271 328 387
#     4  11  24  43  66  97 134 174 218 276 328 396
#     4  11  25  43  64  94 130 169 213 273 325 388
#     4  11  24  42  65  92 125 167 218 265 323 389
#     4  11  23  42  66  91 122 169 215 265 320 384
#     4  11  24  42  66  99 133 172 223 268 332 393
#
# _framework density 22.246210000000001
#
# number of rings (size 3 to 8) (size 9 to 14) (size 15 to 20)
#    0.000    1.000    1.250    4.500    3.500   10.000 
#    0.000    0.000    0.000    0.000    0.000    0.000 
#    0.000    0.000    0.000    0.000    0.000    0.000 
#
# Total GULP energy -179199.774739 kJ/mol
# GULP energy per Si atom -5599.992961 kJ/mol
# Density = 2.219558 g / cm^3
# Si number density = 22.246210 Si / 1000 Ang^3
#
#
#
# Elastic Constant Matrix: (Units=GPa)
#
#
# Indices 1 2 3 4 5 6 
#
# 1 56.4597 2.5028 -17.3712 0.0000 0.0000 0.0000
# 2 2.5028 63.3821 -7.3624 0.0000 0.0000 0.0000
# 3 -17.3712 -7.3624 45.2356 0.0000 0.0000 0.0000
# 4 0.0000 0.0000 0.0000 34.4147 0.0000 0.0000
# 5 0.0000 0.0000 0.0000 0.0000 28.6609 0.0000
# 6 0.0000 0.0000 0.0000 0.0000 0.0000 15.6829
#
#
#
# Elastic Compliance Matrix: (Units=1/GPa)
#
#
# Indices 1 2 3 4 5 6 
#
# 1 0.020086 0.000105 0.007730 0.000000 0.000000 0.000000
# 2 0.000105 0.016082 0.002658 0.000000 0.000000 0.000000
# 3 0.007730 0.002658 0.025508 0.000000 0.000000 0.000000
# 4 0.000000 0.000000 0.000000 0.029057 0.000000 0.000000
# 5 0.000000 0.000000 0.000000 0.000000 0.034891 0.000000
# 6 0.000000 0.000000 0.000000 0.000000 0.000000 0.063764
#
#
# Mechanical properties :
#
#
# Convention : Reuss Voigt Hill
#
# Bulk Modulus (GPa) = 12.09770 13.40176 12.74973
# Shear Modulus (GPa) = 25.51609 28.23892 26.87750
#
# Velocity S-wave (km/s) = 3.39039 3.56670 3.47966
# Velocity P-wave (km/s) = 4.55810 4.79575 4.67843
#
# Compressibility (1/GPa) = 0.08266034
#
# Stress axis : x y z
#
# Youngs Moduli (GPa) = 49.78714 62.18172 39.20406
#
# Poissons Ratio (x) = -0.00652 -0.30306
# Poissons Ratio (y) = -0.00522 -0.10419
# Poissons Ratio (z) = -0.38487 -0.16526
#
# Static dielectric constant tensor:
#      x y z
#    x 1.791650 0.000000 0.000000 
#    y 0.000000 1.786280 0.000000 
#    z 0.000000 0.000000 1.826590 
# 
# From -- ./inp_files/2478.got.cif
#   From: 2010.05.17/outbox.cif.g08.bks.cpg/sg19_2_cif.got.tgz:2478.got - 2010.06.03 22:46:19.
