data_PCOD9315772
_publ_section_title
;
Structure prediction by ZEFSAII (Michael W. Deem and Ramdas Pophale) SiO2 
 PCOD9315772
Probable space group: P 21 21 21
;
_chemical_formula_sum "Si O2"
_cell_formula_units_Z 32
_cell_length_a 12.660596
_cell_length_b 4.905817
_cell_length_c 20.182200
_cell_angle_alpha 90.000000
_cell_angle_beta 90.000000
_cell_angle_gamma 90.000000
_cell_volume 1253.527887
_symmetry_space_group_name_H-M "P 21 21 21"
_symmetry_group_IT_number 19
_symmetry_cell_setting 'orthorhombic'
loop_
_space_group_symop_operation_xyz
x,y,z
1/2-x,-y,1/2+z
1/2+x,1/2-y,-z
-x,1/2+y,1/2-z
loop_
_atom_site_type_symbol
_atom_site_label
_atom_site_fract_x
_atom_site_fract_y
_atom_site_fract_z
Si Si1 0.348939 0.016267 0.730457
Si Si2 0.920817 0.960860 0.908972
Si Si3 0.725796 0.073525 0.184274
Si Si4 0.436148 0.664024 0.850121
Si Si5 0.207426 0.275172 0.102195
Si Si6 0.596147 0.751758 0.948427
Si Si7 0.934543 0.232208 0.764035
Si Si8 0.945901 0.929374 0.574797
O O1 0.269981 0.256078 0.753121
O O2 0.459654 0.063332 0.690406
O O3 0.388798 0.889941 0.799948
O O4 0.283604 0.843998 0.676091
O O5 0.804458 0.056025 0.928557
O O6 0.924732 0.093474 0.835487
O O7 0.002247 0.149305 0.949543
O O8 0.960120 0.649772 0.908520
O O9 0.833841 0.026277 0.145410
O O10 0.664221 0.814759 0.215701
O O11 0.635571 0.161438 0.132239
O O12 0.476033 0.702878 0.925033
O O13 0.122192 0.513906 0.105975
O O14 0.167272 0.015366 0.060770
O O15 0.611725 0.904702 0.017252
O O16 0.971300 0.542129 0.765645
#
# Coordination Sequence:
#
# PCOD9315772 Si02
#       8
#     4   4   4   4   4   4   4   4
#     4  11  24  43  73 113 146 189 244 318 383 455
#     4  12  25  46  74 104 141 191 251 303 377 443
#     4  12  27  42  73 106 149 196 244 314 384 452
#     4  11  24  43  72 104 148 186 242 307 378 447
#     4  11  26  46  81 105 146 195 248 321 384 455
#     4  11  27  51  72 109 150 197 254 310 379 457
#     4  12  25  44  68 106 146 187 239 310 376 450
#     4  12  28  49  71 107 150 199 252 309 361 465
#
# _framework density 25.527951999999999
#
# number of rings (size 3 to 8) (size 9 to 14) (size 15 to 20)
#    0.000    0.500    3.750    3.000   14.000    2.000 
#    2.250    0.000    0.000    0.000    0.000    0.000 
#    0.000    0.000    0.000    0.000    0.000    0.000 
#
# Total GULP energy -178618.347238 kJ/mol
# GULP energy per Si atom -5581.823351 kJ/mol
# Density = 2.546985 g / cm^3
# Si number density = 25.527952 Si / 1000 Ang^3
#
#
#
# Elastic Constant Matrix: (Units=GPa)
#
#
# Indices 1 2 3 4 5 6 
#
# 1 121.5262 30.3897 23.9606 0.0000 0.0000 0.0000
# 2 30.3897 92.5034 -4.8014 0.0000 0.0000 0.0000
# 3 23.9606 -4.8014 56.3470 0.0000 0.0000 0.0000
# 4 0.0000 0.0000 0.0000 42.1197 0.0000 0.0000
# 5 0.0000 0.0000 0.0000 0.0000 36.1655 0.0000
# 6 0.0000 0.0000 0.0000 0.0000 0.0000 40.7601
#
#
#
# Elastic Compliance Matrix: (Units=1/GPa)
#
#
# Indices 1 2 3 4 5 6 
#
# 1 0.010008 -0.003524 -0.004556 0.000000 0.000000 0.000000
# 2 -0.003524 0.012100 0.002530 0.000000 0.000000 0.000000
# 3 -0.004556 0.002530 0.019900 0.000000 0.000000 0.000000
# 4 0.000000 0.000000 0.000000 0.023742 0.000000 0.000000
# 5 0.000000 0.000000 0.000000 0.000000 0.027651 0.000000
# 6 0.000000 0.000000 0.000000 0.000000 0.000000 0.024534
#
#
# Mechanical properties :
#
#
# Convention : Reuss Voigt Hill
#
# Bulk Modulus (GPa) = 32.35594 41.05273 36.70433
# Shear Modulus (GPa) = 35.88385 38.53090 37.20737
#
# Velocity S-wave (km/s) = 3.75329 3.88926 3.82188
# Velocity P-wave (km/s) = 5.61116 6.02369 5.82109
#
# Compressibility (1/GPa) = 0.03090623
#
# Stress axis : x y z
#
# Youngs Moduli (GPa) = 99.91654 82.64740 50.25081
#
# Poissons Ratio (x) = 0.29129 0.22895
# Poissons Ratio (y) = 0.35215 -0.12712
# Poissons Ratio (z) = 0.45524 -0.20908
#
# Static dielectric constant tensor:
#      x y z
#    x 2.105940 0.000000 0.000000 
#    y 0.000000 2.025680 0.000000 
#    z 0.000000 0.000000 2.099370 
# 
# From -- ./inp_files/7190.got.cif
#   From: 2010.05.17/outbox.cif.g08.bks.cpg/sg19_4_cif.got.tgz:7190.got - 2010.06.03 22:46:19.
