data_PCOD9315812
_publ_section_title
;
Structure prediction by ZEFSAII (Michael W. Deem and Ramdas Pophale) SiO2 
 PCOD9315812
Probable space group: P 21 21 21
;
_chemical_formula_sum "Si O2"
_cell_formula_units_Z 24
_cell_length_a 9.230153
_cell_length_b 6.516796
_cell_length_c 18.304011
_cell_angle_alpha 90.000000
_cell_angle_beta 90.000000
_cell_angle_gamma 90.000000
_cell_volume 1101.005008
_symmetry_space_group_name_H-M "P 21 21 21"
_symmetry_group_IT_number 19
_symmetry_cell_setting 'orthorhombic'
loop_
_space_group_symop_operation_xyz
x,y,z
1/2-x,-y,1/2+z
1/2+x,1/2-y,-z
-x,1/2+y,1/2-z
loop_
_atom_site_type_symbol
_atom_site_label
_atom_site_fract_x
_atom_site_fract_y
_atom_site_fract_z
Si Si1 0.419821 0.163136 0.549654
Si Si2 0.665497 0.995663 0.832799
Si Si3 0.708056 0.284775 0.214762
Si Si4 0.113084 0.853499 0.690974
Si Si5 0.074809 0.730226 0.399510
Si Si6 0.887157 0.518790 0.969337
O O1 0.346130 0.332453 0.601987
O O2 0.522456 0.283757 0.494363
O O3 0.515743 0.000073 0.594592
O O4 0.283190 0.048961 0.515053
O O5 0.800147 0.150731 0.832485
O O6 0.525875 0.137681 0.844821
O O7 0.684990 0.861134 0.760692
O O8 0.544243 0.203389 0.221211
O O9 0.701980 0.511028 0.250318
O O10 0.765183 0.261690 0.132579
O O11 0.095446 0.980649 0.616355
O O12 0.062157 0.830863 0.479695
#
# Coordination Sequence:
#
# PCOD9315812 Si02
#       6
#     4   4   4   4   4   4
#     4  11  26  47  69 106 139 194 234 296 357 428
#     4  11  24  46  68  98 145 185 237 296 354 421
#     4  12  27  44  72 108 141 190 248 295 361 431
#     4  12  26  47  72 106 145 190 237 304 360 423
#     4  11  28  44  73 105 142 195 239 298 360 435
#     4  11  27  44  74 103 150 186 243 295 360 430
#
# _framework density 21.798265000000001
#
# number of rings (size 3 to 8) (size 9 to 14) (size 15 to 20)
#    0.000    0.667    5.000    0.000   11.667    2.667 
#    0.000    0.000    0.000    0.000    0.000    0.000 
#    0.000    0.000    0.000    0.000    0.000    0.000 
#
# Total GULP energy -134167.821209 kJ/mol
# GULP energy per Si atom -5590.325884 kJ/mol
# Density = 2.174865 g / cm^3
# Si number density = 21.798265 Si / 1000 Ang^3
#
#
#
# Elastic Constant Matrix: (Units=GPa)
#
#
# Indices 1 2 3 4 5 6 
#
# 1 50.1619 26.4968 9.0902 0.0000 0.0000 0.0000
# 2 26.4968 113.2679 24.4906 0.0000 0.0000 0.0000
# 3 9.0902 24.4906 46.7025 0.0000 0.0000 0.0000
# 4 0.0000 0.0000 0.0000 29.8316 0.0000 0.0000
# 5 0.0000 0.0000 0.0000 0.0000 38.6138 0.0000
# 6 0.0000 0.0000 0.0000 0.0000 0.0000 28.5844
#
#
#
# Elastic Compliance Matrix: (Units=1/GPa)
#
#
# Indices 1 2 3 4 5 6 
#
# 1 0.022888 -0.004953 -0.001858 0.000000 0.000000 0.000000
# 2 -0.004953 0.011029 -0.004820 0.000000 0.000000 0.000000
# 3 -0.001858 -0.004820 0.024301 0.000000 0.000000 0.000000
# 4 0.000000 0.000000 0.000000 0.033521 0.000000 0.000000
# 5 0.000000 0.000000 0.000000 0.000000 0.025897 0.000000
# 6 0.000000 0.000000 0.000000 0.000000 0.000000 0.034984
#
#
# Mechanical properties :
#
#
# Convention : Reuss Voigt Hill
#
# Bulk Modulus (GPa) = 28.60546 36.69862 32.65204
# Shear Modulus (GPa) = 26.66170 29.40960 28.03565
#
# Velocity S-wave (km/s) = 3.50109 3.67709 3.59017
# Velocity P-wave (km/s) = 5.43092 5.90763 5.67428
#
# Compressibility (1/GPa) = 0.03495837
#
# Stress axis : x y z
#
# Youngs Moduli (GPa) = 43.69064 90.66758 41.15023
#
# Poissons Ratio (x) = 0.44904 0.07645
# Poissons Ratio (y) = 0.21638 0.19833
# Poissons Ratio (z) = 0.08117 0.43700
#
# Static dielectric constant tensor:
#      x y z
#    x 1.799930 0.000000 0.000000 
#    y 0.000000 1.810070 0.000000 
#    z 0.000000 0.000000 1.794960 
# 
# From -- ./inp_files/413.got.cif
#   From: 2010.05.17/outbox.cif.g08.bks.cpg/sg19_1_cif.got.tgz:413.got - 2010.06.03 22:46:19.
