data_PCOD9315082
_publ_section_title
;
Structure prediction by ZEFSAII (Michael W. Deem and Ramdas Pophale) SiO2 
 PCOD9315082
Probable space group: P 21 21 21
;
_chemical_formula_sum "Si O2"
_cell_formula_units_Z 24
_cell_length_a 8.451345
_cell_length_b 11.800025
_cell_length_c 11.344577
_cell_angle_alpha 90.000000
_cell_angle_beta 90.000000
_cell_angle_gamma 90.000000
_cell_volume 1131.350219
_symmetry_space_group_name_H-M "P 21 21 21"
_symmetry_group_IT_number 19
_symmetry_cell_setting 'orthorhombic'
loop_
_space_group_symop_operation_xyz
x,y,z
1/2-x,-y,1/2+z
1/2+x,1/2-y,-z
-x,1/2+y,1/2-z
loop_
_atom_site_type_symbol
_atom_site_label
_atom_site_fract_x
_atom_site_fract_y
_atom_site_fract_z
Si Si1 0.567642 0.526796 0.318507
Si Si2 0.854193 0.686788 0.379311
Si Si3 0.731428 0.327944 0.458417
Si Si4 0.336956 0.561081 0.530036
Si Si5 0.512793 0.495574 0.047859
Si Si6 0.462443 0.345640 0.647405
O O1 0.705031 0.621178 0.323303
O O2 0.639227 0.409864 0.368863
O O3 0.433988 0.566116 0.409202
O O4 0.508702 0.503546 0.188148
O O5 0.819305 0.815577 0.412849
O O6 0.903233 0.616408 0.495444
O O7 0.992254 0.677824 0.281840
O O8 0.610348 0.306326 0.565500
O O9 0.806206 0.220425 0.394313
O O10 0.880560 0.400722 0.504064
O O11 0.166255 0.508190 0.504192
O O12 0.433034 0.477547 0.617642
#
# Coordination Sequence:
#
# PCOD9315082 Si02
#       6
#     4   4   4   4   4   4
#     4  10  24  47  69  99 145 181 237 300 350 427
#     4  11  25  44  72 102 140 186 239 297 354 427
#     4  10  23  42  71  99 140 185 237 284 361 412
#     4  11  26  44  66 105 137 186 243 286 364 419
#     4  11  24  45  71 101 139 184 236 296 362 420
#     4  11  24  44  69 102 141 188 236 299 349 431
#
# _framework density 21.21359
#
# number of rings (size 3 to 8) (size 9 to 14) (size 15 to 20)
#    0.000    1.333    1.667    2.000    7.000    4.000 
#    9.000    0.000    0.000    0.000    0.000    0.000 
#    0.000    0.000    0.000    0.000    0.000    0.000 
#
# Total GULP energy -134278.092734 kJ/mol
# GULP energy per Si atom -5594.920531 kJ/mol
# Density = 2.116531 g / cm^3
# Si number density = 21.213590 Si / 1000 Ang^3
#
#
#
# Elastic Constant Matrix: (Units=GPa)
#
#
# Indices 1 2 3 4 5 6 
#
# 1 69.3429 8.1901 -4.3694 0.0000 0.0000 0.0000
# 2 8.1901 86.5199 22.0080 0.0000 0.0000 0.0000
# 3 -4.3694 22.0080 53.7709 0.0000 0.0000 0.0000
# 4 0.0000 0.0000 0.0000 10.6166 0.0000 0.0000
# 5 0.0000 0.0000 0.0000 0.0000 27.4846 0.0000
# 6 0.0000 0.0000 0.0000 0.0000 0.0000 22.3035
#
#
#
# Elastic Compliance Matrix: (Units=1/GPa)
#
#
# Indices 1 2 3 4 5 6 
#
# 1 0.014770 -0.001901 0.001978 0.000000 0.000000 0.000000
# 2 -0.001901 0.013146 -0.005535 0.000000 0.000000 0.000000
# 3 0.001978 -0.005535 0.021024 0.000000 0.000000 0.000000
# 4 0.000000 0.000000 0.000000 0.094192 0.000000 0.000000
# 5 0.000000 0.000000 0.000000 0.000000 0.036384 0.000000
# 6 0.000000 0.000000 0.000000 0.000000 0.000000 0.044836
#
#
# Mechanical properties :
#
#
# Convention : Reuss Voigt Hill
#
# Bulk Modulus (GPa) = 26.29925 29.03235 27.66580
# Shear Modulus (GPa) = 20.16591 24.33459 22.25025
#
# Velocity S-wave (km/s) = 3.08655 3.39059 3.24214
# Velocity P-wave (km/s) = 5.01265 5.38921 5.20434
#
# Compressibility (1/GPa) = 0.03802390
#
# Stress axis : x y z
#
# Youngs Moduli (GPa) = 67.70329 76.06897 47.56551
#
# Poissons Ratio (x) = 0.14464 -0.09411
# Poissons Ratio (y) = 0.12873 0.26328
# Poissons Ratio (z) = -0.13395 0.42104
#
# Static dielectric constant tensor:
#      x y z
#    x 1.757380 0.000000 0.000000 
#    y 0.000000 1.758360 0.000000 
#    z 0.000000 0.000000 1.723680 
# 
# From -- ./inp_files/3320.got.cif
#   From: 2010.05.17/outbox.cif.g08.bks.cpg/sg19_2_cif.got.tgz:3320.got - 2010.06.03 22:46:19.
