data_PCOD9315020
_publ_section_title
;
Structure prediction by ZEFSAII (Michael W. Deem and Ramdas Pophale) SiO2 
 PCOD9315020
Probable space group: P 21 21 21
;
_chemical_formula_sum "Si O2"
_cell_formula_units_Z 32
_cell_length_a 13.218483
_cell_length_b 7.194494
_cell_length_c 12.348534
_cell_angle_alpha 90.000000
_cell_angle_beta 90.000000
_cell_angle_gamma 90.000000
_cell_volume 1174.349246
_symmetry_space_group_name_H-M "P 21 21 21"
_symmetry_group_IT_number 19
_symmetry_cell_setting 'orthorhombic'
loop_
_space_group_symop_operation_xyz
x,y,z
1/2-x,-y,1/2+z
1/2+x,1/2-y,-z
-x,1/2+y,1/2-z
loop_
_atom_site_type_symbol
_atom_site_label
_atom_site_fract_x
_atom_site_fract_y
_atom_site_fract_z
Si Si1 0.056043 0.179929 0.599937
Si Si2 0.119078 0.134759 0.843452
Si Si3 0.605471 0.587488 0.827408
Si Si4 0.520825 0.435744 0.616817
Si Si5 0.796561 0.120612 0.172291
Si Si6 0.301539 0.560111 0.612673
Si Si7 0.404758 0.397165 0.044692
Si Si8 0.165120 0.799775 0.963264
O O1 0.088080 0.116318 0.717681
O O2 0.086285 0.060445 0.492956
O O3 0.094262 0.389905 0.586368
O O4 0.935270 0.203153 0.587334
O O5 0.188371 0.312904 0.869429
O O6 0.013004 0.164354 0.908564
O O7 0.075974 0.426717 0.105546
O O8 0.566481 0.456890 0.735070
O O9 0.520268 0.725681 0.875191
O O10 0.676878 0.720884 0.758643
O O11 0.655854 0.542482 0.940397
O O12 0.385643 0.388740 0.915413
O O13 0.789497 0.952231 0.255453
O O14 0.796873 0.181728 0.914928
O O15 0.287837 0.376160 0.529295
O O16 0.685624 0.550272 0.130371
#
# Coordination Sequence:
#
# PCOD9315020 Si02
#       8
#     4   4   4   4   4   4   4   4
#     4   9  20  40  62  92 135 181 214 276 347 405
#     4  11  22  42  66  92 140 176 222 285 341 420
#     4   9  20  40  64  95 129 176 230 285 338 392
#     4   9  20  37  67  93 133 177 226 284 335 404
#     4  10  23  41  63  96 133 172 229 290 332 408
#     4   9  20  40  64  91 132 174 223 280 333 402
#     4  11  23  41  67  94 132 182 226 279 354 401
#     4   8  20  39  61  87 130 178 220 279 338 394
#
# _framework density 27.249134999999999
#
# number of rings (size 3 to 8) (size 9 to 14) (size 15 to 20)
#    0.000    3.000    1.250    0.000   10.500    4.000 
#    4.500    0.000    0.000    0.000    0.000    0.000 
#    0.000    0.000    0.000    0.000    0.000    0.000 
#
# Total GULP energy -178151.695841 kJ/mol
# GULP energy per Si atom -5567.240495 kJ/mol
# Density = 2.718711 g / cm^3
# Si number density = 27.249135 Si / 1000 Ang^3
#
#
#
# Elastic Constant Matrix: (Units=GPa)
#
#
# Indices 1 2 3 4 5 6 
#
# 1 91.6450 36.4413 50.4059 0.0000 0.0000 0.0000
# 2 36.4413 46.1320 37.5432 0.0000 0.0000 0.0000
# 3 50.4059 37.5432 169.1544 0.0000 0.0000 0.0000
# 4 0.0000 0.0000 0.0000 32.5967 0.0000 0.0000
# 5 0.0000 0.0000 0.0000 0.0000 21.4394 0.0000
# 6 0.0000 0.0000 0.0000 0.0000 0.0000 26.5498
#
#
#
# Elastic Compliance Matrix: (Units=1/GPa)
#
#
# Indices 1 2 3 4 5 6 
#
# 1 0.016736 -0.011181 -0.002505 0.000000 0.000000 0.000000
# 2 -0.011181 0.033926 -0.004198 0.000000 0.000000 0.000000
# 3 -0.002505 -0.004198 0.007590 0.000000 0.000000 0.000000
# 4 0.000000 0.000000 0.000000 0.030678 0.000000 0.000000
# 5 0.000000 0.000000 0.000000 0.000000 0.046643 0.000000
# 6 0.000000 0.000000 0.000000 0.000000 0.000000 0.037665
#
#
# Mechanical properties :
#
#
# Convention : Reuss Voigt Hill
#
# Bulk Modulus (GPa) = 44.47897 61.74582 53.11240
# Shear Modulus (GPa) = 23.09466 28.28659 25.69063
#
# Velocity S-wave (km/s) = 2.91441 3.22541 3.07384
# Velocity P-wave (km/s) = 5.26152 6.04814 5.66849
#
# Compressibility (1/GPa) = 0.02248253
#
# Stress axis : x y z
#
# Youngs Moduli (GPa) = 59.75244 29.47628 131.75182
#
# Poissons Ratio (x) = 0.32958 0.33009
# Poissons Ratio (y) = 0.66810 0.55307
# Poissons Ratio (z) = 0.14970 0.12374
#
# Static dielectric constant tensor:
#      x y z
#    x 2.283900 0.000000 0.000000 
#    y 0.000000 2.345120 0.000000 
#    z 0.000000 0.000000 2.290230 
# 
# From -- ./inp_files/5426.got.cif
#   From: 2010.05.17/outbox.cif.g08.bks.cpg/sg19_3_cif.got.tgz:5426.got - 2010.06.03 22:46:19.
