data_PCOD9315637
_publ_section_title
;
Structure prediction by ZEFSAII (Michael W. Deem and Ramdas Pophale) SiO2 
 PCOD9315637
Probable space group: P 21 21 21
;
_chemical_formula_sum "Si O2"
_cell_formula_units_Z 24
_cell_length_a 6.656939
_cell_length_b 9.053617
_cell_length_c 14.013784
_cell_angle_alpha 90.000000
_cell_angle_beta 90.000000
_cell_angle_gamma 90.000000
_cell_volume 844.602018
_symmetry_space_group_name_H-M "P 21 21 21"
_symmetry_group_IT_number 19
_symmetry_cell_setting 'orthorhombic'
loop_
_space_group_symop_operation_xyz
x,y,z
1/2-x,-y,1/2+z
1/2+x,1/2-y,-z
-x,1/2+y,1/2-z
loop_
_atom_site_type_symbol
_atom_site_label
_atom_site_fract_x
_atom_site_fract_y
_atom_site_fract_z
Si Si1 0.451851 0.631723 0.943290
Si Si2 0.200148 0.087001 0.003069
Si Si3 0.038694 0.107515 0.587715
Si Si4 0.704498 0.069478 0.979988
Si Si5 0.263533 0.883178 0.278086
Si Si6 0.433184 0.388872 0.699318
O O1 0.456521 0.729037 0.041189
O O2 0.447503 0.447047 0.986475
O O3 0.209567 0.580752 0.932382
O O4 0.455440 0.763044 0.862831
O O5 0.803229 0.211561 0.229910
O O6 0.201221 0.254942 0.039917
O O7 0.201078 0.083240 0.887567
O O8 0.058959 0.096774 0.702444
O O9 0.300196 0.078468 0.565861
O O10 0.041564 0.947243 0.519844
O O11 0.684743 0.986861 0.877456
O O12 0.086814 0.999896 0.250605
#
# Coordination Sequence:
#
# PCOD9315637 Si02
#       6
#     4   4   4   4   4   4
#     4  11  22  47  72  97 143 194 233 296 369 417
#     4  12  25  43  73 107 140 189 245 294 355 440
#     4  11  23  46  69 101 145 187 238 298 358 424
#     4  11  24  45  72 100 143 191 234 296 364 420
#     4  12  26  45  71 110 141 187 251 295 360 438
#     4  11  26  44  73 101 142 194 237 301 360 427
#
# _framework density 28.415748000000001
#
# number of rings (size 3 to 8) (size 9 to 14) (size 15 to 20)
#    0.000    0.667    6.667    2.000    4.667    1.333 
#    0.000    0.000    0.000    0.000    0.000    0.000 
#    0.000    0.000    0.000    0.000    0.000    0.000 
#
# Total GULP energy -134380.887168 kJ/mol
# GULP energy per Si atom -5599.203632 kJ/mol
# Density = 2.835107 g / cm^3
# Si number density = 28.415748 Si / 1000 Ang^3
#
#
#
# Elastic Constant Matrix: (Units=GPa)
#
#
# Indices 1 2 3 4 5 6 
#
# 1 233.8199 97.8015 17.0213 0.0000 0.0000 0.0000
# 2 97.8015 229.5075 62.8145 0.0000 0.0000 0.0000
# 3 17.0213 62.8145 103.8872 0.0000 0.0000 0.0000
# 4 0.0000 0.0000 0.0000 61.9716 0.0000 0.0000
# 5 0.0000 0.0000 0.0000 0.0000 37.3793 0.0000
# 6 0.0000 0.0000 0.0000 0.0000 0.0000 95.0236
#
#
#
# Elastic Compliance Matrix: (Units=1/GPa)
#
#
# Indices 1 2 3 4 5 6 
#
# 1 0.005234 -0.002392 0.000588 0.000000 0.000000 0.000000
# 2 -0.002392 0.006314 -0.003426 0.000000 0.000000 0.000000
# 3 0.000588 -0.003426 0.011601 0.000000 0.000000 0.000000
# 4 0.000000 0.000000 0.000000 0.016136 0.000000 0.000000
# 5 0.000000 0.000000 0.000000 0.000000 0.026753 0.000000
# 6 0.000000 0.000000 0.000000 0.000000 0.000000 0.010524
#
#
# Mechanical properties :
#
#
# Convention : Reuss Voigt Hill
#
# Bulk Modulus (GPa) = 78.79528 102.49882 90.64705
# Shear Modulus (GPa) = 54.79442 64.84673 59.82057
#
# Velocity S-wave (km/s) = 4.39602 4.78228 4.59321
# Velocity P-wave (km/s) = 7.31822 8.16352 7.75240
#
# Compressibility (1/GPa) = 0.01269112
#
# Stress axis : x y z
#
# Youngs Moduli (GPa) = 191.04748 158.38043 86.20097
#
# Poissons Ratio (x) = 0.37878 -0.05072
# Poissons Ratio (y) = 0.45690 0.29531
# Poissons Ratio (z) = -0.11242 0.54258
#
# Static dielectric constant tensor:
#      x y z
#    x 2.343550 0.000000 0.000000 
#    y 0.000000 2.075160 0.000000 
#    z 0.000000 0.000000 2.092680 
# 
# From -- ./inp_files/5832.got.cif
#   From: 2010.05.17/outbox.cif.g08.bks.cpg/sg19_3_cif.got.tgz:5832.got - 2010.06.03 22:46:19.
