data_PCOD9315974
_publ_section_title
;
Structure prediction by ZEFSAII (Michael W. Deem and Ramdas Pophale) SiO2 
 PCOD9315974
Probable space group: P 21 21 21
;
_chemical_formula_sum "Si O2"
_cell_formula_units_Z 20
_cell_length_a 8.662721
_cell_length_b 10.092207
_cell_length_c 8.824989
_cell_angle_alpha 90.000000
_cell_angle_beta 90.000000
_cell_angle_gamma 90.000000
_cell_volume 771.533255
_symmetry_space_group_name_H-M "P 21 21 21"
_symmetry_group_IT_number 19
_symmetry_cell_setting 'orthorhombic'
loop_
_space_group_symop_operation_xyz
x,y,z
1/2-x,-y,1/2+z
1/2+x,1/2-y,-z
-x,1/2+y,1/2-z
loop_
_atom_site_type_symbol
_atom_site_label
_atom_site_fract_x
_atom_site_fract_y
_atom_site_fract_z
Si Si1 0.461786 0.817118 0.007589
Si Si2 0.255473 0.077097 0.050373
Si Si3 0.033986 0.442458 0.341209
Si Si4 0.290323 0.504620 0.532146
Si Si5 0.948145 0.766297 0.653143
O O1 0.429742 0.749267 0.168212
O O2 0.356793 0.949377 0.998096
O O3 0.465539 0.714558 0.869461
O O4 0.638722 0.864899 0.017353
O O5 0.373753 0.191208 0.112063
O O6 0.148595 0.146615 0.923694
O O7 0.132115 0.011698 0.166274
O O8 0.112365 0.500792 0.493569
O O9 0.141617 0.469326 0.197267
O O10 0.360311 0.609161 0.416327
#
# Coordination Sequence:
#
# PCOD9315974 Si02
#       5
#     4   4   4   4   4
#     4  11  28  50  80 115 161 215 276 342 409 488
#     4  11  28  49  85 117 164 215 276 345 414 493
#     4  12  27  48  78 115 167 213 278 340 413 493
#     4  11  28  47  76 117 161 215 276 339 414 492
#     4  11  27  48  81 116 159 216 274 340 408 492
#
# _framework density 25.922405000000001
#
# number of rings (size 3 to 8) (size 9 to 14) (size 15 to 20)
#    0.000    0.800    0.000    3.600   19.600    0.000 
#    0.000    0.000    0.000    0.000    0.000    0.000 
#    0.000    0.000    0.000    0.000    0.000    0.000 
#
# Total GULP energy -111855.798666 kJ/mol
# GULP energy per Si atom -5592.789933 kJ/mol
# Density = 2.586340 g / cm^3
# Si number density = 25.922405 Si / 1000 Ang^3
#
#
#
# Elastic Constant Matrix: (Units=GPa)
#
#
# Indices 1 2 3 4 5 6 
#
# 1 148.1202 51.2116 35.2589 0.0000 0.0000 0.0000
# 2 51.2116 92.6658 55.3082 0.0000 0.0000 0.0000
# 3 35.2589 55.3082 120.7974 0.0000 0.0000 0.0000
# 4 0.0000 0.0000 0.0000 45.1565 0.0000 0.0000
# 5 0.0000 0.0000 0.0000 0.0000 25.3652 0.0000
# 6 0.0000 0.0000 0.0000 0.0000 0.0000 -27.3376
#
#
#
# Elastic Compliance Matrix: (Units=1/GPa)
#
#
# Indices 1 2 3 4 5 6 
#
# 1 0.008363 -0.004355 -0.000447 0.000000 0.000000 0.000000
# 2 -0.004355 0.017117 -0.006566 0.000000 0.000000 0.000000
# 3 -0.000447 -0.006566 0.011415 0.000000 0.000000 0.000000
# 4 0.000000 0.000000 0.000000 0.022145 0.000000 0.000000
# 5 0.000000 0.000000 0.000000 0.000000 0.039424 0.000000
# 6 0.000000 0.000000 0.000000 0.000000 0.000000 -0.036580
#
#
# Mechanical properties :
#
#
# Convention : Reuss Voigt Hill
#
# Bulk Modulus (GPa) = 70.62556 71.68233 71.15394
# Shear Modulus (GPa) = 55.96440 23.29045 39.62743
#
# Velocity S-wave (km/s) = 4.65146 3.00070 3.91409
# Velocity P-wave (km/s) = 7.49348 6.30224 6.92353
#
# Compressibility (1/GPa) = 0.01415918
#
# Stress axis : x y z
#
# Youngs Moduli (GPa) = 119.56721 58.41994 87.60251
#
# Poissons Ratio (x) = 0.25443 0.03917
# Poissons Ratio (y) = 0.52074 0.57521
# Poissons Ratio (z) = 0.05346 0.38359
#
# Static dielectric constant tensor:
#      x y z
#    x 2.071360 0.000000 0.000000 
#    y 0.000000 2.054720 0.000000 
#    z 0.000000 0.000000 1.987810 
# 
# From -- ./inp_files/2624.got.cif
#   From: 2010.05.17/outbox.cif.g08.bks.cpg/sg19_2_cif.got.tgz:2624.got - 2010.06.03 22:46:19.
