data_PCOD9315481
_publ_section_title
;
Structure prediction by ZEFSAII (Michael W. Deem and Ramdas Pophale) SiO2 
 PCOD9315481
Probable space group: P 21 21 21
;
_chemical_formula_sum "Si O2"
_cell_formula_units_Z 32
_cell_length_a 17.453191
_cell_length_b 5.085629
_cell_length_c 13.201722
_cell_angle_alpha 90.000000
_cell_angle_beta 90.000000
_cell_angle_gamma 90.000000
_cell_volume 1171.790842
_symmetry_space_group_name_H-M "P 21 21 21"
_symmetry_group_IT_number 19
_symmetry_cell_setting 'orthorhombic'
loop_
_space_group_symop_operation_xyz
x,y,z
1/2-x,-y,1/2+z
1/2+x,1/2-y,-z
-x,1/2+y,1/2-z
loop_
_atom_site_type_symbol
_atom_site_label
_atom_site_fract_x
_atom_site_fract_y
_atom_site_fract_z
Si Si1 0.705728 0.076563 0.069812
Si Si2 0.127123 0.722928 0.441329
Si Si3 0.028077 0.683323 0.097270
Si Si4 0.329923 0.927492 0.624007
Si Si5 0.637773 0.568283 0.178960
Si Si6 0.167326 0.094628 0.613329
Si Si7 0.102800 0.407786 0.266736
Si Si8 0.524702 0.089653 0.411396
O O1 0.796562 0.041566 0.051737
O O2 0.686580 0.308218 0.150352
O O3 0.667552 0.809711 0.109990
O O4 0.677434 0.214771 0.966325
O O5 0.151610 0.980828 0.501328
O O6 0.113799 0.688190 0.321460
O O7 0.054530 0.616529 0.504502
O O8 0.057895 0.441281 0.161824
O O9 0.950841 0.758824 0.155466
O O10 0.093973 0.901841 0.109317
O O11 0.008758 0.670156 0.979692
O O12 0.258261 0.128126 0.619180
O O13 0.326908 0.766387 0.729663
O O14 0.648685 0.617222 0.298304
O O15 0.547527 0.511702 0.156034
O O16 0.104031 0.314289 0.636820
#
# Coordination Sequence:
#
# PCOD9315481 Si02
#       8
#     4   4   4   4   4   4   4   4
#     4  11  27  50  78 111 153 203 259 326 390 461
#     4  10  27  46  73 110 153 199 257 321 395 460
#     4  11  23  41  72 109 148 191 246 313 389 460
#     4  11  24  46  70 113 150 201 253 323 389 468
#     4  12  28  49  81 110 153 210 264 322 387 467
#     4  11  29  45  76 105 155 201 264 319 384 468
#     4  11  23  40  73 106 150 194 250 314 390 464
#     4  11  27  45  73 106 152 201 257 314 392 456
#
# _framework density 27.308629
#
# number of rings (size 3 to 8) (size 9 to 14) (size 15 to 20)
#    0.000    1.000    2.500    1.500   12.250    1.000 
#    0.000    0.000    0.000    0.000    0.000    0.000 
#    0.000    0.000    0.000    0.000    0.000    0.000 
#
# Total GULP energy -179089.030576 kJ/mol
# GULP energy per Si atom -5596.532205 kJ/mol
# Density = 2.724647 g / cm^3
# Si number density = 27.308629 Si / 1000 Ang^3
#
#
#
# Elastic Constant Matrix: (Units=GPa)
#
#
# Indices 1 2 3 4 5 6 
#
# 1 133.8860 46.9168 47.0917 0.0000 0.0000 0.0000
# 2 46.9168 102.9312 13.8390 0.0000 0.0000 0.0000
# 3 47.0917 13.8390 91.8933 0.0000 0.0000 0.0000
# 4 0.0000 0.0000 0.0000 28.1742 0.0000 0.0000
# 5 0.0000 0.0000 0.0000 0.0000 39.8603 0.0000
# 6 0.0000 0.0000 0.0000 0.0000 0.0000 40.1852
#
#
#
# Elastic Compliance Matrix: (Units=1/GPa)
#
#
# Indices 1 2 3 4 5 6 
#
# 1 0.010635 -0.004200 -0.004818 0.000000 0.000000 0.000000
# 2 -0.004200 0.011575 0.000409 0.000000 0.000000 0.000000
# 3 -0.004818 0.000409 0.013289 0.000000 0.000000 0.000000
# 4 0.000000 0.000000 0.000000 0.035493 0.000000 0.000000
# 5 0.000000 0.000000 0.000000 0.000000 0.025088 0.000000
# 6 0.000000 0.000000 0.000000 0.000000 0.000000 0.024885
#
#
# Mechanical properties :
#
#
# Convention : Reuss Voigt Hill
#
# Bulk Modulus (GPa) = 54.69718 60.48951 57.59335
# Shear Modulus (GPa) = 34.65576 36.36814 35.51195
#
# Velocity S-wave (km/s) = 3.56622 3.65327 3.61001
# Velocity P-wave (km/s) = 6.08523 6.32405 6.20579
#
# Compressibility (1/GPa) = 0.01828248
#
# Stress axis : x y z
#
# Youngs Moduli (GPa) = 94.02642 86.39630 75.24778
#
# Poissons Ratio (x) = 0.36286 0.36252
# Poissons Ratio (y) = 0.39490 -0.03079
# Poissons Ratio (z) = 0.45299 -0.03535
#
# Static dielectric constant tensor:
#      x y z
#    x 2.172430 0.000000 0.000000 
#    y 0.000000 2.190530 0.000000 
#    z 0.000000 0.000000 2.142430 
# 
# From -- ./inp_files/6292.got.cif
#   From: 2010.05.17/outbox.cif.g08.bks.cpg/sg19_4_cif.got.tgz:6292.got - 2010.06.03 22:46:19.
