data_PCOD9315508
_publ_section_title
;
Structure prediction by ZEFSAII (Michael W. Deem and Ramdas Pophale) SiO2 
 PCOD9315508
Probable space group: P 21 21 21
;
_chemical_formula_sum "Si O2"
_cell_formula_units_Z 32
_cell_length_a 12.113015
_cell_length_b 5.562110
_cell_length_c 19.780162
_cell_angle_alpha 90.000000
_cell_angle_beta 90.000000
_cell_angle_gamma 90.000000
_cell_volume 1332.667089
_symmetry_space_group_name_H-M "P 21 21 21"
_symmetry_group_IT_number 19
_symmetry_cell_setting 'orthorhombic'
loop_
_space_group_symop_operation_xyz
x,y,z
1/2-x,-y,1/2+z
1/2+x,1/2-y,-z
-x,1/2+y,1/2-z
loop_
_atom_site_type_symbol
_atom_site_label
_atom_site_fract_x
_atom_site_fract_y
_atom_site_fract_z
Si Si1 0.377483 0.750822 0.961886
Si Si2 0.118171 0.153956 0.167491
Si Si3 0.173794 0.003511 0.941302
Si Si4 0.938003 0.848043 0.185673
Si Si5 0.438631 0.315124 0.330159
Si Si6 0.651389 0.545258 0.294154
Si Si7 0.498941 0.737759 0.531686
Si Si8 0.251354 0.286834 0.822695
O O1 0.383243 0.766272 0.879937
O O2 0.423156 0.480144 0.975468
O O3 0.250142 0.809677 0.979886
O O4 0.448943 0.979928 0.987821
O O5 0.250051 0.167772 0.164316
O O6 0.065097 0.886959 0.165645
O O7 0.083402 0.229039 0.242971
O O8 0.052381 0.281802 0.107335
O O9 0.254914 0.158704 0.894556
O O10 0.093643 0.875221 0.887261
O O11 0.104779 0.182453 0.986775
O O12 0.867695 0.093474 0.191956
O O13 0.563257 0.402756 0.338210
O O14 0.345808 0.519446 0.332135
O O15 0.422982 0.214193 0.253900
O O16 0.714517 0.380620 0.239098
#
# Coordination Sequence:
#
# PCOD9315508 Si02
#       8
#     4   4   4   4   4   4   4   4
#     4  11  24  46  71  97 138 183 230 294 333 419
#     4  11  22  38  64 103 136 174 218 295 347 405
#     4  11  25  45  69  98 131 194 234 276 343 428
#     4  11  20  40  70 103 134 177 233 275 360 415
#     4  11  22  39  67  93 135 178 229 277 341 425
#     4  11  22  39  61 104 137 170 223 297 354 397
#     4  11  28  45  68 104 140 180 235 285 348 405
#     4  11  21  40  72  98 133 180 230 281 338 424
#
# _framework density 24.012001000000001
#
# number of rings (size 3 to 8) (size 9 to 14) (size 15 to 20)
#    0.000    1.000    3.750    3.750    1.750    2.000 
#    0.000    1.250    0.000    0.000    0.000    0.000 
#    0.000    0.000    0.000    0.000    0.000    0.000 
#
# Total GULP energy -178821.964204 kJ/mol
# GULP energy per Si atom -5588.186381 kJ/mol
# Density = 2.395735 g / cm^3
# Si number density = 24.012001 Si / 1000 Ang^3
#
#
#
# Elastic Constant Matrix: (Units=GPa)
#
#
# Indices 1 2 3 4 5 6 
#
# 1 101.9533 6.9117 -10.4836 0.0000 0.0000 0.0000
# 2 6.9117 68.0749 0.6158 0.0000 0.0000 0.0000
# 3 -10.4836 0.6158 8.5792 0.0000 0.0000 0.0000
# 4 0.0000 0.0000 0.0000 21.7489 0.0000 0.0000
# 5 0.0000 0.0000 0.0000 0.0000 25.7699 0.0000
# 6 0.0000 0.0000 0.0000 0.0000 0.0000 29.9056
#
#
#
# Elastic Compliance Matrix: (Units=1/GPa)
#
#
# Indices 1 2 3 4 5 6 
#
# 1 0.011328 -0.001276 0.013934 0.000000 0.000000 0.000000
# 2 -0.001276 0.014843 -0.002625 0.000000 0.000000 0.000000
# 3 0.013934 -0.002625 0.133776 0.000000 0.000000 0.000000
# 4 0.000000 0.000000 0.000000 0.045979 0.000000 0.000000
# 5 0.000000 0.000000 0.000000 0.000000 0.038805 0.000000
# 6 0.000000 0.000000 0.000000 0.000000 0.000000 0.033439
#
#
# Mechanical properties :
#
#
# Convention : Reuss Voigt Hill
#
# Bulk Modulus (GPa) = 5.55518 19.18834 12.37176
# Shear Modulus (GPa) = 15.71794 27.58911 21.65352
#
# Velocity S-wave (km/s) = 2.56126 3.39333 3.00622
# Velocity P-wave (km/s) = 3.32645 4.83336 4.14890
#
# Compressibility (1/GPa) = 0.18001224
#
# Stress axis : x y z
#
# Youngs Moduli (GPa) = 88.27918 67.37173 7.47519
#
# Poissons Ratio (x) = 0.08598 -0.10416
# Poissons Ratio (y) = 0.11266 0.01962
# Poissons Ratio (z) = -1.23006 0.17684
#
# Static dielectric constant tensor:
#      x y z
#    x 1.918200 0.000000 0.000000 
#    y 0.000000 2.012870 0.000000 
#    z 0.000000 0.000000 1.947800 
# 
# From -- ./inp_files/1193.got.cif
#   From: 2010.05.17/outbox.cif.g08.bks.cpg/sg19_1_cif.got.tgz:1193.got - 2010.06.03 22:46:19.
