data_PCOD9315880
_publ_section_title
;
Structure prediction by ZEFSAII (Michael W. Deem and Ramdas Pophale) SiO2 
 PCOD9315880
Probable space group: P 21 21 21
;
_chemical_formula_sum "Si O2"
_cell_formula_units_Z 24
_cell_length_a 4.917997
_cell_length_b 21.101610
_cell_length_c 8.762356
_cell_angle_alpha 90.000000
_cell_angle_beta 90.000000
_cell_angle_gamma 90.000000
_cell_volume 909.336755
_symmetry_space_group_name_H-M "P 21 21 21"
_symmetry_group_IT_number 19
_symmetry_cell_setting 'orthorhombic'
loop_
_space_group_symop_operation_xyz
x,y,z
1/2-x,-y,1/2+z
1/2+x,1/2-y,-z
-x,1/2+y,1/2-z
loop_
_atom_site_type_symbol
_atom_site_label
_atom_site_fract_x
_atom_site_fract_y
_atom_site_fract_z
Si Si1 0.087067 0.644762 0.500127
Si Si2 0.110370 0.269042 0.589356
Si Si3 0.908876 0.014607 0.865375
Si Si4 0.874095 0.111698 0.338726
Si Si5 0.433389 0.177921 0.813383
Si Si6 0.267188 0.073822 0.596199
O O1 0.205889 0.576492 0.551874
O O2 0.036246 0.641025 0.320948
O O3 0.299721 0.691878 0.585082
O O4 0.793839 0.652412 0.572165
O O5 0.310332 0.256159 0.444417
O O6 0.116929 0.343553 0.624019
O O7 0.273193 0.232886 0.722726
O O8 0.693359 0.961929 0.815488
O O9 0.083147 0.037938 0.721398
O O10 0.085288 0.977007 0.990442
O O11 0.070733 0.113685 0.484027
O O12 0.464222 0.121598 0.688248
#
# Coordination Sequence:
#
# PCOD9315880 Si02
#       6
#     4   4   4   4   4   4
#     4  11  28  45  73 107 149 191 244 306 379 439
#     4  12  26  48  77 108 143 193 251 304 366 445
#     4  11  26  42  72 105 151 190 246 305 377 447
#     4  12  27  44  74 107 142 199 249 304 375 446
#     4  11  26  49  71 106 149 193 243 308 366 437
#     4  11  25  44  71 105 148 192 245 305 375 442
#
# _framework density 26.392859999999999
#
# number of rings (size 3 to 8) (size 9 to 14) (size 15 to 20)
#    0.000    0.667    1.667    4.000   21.000    1.333 
#    0.000    0.000    0.000    0.000    0.000    0.000 
#    0.000    0.000    0.000    0.000    0.000    0.000 
#
# Total GULP energy -134521.236590 kJ/mol
# GULP energy per Si atom -5605.051525 kJ/mol
# Density = 2.633279 g / cm^3
# Si number density = 26.392860 Si / 1000 Ang^3
#
#
#
# Elastic Constant Matrix: (Units=GPa)
#
#
# Indices 1 2 3 4 5 6 
#
# 1 87.6898 -10.9560 30.1864 0.0000 0.0000 0.0000
# 2 -10.9560 86.3785 15.0143 0.0000 0.0000 0.0000
# 3 30.1864 15.0143 155.9978 0.0000 0.0000 0.0000
# 4 0.0000 0.0000 0.0000 31.3940 0.0000 0.0000
# 5 0.0000 0.0000 0.0000 0.0000 46.1461 0.0000
# 6 0.0000 0.0000 0.0000 0.0000 0.0000 31.3092
#
#
#
# Elastic Compliance Matrix: (Units=1/GPa)
#
#
# Indices 1 2 3 4 5 6 
#
# 1 0.012565 0.002051 -0.002629 0.000000 0.000000 0.000000
# 2 0.002051 0.012109 -0.001562 0.000000 0.000000 0.000000
# 3 -0.002629 -0.001562 0.007069 0.000000 0.000000 0.000000
# 4 0.000000 0.000000 0.000000 0.031853 0.000000 0.000000
# 5 0.000000 0.000000 0.000000 0.000000 0.021670 0.000000
# 6 0.000000 0.000000 0.000000 0.000000 0.000000 0.031939
#
#
# Mechanical properties :
#
#
# Convention : Reuss Voigt Hill
#
# Bulk Modulus (GPa) = 36.41360 44.28393 40.34877
# Shear Modulus (GPa) = 38.27290 41.49129 39.88210
#
# Velocity S-wave (km/s) = 3.81218 3.96923 3.89150
# Velocity P-wave (km/s) = 5.76226 6.14992 5.95925
#
# Compressibility (1/GPa) = 0.02746227
#
# Stress axis : x y z
#
# Youngs Moduli (GPa) = 79.58636 82.58595 141.45506
#
# Poissons Ratio (x) = -0.16935 0.37185
# Poissons Ratio (y) = -0.16320 0.22098
# Poissons Ratio (z) = 0.20921 0.12902
#
# Static dielectric constant tensor:
#      x y z
#    x 2.018220 0.000000 0.000000 
#    y 0.000000 2.128360 0.000000 
#    z 0.000000 0.000000 2.082010 
# 
# From -- ./inp_files/2411.got.cif
#   From: 2010.05.17/outbox.cif.g08.bks.cpg/sg19_2_cif.got.tgz:2411.got - 2010.06.03 22:46:19.
