data_PCOD9315897
_publ_section_title
;
Structure prediction by ZEFSAII (Michael W. Deem and Ramdas Pophale) SiO2 
 PCOD9315897
Probable space group: P 21 21 21
;
_chemical_formula_sum "Si O2"
_cell_formula_units_Z 32
_cell_length_a 14.078251
_cell_length_b 4.979680
_cell_length_c 17.353941
_cell_angle_alpha 90.000000
_cell_angle_beta 90.000000
_cell_angle_gamma 90.000000
_cell_volume 1216.601243
_symmetry_space_group_name_H-M "P 21 21 21"
_symmetry_group_IT_number 19
_symmetry_cell_setting 'orthorhombic'
loop_
_space_group_symop_operation_xyz
x,y,z
1/2-x,-y,1/2+z
1/2+x,1/2-y,-z
-x,1/2+y,1/2-z
loop_
_atom_site_type_symbol
_atom_site_label
_atom_site_fract_x
_atom_site_fract_y
_atom_site_fract_z
Si Si1 0.176523 0.838561 0.944655
Si Si2 0.554204 0.821664 0.234439
Si Si3 0.813310 0.766810 0.932628
Si Si4 0.996524 0.036211 0.574252
Si Si5 0.759322 0.886511 0.291452
Si Si6 0.264468 0.310114 0.865973
Si Si7 0.456558 0.926432 0.705271
Si Si8 0.053520 0.615979 0.452976
O O1 0.067051 0.777785 0.959791
O O2 0.225891 0.567428 0.913068
O O3 0.194777 0.065222 0.882286
O O4 0.233683 0.899137 0.022270
O O5 0.500709 0.046950 0.285253
O O6 0.657949 0.764492 0.266276
O O7 0.555628 0.993994 0.155674
O O8 0.762410 0.955615 0.870650
O O9 0.894648 0.574392 0.899875
O O10 0.882318 0.924675 0.992709
O O11 0.997038 0.815032 0.508675
O O12 0.778019 0.096153 0.221437
O O13 0.847601 0.681616 0.295212
O O14 0.363571 0.224003 0.905649
O O15 0.517239 0.682143 0.742699
O O16 0.490861 0.991121 0.618094
#
# Coordination Sequence:
#
# PCOD9315897 Si02
#       8
#     4   4   4   4   4   4   4   4
#     4  11  26  46  72 111 147 207 250 322 403 469
#     4  12  28  47  74 114 158 203 266 335 406 483
#     4  11  26  50  74 115 156 206 267 332 400 496
#     4  12  25  43  78 104 155 202 260 321 409 468
#     4  12  26  51  82 119 163 212 279 335 418 490
#     4  11  25  46  75 104 154 200 257 324 395 472
#     4  12  30  52  84 118 158 216 270 335 408 497
#     4  11  26  51  75 109 159 202 267 330 401 477
#
# _framework density 26.302783000000002
#
# number of rings (size 3 to 8) (size 9 to 14) (size 15 to 20)
#    0.000    0.500    5.000    1.500    7.000    1.000 
#    4.500    0.000    0.000    0.000    0.000    0.000 
#    0.000    0.000    0.000    0.000    0.000    0.000 
#
# Total GULP energy -179118.643619 kJ/mol
# GULP energy per Si atom -5597.457613 kJ/mol
# Density = 2.624292 g / cm^3
# Si number density = 26.302783 Si / 1000 Ang^3
#
#
#
# Elastic Constant Matrix: (Units=GPa)
#
#
# Indices 1 2 3 4 5 6 
#
# 1 131.7211 27.7625 47.1322 0.0000 0.0000 0.0000
# 2 27.7625 91.9650 14.6766 0.0000 0.0000 0.0000
# 3 47.1322 14.6766 130.7461 0.0000 0.0000 0.0000
# 4 0.0000 0.0000 0.0000 34.5908 0.0000 0.0000
# 5 0.0000 0.0000 0.0000 0.0000 18.2820 0.0000
# 6 0.0000 0.0000 0.0000 0.0000 0.0000 31.3528
#
#
#
# Elastic Compliance Matrix: (Units=1/GPa)
#
#
# Indices 1 2 3 4 5 6 
#
# 1 0.009163 -0.002280 -0.003047 0.000000 0.000000 0.000000
# 2 -0.002280 0.011639 -0.000485 0.000000 0.000000 0.000000
# 3 -0.003047 -0.000485 0.008801 0.000000 0.000000 0.000000
# 4 0.000000 0.000000 0.000000 0.028909 0.000000 0.000000
# 5 0.000000 0.000000 0.000000 0.000000 0.054699 0.000000
# 6 0.000000 0.000000 0.000000 0.000000 0.000000 0.031895
#
#
# Mechanical properties :
#
#
# Convention : Reuss Voigt Hill
#
# Bulk Modulus (GPa) = 55.61724 59.28607 57.45166
# Shear Modulus (GPa) = 30.72711 34.50250 32.61480
#
# Velocity S-wave (km/s) = 3.42161 3.62573 3.52515
# Velocity P-wave (km/s) = 6.06637 6.33377 6.20151
#
# Compressibility (1/GPa) = 0.01798004
#
# Stress axis : x y z
#
# Youngs Moduli (GPa) = 109.13940 85.91600 113.62015
#
# Poissons Ratio (x) = 0.19587 0.34621
# Poissons Ratio (y) = 0.24881 0.05507
# Poissons Ratio (z) = 0.33256 0.04165
#
# Static dielectric constant tensor:
#      x y z
#    x 2.264960 0.000000 0.000000 
#    y 0.000000 2.242020 0.000000 
#    z 0.000000 0.000000 2.247450 
# 
# From -- ./inp_files/6820.got.cif
#   From: 2010.05.17/outbox.cif.g08.bks.cpg/sg19_4_cif.got.tgz:6820.got - 2010.06.03 22:46:19.
