data_PCOD9315284
_publ_section_title
;
Structure prediction by ZEFSAII (Michael W. Deem and Ramdas Pophale) SiO2 
 PCOD9315284
Probable space group: P 21 21 21
;
_chemical_formula_sum "Si O2"
_cell_formula_units_Z 28
_cell_length_a 14.273622
_cell_length_b 13.301863
_cell_length_c 7.452927
_cell_angle_alpha 90.000000
_cell_angle_beta 90.000000
_cell_angle_gamma 90.000000
_cell_volume 1415.055682
_symmetry_space_group_name_H-M "P 21 21 21"
_symmetry_group_IT_number 19
_symmetry_cell_setting 'orthorhombic'
loop_
_space_group_symop_operation_xyz
x,y,z
1/2-x,-y,1/2+z
1/2+x,1/2-y,-z
-x,1/2+y,1/2-z
loop_
_atom_site_type_symbol
_atom_site_label
_atom_site_fract_x
_atom_site_fract_y
_atom_site_fract_z
Si Si1 0.880910 0.279301 0.209435
Si Si2 0.069501 0.249630 0.005241
Si Si3 0.247305 0.875260 0.595366
Si Si4 0.346514 0.075058 0.460502
Si Si5 0.873991 0.972014 0.527236
Si Si6 0.165293 0.554513 0.349364
Si Si7 0.015992 0.563873 0.669037
O O1 0.871546 0.344239 0.388257
O O2 0.832395 0.170006 0.218596
O O3 0.988427 0.260798 0.153810
O O4 0.829502 0.338793 0.048193
O O5 0.163005 0.197438 0.079836
O O6 0.093681 0.358937 0.932823
O O7 0.028426 0.173652 0.857094
O O8 0.205690 0.874779 0.793559
O O9 0.281686 0.987633 0.546675
O O10 0.436960 0.017114 0.382425
O O11 0.767698 0.982956 0.595309
O O12 0.875575 0.990718 0.314975
O O13 0.941754 0.045276 0.636107
O O14 0.098506 0.552920 0.522435
#
# Coordination Sequence:
#
# PCOD9315284 Si02
#       7
#     4   4   4   4   4   4   4
#     4  11  23  44  63  99 135 167 227 271 334 398
#     4  10  24  43  67  96 136 172 217 283 326 394
#     4  11  22  43  69  97 131 174 221 275 338 394
#     4  11  23  42  70  97 129 174 221 280 329 394
#     4  12  22  43  67  92 132 175 215 268 334 386
#     4  11  24  39  66  94 129 174 216 269 325 403
#     4  10  24  44  64  97 130 168 229 268 332 395
#
# _framework density 19.787206999999999
#
# number of rings (size 3 to 8) (size 9 to 14) (size 15 to 20)
#    0.000    1.143    4.286    1.714    0.000    4.571 
#    5.143    0.000    0.000    0.000    0.000    0.000 
#    0.000    0.000    0.000    0.000    0.000    0.000 
#
# Total GULP energy -156585.648351 kJ/mol
# GULP energy per Si atom -5592.344584 kJ/mol
# Density = 1.974217 g / cm^3
# Si number density = 19.787207 Si / 1000 Ang^3
#
#
#
# Elastic Constant Matrix: (Units=GPa)
#
#
# Indices 1 2 3 4 5 6 
#
# 1 35.5703 2.0880 11.9799 0.0000 0.0000 0.0000
# 2 2.0880 42.6830 -11.1975 0.0000 0.0000 0.0000
# 3 11.9799 -11.1975 49.9205 0.0000 0.0000 0.0000
# 4 0.0000 0.0000 0.0000 19.0436 0.0000 0.0000
# 5 0.0000 0.0000 0.0000 0.0000 24.7782 0.0000
# 6 0.0000 0.0000 0.0000 0.0000 0.0000 18.2915
#
#
#
# Elastic Compliance Matrix: (Units=1/GPa)
#
#
# Indices 1 2 3 4 5 6 
#
# 1 0.031126 -0.003700 -0.008299 0.000000 0.000000 0.000000
# 2 -0.003700 0.025333 0.006570 0.000000 0.000000 0.000000
# 3 -0.008299 0.006570 0.023497 0.000000 0.000000 0.000000
# 4 0.000000 0.000000 0.000000 0.052511 0.000000 0.000000
# 5 0.000000 0.000000 0.000000 0.000000 0.040358 0.000000
# 6 0.000000 0.000000 0.000000 0.000000 0.000000 0.054670
#
#
# Mechanical properties :
#
#
# Convention : Reuss Voigt Hill
#
# Bulk Modulus (GPa) = 14.47216 14.87938 14.67577
# Shear Modulus (GPa) = 19.12876 20.77621 19.95248
#
# Velocity S-wave (km/s) = 3.11259 3.24386 3.17890
# Velocity P-wave (km/s) = 4.49971 4.64394 4.57239
#
# Compressibility (1/GPa) = 0.06909820
#
# Stress axis : x y z
#
# Youngs Moduli (GPa) = 32.12773 39.47389 42.55802
#
# Poissons Ratio (x) = 0.14605 0.35321
# Poissons Ratio (y) = 0.11887 -0.27962
# Poissons Ratio (z) = 0.26664 -0.25936
#
# Static dielectric constant tensor:
#      x y z
#    x 1.694570 0.000000 0.000000 
#    y 0.000000 1.690090 0.000000 
#    z 0.000000 0.000000 1.652650 
# 
# From -- ./inp_files/1501.got.cif
#   From: 2010.05.17/outbox.cif.g08.bks.cpg/sg19_1_cif.got.tgz:1501.got - 2010.06.03 22:46:19.
