data_PCOD9315518
_publ_section_title
;
Structure prediction by ZEFSAII (Michael W. Deem and Ramdas Pophale) SiO2 
 PCOD9315518
Probable space group: P 21 21 21
;
_chemical_formula_sum "Si O2"
_cell_formula_units_Z 20
_cell_length_a 21.650449
_cell_length_b 6.681347
_cell_length_c 4.812898
_cell_angle_alpha 90.000000
_cell_angle_beta 90.000000
_cell_angle_gamma 90.000000
_cell_volume 696.205729
_symmetry_space_group_name_H-M "P 21 21 21"
_symmetry_group_IT_number 19
_symmetry_cell_setting 'orthorhombic'
loop_
_space_group_symop_operation_xyz
x,y,z
1/2-x,-y,1/2+z
1/2+x,1/2-y,-z
-x,1/2+y,1/2-z
loop_
_atom_site_type_symbol
_atom_site_label
_atom_site_fract_x
_atom_site_fract_y
_atom_site_fract_z
Si Si1 0.430420 0.151329 0.646951
Si Si2 0.625627 0.159590 0.426150
Si Si3 0.177006 0.110700 0.072885
Si Si4 0.998750 0.201648 0.816970
Si Si5 0.223550 0.616328 0.710464
O O1 0.357542 0.098590 0.627642
O O2 0.464091 0.963539 0.495554
O O3 0.453470 0.330136 0.449007
O O4 0.457568 0.182104 0.953272
O O5 0.556082 0.186738 0.334496
O O6 0.655142 0.941483 0.383343
O O7 0.637356 0.234620 0.735504
O O8 0.664848 0.313382 0.236774
O O9 0.247005 0.165659 0.161610
O O10 0.263962 0.465100 0.516903
#
# Coordination Sequence:
#
# PCOD9315518 Si02
#       5
#     4   4   4   4   4
#     4  11  21  34  51  74 104 136 167 204 246 295
#     4   9  16  28  45  69  98 126 158 203 249 290
#     4   9  16  28  45  69  98 126 158 203 249 290
#     4  11  21  34  51  74 104 136 167 204 246 295
#     4   8  14  24  42  66  94 122 152 198 254 288
#
# _framework density 28.727139000000001
#
# number of rings (size 3 to 8) (size 9 to 14) (size 15 to 20)
#    0.000    2.400    0.000    6.000    0.000    0.000 
#    0.000    0.000    0.000    0.000    0.000    5.600 
#    0.000    6.400    0.000    0.000    0.000    0.000 
#
# Total GULP energy -111943.509886 kJ/mol
# GULP energy per Si atom -5597.175494 kJ/mol
# Density = 2.866175 g / cm^3
# Si number density = 28.727139 Si / 1000 Ang^3
#
#
#
# Elastic Constant Matrix: (Units=GPa)
#
#
# Indices 1 2 3 4 5 6 
#
# 1 114.0930 45.5648 19.7648 0.0000 0.0000 0.0000
# 2 45.5648 71.1921 15.5314 0.0000 0.0000 0.0000
# 3 19.7648 15.5314 134.0440 0.0000 0.0000 0.0000
# 4 0.0000 0.0000 0.0000 30.1853 0.0000 0.0000
# 5 0.0000 0.0000 0.0000 0.0000 41.5930 0.0000
# 6 0.0000 0.0000 0.0000 0.0000 0.0000 60.7936
#
#
#
# Elastic Compliance Matrix: (Units=1/GPa)
#
#
# Indices 1 2 3 4 5 6 
#
# 1 0.011878 -0.007407 -0.000893 0.000000 0.000000 0.000000
# 2 -0.007407 0.019030 -0.001113 0.000000 0.000000 0.000000
# 3 -0.000893 -0.001113 0.007721 0.000000 0.000000 0.000000
# 4 0.000000 0.000000 0.000000 0.033129 0.000000 0.000000
# 5 0.000000 0.000000 0.000000 0.000000 0.024043 0.000000
# 6 0.000000 0.000000 0.000000 0.000000 0.000000 0.016449
#
#
# Mechanical properties :
#
#
# Convention : Reuss Voigt Hill
#
# Bulk Modulus (GPa) = 50.49881 53.45012 51.97447
# Shear Modulus (GPa) = 36.31718 42.41225 39.36472
#
# Velocity S-wave (km/s) = 3.55943 3.84654 3.70577
# Velocity P-wave (km/s) = 5.87450 6.19470 6.03672
#
# Compressibility (1/GPa) = 0.01980245
#
# Stress axis : x y z
#
# Youngs Moduli (GPa) = 84.19155 52.54844 129.51925
#
# Poissons Ratio (x) = 0.38924 0.11567
# Poissons Ratio (y) = 0.62362 0.14413
# Poissons Ratio (z) = 0.07519 0.05847
#
# Static dielectric constant tensor:
#      x y z
#    x 2.197740 0.000000 0.000000 
#    y 0.000000 2.456140 0.000000 
#    z 0.000000 0.000000 2.095560 
# 
# From -- ./inp_files/442.got.cif
#   From: 2010.05.17/outbox.cif.g08.bks.cpg/sg19_1_cif.got.tgz:442.got - 2010.06.03 22:46:19.
