data_PCOD9315094
_publ_section_title
;
Structure prediction by ZEFSAII (Michael W. Deem and Ramdas Pophale) SiO2 
 PCOD9315094
Probable space group: P 21 21 21
;
_chemical_formula_sum "Si O2"
_cell_formula_units_Z 28
_cell_length_a 12.508449
_cell_length_b 8.519236
_cell_length_c 12.472512
_cell_angle_alpha 90.000000
_cell_angle_beta 90.000000
_cell_angle_gamma 90.000000
_cell_volume 1329.101175
_symmetry_space_group_name_H-M "P 21 21 21"
_symmetry_group_IT_number 19
_symmetry_cell_setting 'orthorhombic'
loop_
_space_group_symop_operation_xyz
x,y,z
1/2-x,-y,1/2+z
1/2+x,1/2-y,-z
-x,1/2+y,1/2-z
loop_
_atom_site_type_symbol
_atom_site_label
_atom_site_fract_x
_atom_site_fract_y
_atom_site_fract_z
Si Si1 0.502422 0.500639 0.749901
Si Si2 0.567451 0.097574 0.406562
Si Si3 0.339834 0.721032 0.310222
Si Si4 0.388735 0.253952 0.863111
Si Si5 0.065870 0.781071 0.596275
Si Si6 0.383291 0.745326 0.864883
Si Si7 0.660372 0.597161 0.187856
O O1 0.484402 0.380674 0.848430
O O2 0.597160 0.625912 0.731989
O O3 0.403397 0.618082 0.769220
O O4 0.525303 0.378740 0.654342
O O5 0.639126 0.167065 0.310849
O O6 0.600897 0.163954 0.521209
O O7 0.445213 0.145225 0.378815
O O8 0.573711 0.908564 0.400866
O O9 0.225776 0.664834 0.353059
O O10 0.443871 0.670490 0.377612
O O11 0.334550 0.909401 0.317584
O O12 0.399958 0.172555 0.977324
O O13 0.138067 0.852297 0.689752
O O14 0.268145 0.823416 0.853089
#
# Coordination Sequence:
#
# PCOD9315094 Si02
#       7
#     4   4   4   4   4   4   4
#     4  10  24  38  62  92 130 158 216 266 306 378
#     4  10  23  43  66  96 131 167 215 263 319 389
#     4  10  23  43  66  93 130 172 215 260 319 388
#     4  11  22  44  63  97 130 170 213 270 322 369
#     4  10  23  43  66  96 131 167 215 263 319 389
#     4  11  22  44  63  97 130 170 213 270 322 369
#     4  10  23  43  66  93 130 172 215 260 319 388
#
# _framework density 21.066867999999999
#
# number of rings (size 3 to 8) (size 9 to 14) (size 15 to 20)
#    0.000    1.714    2.857    0.000    4.000    4.571 
#    0.000    0.000    0.000    0.000    0.000    0.000 
#    0.000    0.000    0.000    0.000    0.000    0.000 
#
# Total GULP energy -156016.641211 kJ/mol
# GULP energy per Si atom -5572.022900 kJ/mol
# Density = 2.101892 g / cm^3
# Si number density = 21.066868 Si / 1000 Ang^3
#
#
#
# Elastic Constant Matrix: (Units=GPa)
#
#
# Indices 1 2 3 4 5 6 
#
# 1 79.9306 8.7271 62.9332 0.0000 0.0000 0.0000
# 2 8.7271 36.4278 5.4709 0.0000 0.0000 0.0000
# 3 62.9332 5.4709 83.4186 0.0000 0.0000 0.0000
# 4 0.0000 0.0000 0.0000 32.7735 0.0000 0.0000
# 5 0.0000 0.0000 0.0000 0.0000 14.9389 0.0000
# 6 0.0000 0.0000 0.0000 0.0000 0.0000 31.9851
#
#
#
# Elastic Compliance Matrix: (Units=1/GPa)
#
#
# Indices 1 2 3 4 5 6 
#
# 1 0.031382 -0.004002 -0.023413 0.000000 0.000000 0.000000
# 2 -0.004002 0.028235 0.001167 0.000000 0.000000 0.000000
# 3 -0.023413 0.001167 0.029574 0.000000 0.000000 0.000000
# 4 0.000000 0.000000 0.000000 0.030512 0.000000 0.000000
# 5 0.000000 0.000000 0.000000 0.000000 0.066939 0.000000
# 6 0.000000 0.000000 0.000000 0.000000 0.000000 0.031265
#
#
# Mechanical properties :
#
#
# Convention : Reuss Voigt Hill
#
# Bulk Modulus (GPa) = 27.25053 39.33771 33.29412
# Shear Modulus (GPa) = 17.69067 24.11587 20.90327
#
# Velocity S-wave (km/s) = 2.90097 3.38706 3.15339
# Velocity P-wave (km/s) = 4.91774 5.83177 5.39415
#
# Compressibility (1/GPa) = 0.03669653
#
# Stress axis : x y z
#
# Youngs Moduli (GPa) = 31.86552 35.41703 33.81297
#
# Poissons Ratio (x) = 0.14174 0.79166
# Poissons Ratio (y) = 0.12752 -0.03947
# Poissons Ratio (z) = 0.74606 -0.04135
#
# Static dielectric constant tensor:
#      x y z
#    x 1.764330 0.000000 0.000000 
#    y 0.000000 1.810800 0.000000 
#    z 0.000000 0.000000 1.729290 
# 
# From -- ./inp_files/4626.got.cif
#   From: 2010.05.17/outbox.cif.g08.bks.cpg/sg19_3_cif.got.tgz:4626.got - 2010.06.03 22:46:19.
