data_PCOD9315244
_publ_section_title
;
Structure prediction by ZEFSAII (Michael W. Deem and Ramdas Pophale) SiO2 
 PCOD9315244
Probable space group: P 21 21 21
;
_chemical_formula_sum "Si O2"
_cell_formula_units_Z 20
_cell_length_a 14.394216
_cell_length_b 10.362477
_cell_length_c 5.002167
_cell_angle_alpha 90.000000
_cell_angle_beta 90.000000
_cell_angle_gamma 90.000000
_cell_volume 746.121890
_symmetry_space_group_name_H-M "P 21 21 21"
_symmetry_group_IT_number 19
_symmetry_cell_setting 'orthorhombic'
loop_
_space_group_symop_operation_xyz
x,y,z
1/2-x,-y,1/2+z
1/2+x,1/2-y,-z
-x,1/2+y,1/2-z
loop_
_atom_site_type_symbol
_atom_site_label
_atom_site_fract_x
_atom_site_fract_y
_atom_site_fract_z
Si Si1 0.126532 0.499071 0.724096
Si Si2 0.772013 0.191526 0.474719
Si Si3 0.271661 0.915095 0.327786
Si Si4 0.013789 0.423666 0.227770
Si Si5 0.908400 0.669664 0.066906
O O1 0.223676 0.425662 0.682406
O O2 0.077184 0.498391 0.442714
O O3 0.147689 0.638298 0.842884
O O4 0.064111 0.423769 0.939862
O O5 0.795688 0.298892 0.258472
O O6 0.687295 0.254781 0.646697
O O7 0.375080 0.861427 0.242814
O O8 0.253139 0.025121 0.107460
O O9 0.015510 0.278275 0.352695
O O10 0.932275 0.529298 0.183541
#
# Coordination Sequence:
#
# PCOD9315244 Si02
#       5
#     4   4   4   4   4
#     4  11  23  41  70 100 129 180 233 279 348 402
#     4   9  22  42  68  97 135 174 228 289 331 412
#     4  10  24  40  66  96 130 178 223 284 340 399
#     4  11  25  43  68 101 141 185 227 289 349 416
#     4   9  24  44  66  98 139 181 225 285 342 411
#
# _framework density 26.805273
#
# number of rings (size 3 to 8) (size 9 to 14) (size 15 to 20)
#    1.200    0.800    0.000    2.400    2.800    9.600 
#    0.000    0.000    0.000    0.000    0.000    0.000 
#    0.000    0.000    0.000    0.000    0.000    0.000 
#
# Total GULP energy -111602.113910 kJ/mol
# GULP energy per Si atom -5580.105696 kJ/mol
# Density = 2.674426 g / cm^3
# Si number density = 26.805273 Si / 1000 Ang^3
#
#
#
# Elastic Constant Matrix: (Units=GPa)
#
#
# Indices 1 2 3 4 5 6 
#
# 1 62.8822 44.6778 17.9013 0.0000 0.0000 0.0000
# 2 44.6778 131.0980 23.6810 0.0000 0.0000 0.0000
# 3 17.9013 23.6810 53.5849 0.0000 0.0000 0.0000
# 4 0.0000 0.0000 0.0000 58.2591 0.0000 0.0000
# 5 0.0000 0.0000 0.0000 0.0000 36.4418 0.0000
# 6 0.0000 0.0000 0.0000 0.0000 0.0000 47.4920
#
#
#
# Elastic Compliance Matrix: (Units=1/GPa)
#
#
# Indices 1 2 3 4 5 6 
#
# 1 0.021884 -0.006670 -0.004363 0.000000 0.000000 0.000000
# 2 -0.006670 0.010322 -0.002334 0.000000 0.000000 0.000000
# 3 -0.004363 -0.002334 0.021151 0.000000 0.000000 0.000000
# 4 0.000000 0.000000 0.000000 0.017165 0.000000 0.000000
# 5 0.000000 0.000000 0.000000 0.000000 0.027441 0.000000
# 6 0.000000 0.000000 0.000000 0.000000 0.000000 0.021056
#
#
# Mechanical properties :
#
#
# Convention : Reuss Voigt Hill
#
# Bulk Modulus (GPa) = 37.56024 46.67616 42.11820
# Shear Modulus (GPa) = 32.33592 39.19225 35.76409
#
# Velocity S-wave (km/s) = 3.47699 3.82790 3.65666
# Velocity P-wave (km/s) = 5.49199 6.08177 5.79439
#
# Compressibility (1/GPa) = 0.02662390
#
# Stress axis : x y z
#
# Youngs Moduli (GPa) = 45.69606 96.87619 47.27929
#
# Poissons Ratio (x) = 0.64614 0.20629
# Poissons Ratio (y) = 0.30478 0.11033
# Poissons Ratio (z) = 0.19938 0.22608
#
# Static dielectric constant tensor:
#      x y z
#    x 2.300280 0.000000 0.000000 
#    y 0.000000 2.133010 0.000000 
#    z 0.000000 0.000000 2.144390 
# 
# From -- ./inp_files/1394.got.cif
#   From: 2010.05.17/outbox.cif.g08.bks.cpg/sg19_1_cif.got.tgz:1394.got - 2010.06.03 22:46:19.
