data_PCOD9315763
_publ_section_title
;
Structure prediction by ZEFSAII (Michael W. Deem and Ramdas Pophale) SiO2 
 PCOD9315763
Probable space group: P 21 21 21
;
_chemical_formula_sum "Si O2"
_cell_formula_units_Z 32
_cell_length_a 17.085761
_cell_length_b 14.429016
_cell_length_c 5.020115
_cell_angle_alpha 90.000000
_cell_angle_beta 90.000000
_cell_angle_gamma 90.000000
_cell_volume 1237.612560
_symmetry_space_group_name_H-M "P 21 21 21"
_symmetry_group_IT_number 19
_symmetry_cell_setting 'orthorhombic'
loop_
_space_group_symop_operation_xyz
x,y,z
1/2-x,-y,1/2+z
1/2+x,1/2-y,-z
-x,1/2+y,1/2-z
loop_
_atom_site_type_symbol
_atom_site_label
_atom_site_fract_x
_atom_site_fract_y
_atom_site_fract_z
Si Si1 0.136188 0.378638 0.320104
Si Si2 0.181907 0.791536 0.657881
Si Si3 0.933072 0.582468 0.681843
Si Si4 0.297673 0.027197 0.515163
Si Si5 0.074856 0.677396 0.379421
Si Si6 0.449574 0.477014 0.537244
Si Si7 0.661560 0.245677 0.168030
Si Si8 0.689594 0.907538 0.267356
O O1 0.066731 0.452341 0.276652
O O2 0.151321 0.330413 0.602061
O O3 0.219725 0.427948 0.253778
O O4 0.121912 0.299566 0.095546
O O5 0.104356 0.777527 0.473396
O O6 0.255352 0.775952 0.459365
O O7 0.182939 0.698468 0.843056
O O8 0.189012 0.876715 0.857433
O O9 0.879048 0.528275 0.473774
O O10 0.876576 0.662186 0.791227
O O11 0.005429 0.639274 0.562781
O O12 0.971028 0.507917 0.879057
O O13 0.260279 0.026081 0.807262
O O14 0.045618 0.632862 0.108821
O O15 0.153319 0.615735 0.443019
O O16 0.371153 0.478597 0.358071
#
# Coordination Sequence:
#
# PCOD9315763 Si02
#       8
#     4   4   4   4   4   4   4   4
#     4  11  26  41  75 105 141 184 253 295 365 453
#     4   9  21  47  71 106 141 194 254 299 380 445
#     4  11  27  46  70 102 153 188 245 315 387 424
#     4  12  28  47  80 108 143 195 261 317 360 457
#     4   9  22  43  66 102 145 189 232 306 383 449
#     4  11  24  42  71 104 148 193 239 306 389 438
#     4  11  25  45  71 103 141 195 246 305 362 456
#     4   8  21  39  68 100 138 186 230 299 356 454
#
# _framework density 25.856234000000001
#
# number of rings (size 3 to 8) (size 9 to 14) (size 15 to 20)
#    0.750    1.000    1.250    0.750   12.250    2.000 
#    0.000    0.000    0.000    0.000    0.000    0.000 
#    0.000    0.000    0.000    0.000    0.000    0.000 
#
# Total GULP energy -178407.825808 kJ/mol
# GULP energy per Si atom -5575.244556 kJ/mol
# Density = 2.579738 g / cm^3
# Si number density = 25.856234 Si / 1000 Ang^3
#
#
#
# Elastic Constant Matrix: (Units=GPa)
#
#
# Indices 1 2 3 4 5 6 
#
# 1 61.6919 4.9547 -3.9328 0.0000 0.0000 0.0000
# 2 4.9547 81.9803 -0.5595 0.0000 0.0000 0.0000
# 3 -3.9328 -0.5595 87.6273 0.0000 0.0000 0.0000
# 4 0.0000 0.0000 0.0000 36.3989 0.0000 0.0000
# 5 0.0000 0.0000 0.0000 0.0000 16.3541 0.0000
# 6 0.0000 0.0000 0.0000 0.0000 0.0000 31.8827
#
#
#
# Elastic Compliance Matrix: (Units=1/GPa)
#
#
# Indices 1 2 3 4 5 6 
#
# 1 0.016335 -0.000982 0.000727 0.000000 0.000000 0.000000
# 2 -0.000982 0.012258 0.000034 0.000000 0.000000 0.000000
# 3 0.000727 0.000034 0.011445 0.000000 0.000000 0.000000
# 4 0.000000 0.000000 0.000000 0.027473 0.000000 0.000000
# 5 0.000000 0.000000 0.000000 0.000000 0.061147 0.000000
# 6 0.000000 0.000000 0.000000 0.000000 0.000000 0.031365
#
#
# Mechanical properties :
#
#
# Convention : Reuss Voigt Hill
#
# Bulk Modulus (GPa) = 25.25587 25.80271 25.52929
# Shear Modulus (GPa) = 28.79139 32.31629 30.55384
#
# Velocity S-wave (km/s) = 3.34056 3.53915 3.44129
# Velocity P-wave (km/s) = 4.96670 5.16737 5.06803
#
# Compressibility (1/GPa) = 0.03959476
#
# Stress axis : x y z
#
# Youngs Moduli (GPa) = 61.21899 81.58174 87.37589
#
# Poissons Ratio (x) = 0.08014 -0.06351
# Poissons Ratio (y) = 0.06013 -0.00299
# Poissons Ratio (z) = -0.04450 -0.00279
#
# Static dielectric constant tensor:
#      x y z
#    x 2.075860 0.000000 0.000000 
#    y 0.000000 2.117880 0.000000 
#    z 0.000000 0.000000 2.109650 
# 
# From -- ./inp_files/1817.got.cif
#   From: 2010.05.17/outbox.cif.g08.bks.cpg/sg19_1_cif.got.tgz:1817.got - 2010.06.03 22:46:19.
