data_PCOD9315144
_publ_section_title
;
Structure prediction by ZEFSAII (Michael W. Deem and Ramdas Pophale) SiO2 
 PCOD9315144
Probable space group: P 21 21 21
;
_chemical_formula_sum "Si O2"
_cell_formula_units_Z 24
_cell_length_a 4.985576
_cell_length_b 23.886251
_cell_length_c 7.808807
_cell_angle_alpha 90.000000
_cell_angle_beta 90.000000
_cell_angle_gamma 90.000000
_cell_volume 929.925211
_symmetry_space_group_name_H-M "P 21 21 21"
_symmetry_group_IT_number 19
_symmetry_cell_setting 'orthorhombic'
loop_
_space_group_symop_operation_xyz
x,y,z
1/2-x,-y,1/2+z
1/2+x,1/2-y,-z
-x,1/2+y,1/2-z
loop_
_atom_site_type_symbol
_atom_site_label
_atom_site_fract_x
_atom_site_fract_y
_atom_site_fract_z
Si Si1 0.383967 0.665647 0.481382
Si Si2 0.329326 0.377545 0.627435
Si Si3 0.885703 0.448986 0.063356
Si Si4 0.952899 0.229668 0.773181
Si Si5 0.328593 0.183292 0.510834
Si Si6 0.638688 0.000296 0.279846
O O1 0.202933 0.646108 0.320118
O O2 0.592391 0.616085 0.515925
O O3 0.205966 0.678930 0.644744
O O4 0.382743 0.656454 0.013563
O O5 0.619740 0.364017 0.553458
O O6 0.242383 0.441469 0.640015
O O7 0.988895 0.276464 0.918415
O O8 0.591799 0.469805 0.110947
O O9 0.096639 0.461742 0.216380
O O10 0.003952 0.482294 0.899379
O O11 0.227144 0.206502 0.691154
O O12 0.811143 0.264618 0.621233
#
# Coordination Sequence:
#
# PCOD9315144 Si02
#       6
#     4   4   4   4   4   4
#     4  10  24  41  66  96 135 177 220 267 329 393
#     4  10  23  44  67  96 130 172 217 274 331 388
#     4  11  25  45  70  99 132 174 222 273 333 393
#     4  11  23  43  66  99 137 178 220 271 323 393
#     4  11  23  40  68  99 131 171 221 267 325 389
#     4  11  24  45  69  97 133 170 218 278 333 392
#
# _framework density 25.808527999999999
#
# number of rings (size 3 to 8) (size 9 to 14) (size 15 to 20)
#    0.000    1.333    0.000    5.000    0.000   13.333 
#    0.000    1.667    0.000    0.000    0.000    0.000 
#    0.000    0.000    0.000    0.000    0.000    0.000 
#
# Total GULP energy -134714.652822 kJ/mol
# GULP energy per Si atom -5613.110534 kJ/mol
# Density = 2.574979 g / cm^3
# Si number density = 25.808528 Si / 1000 Ang^3
#
#
#
# Elastic Constant Matrix: (Units=GPa)
#
#
# Indices 1 2 3 4 5 6 
#
# 1 75.6739 0.1475 20.5153 0.0000 0.0000 0.0000
# 2 0.1475 70.4245 35.9755 0.0000 0.0000 0.0000
# 3 20.5153 35.9755 106.2075 0.0000 0.0000 0.0000
# 4 0.0000 0.0000 0.0000 27.1082 0.0000 0.0000
# 5 0.0000 0.0000 0.0000 0.0000 37.0816 0.0000
# 6 0.0000 0.0000 0.0000 0.0000 0.0000 42.0342
#
#
#
# Elastic Compliance Matrix: (Units=1/GPa)
#
#
# Indices 1 2 3 4 5 6 
#
# 1 0.014101 0.001647 -0.003282 0.000000 0.000000 0.000000
# 2 0.001647 0.017363 -0.006199 0.000000 0.000000 0.000000
# 3 -0.003282 -0.006199 0.012149 0.000000 0.000000 0.000000
# 4 0.000000 0.000000 0.000000 0.036889 0.000000 0.000000
# 5 0.000000 0.000000 0.000000 0.000000 0.026968 0.000000
# 6 0.000000 0.000000 0.000000 0.000000 0.000000 0.023790
#
#
# Mechanical properties :
#
#
# Convention : Reuss Voigt Hill
#
# Bulk Modulus (GPa) = 35.78464 40.62030 38.20247
# Shear Modulus (GPa) = 32.00125 34.28931 33.14528
#
# Velocity S-wave (km/s) = 3.52511 3.64896 3.58757
# Velocity P-wave (km/s) = 5.51943 5.79020 5.65644
#
# Compressibility (1/GPa) = 0.02794495
#
# Stress axis : x y z
#
# Youngs Moduli (GPa) = 70.91679 57.59340 82.30887
#
# Poissons Ratio (x) = -0.09485 0.27011
# Poissons Ratio (y) = -0.11679 0.51027
# Poissons Ratio (z) = 0.23272 0.35705
#
# Static dielectric constant tensor:
#      x y z
#    x 2.007100 0.000000 0.000000 
#    y 0.000000 1.992860 0.000000 
#    z 0.000000 0.000000 2.049880 
# 
# From -- ./inp_files/2409.got.cif
#   From: 2010.05.17/outbox.cif.g08.bks.cpg/sg19_2_cif.got.tgz:2409.got - 2010.06.03 22:46:19.
