data_PCOD9315121
_publ_section_title
;
Structure prediction by ZEFSAII (Michael W. Deem and Ramdas Pophale) SiO2 
 PCOD9315121
Probable space group: P 21 21 21
;
_chemical_formula_sum "Si O2"
_cell_formula_units_Z 20
_cell_length_a 19.823738
_cell_length_b 8.208355
_cell_length_c 4.810188
_cell_angle_alpha 90.000000
_cell_angle_beta 90.000000
_cell_angle_gamma 90.000000
_cell_volume 782.715133
_symmetry_space_group_name_H-M "P 21 21 21"
_symmetry_group_IT_number 19
_symmetry_cell_setting 'orthorhombic'
loop_
_space_group_symop_operation_xyz
x,y,z
1/2-x,-y,1/2+z
1/2+x,1/2-y,-z
-x,1/2+y,1/2-z
loop_
_atom_site_type_symbol
_atom_site_label
_atom_site_fract_x
_atom_site_fract_y
_atom_site_fract_z
Si Si1 0.379624 0.229609 0.957277
Si Si2 0.509537 0.187785 0.343421
Si Si3 0.753217 0.112107 0.731296
Si Si4 0.038229 0.514869 0.116573
Si Si5 0.292998 0.952784 0.703330
O O1 0.440989 0.193759 0.165113
O O2 0.271359 0.986302 0.387555
O O3 0.406744 0.361727 0.736960
O O4 0.352297 0.070674 0.799984
O O5 0.515856 0.369298 0.460754
O O6 0.509764 0.075535 0.614317
O O7 0.561343 0.113745 0.118166
O O8 0.680199 0.808165 0.363320
O O9 0.736910 0.958400 0.925901
O O10 0.699716 0.260510 0.739567
#
# Coordination Sequence:
#
# PCOD9315121 Si02
#       5
#     4   4   4   4   4
#     4  11  26  47  80  99 152 198 232 295 384 429
#     4  12  25  47  74 105 145 194 247 306 358 436
#     4  11  25  46  72 113 147 179 243 308 348 434
#     4  12  25  47  74 105 144 192 251 303 357 436
#     4  10  23  43  76 104 142 189 235 282 361 441
#
# _framework density 25.552081000000001
#
# number of rings (size 3 to 8) (size 9 to 14) (size 15 to 20)
#    0.000    0.800    4.000    2.400    8.400    0.000 
#    3.600    2.000    0.000    0.000    0.000    0.000 
#    0.000    0.000    0.000    0.000    0.000    0.000 
#
# Total GULP energy -112091.273907 kJ/mol
# GULP energy per Si atom -5604.563695 kJ/mol
# Density = 2.549392 g / cm^3
# Si number density = 25.552081 Si / 1000 Ang^3
#
#
#
# Elastic Constant Matrix: (Units=GPa)
#
#
# Indices 1 2 3 4 5 6 
#
# 1 46.2743 25.7316 12.6197 0.0000 0.0000 0.0000
# 2 25.7316 98.0181 22.2899 0.0000 0.0000 0.0000
# 3 12.6197 22.2899 142.8738 0.0000 0.0000 0.0000
# 4 0.0000 0.0000 0.0000 74.8027 0.0000 0.0000
# 5 0.0000 0.0000 0.0000 0.0000 38.5386 0.0000
# 6 0.0000 0.0000 0.0000 0.0000 0.0000 42.2852
#
#
#
# Elastic Compliance Matrix: (Units=1/GPa)
#
#
# Indices 1 2 3 4 5 6 
#
# 1 0.025519 -0.006414 -0.001253 0.000000 0.000000 0.000000
# 2 -0.006414 0.012190 -0.001335 0.000000 0.000000 0.000000
# 3 -0.001253 -0.001335 0.007318 0.000000 0.000000 0.000000
# 4 0.000000 0.000000 0.000000 0.013369 0.000000 0.000000
# 5 0.000000 0.000000 0.000000 0.000000 0.025948 0.000000
# 6 0.000000 0.000000 0.000000 0.000000 0.000000 0.023649
#
#
# Mechanical properties :
#
#
# Convention : Reuss Voigt Hill
#
# Bulk Modulus (GPa) = 37.00786 45.38318 41.19552
# Shear Modulus (GPa) = 37.03583 46.22698 41.63141
#
# Velocity S-wave (km/s) = 3.81126 4.25800 4.04081
# Velocity P-wave (km/s) = 5.82086 6.47871 6.15857
#
# Compressibility (1/GPa) = 0.02702129
#
# Stress axis : x y z
#
# Youngs Moduli (GPa) = 39.18689 82.03672 136.64580
#
# Poissons Ratio (x) = 0.52620 0.17126
# Poissons Ratio (y) = 0.25135 0.18245
# Poissons Ratio (z) = 0.04911 0.10953
#
# Static dielectric constant tensor:
#      x y z
#    x 2.033210 0.000000 0.000000 
#    y 0.000000 2.050700 0.000000 
#    z 0.000000 0.000000 1.944440 
# 
# From -- ./inp_files/2296.got.cif
#   From: 2010.05.17/outbox.cif.g08.bks.cpg/sg19_2_cif.got.tgz:2296.got - 2010.06.03 22:46:19.
