data_PCOD9315201
_publ_section_title
;
Structure prediction by ZEFSAII (Michael W. Deem and Ramdas Pophale) SiO2 
 PCOD9315201
Probable space group: P 21 21 21
;
_chemical_formula_sum "Si O2"
_cell_formula_units_Z 16
_cell_length_a 12.157775
_cell_length_b 10.926129
_cell_length_c 5.202986
_cell_angle_alpha 90.000000
_cell_angle_beta 90.000000
_cell_angle_gamma 90.000000
_cell_volume 691.151226
_symmetry_space_group_name_H-M "P 21 21 21"
_symmetry_group_IT_number 19
_symmetry_cell_setting 'orthorhombic'
loop_
_space_group_symop_operation_xyz
x,y,z
1/2-x,-y,1/2+z
1/2+x,1/2-y,-z
-x,1/2+y,1/2-z
loop_
_atom_site_type_symbol
_atom_site_label
_atom_site_fract_x
_atom_site_fract_y
_atom_site_fract_z
Si Si1 0.169847 0.900974 0.942500
Si Si2 0.160731 0.175153 0.088014
Si Si3 0.529877 0.654898 0.558809
Si Si4 0.799131 0.940058 0.526809
O O1 0.288196 0.843573 0.872292
O O2 0.095023 0.858943 0.704183
O O3 0.106843 0.866310 0.199299
O O4 0.179530 0.047899 0.946255
O O5 0.034207 0.216355 0.086363
O O6 0.220109 0.293732 0.966771
O O7 0.428617 0.557296 0.547184
O O8 0.729794 0.999842 0.297323
#
# Coordination Sequence:
#
# PCOD9315201 Si02
#       4
#     4   4   4   4
#     4  12  24  49  73 106 152 192 237 322 357 446
#     4  10  28  46  74 112 146 192 256 295 386 430
#     4  10  27  43  72 110 143 199 243 293 373 442
#     4  10  23  46  71 104 149 189 248 300 358 436
#
# _framework density 23.149781999999998
#
# number of rings (size 3 to 8) (size 9 to 14) (size 15 to 20)
#    1.500    0.000    0.000    3.000    0.000   18.000 
#    0.000    0.000    0.000    0.000    0.000    0.000 
#    0.000    0.000    0.000    0.000    0.000    0.000 
#
# Total GULP energy -89439.449868 kJ/mol
# GULP energy per Si atom -5589.965617 kJ/mol
# Density = 2.309709 g / cm^3
# Si number density = 23.149782 Si / 1000 Ang^3
#
#
#
# Elastic Constant Matrix: (Units=GPa)
#
#
# Indices 1 2 3 4 5 6 
#
# 1 83.1010 21.8679 45.4575 0.0000 0.0000 0.0000
# 2 21.8679 109.2075 9.3234 0.0000 0.0000 0.0000
# 3 45.4575 9.3234 119.7870 0.0000 0.0000 0.0000
# 4 0.0000 0.0000 0.0000 37.6795 0.0000 0.0000
# 5 0.0000 0.0000 0.0000 0.0000 45.1787 0.0000
# 6 0.0000 0.0000 0.0000 0.0000 0.0000 46.9145
#
#
#
# Elastic Compliance Matrix: (Units=1/GPa)
#
#
# Indices 1 2 3 4 5 6 
#
# 1 0.015935 -0.002693 -0.005838 0.000000 0.000000 0.000000
# 2 -0.002693 0.009673 0.000269 0.000000 0.000000 0.000000
# 3 -0.005838 0.000269 0.010543 0.000000 0.000000 0.000000
# 4 0.000000 0.000000 0.000000 0.026540 0.000000 0.000000
# 5 0.000000 0.000000 0.000000 0.000000 0.022134 0.000000
# 6 0.000000 0.000000 0.000000 0.000000 0.000000 0.021315
#
#
# Mechanical properties :
#
#
# Convention : Reuss Voigt Hill
#
# Bulk Modulus (GPa) = 50.94674 51.71034 51.32854
# Shear Modulus (GPa) = 38.69796 41.65099 40.17448
#
# Velocity S-wave (km/s) = 4.09300 4.24629 4.17035
# Velocity P-wave (km/s) = 6.66274 6.81375 6.73866
#
# Compressibility (1/GPa) = 0.01962834
#
# Stress axis : x y z
#
# Youngs Moduli (GPa) = 62.75341 103.37960 94.85383
#
# Poissons Ratio (x) = 0.27835 0.55373
# Poissons Ratio (y) = 0.16897 -0.02551
# Poissons Ratio (z) = 0.36633 -0.02780
#
# Static dielectric constant tensor:
#      x y z
#    x 1.948730 0.000000 0.000000 
#    y 0.000000 1.878770 0.000000 
#    z 0.000000 0.000000 1.855000 
# 
# From -- ./inp_files/789.got.cif
#   From: 2010.05.17/outbox.cif.g08.bks.cpg/sg19_1_cif.got.tgz:789.got - 2010.06.03 22:46:19.
