data_PCOD9315061
_publ_section_title
;
Structure prediction by ZEFSAII (Michael W. Deem and Ramdas Pophale) SiO2 
 PCOD9315061
Probable space group: P 21 21 21
;
_chemical_formula_sum "Si O2"
_cell_formula_units_Z 32
_cell_length_a 8.006021
_cell_length_b 13.844277
_cell_length_c 12.773293
_cell_angle_alpha 90.000000
_cell_angle_beta 90.000000
_cell_angle_gamma 90.000000
_cell_volume 1415.760788
_symmetry_space_group_name_H-M "P 21 21 21"
_symmetry_group_IT_number 19
_symmetry_cell_setting 'orthorhombic'
loop_
_space_group_symop_operation_xyz
x,y,z
1/2-x,-y,1/2+z
1/2+x,1/2-y,-z
-x,1/2+y,1/2-z
loop_
_atom_site_type_symbol
_atom_site_label
_atom_site_fract_x
_atom_site_fract_y
_atom_site_fract_z
Si Si1 0.882882 0.428556 0.062547
Si Si2 0.664651 0.253712 0.665869
Si Si3 0.750589 0.696471 0.384559
Si Si4 0.728945 0.923239 0.401749
Si Si5 0.338158 0.447988 0.332257
Si Si6 0.462097 0.455387 0.898369
Si Si7 0.142675 0.863320 0.215377
Si Si8 0.861426 0.613521 0.969206
O O1 0.800968 0.384897 0.167374
O O2 0.074923 0.455173 0.095768
O O3 0.874992 0.357663 0.963248
O O4 0.778726 0.523085 0.029129
O O5 0.772901 0.305129 0.757469
O O6 0.749848 0.152989 0.633029
O O7 0.499409 0.216751 0.724067
O O8 0.611487 0.313389 0.564346
O O9 0.746246 0.807973 0.417835
O O10 0.925400 0.639562 0.400560
O O11 0.640873 0.935803 0.290541
O O12 0.611708 0.973976 0.486281
O O13 0.217890 0.540660 0.341009
O O14 0.496770 0.445407 0.405959
O O15 0.565302 0.538447 0.836658
O O16 0.270075 0.832720 0.125407
#
# Coordination Sequence:
#
# PCOD9315061 Si02
#       8
#     4   4   4   4   4   4   4   4
#     4  12  23  42  67  94 133 174 217 278 336 393
#     4  10  23  45  68  91 135 174 218 277 331 398
#     4  11  23  41  66  97 128 174 222 271 338 395
#     4  11  23  42  64  93 135 168 226 282 325 398
#     4  10  23  42  65  98 132 175 226 271 335 402
#     4  11  21  41  66  89 135 175 212 275 338 388
#     4  11  24  45  64  97 137 177 217 278 340 391
#     4  12  24  40  70  97 133 173 228 266 335 409
#
# _framework density 22.602688000000001
#
# number of rings (size 3 to 8) (size 9 to 14) (size 15 to 20)
#    0.000    1.000    6.250    2.250    1.750    0.000 
#    0.000    0.000    0.000    0.000    0.000    0.000 
#    0.000    0.000    0.000    0.000    0.000    0.000 
#
# Total GULP energy -178242.941316 kJ/mol
# GULP energy per Si atom -5570.091916 kJ/mol
# Density = 2.255124 g / cm^3
# Si number density = 22.602688 Si / 1000 Ang^3
#
#
#
# Elastic Constant Matrix: (Units=GPa)
#
#
# Indices 1 2 3 4 5 6 
#
# 1 35.1876 -3.1099 30.3426 0.0000 0.0000 0.0000
# 2 -3.1099 25.0953 39.7576 0.0000 0.0000 0.0000
# 3 30.3426 39.7576 139.3851 0.0000 0.0000 0.0000
# 4 0.0000 0.0000 0.0000 40.2111 0.0000 0.0000
# 5 0.0000 0.0000 0.0000 0.0000 35.2437 0.0000
# 6 0.0000 0.0000 0.0000 0.0000 0.0000 16.1407
#
#
#
# Elastic Compliance Matrix: (Units=1/GPa)
#
#
# Indices 1 2 3 4 5 6 
#
# 1 0.053996 0.046183 -0.024927 0.000000 0.000000 0.000000
# 2 0.046183 0.112201 -0.042057 0.000000 0.000000 0.000000
# 3 -0.024927 -0.042057 0.024597 0.000000 0.000000 0.000000
# 4 0.000000 0.000000 0.000000 0.024869 0.000000 0.000000
# 5 0.000000 0.000000 0.000000 0.000000 0.028374 0.000000
# 6 0.000000 0.000000 0.000000 0.000000 0.000000 0.061955
#
#
# Mechanical properties :
#
#
# Convention : Reuss Voigt Hill
#
# Bulk Modulus (GPa) = 6.70287 37.07207 21.88747
# Shear Modulus (GPa) = 12.58418 27.16428 19.87423
#
# Velocity S-wave (km/s) = 2.36213 3.47048 2.96849
# Velocity P-wave (km/s) = 3.22668 5.70055 4.63183
#
# Compressibility (1/GPa) = 0.14918972
#
# Stress axis : x y z
#
# Youngs Moduli (GPa) = 18.52001 8.91261 40.65548
#
# Poissons Ratio (x) = -0.41161 1.01343
# Poissons Ratio (y) = -0.85530 1.70985
# Poissons Ratio (z) = 0.46165 0.37484
#
# Static dielectric constant tensor:
#      x y z
#    x 1.943610 0.000000 0.000000 
#    y 0.000000 1.865120 0.000000 
#    z 0.000000 0.000000 1.858640 
# 
# From -- ./inp_files/4662.got.cif
#   From: 2010.05.17/outbox.cif.g08.bks.cpg/sg19_3_cif.got.tgz:4662.got - 2010.06.03 22:46:19.
