data_PCOD9315379
_publ_section_title
;
Structure prediction by ZEFSAII (Michael W. Deem and Ramdas Pophale) SiO2 
 PCOD9315379
Probable space group: P 21 21 21
;
_chemical_formula_sum "Si O2"
_cell_formula_units_Z 28
_cell_length_a 11.414910
_cell_length_b 16.585154
_cell_length_c 5.480641
_cell_angle_alpha 90.000000
_cell_angle_beta 90.000000
_cell_angle_gamma 90.000000
_cell_volume 1037.584213
_symmetry_space_group_name_H-M "P 21 21 21"
_symmetry_group_IT_number 19
_symmetry_cell_setting 'orthorhombic'
loop_
_space_group_symop_operation_xyz
x,y,z
1/2-x,-y,1/2+z
1/2+x,1/2-y,-z
-x,1/2+y,1/2-z
loop_
_atom_site_type_symbol
_atom_site_label
_atom_site_fract_x
_atom_site_fract_y
_atom_site_fract_z
Si Si1 0.258047 0.888453 0.812433
Si Si2 0.548379 0.850617 0.232294
Si Si3 0.440269 0.617580 0.862078
Si Si4 0.244347 0.720958 0.102557
Si Si5 0.397614 0.207017 0.972707
Si Si6 0.251859 0.549038 0.547642
Si Si7 0.594798 0.473598 0.048776
O O1 0.268107 0.805457 0.962298
O O2 0.151241 0.867016 0.626182
O O3 0.373961 0.909907 0.662464
O O4 0.209614 0.969738 0.935451
O O5 0.628492 0.825544 0.002685
O O6 0.522833 0.766338 0.367368
O O7 0.639484 0.895991 0.410578
O O8 0.444462 0.916448 0.224527
O O9 0.350869 0.662673 0.038557
O O10 0.541263 0.676324 0.770962
O O11 0.370166 0.595795 0.615281
O O12 0.495400 0.537625 0.976061
O O13 0.217740 0.745914 0.377943
O O14 0.253990 0.511779 0.280401
#
# Coordination Sequence:
#
# PCOD9315379 Si02
#       7
#     4   4   4   4   4   4   4
#     4  11  26  47  69 102 146 191 253 308 377 466
#     4  10  25  42  72 102 142 193 250 308 386 446
#     4  11  24  43  76 104 145 194 245 313 382 448
#     4  10  24  48  70 103 144 192 248 310 374 477
#     4  11  24  48  68 102 145 197 248 303 393 458
#     4  11  25  45  72 112 148 188 246 318 381 451
#     4  12  24  47  71 109 144 197 252 318 381 444
#
# _framework density 26.985761
#
# number of rings (size 3 to 8) (size 9 to 14) (size 15 to 20)
#    0.000    1.143    2.857    1.714    6.000    1.143 
#    7.714    0.000    0.000    0.000    0.000    0.000 
#    0.000    0.000    0.000    0.000    0.000    0.000 
#
# Total GULP energy -156871.790581 kJ/mol
# GULP energy per Si atom -5602.563949 kJ/mol
# Density = 2.692434 g / cm^3
# Si number density = 26.985761 Si / 1000 Ang^3
#
#
#
# Elastic Constant Matrix: (Units=GPa)
#
#
# Indices 1 2 3 4 5 6 
#
# 1 76.0705 49.8655 9.4047 0.0000 0.0000 0.0000
# 2 49.8655 132.3254 43.8922 0.0000 0.0000 0.0000
# 3 9.4047 43.8922 71.3918 0.0000 0.0000 0.0000
# 4 0.0000 0.0000 0.0000 64.9308 0.0000 0.0000
# 5 0.0000 0.0000 0.0000 0.0000 29.6421 0.0000
# 6 0.0000 0.0000 0.0000 0.0000 0.0000 73.4251
#
#
#
# Elastic Compliance Matrix: (Units=1/GPa)
#
#
# Indices 1 2 3 4 5 6 
#
# 1 0.017736 -0.007422 0.002227 0.000000 0.000000 0.000000
# 2 -0.007422 0.012599 -0.006768 0.000000 0.000000 0.000000
# 3 0.002227 -0.006768 0.017875 0.000000 0.000000 0.000000
# 4 0.000000 0.000000 0.000000 0.015401 0.000000 0.000000
# 5 0.000000 0.000000 0.000000 0.000000 0.033736 0.000000
# 6 0.000000 0.000000 0.000000 0.000000 0.000000 0.013619
#
#
# Mechanical properties :
#
#
# Convention : Reuss Voigt Hill
#
# Bulk Modulus (GPa) = 41.18166 54.01251 47.59708
# Shear Modulus (GPa) = 34.96806 45.37461 40.17133
#
# Velocity S-wave (km/s) = 3.60362 4.10497 3.86244
# Velocity P-wave (km/s) = 5.71038 6.52122 6.12922
#
# Compressibility (1/GPa) = 0.02428265
#
# Stress axis : x y z
#
# Youngs Moduli (GPa) = 56.38321 79.37052 55.94391
#
# Poissons Ratio (x) = 0.58910 -0.12458
# Poissons Ratio (y) = 0.41849 0.37864
# Poissons Ratio (z) = -0.12556 0.53720
#
# Static dielectric constant tensor:
#      x y z
#    x 2.186440 0.000000 0.000000 
#    y 0.000000 2.112250 0.000000 
#    z 0.000000 0.000000 2.028420 
# 
# From -- ./inp_files/1042.got.cif
#   From: 2010.05.17/outbox.cif.g08.bks.cpg/sg19_1_cif.got.tgz:1042.got - 2010.06.03 22:46:19.
