data_PCOD9315913
_publ_section_title
;
Structure prediction by ZEFSAII (Michael W. Deem and Ramdas Pophale) SiO2 
 PCOD9315913
Probable space group: P 21 21 21
;
_chemical_formula_sum "Si O2"
_cell_formula_units_Z 28
_cell_length_a 9.262451
_cell_length_b 11.929778
_cell_length_c 11.154837
_cell_angle_alpha 90.000000
_cell_angle_beta 90.000000
_cell_angle_gamma 90.000000
_cell_volume 1232.598157
_symmetry_space_group_name_H-M "P 21 21 21"
_symmetry_group_IT_number 19
_symmetry_cell_setting 'orthorhombic'
loop_
_space_group_symop_operation_xyz
x,y,z
1/2-x,-y,1/2+z
1/2+x,1/2-y,-z
-x,1/2+y,1/2-z
loop_
_atom_site_type_symbol
_atom_site_label
_atom_site_fract_x
_atom_site_fract_y
_atom_site_fract_z
Si Si1 0.805192 0.913510 0.369576
Si Si2 0.796725 0.165265 0.424752
Si Si3 0.538458 0.690399 0.118646
Si Si4 0.080697 0.841043 0.268271
Si Si5 0.284820 0.040228 0.219053
Si Si6 0.489662 0.872853 0.295835
Si Si7 0.767878 0.695316 0.508099
O O1 0.644911 0.922704 0.318534
O O2 0.796950 0.824504 0.477453
O O3 0.909872 0.855780 0.272172
O O4 0.850509 0.038357 0.405325
O O5 0.874005 0.223198 0.537011
O O6 0.620505 0.162353 0.434189
O O7 0.850215 0.246021 0.315786
O O8 0.651880 0.594805 0.158574
O O9 0.502482 0.749186 0.244127
O O10 0.132149 0.814652 0.403178
O O11 0.145361 0.962704 0.236085
O O12 0.407554 0.946699 0.196507
O O13 0.259211 0.128039 0.114230
O O14 0.397451 0.860248 0.416668
#
# Coordination Sequence:
#
# PCOD9315913 Si02
#       7
#     4   4   4   4   4   4   4
#     4  12  27  46  77 108 149 201 251 320 371 458
#     4  12  30  48  74 111 154 196 256 310 384 451
#     4  12  27  49  73 113 152 197 250 313 379 453
#     4  11  29  48  73 112 155 191 260 309 387 449
#     4  11  25  47  79 104 150 203 246 312 383 443
#     4  11  25  48  72 111 149 195 255 312 371 457
#     4  11  25  50  76 105 147 205 254 308 381 451
#
# _framework density 22.716242999999999
#
# number of rings (size 3 to 8) (size 9 to 14) (size 15 to 20)
#    0.000    0.571    5.714    0.857   12.000    1.143 
#    0.000    0.000    0.000    0.000    0.000    0.000 
#    0.000    0.000    0.000    0.000    0.000    0.000 
#
# Total GULP energy -156478.488154 kJ/mol
# GULP energy per Si atom -5588.517434 kJ/mol
# Density = 2.266454 g / cm^3
# Si number density = 22.716243 Si / 1000 Ang^3
#
#
#
# Elastic Constant Matrix: (Units=GPa)
#
#
# Indices 1 2 3 4 5 6 
#
# 1 94.0271 17.3010 34.0167 0.0000 0.0000 0.0000
# 2 17.3010 127.0272 39.4690 0.0000 0.0000 0.0000
# 3 34.0167 39.4690 75.7811 0.0000 0.0000 0.0000
# 4 0.0000 0.0000 0.0000 8.4700 0.0000 0.0000
# 5 0.0000 0.0000 0.0000 0.0000 26.1186 0.0000
# 6 0.0000 0.0000 0.0000 0.0000 0.0000 25.7748
#
#
#
# Elastic Compliance Matrix: (Units=1/GPa)
#
#
# Indices 1 2 3 4 5 6 
#
# 1 0.012697 0.000050 -0.005725 0.000000 0.000000 0.000000
# 2 0.000050 0.009392 -0.004914 0.000000 0.000000 0.000000
# 3 -0.005725 -0.004914 0.018325 0.000000 0.000000 0.000000
# 4 0.000000 0.000000 0.000000 0.118064 0.000000 0.000000
# 5 0.000000 0.000000 0.000000 0.000000 0.038287 0.000000
# 6 0.000000 0.000000 0.000000 0.000000 0.000000 0.038798
#
#
# Mechanical properties :
#
#
# Convention : Reuss Voigt Hill
#
# Bulk Modulus (GPa) = 51.98783 53.15653 52.57218
# Shear Modulus (GPa) = 19.00015 25.80926 22.40470
#
# Velocity S-wave (km/s) = 2.89522 3.37435 3.14393
# Velocity P-wave (km/s) = 5.84053 6.21552 6.03094
#
# Compressibility (1/GPa) = 0.01923527
#
# Stress axis : x y z
#
# Youngs Moduli (GPa) = 78.75597 106.46836 54.56908
#
# Poissons Ratio (x) = -0.00528 0.31243
# Poissons Ratio (y) = -0.00391 0.26816
# Poissons Ratio (z) = 0.45092 0.52320
#
# Static dielectric constant tensor:
#      x y z
#    x 1.889720 0.000000 0.000000 
#    y 0.000000 1.880340 0.000000 
#    z 0.000000 0.000000 1.828910 
# 
# From -- ./inp_files/4588.got.cif
#   From: 2010.05.17/outbox.cif.g08.bks.cpg/sg19_3_cif.got.tgz:4588.got - 2010.06.03 22:46:19.
