data_PCOD9315462
_publ_section_title
;
Structure prediction by ZEFSAII (Michael W. Deem and Ramdas Pophale) SiO2 
 PCOD9315462
Probable space group: P 21 21 21
;
_chemical_formula_sum "Si O2"
_cell_formula_units_Z 28
_cell_length_a 16.059888
_cell_length_b 9.708846
_cell_length_c 7.246471
_cell_angle_alpha 90.000000
_cell_angle_beta 90.000000
_cell_angle_gamma 90.000000
_cell_volume 1129.891348
_symmetry_space_group_name_H-M "P 21 21 21"
_symmetry_group_IT_number 19
_symmetry_cell_setting 'orthorhombic'
loop_
_space_group_symop_operation_xyz
x,y,z
1/2-x,-y,1/2+z
1/2+x,1/2-y,-z
-x,1/2+y,1/2-z
loop_
_atom_site_type_symbol
_atom_site_label
_atom_site_fract_x
_atom_site_fract_y
_atom_site_fract_z
Si Si1 0.929812 0.245035 0.265632
Si Si2 0.667928 0.991134 0.937820
Si Si3 0.484260 0.652078 0.137290
Si Si4 0.659466 0.630699 0.294310
Si Si5 0.415003 0.775089 0.497309
Si Si6 0.149743 0.562781 0.636718
Si Si7 0.809644 0.452924 0.410503
O O1 0.877570 0.105841 0.292181
O O2 0.862911 0.370444 0.258139
O O3 0.980388 0.272092 0.457578
O O4 0.998660 0.233915 0.108567
O O5 0.766677 0.984574 0.918886
O O6 0.639788 0.149040 0.924346
O O7 0.641787 0.944868 0.141511
O O8 0.562775 0.599095 0.257922
O O9 0.432612 0.745940 0.280841
O O10 0.429414 0.523564 0.072615
O O11 0.718634 0.510762 0.368135
O O12 0.661015 0.775410 0.401374
O O13 0.695464 0.648190 0.085800
O O14 0.365591 0.915273 0.533984
#
# Coordination Sequence:
#
# PCOD9315462 Si02
#       7
#     4   4   4   4   4   4   4
#     4  11  25  47  70 110 148 186 245 302 366 434
#     4  11  24  46  69 109 143 189 246 293 364 449
#     4  10  26  45  76 101 148 189 242 303 362 432
#     4  11  25  48  70 105 150 186 246 304 366 438
#     4  11  25  45  73 108 142 196 244 291 375 438
#     4  11  24  47  70 106 145 191 241 301 368 439
#     4  11  25  46  70 107 146 191 244 304 365 432
#
# _framework density 24.781143
#
# number of rings (size 3 to 8) (size 9 to 14) (size 15 to 20)
#    0.000    1.143    4.286    0.857    8.000    3.429 
#    2.571    0.000    0.000    0.000    0.000    0.000 
#    0.000    0.000    0.000    0.000    0.000    0.000 
#
# Total GULP energy -156872.504876 kJ/mol
# GULP energy per Si atom -5602.589460 kJ/mol
# Density = 2.472474 g / cm^3
# Si number density = 24.781143 Si / 1000 Ang^3
#
#
#
# Elastic Constant Matrix: (Units=GPa)
#
#
# Indices 1 2 3 4 5 6 
#
# 1 129.1352 38.2829 25.6297 0.0000 0.0000 0.0000
# 2 38.2829 134.5687 34.2168 0.0000 0.0000 0.0000
# 3 25.6297 34.2168 70.0522 0.0000 0.0000 0.0000
# 4 0.0000 0.0000 0.0000 32.2749 0.0000 0.0000
# 5 0.0000 0.0000 0.0000 0.0000 37.7195 0.0000
# 6 0.0000 0.0000 0.0000 0.0000 0.0000 41.2542
#
#
#
# Elastic Compliance Matrix: (Units=1/GPa)
#
#
# Indices 1 2 3 4 5 6 
#
# 1 0.008762 -0.001915 -0.002270 0.000000 0.000000 0.000000
# 2 -0.001915 0.008904 -0.003648 0.000000 0.000000 0.000000
# 3 -0.002270 -0.003648 0.016888 0.000000 0.000000 0.000000
# 4 0.000000 0.000000 0.000000 0.030984 0.000000 0.000000
# 5 0.000000 0.000000 0.000000 0.000000 0.026511 0.000000
# 6 0.000000 0.000000 0.000000 0.000000 0.000000 0.024240
#
#
# Mechanical properties :
#
#
# Convention : Reuss Voigt Hill
#
# Bulk Modulus (GPa) = 52.94975 58.89054 55.92015
# Shear Modulus (GPa) = 36.16589 37.95816 37.06202
#
# Velocity S-wave (km/s) = 3.82437 3.91799 3.87146
# Velocity P-wave (km/s) = 6.39644 6.65457 6.52678
#
# Compressibility (1/GPa) = 0.01888583
#
# Stress axis : x y z
#
# Youngs Moduli (GPa) = 114.12589 112.31282 59.21504
#
# Poissons Ratio (x) = 0.21513 0.13443
# Poissons Ratio (y) = 0.21861 0.21603
# Poissons Ratio (z) = 0.25909 0.40974
#
# Static dielectric constant tensor:
#      x y z
#    x 1.934070 0.000000 0.000000 
#    y 0.000000 1.954870 0.000000 
#    z 0.000000 0.000000 2.033480 
# 
# From -- ./inp_files/4153.got.cif
#   From: 2010.05.17/outbox.cif.g08.bks.cpg/sg19_3_cif.got.tgz:4153.got - 2010.06.03 22:46:19.
