data_PCOD9315156
_publ_section_title
;
Structure prediction by ZEFSAII (Michael W. Deem and Ramdas Pophale) SiO2 
 PCOD9315156
Probable space group: P 21 21 21
;
_chemical_formula_sum "Si O2"
_cell_formula_units_Z 24
_cell_length_a 11.772129
_cell_length_b 5.327758
_cell_length_c 15.165637
_cell_angle_alpha 90.000000
_cell_angle_beta 90.000000
_cell_angle_gamma 90.000000
_cell_volume 951.174413
_symmetry_space_group_name_H-M "P 21 21 21"
_symmetry_group_IT_number 19
_symmetry_cell_setting 'orthorhombic'
loop_
_space_group_symop_operation_xyz
x,y,z
1/2-x,-y,1/2+z
1/2+x,1/2-y,-z
-x,1/2+y,1/2-z
loop_
_atom_site_type_symbol
_atom_site_label
_atom_site_fract_x
_atom_site_fract_y
_atom_site_fract_z
Si Si1 0.972085 0.096345 0.889544
Si Si2 0.100838 0.881372 0.450401
Si Si3 0.897233 0.212957 0.487140
Si Si4 0.307578 0.690313 0.367339
Si Si5 0.236513 0.552078 0.177401
Si Si6 0.965200 0.692945 0.301796
O O1 0.869284 0.960461 0.844057
O O2 0.053457 0.931739 0.952163
O O3 0.068890 0.227181 0.832588
O O4 0.905610 0.296356 0.949526
O O5 0.226926 0.897578 0.414258
O O6 0.036080 0.673990 0.391617
O O7 0.015021 0.108921 0.445647
O O8 0.817349 0.225434 0.400468
O O9 0.836259 0.014714 0.555603
O O10 0.236734 0.615242 0.281083
O O11 0.161090 0.294944 0.175089
O O12 0.978594 0.433456 0.249471
#
# Coordination Sequence:
#
# PCOD9315156 Si02
#       6
#     4   4   4   4   4   4
#     4  11  26  46  69 104 154 195 260 312 404 461
#     4  10  23  44  69 101 143 191 254 313 381 452
#     4  10  25  46  73 102 144 206 244 324 386 468
#     4  11  24  46  69 111 145 194 258 318 387 469
#     4  11  25  47  73 111 150 200 256 320 391 461
#     4  11  25  47  75 113 148 196 260 321 379 453
#
# _framework density 25.231964000000001
#
# number of rings (size 3 to 8) (size 9 to 14) (size 15 to 20)
#    0.000    1.333    3.333    0.000    9.333    1.333 
#    6.000    0.000    0.000    0.000    0.000    0.000 
#    0.000    0.000    0.000    0.000    0.000    0.000 
#
# Total GULP energy -133936.457819 kJ/mol
# GULP energy per Si atom -5580.685742 kJ/mol
# Density = 2.517454 g / cm^3
# Si number density = 25.231964 Si / 1000 Ang^3
#
#
#
# Elastic Constant Matrix: (Units=GPa)
#
#
# Indices 1 2 3 4 5 6 
#
# 1 191.0047 28.2146 66.7903 0.0000 0.0000 0.0000
# 2 28.2146 63.9061 29.9364 0.0000 0.0000 0.0000
# 3 66.7903 29.9364 93.6795 0.0000 0.0000 0.0000
# 4 0.0000 0.0000 0.0000 29.1604 0.0000 0.0000
# 5 0.0000 0.0000 0.0000 0.0000 21.1201 0.0000
# 6 0.0000 0.0000 0.0000 0.0000 0.0000 18.2212
#
#
#
# Elastic Compliance Matrix: (Units=1/GPa)
#
#
# Indices 1 2 3 4 5 6 
#
# 1 0.007017 -0.000887 -0.004719 0.000000 0.000000 0.000000
# 2 -0.000887 0.018515 -0.005284 0.000000 0.000000 0.000000
# 3 -0.004719 -0.005284 0.015728 0.000000 0.000000 0.000000
# 4 0.000000 0.000000 0.000000 0.034293 0.000000 0.000000
# 5 0.000000 0.000000 0.000000 0.000000 0.047348 0.000000
# 6 0.000000 0.000000 0.000000 0.000000 0.000000 0.054881
#
#
# Mechanical properties :
#
#
# Convention : Reuss Voigt Hill
#
# Bulk Modulus (GPa) = 51.33842 66.49699 58.91770
# Shear Modulus (GPa) = 24.26527 28.61028 26.43778
#
# Velocity S-wave (km/s) = 3.10447 3.37098 3.24047
# Velocity P-wave (km/s) = 5.76551 6.44692 6.11571
#
# Compressibility (1/GPa) = 0.01947859
#
# Stress axis : x y z
#
# Youngs Moduli (GPa) = 142.51666 54.01031 63.58127
#
# Poissons Ratio (x) = 0.04792 0.30005
# Poissons Ratio (y) = 0.12645 0.33597
# Poissons Ratio (z) = 0.67256 0.28540
#
# Static dielectric constant tensor:
#      x y z
#    x 1.989300 0.000000 0.000000 
#    y 0.000000 2.094460 0.000000 
#    z 0.000000 0.000000 2.069270 
# 
# From -- ./inp_files/896.got.cif
#   From: 2010.05.17/outbox.cif.g08.bks.cpg/sg19_1_cif.got.tgz:896.got - 2010.06.03 22:46:19.
