data_PCOD9315791
_publ_section_title
;
Structure prediction by ZEFSAII (Michael W. Deem and Ramdas Pophale) SiO2 
 PCOD9315791
Probable space group: P 21 21 21
;
_chemical_formula_sum "Si O2"
_cell_formula_units_Z 20
_cell_length_a 13.592306
_cell_length_b 9.838104
_cell_length_c 5.881921
_cell_angle_alpha 90.000000
_cell_angle_beta 90.000000
_cell_angle_gamma 90.000000
_cell_volume 786.545299
_symmetry_space_group_name_H-M "P 21 21 21"
_symmetry_group_IT_number 19
_symmetry_cell_setting 'orthorhombic'
loop_
_space_group_symop_operation_xyz
x,y,z
1/2-x,-y,1/2+z
1/2+x,1/2-y,-z
-x,1/2+y,1/2-z
loop_
_atom_site_type_symbol
_atom_site_label
_atom_site_fract_x
_atom_site_fract_y
_atom_site_fract_z
Si Si1 0.580589 0.467145 0.629338
Si Si2 0.875896 0.453787 0.618657
Si Si3 0.384861 0.603998 0.498054
Si Si4 0.223402 0.659907 0.847382
Si Si5 0.926000 0.811029 0.927890
O O1 0.634209 0.494784 0.383280
O O2 0.482801 0.560917 0.634457
O O3 0.549443 0.310614 0.595915
O O4 0.642118 0.484130 0.863061
O O5 0.824541 0.305957 0.618586
O O6 0.992680 0.425710 0.597060
O O7 0.283774 0.648544 0.614853
O O8 0.353645 0.459798 0.385240
O O9 0.416972 0.728647 0.337211
O O10 0.315822 0.642835 0.016666
#
# Coordination Sequence:
#
# PCOD9315791 Si02
#       5
#     4   4   4   4   4
#     4  11  26  48  71 105 149 194 245 304 376 436
#     4  11  27  45  72 109 147 194 243 308 372 437
#     4  11  24  44  73 109 145 197 255 300 367 447
#     4  12  24  44  75 108 146 195 252 306 366 452
#     4  11  25  45  73 105 147 194 243 314 367 440
#
# _framework density 25.427651999999998
#
# number of rings (size 3 to 8) (size 9 to 14) (size 15 to 20)
#    0.000    0.800    6.000    0.000    5.600    1.600 
#    0.000    0.000    0.000    0.000    0.000    0.000 
#    0.000    0.000    0.000    0.000    0.000    0.000 
#
# Total GULP energy -111446.962423 kJ/mol
# GULP energy per Si atom -5572.348121 kJ/mol
# Density = 2.536978 g / cm^3
# Si number density = 25.427652 Si / 1000 Ang^3
#
#
#
# Elastic Constant Matrix: (Units=GPa)
#
#
# Indices 1 2 3 4 5 6 
#
# 1 111.2315 11.6886 4.2607 0.0000 0.0000 0.0000
# 2 11.6886 86.5371 44.2122 0.0000 0.0000 0.0000
# 3 4.2607 44.2122 152.1675 0.0000 0.0000 0.0000
# 4 0.0000 0.0000 0.0000 47.2436 0.0000 0.0000
# 5 0.0000 0.0000 0.0000 0.0000 19.0919 0.0000
# 6 0.0000 0.0000 0.0000 0.0000 0.0000 36.1821
#
#
#
# Elastic Compliance Matrix: (Units=1/GPa)
#
#
# Indices 1 2 3 4 5 6 
#
# 1 0.009122 -0.001294 0.000120 0.000000 0.000000 0.000000
# 2 -0.001294 0.013754 -0.003960 0.000000 0.000000 0.000000
# 3 0.000120 -0.003960 0.007719 0.000000 0.000000 0.000000
# 4 0.000000 0.000000 0.000000 0.021167 0.000000 0.000000
# 5 0.000000 0.000000 0.000000 0.000000 0.052378 0.000000
# 6 0.000000 0.000000 0.000000 0.000000 0.000000 0.027638
#
#
# Mechanical properties :
#
#
# Convention : Reuss Voigt Hill
#
# Bulk Modulus (GPa) = 49.19321 52.25098 50.72210
# Shear Modulus (GPa) = 33.59785 39.82184 36.70984
#
# Velocity S-wave (km/s) = 3.63893 3.96167 3.80372
# Velocity P-wave (km/s) = 6.08638 6.44360 6.26754
#
# Compressibility (1/GPa) = 0.02032801
#
# Stress axis : x y z
#
# Youngs Moduli (GPa) = 109.63010 72.70835 129.55266
#
# Poissons Ratio (x) = 0.09405 -0.01560
# Poissons Ratio (y) = 0.14182 0.51301
# Poissons Ratio (z) = -0.01320 0.28792
#
# Static dielectric constant tensor:
#      x y z
#    x 1.942590 0.000000 0.000000 
#    y 0.000000 1.973800 0.000000 
#    z 0.000000 0.000000 2.363380 
# 
# From -- ./inp_files/914.got.cif
#   From: 2010.05.17/outbox.cif.g08.bks.cpg/sg19_1_cif.got.tgz:914.got - 2010.06.03 22:46:19.
