data_PCOD9315063
_publ_section_title
;
Structure prediction by ZEFSAII (Michael W. Deem and Ramdas Pophale) SiO2 
 PCOD9315063
Probable space group: P 21 21 21
;
_chemical_formula_sum "Si O2"
_cell_formula_units_Z 24
_cell_length_a 13.625716
_cell_length_b 8.477707
_cell_length_c 7.952572
_cell_angle_alpha 90.000000
_cell_angle_beta 90.000000
_cell_angle_gamma 90.000000
_cell_volume 918.639986
_symmetry_space_group_name_H-M "P 21 21 21"
_symmetry_group_IT_number 19
_symmetry_cell_setting 'orthorhombic'
loop_
_space_group_symop_operation_xyz
x,y,z
1/2-x,-y,1/2+z
1/2+x,1/2-y,-z
-x,1/2+y,1/2-z
loop_
_atom_site_type_symbol
_atom_site_label
_atom_site_fract_x
_atom_site_fract_y
_atom_site_fract_z
Si Si1 0.570290 0.133922 0.439810
Si Si2 0.466606 0.148699 0.965062
Si Si3 0.774606 0.099774 0.859947
Si Si4 0.145725 0.866890 0.809494
Si Si5 0.588839 0.934055 0.763977
Si Si6 0.162878 0.213834 0.863391
O O1 0.455565 0.163097 0.408564
O O2 0.583493 0.079526 0.630317
O O3 0.634717 0.255760 0.331669
O O4 0.615954 0.972522 0.355640
O O5 0.503761 0.982217 0.893138
O O6 0.427497 0.266729 0.822040
O O7 0.392887 0.119815 0.117336
O O8 0.562059 0.238987 0.040550
O O9 0.776814 0.226281 0.709206
O O10 0.695077 0.961624 0.843522
O O11 0.741292 0.182518 0.033578
O O12 0.187598 0.030174 0.877254
#
# Coordination Sequence:
#
# PCOD9315063 Si02
#       6
#     4   4   4   4   4   4
#     4  11  21  43  70  99 135 187 228 280 358 421
#     4  10  23  44  67 100 139 178 229 288 347 426
#     4  11  24  44  68 100 141 179 235 295 348 425
#     4  11  22  45  69  95 144 182 231 288 352 425
#     4  11  23  44  68 102 137 179 237 284 351 416
#     4  10  23  42  66 100 136 181 234 283 350 419
#
# _framework density 26.125575999999999
#
# number of rings (size 3 to 8) (size 9 to 14) (size 15 to 20)
#    0.000    1.333    3.333    2.000    2.333    1.333 
#    9.000    0.000    0.000    0.000    0.000    0.000 
#    0.000    0.000    0.000    0.000    0.000    0.000 
#
# Total GULP energy -134164.777502 kJ/mol
# GULP energy per Si atom -5590.199063 kJ/mol
# Density = 2.606611 g / cm^3
# Si number density = 26.125576 Si / 1000 Ang^3
#
#
#
# Elastic Constant Matrix: (Units=GPa)
#
#
# Indices 1 2 3 4 5 6 
#
# 1 65.7147 24.4648 15.5552 0.0000 0.0000 0.0000
# 2 24.4648 94.9300 13.2483 0.0000 0.0000 0.0000
# 3 15.5552 13.2483 70.9232 0.0000 0.0000 0.0000
# 4 0.0000 0.0000 0.0000 54.6388 0.0000 0.0000
# 5 0.0000 0.0000 0.0000 0.0000 31.7563 0.0000
# 6 0.0000 0.0000 0.0000 0.0000 0.0000 25.1159
#
#
#
# Elastic Compliance Matrix: (Units=1/GPa)
#
#
# Indices 1 2 3 4 5 6 
#
# 1 0.017459 -0.004071 -0.003069 0.000000 0.000000 0.000000
# 2 -0.004071 0.011765 -0.001305 0.000000 0.000000 0.000000
# 3 -0.003069 -0.001305 0.015017 0.000000 0.000000 0.000000
# 4 0.000000 0.000000 0.000000 0.018302 0.000000 0.000000
# 5 0.000000 0.000000 0.000000 0.000000 0.031490 0.000000
# 6 0.000000 0.000000 0.000000 0.000000 0.000000 0.039815
#
#
# Mechanical properties :
#
#
# Convention : Reuss Voigt Hill
#
# Bulk Modulus (GPa) = 36.56088 37.56716 37.06402
# Shear Modulus (GPa) = 31.27822 34.18881 32.73352
#
# Velocity S-wave (km/s) = 3.46385 3.62143 3.54352
# Velocity P-wave (km/s) = 5.47926 5.64774 5.56414
#
# Compressibility (1/GPa) = 0.02735164
#
# Stress axis : x y z
#
# Youngs Moduli (GPa) = 57.27576 84.99495 66.59314
#
# Poissons Ratio (x) = 0.34604 0.20436
# Poissons Ratio (y) = 0.23318 0.08689
# Poissons Ratio (z) = 0.17577 0.11090
#
# Static dielectric constant tensor:
#      x y z
#    x 2.042730 0.000000 0.000000 
#    y 0.000000 2.087500 0.000000 
#    z 0.000000 0.000000 2.109260 
# 
# From -- ./inp_files/2821.got.cif
#   From: 2010.05.17/outbox.cif.g08.bks.cpg/sg19_2_cif.got.tgz:2821.got - 2010.06.03 22:46:19.
