data_PCOD9315099
_publ_section_title
;
Structure prediction by ZEFSAII (Michael W. Deem and Ramdas Pophale) SiO2 
 PCOD9315099
Probable space group: P 21 21 21
;
_chemical_formula_sum "Si O2"
_cell_formula_units_Z 32
_cell_length_a 18.719889
_cell_length_b 5.221946
_cell_length_c 14.050531
_cell_angle_alpha 90.000000
_cell_angle_beta 90.000000
_cell_angle_gamma 90.000000
_cell_volume 1373.499113
_symmetry_space_group_name_H-M "P 21 21 21"
_symmetry_group_IT_number 19
_symmetry_cell_setting 'orthorhombic'
loop_
_space_group_symop_operation_xyz
x,y,z
1/2-x,-y,1/2+z
1/2+x,1/2-y,-z
-x,1/2+y,1/2-z
loop_
_atom_site_type_symbol
_atom_site_label
_atom_site_fract_x
_atom_site_fract_y
_atom_site_fract_z
Si Si1 0.432207 0.757232 0.952936
Si Si2 0.530434 0.967734 0.367787
Si Si3 0.330417 0.952614 0.583773
Si Si4 0.299605 0.054994 0.950920
Si Si5 0.409148 0.974381 0.226387
Si Si6 0.083402 0.562870 0.096875
Si Si7 0.749163 0.666141 0.238232
Si Si8 0.358281 0.445794 0.796386
O O1 0.502693 0.922043 0.937491
O O2 0.402057 0.668476 0.851188
O O3 0.363987 0.899373 0.998224
O O4 0.456258 0.531149 0.022872
O O5 0.450247 0.999978 0.327715
O O6 0.576899 0.185079 0.310522
O O7 0.552093 0.680947 0.341143
O O8 0.259819 0.867369 0.526195
O O9 0.385067 0.717865 0.580822
O O10 0.302753 0.986734 0.692274
O O11 0.367424 0.214616 0.550357
O O12 0.336937 0.264035 0.883628
O O13 0.258161 0.886447 0.873081
O O14 0.329159 0.077233 0.234378
O O15 0.090703 0.627501 0.209374
O O16 0.783025 0.949869 0.247672
#
# Coordination Sequence:
#
# PCOD9315099 Si02
#       8
#     4   4   4   4   4   4   4   4
#     4  11  27  41  73  98 140 178 235 281 343 413
#     4  10  24  43  64 103 128 177 223 278 339 411
#     4  11  26  45  71 100 142 180 234 283 349 410
#     4  11  25  44  69 104 136 185 233 284 345 414
#     4  10  23  43  69  94 139 172 222 278 346 400
#     4  11  27  48  68 103 139 185 227 289 348 411
#     4  10  23  43  67  97 135 180 221 289 338 411
#     4  10  25  43  67  99 137 179 233 278 348 406
#
# _framework density 23.298158000000001
#
# number of rings (size 3 to 8) (size 9 to 14) (size 15 to 20)
#    0.000    1.500    1.250    0.750   14.000    1.000 
#    2.250    0.000    0.000    0.000    0.000    0.000 
#    0.000    0.000    0.000    0.000    0.000    0.000 
#
# Total GULP energy -178733.362615 kJ/mol
# GULP energy per Si atom -5585.417582 kJ/mol
# Density = 2.324513 g / cm^3
# Si number density = 23.298158 Si / 1000 Ang^3
#
#
#
# Elastic Constant Matrix: (Units=GPa)
#
#
# Indices 1 2 3 4 5 6 
#
# 1 98.0163 2.6608 9.5158 0.0000 0.0000 0.0000
# 2 2.6608 60.0127 -7.5256 0.0000 0.0000 0.0000
# 3 9.5158 -7.5256 60.4877 0.0000 0.0000 0.0000
# 4 0.0000 0.0000 0.0000 29.9348 0.0000 0.0000
# 5 0.0000 0.0000 0.0000 0.0000 26.6109 0.0000
# 6 0.0000 0.0000 0.0000 0.0000 0.0000 15.3822
#
#
#
# Elastic Compliance Matrix: (Units=1/GPa)
#
#
# Indices 1 2 3 4 5 6 
#
# 1 0.010388 -0.000676 -0.001718 0.000000 0.000000 0.000000
# 2 -0.000676 0.016971 0.002218 0.000000 0.000000 0.000000
# 3 -0.001718 0.002218 0.017079 0.000000 0.000000 0.000000
# 4 0.000000 0.000000 0.000000 0.033406 0.000000 0.000000
# 5 0.000000 0.000000 0.000000 0.000000 0.037579 0.000000
# 6 0.000000 0.000000 0.000000 0.000000 0.000000 0.065010
#
#
# Mechanical properties :
#
#
# Convention : Reuss Voigt Hill
#
# Bulk Modulus (GPa) = 22.68374 25.31318 23.99846
# Shear Modulus (GPa) = 25.57811 28.64331 27.11071
#
# Velocity S-wave (km/s) = 3.31699 3.51012 3.41492
# Velocity P-wave (km/s) = 4.94240 5.22651 5.08644
#
# Compressibility (1/GPa) = 0.04408444
#
# Stress axis : x y z
#
# Youngs Moduli (GPa) = 96.26912 58.92322 58.55304
#
# Poissons Ratio (x) = 0.03983 0.10061
# Poissons Ratio (y) = 0.06508 -0.12986
# Poissons Ratio (z) = 0.16541 -0.13068
#
# Static dielectric constant tensor:
#      x y z
#    x 1.837780 0.000000 0.000000 
#    y 0.000000 1.935270 0.000000 
#    z 0.000000 0.000000 1.888810 
# 
# From -- ./inp_files/6322.got.cif
#   From: 2010.05.17/outbox.cif.g08.bks.cpg/sg19_4_cif.got.tgz:6322.got - 2010.06.03 22:46:19.
