data_PCOD9315766
_publ_section_title
;
Structure prediction by ZEFSAII (Michael W. Deem and Ramdas Pophale) SiO2 
 PCOD9315766
Probable space group: P 21 21 21
;
_chemical_formula_sum "Si O2"
_cell_formula_units_Z 32
_cell_length_a 18.586357
_cell_length_b 9.077942
_cell_length_c 9.077954
_cell_angle_alpha 90.000000
_cell_angle_beta 90.000000
_cell_angle_gamma 90.000000
_cell_volume 1531.685694
_symmetry_space_group_name_H-M "P 21 21 21"
_symmetry_group_IT_number 19
_symmetry_cell_setting 'orthorhombic'
loop_
_space_group_symop_operation_xyz
x,y,z
1/2-x,-y,1/2+z
1/2+x,1/2-y,-z
-x,1/2+y,1/2-z
loop_
_atom_site_type_symbol
_atom_site_label
_atom_site_fract_x
_atom_site_fract_y
_atom_site_fract_z
Si Si1 0.074450 0.024976 0.584852
Si Si2 0.824451 0.834852 0.225024
Si Si3 0.234134 0.125484 0.529421
Si Si4 0.928407 0.223100 0.082769
Si Si5 0.029318 0.026960 0.913393
Si Si6 0.178407 0.167231 0.973100
Si Si7 0.484134 0.720579 0.875484
Si Si8 0.720682 0.836607 0.723039
O O1 0.159489 0.064373 0.600571
O O2 0.037661 0.990201 0.741565
O O3 0.038802 0.158986 0.496175
O O4 0.065763 0.886432 0.479166
O O5 0.815764 0.729165 0.363567
O O6 0.909490 0.850572 0.185626
O O7 0.787661 0.991565 0.259799
O O8 0.788802 0.746174 0.091014
O O9 0.281348 0.218651 0.644767
O O10 0.276315 0.985073 0.463989
O O11 0.845953 0.193497 0.116635
O O12 0.973685 0.213989 0.235073
O O13 0.957769 0.113456 0.958663
O O14 0.095953 0.133365 0.943496
O O15 0.031348 0.894767 0.031349
O O16 0.207769 0.291338 0.863457
#
# Coordination Sequence:
#
# PCOD9315766 Si02
#       8
#     4   4   4   4   4   4   4   4
#     4  11  25  43  69 103 138 181 235 296 351 422
#     4  11  25  43  69 103 138 181 235 296 351 422
#     4  11  24  43  69 102 136 184 235 289 353 423
#     4  12  24  44  72 100 141 187 236 288 356 433
#     4  12  24  45  68 101 142 182 235 296 358 423
#     4  12  24  44  72 100 141 187 236 288 356 433
#     4  11  24  43  69 102 136 184 235 289 353 423
#     4  12  24  45  68 101 142 182 235 296 358 423
#
# _framework density 20.892015000000001
#
# number of rings (size 3 to 8) (size 9 to 14) (size 15 to 20)
#    0.000    0.500    5.000    3.750    3.500    0.000 
#    0.000    0.000    0.000    0.000    0.000    0.000 
#    0.000    0.000    0.000    0.000    0.000    0.000 
#
# Total GULP energy -178910.548578 kJ/mol
# GULP energy per Si atom -5590.954643 kJ/mol
# Density = 2.084446 g / cm^3
# Si number density = 20.892015 Si / 1000 Ang^3
#
#
#
# Elastic Constant Matrix: (Units=GPa)
#
#
# Indices 1 2 3 4 5 6 
#
# 1 12.2879 -1.0913 -1.0931 0.0000 0.0000 0.0000
# 2 -1.0913 45.2562 9.3060 0.0000 0.0000 0.0000
# 3 -1.0931 9.3060 45.2565 0.0000 0.0000 0.0000
# 4 0.0000 0.0000 0.0000 25.1590 0.0000 0.0000
# 5 0.0000 0.0000 0.0000 0.0000 24.6754 0.0000
# 6 0.0000 0.0000 0.0000 0.0000 0.0000 24.6747
#
#
#
# Elastic Compliance Matrix: (Units=1/GPa)
#
#
# Indices 1 2 3 4 5 6 
#
# 1 0.081671 0.001633 0.001637 0.000000 0.000000 0.000000
# 2 0.001633 0.023105 -0.004712 0.000000 0.000000 0.000000
# 3 0.001637 -0.004712 0.023105 0.000000 0.000000 0.000000
# 4 0.000000 0.000000 0.000000 0.039747 0.000000 0.000000
# 5 0.000000 0.000000 0.000000 0.000000 0.040526 0.000000
# 6 0.000000 0.000000 0.000000 0.000000 0.000000 0.040527
#
#
# Mechanical properties :
#
#
# Convention : Reuss Voigt Hill
#
# Bulk Modulus (GPa) = 8.00019 13.00487 10.50253
# Shear Modulus (GPa) = 17.05141 21.28041 19.16591
#
# Velocity S-wave (km/s) = 2.85997 3.19500 3.03211
# Velocity P-wave (km/s) = 3.83973 4.45522 4.15888
#
# Compressibility (1/GPa) = 0.12499701
#
# Stress axis : x y z
#
# Youngs Moduli (GPa) = 12.24418 43.28138 43.28139
#
# Poissons Ratio (x) = -0.07067 -0.07085
# Poissons Ratio (y) = -0.01999 0.20392
# Poissons Ratio (z) = -0.02004 0.20392
#
# Static dielectric constant tensor:
#      x y z
#    x 1.732830 0.000000 0.000000 
#    y 0.000000 1.748130 0.000000 
#    z 0.000000 0.000000 1.748130 
# 
# From -- ./inp_files/4194.got.cif
#   From: 2010.05.17/outbox.cif.g08.bks.cpg/sg19_3_cif.got.tgz:4194.got - 2010.06.03 22:46:19.
