data_PCOD9315173
_publ_section_title
;
Structure prediction by ZEFSAII (Michael W. Deem and Ramdas Pophale) SiO2 
 PCOD9315173
Probable space group: P 21 21 21
;
_chemical_formula_sum "Si O2"
_cell_formula_units_Z 32
_cell_length_a 4.923452
_cell_length_b 17.298782
_cell_length_c 14.604908
_cell_angle_alpha 90.000000
_cell_angle_beta 90.000000
_cell_angle_gamma 90.000000
_cell_volume 1243.895966
_symmetry_space_group_name_H-M "P 21 21 21"
_symmetry_group_IT_number 19
_symmetry_cell_setting 'orthorhombic'
loop_
_space_group_symop_operation_xyz
x,y,z
1/2-x,-y,1/2+z
1/2+x,1/2-y,-z
-x,1/2+y,1/2-z
loop_
_atom_site_type_symbol
_atom_site_label
_atom_site_fract_x
_atom_site_fract_y
_atom_site_fract_z
Si Si1 0.157322 0.036060 0.469704
Si Si2 0.724384 0.019666 0.245744
Si Si3 0.708293 0.086368 0.902807
Si Si4 0.118904 0.421233 0.416944
Si Si5 0.843712 0.853696 0.601392
Si Si6 0.671604 0.740348 0.942111
Si Si7 0.815670 0.739522 0.345458
Si Si8 0.117323 0.146321 0.319713
O O1 0.378612 0.023765 0.546754
O O2 0.266998 0.104832 0.404079
O O3 0.875968 0.066943 0.515673
O O4 0.077622 0.958223 0.417548
O O5 0.577318 0.079157 0.175296
O O6 0.982937 0.073179 0.269822
O O7 0.635064 0.977912 0.340538
O O8 0.793771 0.947802 0.182214
O O9 0.693194 0.168863 0.853382
O O10 0.769562 0.108753 0.008249
O O11 0.970518 0.339004 0.413118
O O12 0.613201 0.796338 0.639543
O O13 0.108038 0.801192 0.584223
O O14 0.622695 0.803563 0.864795
O O15 0.982184 0.734385 0.971669
O O16 0.730203 0.705213 0.246315
#
# Coordination Sequence:
#
# PCOD9315173 Si02
#       8
#     4   4   4   4   4   4   4   4
#     4  11  25  41  74 100 142 186 241 286 368 415
#     4  10  25  45  75 105 149 183 244 298 362 431
#     4  11  24  48  75 108 142 194 244 297 362 440
#     4  12  23  46  68 106 139 190 234 303 352 435
#     4  11  25  48  74 102 148 192 240 302 365 428
#     4  12  23  41  70 100 137 185 242 288 356 428
#     4  11  26  46  72 106 148 189 244 299 357 437
#     4  10  23  45  66 109 139 191 229 305 350 430
#
# _framework density 25.725622999999999
#
# number of rings (size 3 to 8) (size 9 to 14) (size 15 to 20)
#    0.000    1.000    3.750    1.500    3.500    6.000 
#    0.000   12.500    0.000    0.000    0.000    0.000 
#    0.000    0.000    0.000    0.000    0.000    0.000 
#
# Total GULP energy -178876.059941 kJ/mol
# GULP energy per Si atom -5589.876873 kJ/mol
# Density = 2.566707 g / cm^3
# Si number density = 25.725623 Si / 1000 Ang^3
#
#
#
# Elastic Constant Matrix: (Units=GPa)
#
#
# Indices 1 2 3 4 5 6 
#
# 1 83.2077 30.7058 12.4712 0.0000 0.0000 0.0000
# 2 30.7058 154.8334 45.5971 0.0000 0.0000 0.0000
# 3 12.4712 45.5971 110.7045 0.0000 0.0000 0.0000
# 4 0.0000 0.0000 0.0000 47.5041 0.0000 0.0000
# 5 0.0000 0.0000 0.0000 0.0000 13.2268 0.0000
# 6 0.0000 0.0000 0.0000 0.0000 0.0000 40.9562
#
#
#
# Elastic Compliance Matrix: (Units=1/GPa)
#
#
# Indices 1 2 3 4 5 6 
#
# 1 0.012987 -0.002441 -0.000458 0.000000 0.000000 0.000000
# 2 -0.002441 0.007809 -0.002941 0.000000 0.000000 0.000000
# 3 -0.000458 -0.002941 0.010296 0.000000 0.000000 0.000000
# 4 0.000000 0.000000 0.000000 0.021051 0.000000 0.000000
# 5 0.000000 0.000000 0.000000 0.000000 0.075604 0.000000
# 6 0.000000 0.000000 0.000000 0.000000 0.000000 0.024416
#
#
# Mechanical properties :
#
#
# Convention : Reuss Voigt Hill
#
# Bulk Modulus (GPa) = 51.51303 58.47710 54.99507
# Shear Modulus (GPa) = 29.35749 37.66885 33.51317
#
# Velocity S-wave (km/s) = 3.38180 3.83071 3.61323
# Velocity P-wave (km/s) = 5.94274 6.50740 6.23147
#
# Compressibility (1/GPa) = 0.01941256
#
# Stress axis : x y z
#
# Youngs Moduli (GPa) = 76.99743 128.06059 97.12407
#
# Poissons Ratio (x) = 0.31257 0.04446
# Poissons Ratio (y) = 0.18794 0.28567
# Poissons Ratio (z) = 0.03525 0.37667
#
# Static dielectric constant tensor:
#      x y z
#    x 1.986700 0.000000 0.000000 
#    y 0.000000 2.021440 0.000000 
#    z 0.000000 0.000000 2.144120 
# 
# From -- ./inp_files/5775.got.cif
#   From: 2010.05.17/outbox.cif.g08.bks.cpg/sg19_3_cif.got.tgz:5775.got - 2010.06.03 22:46:19.
