data_PCOD9315604
_publ_section_title
;
Structure prediction by ZEFSAII (Michael W. Deem and Ramdas Pophale) SiO2 
 PCOD9315604
Probable space group: P 21 21 21
;
_chemical_formula_sum "Si O2"
_cell_formula_units_Z 28
_cell_length_a 8.302376
_cell_length_b 16.168916
_cell_length_c 8.645106
_cell_angle_alpha 90.000000
_cell_angle_beta 90.000000
_cell_angle_gamma 90.000000
_cell_volume 1160.522662
_symmetry_space_group_name_H-M "P 21 21 21"
_symmetry_group_IT_number 19
_symmetry_cell_setting 'orthorhombic'
loop_
_space_group_symop_operation_xyz
x,y,z
1/2-x,-y,1/2+z
1/2+x,1/2-y,-z
-x,1/2+y,1/2-z
loop_
_atom_site_type_symbol
_atom_site_label
_atom_site_fract_x
_atom_site_fract_y
_atom_site_fract_z
Si Si1 0.162464 0.026879 0.984080
Si Si2 0.338032 0.857356 0.025947
Si Si3 0.123520 0.439089 0.099608
Si Si4 0.563645 0.966218 0.204104
Si Si5 0.091751 0.822773 0.510190
Si Si6 0.018952 0.601186 0.250046
Si Si7 0.804406 0.780499 0.719629
O O1 0.310133 0.090391 0.012503
O O2 0.028283 0.079518 0.076299
O O3 0.213652 0.934692 0.036411
O O4 0.089423 0.014182 0.813250
O O5 0.504578 0.889888 0.101465
O O6 0.293345 0.781373 0.134537
O O7 0.385629 0.846437 0.845614
O O8 0.124607 0.466414 0.919868
O O9 0.048523 0.348694 0.110542
O O10 0.291335 0.444526 0.184308
O O11 0.015641 0.509848 0.177359
O O12 0.988500 0.796542 0.661482
O O13 0.209663 0.758703 0.427808
O O14 0.192573 0.642408 0.233644
#
# Coordination Sequence:
#
# PCOD9315604 Si02
#       7
#     4   4   4   4   4   4   4
#     4  12  22  46  78 101 140 198 247 286 354 450
#     4  11  25  45  72 104 146 187 241 300 361 435
#     4  11  24  44  73 107 135 191 240 292 356 430
#     4  11  22  43  72 106 138 175 245 295 339 435
#     4  12  25  44  72 102 139 191 242 295 362 434
#     4  11  25  46  70 107 147 189 239 301 364 429
#     4  12  27  46  67 111 147 185 240 309 374 419
#
# _framework density 24.127061000000001
#
# number of rings (size 3 to 8) (size 9 to 14) (size 15 to 20)
#    0.000    0.571    4.286    5.143    2.000    1.143 
#    7.714    0.000    0.000    0.000    0.000    0.000 
#    0.000    0.000    0.000    0.000    0.000    0.000 
#
# Total GULP energy -156274.618431 kJ/mol
# GULP energy per Si atom -5581.236373 kJ/mol
# Density = 2.407215 g / cm^3
# Si number density = 24.127061 Si / 1000 Ang^3
#
#
#
# Elastic Constant Matrix: (Units=GPa)
#
#
# Indices 1 2 3 4 5 6 
#
# 1 56.8655 -15.2821 5.8550 0.0000 0.0000 0.0000
# 2 -15.2821 28.9306 -17.6242 0.0000 0.0000 0.0000
# 3 5.8550 -17.6242 71.1660 0.0000 0.0000 0.0000
# 4 0.0000 0.0000 0.0000 34.1389 0.0000 0.0000
# 5 0.0000 0.0000 0.0000 0.0000 52.6543 0.0000
# 6 0.0000 0.0000 0.0000 0.0000 0.0000 28.6174
#
#
#
# Elastic Compliance Matrix: (Units=1/GPa)
#
#
# Indices 1 2 3 4 5 6 
#
# 1 0.020578 0.011587 0.001176 0.000000 0.000000 0.000000
# 2 0.011587 0.047231 0.010743 0.000000 0.000000 0.000000
# 3 0.001176 0.010743 0.016615 0.000000 0.000000 0.000000
# 4 0.000000 0.000000 0.000000 0.029292 0.000000 0.000000
# 5 0.000000 0.000000 0.000000 0.000000 0.018992 0.000000
# 6 0.000000 0.000000 0.000000 0.000000 0.000000 0.034944
#
#
# Mechanical properties :
#
#
# Convention : Reuss Voigt Hill
#
# Bulk Modulus (GPa) = 7.60821 11.42884 9.51852
# Shear Modulus (GPa) = 30.40415 35.34968 32.87692
#
# Velocity S-wave (km/s) = 3.55374 3.83188 3.69542
# Velocity P-wave (km/s) = 4.47202 4.93203 4.70765
#
# Compressibility (1/GPa) = 0.13143704
#
# Stress axis : x y z
#
# Youngs Moduli (GPa) = 48.59546 21.17270 60.18499
#
# Poissons Ratio (x) = -0.24532 -0.07080
# Poissons Ratio (y) = -0.56306 -0.64659
# Poissons Ratio (z) = -0.05717 -0.22747
#
# Static dielectric constant tensor:
#      x y z
#    x 1.997570 0.000000 0.000000 
#    y 0.000000 1.963690 0.000000 
#    z 0.000000 0.000000 1.986900 
# 
# From -- ./inp_files/3024.got.cif
#   From: 2010.05.17/outbox.cif.g08.bks.cpg/sg19_2_cif.got.tgz:3024.got - 2010.06.03 22:46:19.
