data_PCOD9316836
_publ_section_title
;
Structure prediction by ZEFSAII (Michael W. Deem and Ramdas Pophale) SiO2 
 PCOD9316836
Probable space group: C 2 2 21
;
_chemical_formula_sum "Si O2"
_cell_formula_units_Z 52
_cell_length_a 26.722632
_cell_length_b 7.273742
_cell_length_c 12.372385
_cell_angle_alpha 90.000000
_cell_angle_beta 90.000000
_cell_angle_gamma 90.000000
_cell_volume 2404.864156
_symmetry_space_group_name_H-M "C 2 2 21"
_symmetry_group_IT_number 20
_symmetry_cell_setting 'orthorhombic'
loop_
_space_group_symop_operation_xyz
x,y,z
-x,-y,1/2+z
x,-y,-z
-x,y,1/2-z
1/2+x,1/2+y,z
1/2-x,1/2-y,1/2+z
1/2+x,1/2-y,-z
1/2-x,1/2+y,1/2-z
loop_
_atom_site_type_symbol
_atom_site_label
_atom_site_fract_x
_atom_site_fract_y
_atom_site_fract_z
Si Si1 0.105838 0.000000 0.000000
Si Si2 0.672166 0.000000 0.500000
Si Si3 0.157812 0.644751 0.901679
Si Si4 0.603760 0.912180 0.310355
Si Si5 0.049374 0.923019 0.201004
Si Si6 0.269137 0.340763 0.086920
Si Si7 0.500000 0.791983 0.250000
Si Si8 0.368678 0.502326 0.869269
O O1 0.137684 0.154460 0.062975
O O2 0.073109 0.883299 0.086100
O O3 0.633606 0.023901 0.400189
O O4 0.709647 0.830545 0.518840
O O5 0.123665 0.553762 0.809393
O O6 0.214849 0.679187 0.860742
O O7 0.157774 0.500000 0.000000
O O8 0.543294 0.904126 0.311287
O O9 0.624545 0.708212 0.336483
O O10 0.000000 0.830555 0.250000
O O11 0.032230 0.139171 0.183743
O O12 0.089141 0.902905 0.296911
O O13 0.315005 0.412274 0.159407
O O14 0.262596 0.500000 0.000000
O O15 0.375645 0.500000 0.000000
#
# Coordination Sequence:
#
# PCOD9316836 Si02
#       8
#     4   4   8   8   8   8   4   8
#     4  12  21  44  70  94 136 178 225 268 334 412
#     4  12  23  42  70 102 128 178 229 268 332 400
#     4  11  25  45  67  94 140 176 216 280 338 394
#     4  11  22  44  66  98 135 172 221 285 325 398
#     4   9  20  34  68 101 121 174 221 265 335 386
#     4  10  22  41  65  98 131 171 223 272 329 394
#     4   8  18  42  62  94 138 162 216 282 330 368
#     4  10  18  39  64  86 132 161 211 271 320 377
#
# _framework density 21.622844000000001
#
# number of rings (size 3 to 8) (size 9 to 14) (size 15 to 20)
#    0.462    1.231    6.154    0.462    1.077    2.462 
#    4.154    0.000    3.385    0.000    0.000    0.000 
#    0.000    0.000    0.000    0.000    0.000    0.000 
#
# Total GULP energy -144771.470794 kJ/mol
# GULP energy per Si atom -5568.133492 kJ/mol
# Density = 2.157363 g / cm^3
# Si number density = 21.622844 Si / 1000 Ang^3
#
#
#
# Elastic Constant Matrix: (Units=GPa)
#
#
# Indices 1 2 3 4 5 6 
#
# 1 151.4792 12.1753 40.6565 0.0000 0.0000 0.0000
# 2 12.1753 52.9926 2.6578 0.0000 0.0000 0.0000
# 3 40.6565 2.6578 87.1782 0.0000 0.0000 0.0000
# 4 0.0000 0.0000 0.0000 27.4189 0.0000 0.0000
# 5 0.0000 0.0000 0.0000 0.0000 28.4325 0.0000
# 6 0.0000 0.0000 0.0000 0.0000 0.0000 -4.3373
#
#
#
# Elastic Compliance Matrix: (Units=1/GPa)
#
#
# Indices 1 2 3 4 5 6 
#
# 1 0.007677 -0.001587 -0.003532 0.000000 0.000000 0.000000
# 2 -0.001587 0.019227 0.000154 0.000000 0.000000 0.000000
# 3 -0.003532 0.000154 0.013113 0.000000 0.000000 0.000000
# 4 0.000000 0.000000 0.000000 0.036471 0.000000 0.000000
# 5 0.000000 0.000000 0.000000 0.000000 0.035171 0.000000
# 6 0.000000 0.000000 0.000000 0.000000 0.000000 -0.230559
#
#
# Mechanical properties :
#
#
# Convention : Reuss Voigt Hill
#
# Bulk Modulus (GPa) = 33.23581 44.73658 38.98620
# Shear Modulus (GPa) = -50.53563 26.04684 -12.24440
#
# Velocity S-wave (km/s) = -4.83964 3.47450 -2.38223
# Velocity P-wave (km/s) = 3.97812 6.06882 3.24077
#
# Compressibility (1/GPa) = 0.03008803
#
# Stress axis : x y z
#
# Youngs Moduli (GPa) = 130.25843 52.00911 76.25894
#
# Poissons Ratio (x) = 0.08252 0.26934
# Poissons Ratio (y) = 0.20668 -0.01173
# Poissons Ratio (z) = 0.46006 -0.00800
#
# Static dielectric constant tensor:
#      x y z
#    x 1.830460 0.000000 0.000000 
#    y 0.000000 1.884690 0.000000 
#    z 0.000000 0.000000 1.765590 
# 
# From -- ./inp_files/17046.got.cif
#   From: 2010.05.17/outbox.cif.g08.bks.cpg/sg20_9_cif.got.tgz:17046.got - 2010.06.03 22:52:26.
