data_PCOD9316153
_publ_section_title
;
Structure prediction by ZEFSAII (Michael W. Deem and Ramdas Pophale) SiO2 
 PCOD9316153
Probable space group: P 21 21 21
;
_chemical_formula_sum "Si O2"
_cell_formula_units_Z 32
_cell_length_a 21.000000
_cell_length_b 6.000000
_cell_length_c 12.000000
_cell_angle_alpha 90.000000
_cell_angle_beta 90.000000
_cell_angle_gamma 90.000000
_cell_volume 1512.000000
_symmetry_space_group_name_H-M "P 21 21 21"
_symmetry_group_IT_number 19
_symmetry_cell_setting 'orthorhombic'
loop_
_space_group_symop_operation_xyz
x,y,z
1/2-x,-y,1/2+z
1/2+x,1/2-y,-z
-x,1/2+y,1/2-z
loop_
_atom_site_type_symbol
_atom_site_label
_atom_site_fract_x
_atom_site_fract_y
_atom_site_fract_z
Si Si1 0.921152 0.688730 0.137849
Si Si2 0.632141 0.845996 0.070345
Si Si3 0.933442 0.031953 0.350188
Si Si4 0.796433 0.801413 0.704953
Si Si5 0.164919 0.892194 0.224140
Si Si6 0.631752 0.423996 0.409633
Si Si7 0.774516 0.521091 0.482149
Si Si8 0.463215 0.152450 0.251739
O O1 0.864151 0.524305 0.173178
O O2 0.991117 0.576188 0.138483
O O3 0.923345 0.869489 0.241284
O O4 0.902819 0.725713 0.006294
O O5 0.579833 0.694106 0.136121
O O6 0.670796 0.971313 0.167550
O O7 0.596432 0.001417 0.976406
O O8 0.689101 0.711300 0.009168
O O9 0.895935 0.257779 0.319706
O O10 0.723898 0.774439 0.750064
O O11 0.842597 0.705848 0.800354
O O12 0.792132 0.667999 0.588228
O O13 0.192315 0.072941 0.136232
O O14 0.699085 0.514258 0.459414
O O15 0.582375 0.604068 0.356315
O O16 0.499352 0.402844 0.238903
#
# Coordination Sequence:
#
# PCOD9316153 Si02
#       8
#     4   4   4   4   4   4   4   4
#     4  12  23  46  68 103 147 193 258 312 394 475
#     4  11  25  47  75 107 150 205 260 327 404 472
#     4  11  25  45  68 100 145 199 247 323 385 473
#     4  11  22  46  72 107 145 193 258 324 394 472
#     4  10  23  42  66 101 133 191 244 305 389 453
#     4  11  25  46  74 113 149 204 260 332 400 479
#     4  10  22  45  71 102 146 189 254 320 390 463
#     4  12  27  53  80 119 161 212 273 335 402 489
#
# _framework density 21.164021000000002
#
# number of rings (size 3 to 8) (size 9 to 14) (size 15 to 20)
#    0.000    1.000    3.750    2.250    1.750    0.000 
#   20.250    0.000    0.000    0.000    0.000    0.000 
#    0.000    0.000    0.000    0.000    0.000    0.000 
#
# Total GULP energy -178145.068886 kJ/mol
# GULP energy per Si atom -5567.033403 kJ/mol
# Density = 2.111585 g / cm^3
# Si number density = 21.164021 Si / 1000 Ang^3
#
#
#
# Elastic Constant Matrix: (Units=GPa)
#
#
# Indices 1 2 3 4 5 6 
#
# 1 137.9986 36.3305 53.0387 0.0000 0.0000 0.0000
# 2 36.3305 48.2267 17.2446 0.0000 0.0000 0.0000
# 3 53.0387 17.2446 118.8916 0.0000 0.0000 0.0000
# 4 0.0000 0.0000 0.0000 39.5948 0.0000 0.0000
# 5 0.0000 0.0000 0.0000 0.0000 51.5679 0.0000
# 6 0.0000 0.0000 0.0000 0.0000 0.0000 29.3172
#
#
#
# Elastic Compliance Matrix: (Units=1/GPa)
#
#
# Indices 1 2 3 4 5 6 
#
# 1 0.010373 -0.006497 -0.003685 0.000000 0.000000 0.000000
# 2 -0.006497 0.025938 -0.000864 0.000000 0.000000 0.000000
# 3 -0.003685 -0.000864 0.010180 0.000000 0.000000 0.000000
# 4 0.000000 0.000000 0.000000 0.025256 0.000000 0.000000
# 5 0.000000 0.000000 0.000000 0.000000 0.019392 0.000000
# 6 0.000000 0.000000 0.000000 0.000000 0.000000 0.034110
#
#
# Mechanical properties :
#
#
# Convention : Reuss Voigt Hill
#
# Bulk Modulus (GPa) = 40.98339 57.59383 49.28861
# Shear Modulus (GPa) = 32.15954 37.32950 34.74452
#
# Velocity S-wave (km/s) = 3.90235 4.20434 4.05616
# Velocity P-wave (km/s) = 6.30168 7.13027 6.72874
#
# Compressibility (1/GPa) = 0.02440013
#
# Stress axis : x y z
#
# Youngs Moduli (GPa) = 96.40202 38.55278 98.22807
#
# Poissons Ratio (x) = 0.25046 0.36200
# Poissons Ratio (y) = 0.62629 0.08487
# Poissons Ratio (z) = 0.35527 0.03331
#
# Static dielectric constant tensor:
#      x y z
#    x 1.764860 0.000000 0.000000 
#    y 0.000000 1.804550 0.000000 
#    z 0.000000 0.000000 1.845360 
# 
# From -- ./inp_files/5494.got.cif
#   From: 2010.05.17/outbox.ucp.g08.bks.cvg/sg19_3_cif.got.tgz:5494.got - 2010.06.11 13:13:52.
