data_PCOD9316051
_publ_section_title
;
Structure prediction by ZEFSAII (Michael W. Deem and Ramdas Pophale) SiO2 
 PCOD9316051
Probable space group: P 21 21 21
;
_chemical_formula_sum "Si O2"
_cell_formula_units_Z 24
_cell_length_a 8.002132
_cell_length_b 14.022882
_cell_length_c 9.031720
_cell_angle_alpha 90.000000
_cell_angle_beta 90.000000
_cell_angle_gamma 90.000000
_cell_volume 1013.475970
_symmetry_space_group_name_H-M "P 21 21 21"
_symmetry_group_IT_number 19
_symmetry_cell_setting 'orthorhombic'
loop_
_space_group_symop_operation_xyz
x,y,z
1/2-x,-y,1/2+z
1/2+x,1/2-y,-z
-x,1/2+y,1/2-z
loop_
_atom_site_type_symbol
_atom_site_label
_atom_site_fract_x
_atom_site_fract_y
_atom_site_fract_z
Si Si1 0.710806 0.458916 0.585740
Si Si2 0.326788 0.877921 0.588193
Si Si3 0.455632 0.171736 0.573876
Si Si4 0.755883 0.840627 0.829395
Si Si5 0.384114 0.546627 0.658915
Si Si6 0.685648 0.800733 0.525756
O O1 0.830409 0.546439 0.544374
O O2 0.706106 0.428996 0.756463
O O3 0.783704 0.374771 0.486126
O O4 0.528491 0.502547 0.553841
O O5 0.503278 0.825536 0.584366
O O6 0.189893 0.797865 0.560007
O O7 0.595440 0.163770 0.447023
O O8 0.403399 0.280372 0.609216
O O9 0.526232 0.109560 0.712362
O O10 0.796593 0.790336 0.674023
O O11 0.710522 0.950390 0.790851
O O12 0.260192 0.616022 0.573949
#
# Coordination Sequence:
#
# PCOD9316051 Si02
#       6
#     4   4   4   4   4   4
#     4  12  25  50  76 112 156 203 256 322 381 465
#     4  12  27  51  77 113 157 204 262 316 395 456
#     4  12  28  47  78 114 155 206 259 321 389 461
#     4  12  26  48  73 112 153 204 256 322 386 463
#     4  12  26  50  76 108 156 201 263 319 382 462
#     4  12  28  50  78 113 153 208 258 324 383 467
#
# _framework density 23.680879000000001
#
# number of rings (size 3 to 8) (size 9 to 14) (size 15 to 20)
#    0.000    0.000    3.333    6.000    7.000    0.000 
#    3.000    0.000    0.000    0.000    0.000    0.000 
#    0.000    0.000    0.000    0.000    0.000    0.000 
#
# Total GULP energy -134359.462620 kJ/mol
# GULP energy per Si atom -5598.310942 kJ/mol
# Density = 2.362698 g / cm^3
# Si number density = 23.680879 Si / 1000 Ang^3
#
#
#
# Elastic Constant Matrix: (Units=GPa)
#
#
# Indices 1 2 3 4 5 6 
#
# 1 50.6221 7.5371 33.2467 0.0000 0.0000 0.0000
# 2 7.5371 127.7587 35.1750 0.0000 0.0000 0.0000
# 3 33.2467 35.1750 70.2025 0.0000 0.0000 0.0000
# 4 0.0000 0.0000 0.0000 35.6467 0.0000 0.0000
# 5 0.0000 0.0000 0.0000 0.0000 39.5980 0.0000
# 6 0.0000 0.0000 0.0000 0.0000 0.0000 37.7462
#
#
#
# Elastic Compliance Matrix: (Units=1/GPa)
#
#
# Indices 1 2 3 4 5 6 
#
# 1 0.029307 0.002427 -0.015095 0.000000 0.000000 0.000000
# 2 0.002427 0.009281 -0.005800 0.000000 0.000000 0.000000
# 3 -0.015095 -0.005800 0.024299 0.000000 0.000000 0.000000
# 4 0.000000 0.000000 0.000000 0.028053 0.000000 0.000000
# 5 0.000000 0.000000 0.000000 0.000000 0.025254 0.000000
# 6 0.000000 0.000000 0.000000 0.000000 0.000000 0.026493
#
#
# Mechanical properties :
#
#
# Convention : Reuss Voigt Hill
#
# Bulk Modulus (GPa) = 38.53359 44.50010 41.51685
# Shear Modulus (GPa) = 26.55717 34.10647 30.33182
#
# Velocity S-wave (km/s) = 3.35245 3.79918 3.58279
# Velocity P-wave (km/s) = 5.59398 6.17069 5.88940
#
# Compressibility (1/GPa) = 0.02595139
#
# Stress axis : x y z
#
# Youngs Moduli (GPa) = 34.12158 107.74878 41.15333
#
# Poissons Ratio (x) = -0.26152 0.62123
# Poissons Ratio (y) = -0.08282 0.23867
# Poissons Ratio (z) = 0.51508 0.62490
#
# Static dielectric constant tensor:
#      x y z
#    x 1.932670 0.000000 0.000000 
#    y 0.000000 1.910440 0.000000 
#    z 0.000000 0.000000 1.891700 
# 
# From -- ./inp_files/2779.got.cif
#   From: 2010.05.17/outbox.cif.g08.bks.cpg/sg19_2_cif.got.tgz:2779.got - 2010.06.03 22:46:19.
