data_PCOD9316547
_publ_section_title
;
Structure prediction by ZEFSAII (Michael W. Deem and Ramdas Pophale) SiO2 
 PCOD9316547
Probable space group: C 2 2 21
;
_chemical_formula_sum "Si O2"
_cell_formula_units_Z 48
_cell_length_a 25.060989
_cell_length_b 8.685625
_cell_length_c 8.470073
_cell_angle_alpha 90.000000
_cell_angle_beta 90.000000
_cell_angle_gamma 90.000000
_cell_volume 1843.683776
_symmetry_space_group_name_H-M "C 2 2 21"
_symmetry_group_IT_number 20
_symmetry_cell_setting 'orthorhombic'
loop_
_space_group_symop_operation_xyz
x,y,z
-x,-y,1/2+z
x,-y,-z
-x,y,1/2-z
1/2+x,1/2+y,z
1/2-x,1/2-y,1/2+z
1/2+x,1/2-y,-z
1/2-x,1/2+y,1/2-z
loop_
_atom_site_type_symbol
_atom_site_label
_atom_site_fract_x
_atom_site_fract_y
_atom_site_fract_z
Si Si1 0.229739 0.734945 0.912087
Si Si2 0.913531 0.799784 0.912550
Si Si3 0.134995 0.462868 0.210324
Si Si4 0.500000 0.488719 0.250000
Si Si5 0.182310 0.006208 0.711563
Si Si6 0.407928 0.278825 0.289407
Si Si7 0.288283 0.000000 0.000000
O O1 0.175888 0.634271 0.900091
O O2 0.277543 0.618076 0.878646
O O3 0.217382 0.877998 0.797090
O O4 0.254683 0.847100 0.046685
O O5 0.904596 0.652818 0.801249
O O6 0.861360 0.902768 0.878429
O O7 0.915208 0.764908 0.098337
O O8 0.962948 0.900920 0.854302
O O9 0.101759 0.608258 0.147185
O O10 0.173373 0.530466 0.350147
O O11 0.459231 0.375410 0.342424
O O12 0.144402 0.116520 0.817884
#
# Coordination Sequence:
#
# PCOD9316547 Si02
#       7
#     8   8   8   4   8   8   4
#     4  11  21  34  58  96 133 165 211 263 314 374
#     4  10  21  37  62  91 116 162 214 270 319 388
#     4  11  21  38  65  96 125 164 224 263 304 386
#     4  10  22  34  58  94 120 156 202 286 338 364
#     4  10  18  32  54  85 128 157 208 263 305 371
#     4  11  20  39  64  91 115 164 217 274 319 381
#     4  12  20  36  64  96 130 178 202 266 310 372
#
# _framework density 26.034834
#
# number of rings (size 3 to 8) (size 9 to 14) (size 15 to 20)
#    0.000    1.333    5.000    2.000    0.000    2.000 
#    0.000    0.000   33.000    0.000    0.000    0.000 
#    0.000    0.000    0.000    0.000    0.000    0.000 
#
# Total GULP energy -134317.317649 kJ/mol
# GULP energy per Si atom -5596.554902 kJ/mol
# Density = 2.597558 g / cm^3
# Si number density = 26.034834 Si / 1000 Ang^3
#
#
#
# Elastic Constant Matrix: (Units=GPa)
#
#
# Indices 1 2 3 4 5 6 
#
# 1 180.3947 93.5251 38.3171 0.0000 0.0000 0.0000
# 2 93.5251 234.4905 42.5803 0.0000 0.0000 0.0000
# 3 38.3171 42.5803 44.1514 0.0000 0.0000 0.0000
# 4 0.0000 0.0000 0.0000 52.8488 0.0000 0.0000
# 5 0.0000 0.0000 0.0000 0.0000 35.3658 0.0000
# 6 0.0000 0.0000 0.0000 0.0000 0.0000 63.4402
#
#
#
# Elastic Compliance Matrix: (Units=1/GPa)
#
#
# Indices 1 2 3 4 5 6 
#
# 1 0.007657 -0.002240 -0.004486 0.000000 0.000000 0.000000
# 2 -0.002240 0.005825 -0.003674 0.000000 0.000000 0.000000
# 3 -0.004486 -0.003674 0.030086 0.000000 0.000000 0.000000
# 4 0.000000 0.000000 0.000000 0.018922 0.000000 0.000000
# 5 0.000000 0.000000 0.000000 0.000000 0.028276 0.000000
# 6 0.000000 0.000000 0.000000 0.000000 0.000000 0.015763
#
#
# Mechanical properties :
#
#
# Convention : Reuss Voigt Hill
#
# Bulk Modulus (GPa) = 43.91866 89.76463 66.84164
# Shear Modulus (GPa) = 37.05996 49.30523 43.18260
#
# Velocity S-wave (km/s) = 3.77699 4.35652 4.07707
# Velocity P-wave (km/s) = 5.99389 7.73688 6.92047
#
# Compressibility (1/GPa) = 0.02276936
#
# Stress axis : x y z
#
# Youngs Moduli (GPa) = 130.59535 171.67531 33.23859
#
# Poissons Ratio (x) = 0.38447 0.14909
# Poissons Ratio (y) = 0.29247 0.12212
# Poissons Ratio (z) = 0.58579 0.63075
#
# Static dielectric constant tensor:
#      x y z
#    x 1.998840 0.000000 0.000000 
#    y 0.000000 2.013520 0.000000 
#    z 0.000000 0.000000 2.268520 
# 
# From -- ./inp_files/16676.got.cif
#   From: 2010.05.17/outbox.cif.g08.bks.cpg/sg20_9_cif.got.tgz:16676.got - 2010.06.03 22:52:26.
