data_PCOD9316634
_publ_section_title
;
Structure prediction by ZEFSAII (Michael W. Deem and Ramdas Pophale) SiO2 
 PCOD9316634
Probable space group: C 2 2 21
;
_chemical_formula_sum "Si O2"
_cell_formula_units_Z 52
_cell_length_a 15.353062
_cell_length_b 8.579679
_cell_length_c 20.608155
_cell_angle_alpha 90.000000
_cell_angle_beta 90.000000
_cell_angle_gamma 90.000000
_cell_volume 2714.595691
_symmetry_space_group_name_H-M "C 2 2 21"
_symmetry_group_IT_number 20
_symmetry_cell_setting 'orthorhombic'
loop_
_space_group_symop_operation_xyz
x,y,z
-x,-y,1/2+z
x,-y,-z
-x,y,1/2-z
1/2+x,1/2+y,z
1/2-x,1/2-y,1/2+z
1/2+x,1/2-y,-z
1/2-x,1/2+y,1/2-z
loop_
_atom_site_type_symbol
_atom_site_label
_atom_site_fract_x
_atom_site_fract_y
_atom_site_fract_z
Si Si1 0.311722 0.231346 0.107650
Si Si2 0.547997 0.194698 0.606933
Si Si3 0.176829 0.536837 0.706898
Si Si4 0.625684 0.482015 0.212127
Si Si5 0.362400 0.161301 0.659729
Si Si6 0.355051 0.000000 0.000000
Si Si7 0.453779 0.546905 0.856293
O O1 0.224928 0.331965 0.117117
O O2 0.301576 0.107045 0.049994
O O3 0.398641 0.332652 0.101497
O O4 0.326062 0.131221 0.173242
O O5 0.611859 0.143693 0.665620
O O6 0.451107 0.133915 0.621547
O O7 0.544459 0.381114 0.607894
O O8 0.587031 0.114974 0.543556
O O9 0.278070 0.586770 0.703275
O O10 0.149071 0.542084 0.781317
O O11 0.629114 0.665378 0.192140
O O12 0.596099 0.471467 0.286916
O O13 0.551580 0.409263 0.165801
#
# Coordination Sequence:
#
# PCOD9316634 Si02
#       7
#     8   8   8   8   8   4   8
#     4  10  22  38  60  85 121 153 198 241 286 358
#     4  10  21  38  62  78 119 158 194 240 287 345
#     4  10  18  34  57  90 122 148 175 240 301 351
#     4   9  18  31  55  88 124 137 183 224 295 367
#     4  10  18  36  60  89 112 154 187 237 303 352
#     4  10  24  46  52  80 114 162 210 242 284 334
#     4  10  18  35  56  87 113 152 184 235 285 347
#
# _framework density 19.155709000000002
#
# number of rings (size 3 to 8) (size 9 to 14) (size 15 to 20)
#    0.000    2.154    3.077    0.462    0.000    0.615 
#   11.077    7.692    0.000    0.000    0.000    0.000 
#    0.000    0.000    0.000    0.000    0.000    0.000 
#
# Total GULP energy -145054.971132 kJ/mol
# GULP energy per Si atom -5579.037351 kJ/mol
# Density = 1.911211 g / cm^3
# Si number density = 19.155709 Si / 1000 Ang^3
#
#
#
# Elastic Constant Matrix: (Units=GPa)
#
#
# Indices 1 2 3 4 5 6 
#
# 1 83.9612 20.0175 14.9222 0.0000 0.0000 0.0000
# 2 20.0175 30.6915 20.5957 0.0000 0.0000 0.0000
# 3 14.9222 20.5957 70.8686 0.0000 0.0000 0.0000
# 4 0.0000 0.0000 0.0000 27.4353 0.0000 0.0000
# 5 0.0000 0.0000 0.0000 0.0000 12.4438 0.0000
# 6 0.0000 0.0000 0.0000 0.0000 0.0000 24.0661
#
#
#
# Elastic Compliance Matrix: (Units=1/GPa)
#
#
# Indices 1 2 3 4 5 6 
#
# 1 0.014111 -0.008956 -0.000368 0.000000 0.000000 0.000000
# 2 -0.008956 0.046160 -0.011529 0.000000 0.000000 0.000000
# 3 -0.000368 -0.011529 0.017539 0.000000 0.000000 0.000000
# 4 0.000000 0.000000 0.000000 0.036449 0.000000 0.000000
# 5 0.000000 0.000000 0.000000 0.000000 0.080362 0.000000
# 6 0.000000 0.000000 0.000000 0.000000 0.000000 0.041552
#
#
# Mechanical properties :
#
#
# Convention : Reuss Voigt Hill
#
# Bulk Modulus (GPa) = 27.69886 32.95466 30.32676
# Shear Modulus (GPa) = 17.24643 21.45477 19.35060
#
# Velocity S-wave (km/s) = 3.00380 3.35030 3.18177
# Velocity P-wave (km/s) = 5.14992 5.67512 5.41888
#
# Compressibility (1/GPa) = 0.03610256
#
# Stress axis : x y z
#
# Youngs Moduli (GPa) = 70.86660 21.66359 57.01646
#
# Poissons Ratio (x) = 0.19402 0.02100
# Poissons Ratio (y) = 0.63470 0.65736
# Poissons Ratio (z) = 0.02611 0.24976
#
# Static dielectric constant tensor:
#      x y z
#    x 1.678800 0.000000 0.000000 
#    y 0.000000 1.684080 0.000000 
#    z 0.000000 0.000000 1.656890 
# 
# From -- ./inp_files/27508.got.cif
#   From: 2010.05.17/outbox.cif.g08.bks.cpg/sg20_14_cif.got.tgz:27508.got - 2010.06.03 22:52:26.
