data_PCOD9316575
_publ_section_title
;
Structure prediction by ZEFSAII (Michael W. Deem and Ramdas Pophale) SiO2 
 PCOD9316575
Probable space group: C 2 2 21
;
_chemical_formula_sum "Si O2"
_cell_formula_units_Z 52
_cell_length_a 8.981353
_cell_length_b 19.590994
_cell_length_c 13.726524
_cell_angle_alpha 90.000000
_cell_angle_beta 90.000000
_cell_angle_gamma 90.000000
_cell_volume 2415.231763
_symmetry_space_group_name_H-M "C 2 2 21"
_symmetry_group_IT_number 20
_symmetry_cell_setting 'orthorhombic'
loop_
_space_group_symop_operation_xyz
x,y,z
-x,-y,1/2+z
x,-y,-z
-x,y,1/2-z
1/2+x,1/2+y,z
1/2-x,1/2-y,1/2+z
1/2+x,1/2-y,-z
1/2-x,1/2+y,1/2-z
loop_
_atom_site_type_symbol
_atom_site_label
_atom_site_fract_x
_atom_site_fract_y
_atom_site_fract_z
Si Si1 0.384390 0.123254 0.124394
Si Si2 0.182563 0.447754 0.925135
Si Si3 0.425457 0.206345 0.948938
Si Si4 0.229637 0.169903 0.551063
Si Si5 0.500000 0.240702 0.250000
Si Si6 0.180233 0.510921 0.730797
Si Si7 0.733359 0.339784 0.215103
O O1 0.557357 0.099877 0.122386
O O2 0.387569 0.190215 0.192730
O O3 0.304060 0.056123 0.163912
O O4 0.347085 0.148279 0.016446
O O5 0.247051 0.490101 0.835702
O O6 0.104686 0.500000 0.000000
O O7 0.284715 0.401041 0.992339
O O8 0.600132 0.195295 0.960772
O O9 0.373305 0.194667 0.838737
O O10 0.374467 0.276705 0.996261
O O11 0.219279 0.162654 0.667503
O O12 0.596423 0.291539 0.182690
O O13 0.253750 0.579930 0.692280
O O14 0.000000 0.523761 0.750000
#
# Coordination Sequence:
#
# PCOD9316575 Si02
#       7
#     8   8   8   8   4   8   8
#     4  10  21  37  61  88 118 162 212 256 309 366
#     4  10  18  32  59  89 118 153 206 256 306 363
#     4  11  24  38  63  92 126 161 210 260 318 376
#     4  11  23  39  62  94 123 162 210 262 317 372
#     4  12  22  44  62  88 126 176 208 260 310 394
#     4  10  20  36  61  91 121 153 207 265 308 364
#     4  12  24  38  62  91 131 157 211 264 322 362
#
# _framework density 21.530024999999998
#
# number of rings (size 3 to 8) (size 9 to 14) (size 15 to 20)
#    0.000    1.231    5.385    3.231    6.462    0.000 
#    0.000    0.000    3.385    1.846    0.000    0.000 
#    0.000    0.000    0.000    0.000    0.000    0.000 
#
# Total GULP energy -144936.068560 kJ/mol
# GULP energy per Si atom -5574.464175 kJ/mol
# Density = 2.148102 g / cm^3
# Si number density = 21.530025 Si / 1000 Ang^3
#
#
#
# Elastic Constant Matrix: (Units=GPa)
#
#
# Indices 1 2 3 4 5 6 
#
# 1 28.1790 21.3422 1.8679 0.0000 0.0000 0.0000
# 2 21.3422 137.2324 31.1836 0.0000 0.0000 0.0000
# 3 1.8679 31.1836 91.3419 0.0000 0.0000 0.0000
# 4 0.0000 0.0000 0.0000 35.3207 0.0000 0.0000
# 5 0.0000 0.0000 0.0000 0.0000 17.7935 0.0000
# 6 0.0000 0.0000 0.0000 0.0000 0.0000 26.3399
#
#
#
# Elastic Compliance Matrix: (Units=1/GPa)
#
#
# Indices 1 2 3 4 5 6 
#
# 1 0.040397 -0.006607 0.001430 0.000000 0.000000 0.000000
# 2 -0.006607 0.008980 -0.002931 0.000000 0.000000 0.000000
# 3 0.001430 -0.002931 0.011919 0.000000 0.000000 0.000000
# 4 0.000000 0.000000 0.000000 0.028312 0.000000 0.000000
# 5 0.000000 0.000000 0.000000 0.000000 0.056200 0.000000
# 6 0.000000 0.000000 0.000000 0.000000 0.000000 0.037965
#
#
# Mechanical properties :
#
#
# Convention : Reuss Voigt Hill
#
# Bulk Modulus (GPa) = 22.18297 40.61562 31.39930
# Shear Modulus (GPa) = 23.25394 29.38148 26.31771
#
# Velocity S-wave (km/s) = 3.29001 3.69816 3.50004
# Velocity P-wave (km/s) = 4.97572 6.09432 5.56321
#
# Compressibility (1/GPa) = 0.04507962
#
# Stress axis : x y z
#
# Youngs Moduli (GPa) = 24.75435 111.35317 83.89838
#
# Poissons Ratio (x) = 0.73575 -0.11994
# Poissons Ratio (y) = 0.16356 0.24589
# Poissons Ratio (z) = -0.03539 0.32635
#
# Static dielectric constant tensor:
#      x y z
#    x 1.810770 0.000000 0.000000 
#    y 0.000000 1.839230 0.000000 
#    z 0.000000 0.000000 1.838180 
# 
# From -- ./inp_files/20194.got.cif
#   From: 2010.05.17/outbox.cif.g08.bks.cpg/sg20_11_cif.got.tgz:20194.got - 2010.06.03 22:52:26.
