data_PCOD9316771
_publ_section_title
;
Structure prediction by ZEFSAII (Michael W. Deem and Ramdas Pophale) SiO2 
 PCOD9316771
Probable space group: C 2 2 21
;
_chemical_formula_sum "Si O2"
_cell_formula_units_Z 48
_cell_length_a 20.312926
_cell_length_b 12.437961
_cell_length_c 7.622822
_cell_angle_alpha 90.000000
_cell_angle_beta 90.000000
_cell_angle_gamma 90.000000
_cell_volume 1925.916508
_symmetry_space_group_name_H-M "C 2 2 21"
_symmetry_group_IT_number 20
_symmetry_cell_setting 'orthorhombic'
loop_
_space_group_symop_operation_xyz
x,y,z
-x,-y,1/2+z
x,-y,-z
-x,y,1/2-z
1/2+x,1/2+y,z
1/2-x,1/2-y,1/2+z
1/2+x,1/2-y,-z
1/2-x,1/2+y,1/2-z
loop_
_atom_site_type_symbol
_atom_site_label
_atom_site_fract_x
_atom_site_fract_y
_atom_site_fract_z
Si Si1 0.297914 0.045521 0.698827
Si Si2 0.978371 0.373062 0.518580
Si Si3 0.163781 0.153228 0.758136
Si Si4 0.925218 0.974932 0.708084
Si Si5 0.384793 0.861142 0.859423
Si Si6 0.871060 0.237393 0.356353
O O1 0.222643 0.068304 0.746564
O O2 0.328240 0.164549 0.712233
O O3 0.302552 0.000000 0.500000
O O4 0.339285 0.962955 0.817110
O O5 0.963906 0.500000 0.500000
O O6 0.936569 0.348025 0.696257
O O7 0.942116 0.290706 0.391819
O O8 0.057449 0.366510 0.497621
O O9 0.162799 0.258435 0.636600
O O10 0.099379 0.084903 0.706882
O O11 0.159283 0.199391 0.956018
O O12 0.881219 0.871345 0.750947
O O13 0.000000 0.952646 0.750000
O O14 0.919134 0.000000 0.500000
#
# Coordination Sequence:
#
# PCOD9316771 Si02
#       6
#     8   8   8   8   8   8
#     4  12  22  43  65  87 123 170 219 259 328 392
#     4  10  18  37  63  92 122 156 210 260 327 367
#     4  10  24  40  62  87 127 169 209 267 319 388
#     4  10  24  42  65  94 129 172 216 264 329 397
#     4  10  21  38  64  90 120 164 208 266 321 375
#     4  10  21  42  64  90 126 168 208 272 325 382
#
# _framework density 24.923197999999999
#
# number of rings (size 3 to 8) (size 9 to 14) (size 15 to 20)
#    0.000    1.667    5.000    0.000    9.333    2.000 
#    3.000    0.000    0.000    0.000    0.000    0.000 
#    0.000    0.000    0.000    0.000    0.000    0.000 
#
# Total GULP energy -134119.668729 kJ/mol
# GULP energy per Si atom -5588.319530 kJ/mol
# Density = 2.486647 g / cm^3
# Si number density = 24.923198 Si / 1000 Ang^3
#
#
#
# Elastic Constant Matrix: (Units=GPa)
#
#
# Indices 1 2 3 4 5 6 
#
# 1 110.3580 31.3484 7.4378 0.0000 0.0000 0.0000
# 2 31.3484 155.9325 16.2197 0.0000 0.0000 0.0000
# 3 7.4378 16.2197 60.4522 0.0000 0.0000 0.0000
# 4 0.0000 0.0000 0.0000 8.7964 0.0000 0.0000
# 5 0.0000 0.0000 0.0000 0.0000 19.5046 0.0000
# 6 0.0000 0.0000 0.0000 0.0000 0.0000 -54.5662
#
#
#
# Elastic Compliance Matrix: (Units=1/GPa)
#
#
# Indices 1 2 3 4 5 6 
#
# 1 0.009638 -0.001866 -0.000685 0.000000 0.000000 0.000000
# 2 -0.001866 0.006959 -0.001637 0.000000 0.000000 0.000000
# 3 -0.000685 -0.001637 0.017066 0.000000 0.000000 0.000000
# 4 0.000000 0.000000 0.000000 0.113683 0.000000 0.000000
# 5 0.000000 0.000000 0.000000 0.000000 0.051270 0.000000
# 6 0.000000 0.000000 0.000000 0.000000 0.000000 -0.018326
#
#
# Mechanical properties :
#
#
# Convention : Reuss Voigt Hill
#
# Bulk Modulus (GPa) = 39.55011 48.52828 44.03919
# Shear Modulus (GPa) = 25.36864 12.86277 19.11570
#
# Velocity S-wave (km/s) = 3.19387 2.27424 2.77245
# Velocity P-wave (km/s) = 5.43179 5.13903 5.28744
#
# Compressibility (1/GPa) = 0.02528438
#
# Stress axis : x y z
#
# Youngs Moduli (GPa) = 103.75892 143.70824 58.59745
#
# Poissons Ratio (x) = 0.26820 0.04014
# Poissons Ratio (y) = 0.19364 0.09595
# Poissons Ratio (z) = 0.07108 0.23531
#
# Static dielectric constant tensor:
#      x y z
#    x 1.979280 0.000000 0.000000 
#    y 0.000000 1.955270 0.000000 
#    z 0.000000 0.000000 2.250620 
# 
# From -- ./inp_files/15700.got.cif
#   From: 2010.05.17/outbox.cif.g08.bks.cpg/sg20_8_cif.got.tgz:15700.got - 2010.06.03 22:52:26.
