data_PCOD9316215
_publ_section_title
;
Structure prediction by ZEFSAII (Michael W. Deem and Ramdas Pophale) SiO2 
 PCOD9316215
Probable space group: C 2 2 21
;
_chemical_formula_sum "Si O2"
_cell_formula_units_Z 40
_cell_length_a 23.193937
_cell_length_b 7.164529
_cell_length_c 11.090351
_cell_angle_alpha 90.000000
_cell_angle_beta 90.000000
_cell_angle_gamma 90.000000
_cell_volume 1842.923931
_symmetry_space_group_name_H-M "C 2 2 21"
_symmetry_group_IT_number 20
_symmetry_cell_setting 'orthorhombic'
loop_
_space_group_symop_operation_xyz
x,y,z
-x,-y,1/2+z
x,-y,-z
-x,y,1/2-z
1/2+x,1/2+y,z
1/2-x,1/2-y,1/2+z
1/2+x,1/2-y,-z
1/2-x,1/2+y,1/2-z
loop_
_atom_site_type_symbol
_atom_site_label
_atom_site_fract_x
_atom_site_fract_y
_atom_site_fract_z
Si Si1 0.992267 0.761310 0.614091
Si Si2 0.464315 0.690154 0.862153
Si Si3 0.840787 0.222517 0.746648
Si Si4 0.367587 0.272476 0.517546
Si Si5 0.235498 0.905227 0.871098
O O1 0.007860 0.017038 0.375096
O O2 0.000000 0.688433 0.750000
O O3 0.027074 0.711352 0.491595
O O4 0.926212 0.722069 0.581195
O O5 0.500000 0.774880 0.750000
O O6 0.602370 0.678195 0.676360
O O7 0.861295 0.301915 0.617422
O O8 0.802346 0.040651 0.713457
O O9 0.795356 0.352438 0.812818
O O10 0.371996 0.500000 0.500000
O O11 0.309555 0.241270 0.593666
O O12 0.247852 0.000000 0.000000
#
# Coordination Sequence:
#
# PCOD9316215 Si02
#       5
#     8   8   8   8   8
#     4  10  16  27  46  83 117 135 179 255 301 319
#     4  10  16  28  52  84 106 144 193 244 294 336
#     4  10  19  36  58  82 115 155 193 237 295 356
#     4   9  15  32  52  73 119 143 181 239 297 325
#     4   9  20  37  55  83 118 157 190 240 292 351
#
# _framework density 21.704639
#
# number of rings (size 3 to 8) (size 9 to 14) (size 15 to 20)
#    0.000    2.800    4.000    3.600    0.000    0.000 
#   21.600    0.000    0.000    0.000    5.200    0.000 
#    0.000    0.000    0.000    0.000    0.000    0.000 
#
# Total GULP energy -111471.302124 kJ/mol
# GULP energy per Si atom -5573.565106 kJ/mol
# Density = 2.165524 g / cm^3
# Si number density = 21.704639 Si / 1000 Ang^3
#
#
#
# Elastic Constant Matrix: (Units=GPa)
#
#
# Indices 1 2 3 4 5 6 
#
# 1 186.6048 22.2067 105.8053 0.0000 0.0000 0.0000
# 2 22.2067 57.9747 26.2819 0.0000 0.0000 0.0000
# 3 105.8053 26.2819 208.4936 0.0000 0.0000 0.0000
# 4 0.0000 0.0000 0.0000 -6.1458 0.0000 0.0000
# 5 0.0000 0.0000 0.0000 0.0000 50.1058 0.0000
# 6 0.0000 0.0000 0.0000 0.0000 0.0000 11.6054
#
#
#
# Elastic Compliance Matrix: (Units=1/GPa)
#
#
# Indices 1 2 3 4 5 6 
#
# 1 0.007606 -0.001234 -0.003704 0.000000 0.000000 0.000000
# 2 -0.001234 0.018495 -0.001705 0.000000 0.000000 0.000000
# 3 -0.003704 -0.001705 0.006891 0.000000 0.000000 0.000000
# 4 0.000000 0.000000 0.000000 -0.162714 0.000000 0.000000
# 5 0.000000 0.000000 0.000000 0.000000 0.019958 0.000000
# 6 0.000000 0.000000 0.000000 0.000000 0.000000 0.086167
#
#
# Mechanical properties :
#
#
# Convention : Reuss Voigt Hill
#
# Bulk Modulus (GPa) = 50.74926 84.62899 67.68913
# Shear Modulus (GPa) = -1336.15819 31.03170 -652.56325
#
# Velocity S-wave (km/s) = -24.83840 3.78527 -17.35825
# Velocity P-wave (km/s) = 28.26945 7.62760 19.24814
#
# Compressibility (1/GPa) = 0.01970472
#
# Stress axis : x y z
#
# Youngs Moduli (GPa) = 131.47217 54.06984 145.11438
#
# Poissons Ratio (x) = 0.06673 0.53756
# Poissons Ratio (y) = 0.16226 0.24743
# Poissons Ratio (z) = 0.48702 0.09219
#
# Static dielectric constant tensor:
#      x y z
#    x 1.766200 0.000000 0.000000 
#    y 0.000000 1.889250 0.000000 
#    z 0.000000 0.000000 1.850670 
# 
# From -- ./inp_files/9970.got.cif
#   From: 2010.05.17/outbox.cif.g08.bks.cpg/sg20_5_cif.got.tgz:9970.got - 2010.06.03 22:52:26.
