data_PCOD9316415
_publ_section_title
;
Structure prediction by ZEFSAII (Michael W. Deem and Ramdas Pophale) SiO2 
 PCOD9316415
Probable space group: C 2 2 21
;
_chemical_formula_sum "Si O2"
_cell_formula_units_Z 44
_cell_length_a 21.458699
_cell_length_b 22.304207
_cell_length_c 5.459851
_cell_angle_alpha 90.000000
_cell_angle_beta 90.000000
_cell_angle_gamma 90.000000
_cell_volume 2613.189870
_symmetry_space_group_name_H-M "C 2 2 21"
_symmetry_group_IT_number 20
_symmetry_cell_setting 'orthorhombic'
loop_
_space_group_symop_operation_xyz
x,y,z
-x,-y,1/2+z
x,-y,-z
-x,y,1/2-z
1/2+x,1/2+y,z
1/2-x,1/2-y,1/2+z
1/2+x,1/2-y,-z
1/2-x,1/2+y,1/2-z
loop_
_atom_site_type_symbol
_atom_site_label
_atom_site_fract_x
_atom_site_fract_y
_atom_site_fract_z
Si Si1 0.415208 0.145542 0.381538
Si Si2 0.690053 0.936011 0.421916
Si Si3 0.897935 0.681633 0.885054
Si Si4 0.500000 0.036326 0.250000
Si Si5 0.271157 0.108046 0.417893
Si Si6 0.216000 0.769554 0.598267
O O1 0.435214 0.174290 0.636059
O O2 0.444356 0.080210 0.337804
O O3 0.339673 0.140392 0.403232
O O4 0.431859 0.183609 0.143443
O O5 0.639947 0.882225 0.405618
O O6 0.734814 0.921566 0.651748
O O7 0.662246 0.000000 0.500000
O O8 0.722868 0.933952 0.156531
O O9 0.849377 0.735983 0.872065
O O10 0.515106 0.000000 0.500000
O O11 0.220061 0.159575 0.450708
O O12 0.248332 0.741150 0.356362
#
# Coordination Sequence:
#
# PCOD9316415 Si02
#       6
#     8   8   8   4   8   8
#     4  10  20  33  46  62  83 108 152 198 248 287
#     4  10  18  27  38  58  86 113 141 170 214 269
#     4  10  19  31  49  69  86 111 143 198 250 292
#     4  12  26  40  50  62  84 128 178 224 252 276
#     4  10  19  30  45  66  83 111 142 191 242 284
#     4  12  16  30  49  70  91 104 136 188 251 301
#
# _framework density 16.837658000000001
#
# number of rings (size 3 to 8) (size 9 to 14) (size 15 to 20)
#    0.000    1.455    7.273    1.636    0.000    8.727 
#    0.000    0.000    0.000    0.000    0.000    0.000 
#    0.000    0.000    0.000    0.000    0.000    0.000 
#
# Total GULP energy -122543.569750 kJ/mol
# GULP energy per Si atom -5570.162261 kJ/mol
# Density = 1.679933 g / cm^3
# Si number density = 16.837658 Si / 1000 Ang^3
#
#
#
# Elastic Constant Matrix: (Units=GPa)
#
#
# Indices 1 2 3 4 5 6 
#
# 1 44.3327 35.2072 29.3107 0.0000 0.0000 0.0000
# 2 35.2072 53.3764 19.7628 0.0000 0.0000 0.0000
# 3 29.3107 19.7628 193.3469 0.0000 0.0000 0.0000
# 4 0.0000 0.0000 0.0000 29.5619 0.0000 0.0000
# 5 0.0000 0.0000 0.0000 0.0000 17.2894 0.0000
# 6 0.0000 0.0000 0.0000 0.0000 0.0000 15.2753
#
#
#
# Elastic Compliance Matrix: (Units=1/GPa)
#
#
# Indices 1 2 3 4 5 6 
#
# 1 0.050797 -0.031860 -0.004444 0.000000 0.000000 0.000000
# 2 -0.031860 0.039455 0.000797 0.000000 0.000000 0.000000
# 3 -0.004444 0.000797 0.005764 0.000000 0.000000 0.000000
# 4 0.000000 0.000000 0.000000 0.033827 0.000000 0.000000
# 5 0.000000 0.000000 0.000000 0.000000 0.057839 0.000000
# 6 0.000000 0.000000 0.000000 0.000000 0.000000 0.065465
#
#
# Mechanical properties :
#
#
# Convention : Reuss Voigt Hill
#
# Bulk Modulus (GPa) = 39.99762 51.06861 45.53312
# Shear Modulus (GPa) = 15.03776 26.21035 20.62405
#
# Velocity S-wave (km/s) = 2.99172 3.94972 3.50362
# Velocity P-wave (km/s) = 5.97832 7.15515 6.59305
#
# Compressibility (1/GPa) = 0.02500149
#
# Stress axis : x y z
#
# Youngs Moduli (GPa) = 19.68614 25.34538 173.48203
#
# Poissons Ratio (x) = 0.80751 0.77097
# Poissons Ratio (y) = 0.62721 -0.13828
# Poissons Ratio (z) = 0.08749 -0.02020
#
# Static dielectric constant tensor:
#      x y z
#    x 1.574320 0.000000 0.000000 
#    y 0.000000 1.607510 0.000000 
#    z 0.000000 0.000000 1.700790 
# 
# From -- ./inp_files/2680.got.cif
#   From: 2010.05.17/outbox.cif.g08.bks.cpg/sg20_2_cif.got.tgz:2680.got - 2010.06.03 22:52:26.
