data_PCOD9316715
_publ_section_title
;
Structure prediction by ZEFSAII (Michael W. Deem and Ramdas Pophale) SiO2 
 PCOD9316715
Probable space group: C 2 2 21
;
_chemical_formula_sum "Si O2"
_cell_formula_units_Z 56
_cell_length_a 8.792961
_cell_length_b 17.996274
_cell_length_c 18.386320
_cell_angle_alpha 90.000000
_cell_angle_beta 90.000000
_cell_angle_gamma 90.000000
_cell_volume 2909.461121
_symmetry_space_group_name_H-M "C 2 2 21"
_symmetry_group_IT_number 20
_symmetry_cell_setting 'orthorhombic'
loop_
_space_group_symop_operation_xyz
x,y,z
-x,-y,1/2+z
x,-y,-z
-x,y,1/2-z
1/2+x,1/2+y,z
1/2-x,1/2-y,1/2+z
1/2+x,1/2-y,-z
1/2-x,1/2+y,1/2-z
loop_
_atom_site_type_symbol
_atom_site_label
_atom_site_fract_x
_atom_site_fract_y
_atom_site_fract_z
Si Si1 0.407548 0.705530 0.048826
Si Si2 0.433868 0.912729 0.925207
Si Si3 0.008390 0.423565 0.400680
Si Si4 0.538230 0.772030 0.671555
Si Si5 0.205584 0.830120 0.113755
Si Si6 0.293950 0.795770 0.405773
Si Si7 0.403609 0.418457 0.529317
O O1 0.290238 0.752868 0.095446
O O2 0.563991 0.751114 0.060343
O O3 0.455373 0.621744 0.067668
O O4 0.332951 0.702481 0.968970
O O5 0.486373 0.837105 0.887753
O O6 0.249914 0.919019 0.923260
O O7 0.498876 0.988271 0.890733
O O8 0.470897 0.912391 0.011458
O O9 0.860538 0.375238 0.382679
O O10 0.158572 0.386588 0.364058
O O11 0.500000 0.803670 0.750000
O O12 0.433553 0.698506 0.661933
O O13 0.712143 0.746417 0.659945
O O14 0.137911 0.868125 0.041126
O O15 0.436558 0.500000 0.500000
#
# Coordination Sequence:
#
# PCOD9316715 Si02
#       7
#     8   8   8   8   8   8   8
#     4  11  18  32  60  87 115 144 177 245 291 339
#     4  10  18  36  57  89 115 141 184 228 306 344
#     4   9  19  35  65  88 112 138 178 259 296 345
#     4  12  24  39  56  76 115 165 202 231 272 346
#     4  10  19  36  54  81 114 147 188 228 281 335
#     4  11  19  33  57  86 109 146 193 231 291 330
#     4  11  18  31  57  90 115 141 168 234 306 340
#
# _framework density 19.24755
#
# number of rings (size 3 to 8) (size 9 to 14) (size 15 to 20)
#    0.000    1.429    7.143    2.571    0.000    0.000 
#    5.143    4.286    0.000    0.000    0.000    0.000 
#    0.000    0.000    0.000    0.000    0.000    0.000 
#
# Total GULP energy -156000.430817 kJ/mol
# GULP energy per Si atom -5571.443958 kJ/mol
# Density = 1.920374 g / cm^3
# Si number density = 19.247550 Si / 1000 Ang^3
#
#
#
# Elastic Constant Matrix: (Units=GPa)
#
#
# Indices 1 2 3 4 5 6 
#
# 1 66.4360 35.5413 4.6781 0.0000 0.0000 0.0000
# 2 35.5413 120.5437 4.5542 0.0000 0.0000 0.0000
# 3 4.6781 4.5542 11.0887 0.0000 0.0000 0.0000
# 4 0.0000 0.0000 0.0000 9.5588 0.0000 0.0000
# 5 0.0000 0.0000 0.0000 0.0000 6.9692 0.0000
# 6 0.0000 0.0000 0.0000 0.0000 0.0000 32.2138
#
#
#
# Elastic Compliance Matrix: (Units=1/GPa)
#
#
# Indices 1 2 3 4 5 6 
#
# 1 0.018202 -0.005157 -0.005561 0.000000 0.000000 0.000000
# 2 -0.005157 0.009887 -0.001885 0.000000 0.000000 0.000000
# 3 -0.005561 -0.001885 0.093302 0.000000 0.000000 0.000000
# 4 0.000000 0.000000 0.000000 0.104616 0.000000 0.000000
# 5 0.000000 0.000000 0.000000 0.000000 0.143488 0.000000
# 6 0.000000 0.000000 0.000000 0.000000 0.000000 0.031043
#
#
# Mechanical properties :
#
#
# Convention : Reuss Voigt Hill
#
# Bulk Modulus (GPa) = 10.39657 31.95729 21.17693
# Shear Modulus (GPa) = 10.92163 19.96801 15.44482
#
# Velocity S-wave (km/s) = 2.38466 3.22441 2.83579
# Velocity P-wave (km/s) = 3.60491 5.52284 4.66354
#
# Compressibility (1/GPa) = 0.09618553
#
# Stress axis : x y z
#
# Youngs Moduli (GPa) = 54.93787 101.13889 10.71783
#
# Poissons Ratio (x) = 0.52154 0.05961
# Poissons Ratio (y) = 0.28330 0.02021
# Poissons Ratio (z) = 0.30553 0.19068
#
# Static dielectric constant tensor:
#      x y z
#    x 1.728170 0.000000 0.000000 
#    y 0.000000 1.713940 0.000000 
#    z 0.000000 0.000000 1.694770 
# 
# From -- ./inp_files/26838.got.cif
#   From: 2010.05.17/outbox.cif.g08.bks.cpg/sg20_14_cif.got.tgz:26838.got - 2010.06.03 22:52:26.
