data_PCOD9316440
_publ_section_title
;
Structure prediction by ZEFSAII (Michael W. Deem and Ramdas Pophale) SiO2 
 PCOD9316440
Probable space group: C 2 2 21
;
_chemical_formula_sum "Si O2"
_cell_formula_units_Z 52
_cell_length_a 18.754073
_cell_length_b 14.179964
_cell_length_c 7.050927
_cell_angle_alpha 90.000000
_cell_angle_beta 90.000000
_cell_angle_gamma 90.000000
_cell_volume 1875.067683
_symmetry_space_group_name_H-M "C 2 2 21"
_symmetry_group_IT_number 20
_symmetry_cell_setting 'orthorhombic'
loop_
_space_group_symop_operation_xyz
x,y,z
-x,-y,1/2+z
x,-y,-z
-x,y,1/2-z
1/2+x,1/2+y,z
1/2-x,1/2-y,1/2+z
1/2+x,1/2-y,-z
1/2-x,1/2+y,1/2-z
loop_
_atom_site_type_symbol
_atom_site_label
_atom_site_fract_x
_atom_site_fract_y
_atom_site_fract_z
Si Si1 0.765090 0.669161 0.263527
Si Si2 0.230913 0.613838 0.676559
Si Si3 0.500000 0.471181 0.750000
Si Si4 0.415808 0.180897 0.219989
Si Si5 0.112251 0.168448 0.288570
Si Si6 0.882015 0.882294 0.340812
Si Si7 0.421730 0.892067 0.169837
O O1 0.745641 0.780678 0.245112
O O2 0.845024 0.654802 0.345619
O O3 0.691189 0.638893 0.359240
O O4 0.773160 0.629385 0.051155
O O5 0.307084 0.566886 0.704492
O O6 0.155537 0.572577 0.743124
O O7 0.449718 0.398941 0.864847
O O8 0.557287 0.542289 0.829902
O O9 0.500000 0.187480 0.250000
O O10 0.396195 0.292527 0.204606
O O11 0.419045 0.101369 0.056836
O O12 0.088643 0.277166 0.313599
O O13 0.117228 0.155365 0.058364
O O14 0.500000 0.917403 0.250000
#
# Coordination Sequence:
#
# PCOD9316440 Si02
#       7
#     8   8   4   8   8   8   8
#     4   8  16  30  46  64  88 122 157 195 238 282
#     4   8  16  30  46  64  88 122 157 195 238 282
#     4  12  22  28  48  74 100 128 164 186 232 284
#     4  10  18  29  48  71  94 120 157 199 244 288
#     4  10  20  33  46  64  96 130 162 195 232 281
#     4  10  20  33  46  64  96 130 162 195 232 281
#     4  10  18  29  48  71  94 120 157 199 244 288
#
# _framework density 27.732330999999999
#
# number of rings (size 3 to 8) (size 9 to 14) (size 15 to 20)
#    0.000    2.462    1.538    1.385    0.000    2.462 
#    0.000    0.000    0.000    0.000    0.000    1.077 
#    0.000    0.000    0.000    0.000    0.000    0.000 
#
# Total GULP energy -144930.407434 kJ/mol
# GULP energy per Si atom -5574.246440 kJ/mol
# Density = 2.766921 g / cm^3
# Si number density = 27.732331 Si / 1000 Ang^3
#
#
#
# Elastic Constant Matrix: (Units=GPa)
#
#
# Indices 1 2 3 4 5 6 
#
# 1 375.1691 19.9849 17.0572 0.0000 0.0000 0.0000
# 2 19.9849 85.9369 2.3555 0.0000 0.0000 0.0000
# 3 17.0572 2.3555 60.9339 0.0000 0.0000 0.0000
# 4 0.0000 0.0000 0.0000 -41.6538 0.0000 0.0000
# 5 0.0000 0.0000 0.0000 0.0000 25.7553 0.0000
# 6 0.0000 0.0000 0.0000 0.0000 0.0000 -42.9139
#
#
#
# Elastic Compliance Matrix: (Units=1/GPa)
#
#
# Indices 1 2 3 4 5 6 
#
# 1 0.002732 -0.000615 -0.000741 0.000000 0.000000 0.000000
# 2 -0.000615 0.011787 -0.000284 0.000000 0.000000 0.000000
# 3 -0.000741 -0.000284 0.016630 0.000000 0.000000 0.000000
# 4 0.000000 0.000000 0.000000 -0.024007 0.000000 0.000000
# 5 0.000000 0.000000 0.000000 0.000000 0.038827 0.000000
# 6 0.000000 0.000000 0.000000 0.000000 0.000000 -0.023302
#
#
# Mechanical properties :
#
#
# Convention : Reuss Voigt Hill
#
# Bulk Modulus (GPa) = 35.88114 66.75947 51.32031
# Shear Modulus (GPa) = 141.90517 20.41366 81.15942
#
# Velocity S-wave (km/s) = 7.16105 2.71605 5.41561
# Velocity P-wave (km/s) = 9.01891 5.82760 7.59281
#
# Compressibility (1/GPa) = 0.02786979
#
# Stress axis : x y z
#
# Youngs Moduli (GPa) = 366.04376 84.83752 60.13375
#
# Poissons Ratio (x) = 0.05218 0.04456
# Poissons Ratio (y) = 0.22512 0.01705
# Poissons Ratio (z) = 0.27123 0.02405
#
# Static dielectric constant tensor:
#      x y z
#    x 2.213170 0.000000 0.000000 
#    y 0.000000 2.146920 0.000000 
#    z 0.000000 0.000000 2.547360 
# 
# From -- ./inp_files/9529.got.cif
#   From: 2010.05.17/outbox.cif.g08.bks.cpg/sg20_5_cif.got.tgz:9529.got - 2010.06.03 22:52:26.
