data_PCOD9316606
_publ_section_title
;
Structure prediction by ZEFSAII (Michael W. Deem and Ramdas Pophale) SiO2 
 PCOD9316606
Probable space group: C 2 2 21
;
_chemical_formula_sum "Si O2"
_cell_formula_units_Z 44
_cell_length_a 25.176333
_cell_length_b 11.757956
_cell_length_c 7.789566
_cell_angle_alpha 90.000000
_cell_angle_beta 90.000000
_cell_angle_gamma 90.000000
_cell_volume 2305.884586
_symmetry_space_group_name_H-M "C 2 2 21"
_symmetry_group_IT_number 20
_symmetry_cell_setting 'orthorhombic'
loop_
_space_group_symop_operation_xyz
x,y,z
-x,-y,1/2+z
x,-y,-z
-x,y,1/2-z
1/2+x,1/2+y,z
1/2-x,1/2-y,1/2+z
1/2+x,1/2-y,-z
1/2-x,1/2+y,1/2-z
loop_
_atom_site_type_symbol
_atom_site_label
_atom_site_fract_x
_atom_site_fract_y
_atom_site_fract_z
Si Si1 0.812958 0.500000 0.500000
Si Si2 0.126479 0.705218 0.831170
Si Si3 0.803415 0.318547 0.769726
Si Si4 0.479604 0.872575 0.447104
Si Si5 0.709917 0.633535 0.992639
Si Si6 0.093511 0.635173 0.461040
O O1 0.846921 0.415156 0.381389
O O2 0.784563 0.412098 0.628839
O O3 0.071357 0.707935 0.937537
O O4 0.113236 0.701258 0.630532
O O5 0.167263 0.801603 0.888052
O O6 0.795088 0.194143 0.691335
O O7 0.768535 0.339783 0.936545
O O8 0.865366 0.338514 0.810291
O O9 0.500000 0.880409 0.250000
O O10 0.530965 0.838992 0.559289
O O11 0.463210 0.000000 0.500000
O O12 0.701227 0.500000 0.000000
O O13 0.095840 0.500000 0.500000
#
# Coordination Sequence:
#
# PCOD9316606 Si02
#       6
#     4   8   8   8   8   8
#     4  10  20  32  58  82 112 152 188 232 298 356
#     4  10  19  36  54  85 121 156 191 242 292 355
#     4  11  23  39  61  85 117 152 197 248 305 348
#     4   9  18  29  55  88 122 151 190 247 304 355
#     4  11  26  40  57  83 116 159 198 244 290 360
#     4  10  18  33  59  92 122 150 190 251 306 357
#
# _framework density 19.081613999999998
#
# number of rings (size 3 to 8) (size 9 to 14) (size 15 to 20)
#    0.000    1.818    2.727    1.636    5.091    0.000 
#    0.000    0.000    0.000    6.545    0.000    0.000 
#    0.000    0.000    0.000    0.000    0.000    0.000 
#
# Total GULP energy -122805.422619 kJ/mol
# GULP energy per Si atom -5582.064664 kJ/mol
# Density = 1.903818 g / cm^3
# Si number density = 19.081614 Si / 1000 Ang^3
#
#
#
# Elastic Constant Matrix: (Units=GPa)
#
#
# Indices 1 2 3 4 5 6 
#
# 1 73.4550 22.2366 9.4784 0.0000 0.0000 0.0000
# 2 22.2366 104.3725 11.9450 0.0000 0.0000 0.0000
# 3 9.4784 11.9450 35.6221 0.0000 0.0000 0.0000
# 4 0.0000 0.0000 0.0000 21.9279 0.0000 0.0000
# 5 0.0000 0.0000 0.0000 0.0000 30.3013 0.0000
# 6 0.0000 0.0000 0.0000 0.0000 0.0000 10.5537
#
#
#
# Elastic Compliance Matrix: (Units=1/GPa)
#
#
# Indices 1 2 3 4 5 6 
#
# 1 0.014856 -0.002821 -0.003007 0.000000 0.000000 0.000000
# 2 -0.002821 0.010499 -0.002770 0.000000 0.000000 0.000000
# 3 -0.003007 -0.002770 0.029801 0.000000 0.000000 0.000000
# 4 0.000000 0.000000 0.000000 0.045604 0.000000 0.000000
# 5 0.000000 0.000000 0.000000 0.000000 0.033002 0.000000
# 6 0.000000 0.000000 0.000000 0.000000 0.000000 0.094754
#
#
# Mechanical properties :
#
#
# Convention : Reuss Voigt Hill
#
# Bulk Modulus (GPa) = 26.34313 33.41884 29.88098
# Shear Modulus (GPa) = 19.35248 23.87590 21.61419
#
# Velocity S-wave (km/s) = 3.18810 3.54114 3.36925
# Velocity P-wave (km/s) = 5.23330 5.85416 5.55242
#
# Compressibility (1/GPa) = 0.03796057
#
# Stress axis : x y z
#
# Youngs Moduli (GPa) = 67.31411 95.24652 33.55542
#
# Poissons Ratio (x) = 0.26868 0.10090
# Poissons Ratio (y) = 0.18989 0.09295
# Poissons Ratio (z) = 0.20241 0.26383
#
# Static dielectric constant tensor:
#      x y z
#    x 1.696260 0.000000 0.000000 
#    y 0.000000 1.611660 0.000000 
#    z 0.000000 0.000000 1.734250 
# 
# From -- ./inp_files/10596.got.cif
#   From: 2010.05.17/outbox.cif.g08.bks.cpg/sg20_6_cif.got.tgz:10596.got - 2010.06.03 22:52:26.
