data_PCOD9316800
_publ_section_title
;
Structure prediction by ZEFSAII (Michael W. Deem and Ramdas Pophale) SiO2 
 PCOD9316800
Probable space group: C 2 2 21
;
_chemical_formula_sum "Si O2"
_cell_formula_units_Z 52
_cell_length_a 22.189352
_cell_length_b 9.658744
_cell_length_c 10.610231
_cell_angle_alpha 90.000000
_cell_angle_beta 90.000000
_cell_angle_gamma 90.000000
_cell_volume 2273.998188
_symmetry_space_group_name_H-M "C 2 2 21"
_symmetry_group_IT_number 20
_symmetry_cell_setting 'orthorhombic'
loop_
_space_group_symop_operation_xyz
x,y,z
-x,-y,1/2+z
x,-y,-z
-x,y,1/2-z
1/2+x,1/2+y,z
1/2-x,1/2-y,1/2+z
1/2+x,1/2-y,-z
1/2-x,1/2+y,1/2-z
loop_
_atom_site_type_symbol
_atom_site_label
_atom_site_fract_x
_atom_site_fract_y
_atom_site_fract_z
Si Si1 0.625744 0.276314 0.825750
Si Si2 0.432793 0.544930 0.753445
Si Si3 0.500000 0.812051 0.750000
Si Si4 0.087172 0.485223 0.296873
Si Si5 0.642961 0.500000 0.500000
Si Si6 0.349136 0.873509 0.575258
Si Si7 0.726520 0.267407 0.631938
Si Si8 0.810654 0.500000 0.000000
O O1 0.608712 0.436895 0.819459
O O2 0.691261 0.248026 0.763480
O O3 0.584036 0.178627 0.733437
O O4 0.625082 0.225225 0.967984
O O5 0.500000 0.479655 0.750000
O O6 0.448998 0.699987 0.707963
O O7 0.401189 0.556204 0.889912
O O8 0.468346 0.921571 0.844032
O O9 0.102761 0.549955 0.161309
O O10 0.143424 0.519156 0.384505
O O11 0.685351 0.381840 0.560395
O O12 0.295480 0.805889 0.653681
O O13 0.317886 0.000000 0.500000
O O14 0.726477 0.132586 0.543015
#
# Coordination Sequence:
#
# PCOD9316800 Si02
#       8
#     8   8   4   8   4   8   8   4
#     4   9  21  40  59  90 121 162 215 254 313 378
#     4   9  21  37  58  91 119 161 212 261 318 371
#     4  10  22  40  58  90 124 162 202 262 312 368
#     4  10  22  41  62  87 124 161 211 257 312 371
#     4  10  18  38  64  82 124 168 208 260 310 370
#     4  10  21  40  62  90 124 166 207 260 311 380
#     4  10  20  37  62  89 121 169 204 253 312 373
#     4  10  22  40  58  94 122 158 212 252 296 382
#
# _framework density 22.867213
#
# number of rings (size 3 to 8) (size 9 to 14) (size 15 to 20)
#    0.462    1.846    0.769    0.923    3.231    1.231 
#    6.923    0.000    0.000    0.000    0.000    0.000 
#    0.000    0.000    0.000    0.000    0.000    0.000 
#
# Total GULP energy -144843.808608 kJ/mol
# GULP energy per Si atom -5570.915716 kJ/mol
# Density = 2.281517 g / cm^3
# Si number density = 22.867213 Si / 1000 Ang^3
#
#
#
# Elastic Constant Matrix: (Units=GPa)
#
#
# Indices 1 2 3 4 5 6 
#
# 1 55.1160 13.7391 -2.4146 0.0000 0.0000 0.0000
# 2 13.7391 86.8563 -1.0753 0.0000 0.0000 0.0000
# 3 -2.4146 -1.0753 66.6892 0.0000 0.0000 0.0000
# 4 0.0000 0.0000 0.0000 15.1331 0.0000 0.0000
# 5 0.0000 0.0000 0.0000 0.0000 3.1519 0.0000
# 6 0.0000 0.0000 0.0000 0.0000 0.0000 -14.7100
#
#
#
# Elastic Compliance Matrix: (Units=1/GPa)
#
#
# Indices 1 2 3 4 5 6 
#
# 1 0.018915 -0.002984 0.000637 0.000000 0.000000 0.000000
# 2 -0.002984 0.011986 0.000085 0.000000 0.000000 0.000000
# 3 0.000637 0.000085 0.015019 0.000000 0.000000 0.000000
# 4 0.000000 0.000000 0.000000 0.066080 0.000000 0.000000
# 5 0.000000 0.000000 0.000000 0.000000 0.317266 0.000000
# 6 0.000000 0.000000 0.000000 0.000000 0.000000 -0.067981
#
#
# Mechanical properties :
#
#
# Convention : Reuss Voigt Hill
#
# Bulk Modulus (GPa) = 24.15656 25.46221 24.80939
# Shear Modulus (GPa) = 13.17143 13.94249 13.55696
#
# Velocity S-wave (km/s) = 2.40260 2.47192 2.43750
# Velocity P-wave (km/s) = 4.27591 4.39388 4.33530
#
# Compressibility (1/GPa) = 0.04139663
#
# Stress axis : x y z
#
# Youngs Moduli (GPa) = 52.86714 83.42808 66.58072
#
# Poissons Ratio (x) = 0.24896 -0.04239
# Poissons Ratio (y) = 0.15777 -0.00567
# Poissons Ratio (z) = -0.03366 -0.00711
#
# Static dielectric constant tensor:
#      x y z
#    x 1.980150 0.000000 0.000000 
#    y 0.000000 1.903730 0.000000 
#    z 0.000000 0.000000 1.914310 
# 
# From -- ./inp_files/17050.got.cif
#   From: 2010.05.17/outbox.cif.g08.bks.cpg/sg20_9_cif.got.tgz:17050.got - 2010.06.03 22:52:26.
