data_PCOD9316914
_publ_section_title
;
Structure prediction by ZEFSAII (Michael W. Deem and Ramdas Pophale) SiO2 
 PCOD9316914
Probable space group: C 2 2 21
;
_chemical_formula_sum "Si O2"
_cell_formula_units_Z 56
_cell_length_a 27.098093
_cell_length_b 22.074291
_cell_length_c 5.465950
_cell_angle_alpha 90.000000
_cell_angle_beta 90.000000
_cell_angle_gamma 90.000000
_cell_volume 3269.573818
_symmetry_space_group_name_H-M "C 2 2 21"
_symmetry_group_IT_number 20
_symmetry_cell_setting 'orthorhombic'
loop_
_space_group_symop_operation_xyz
x,y,z
-x,-y,1/2+z
x,-y,-z
-x,y,1/2-z
1/2+x,1/2+y,z
1/2-x,1/2-y,1/2+z
1/2+x,1/2-y,-z
1/2-x,1/2+y,1/2-z
loop_
_atom_site_type_symbol
_atom_site_label
_atom_site_fract_x
_atom_site_fract_y
_atom_site_fract_z
Si Si1 0.227589 0.673760 0.314624
Si Si2 0.500000 0.708904 0.750000
Si Si3 0.186678 0.727144 0.814784
Si Si4 0.904490 0.788162 0.474391
Si Si5 0.636141 0.394020 0.325078
Si Si6 0.151392 0.000000 0.000000
Si Si7 0.225715 0.058497 0.382251
Si Si8 0.547995 0.618830 0.348646
O O1 0.198856 0.691194 0.564227
O O2 0.277776 0.713782 0.315384
O O3 0.242269 0.604024 0.278638
O O4 0.200002 0.691748 0.063990
O O5 0.452533 0.743848 0.642836
O O6 0.525114 0.664810 0.549903
O O7 0.130898 0.749056 0.854952
O O8 0.872309 0.825707 0.273401
O O9 0.929101 0.840108 0.637574
O O10 0.691919 0.403386 0.424140
O O11 0.595262 0.410722 0.527046
O O12 0.624835 0.442601 0.114284
O O13 0.185662 0.972807 0.790102
O O14 0.252400 0.000000 0.500000
O O15 0.500000 0.583060 0.250000
#
# Coordination Sequence:
#
# PCOD9316914 Si02
#       8
#     8   4   8   8   8   4   8   8
#     4  10  22  35  48  79 106 143 176 222 275 329
#     4   8  18  30  50  72  98 124 178 210 266 322
#     4  10  22  32  53  74 114 138 172 223 279 324
#     4  10  19  32  52  76  98 134 173 223 269 332
#     4  10  19  30  51  72  90 121 175 229 278 328
#     4  10  20  32  48  74  84 128 170 234 272 314
#     4  10  22  35  54  72  98 135 185 232 269 317
#     4   9  17  30  47  73  89 124 163 217 267 332
#
# _framework density 17.127616
#
# number of rings (size 3 to 8) (size 9 to 14) (size 15 to 20)
#    0.000    2.286    0.000    2.571   14.000    0.000 
#    0.000    0.000    0.000    0.000  442.000    0.000 
#    0.000    0.000    0.000    0.000   10.857    4.286 
#
# Total GULP energy -155952.054201 kJ/mol
# GULP energy per Si atom -5569.716221 kJ/mol
# Density = 1.708863 g / cm^3
# Si number density = 17.127616 Si / 1000 Ang^3
#
#
#
# Elastic Constant Matrix: (Units=GPa)
#
#
# Indices 1 2 3 4 5 6 
#
# 1 66.8056 40.0036 28.4476 0.0000 0.0000 0.0000
# 2 40.0036 53.6982 25.1959 0.0000 0.0000 0.0000
# 3 28.4476 25.1959 80.1182 0.0000 0.0000 0.0000
# 4 0.0000 0.0000 0.0000 24.3179 0.0000 0.0000
# 5 0.0000 0.0000 0.0000 0.0000 30.3918 0.0000
# 6 0.0000 0.0000 0.0000 0.0000 0.0000 8.8954
#
#
#
# Elastic Compliance Matrix: (Units=1/GPa)
#
#
# Indices 1 2 3 4 5 6 
#
# 1 0.028064 -0.019041 -0.003977 0.000000 0.000000 0.000000
# 2 -0.019041 0.034765 -0.004172 0.000000 0.000000 0.000000
# 3 -0.003977 -0.004172 0.015206 0.000000 0.000000 0.000000
# 4 0.000000 0.000000 0.000000 0.041122 0.000000 0.000000
# 5 0.000000 0.000000 0.000000 0.000000 0.032904 0.000000
# 6 0.000000 0.000000 0.000000 0.000000 0.000000 0.112418
#
#
# Mechanical properties :
#
#
# Convention : Reuss Voigt Hill
#
# Bulk Modulus (GPa) = 42.27396 43.10182 42.68789
# Shear Modulus (GPa) = 15.30256 19.85269 17.57763
#
# Velocity S-wave (km/s) = 2.99230 3.40826 3.20703
# Velocity P-wave (km/s) = 6.05589 6.38028 6.22020
#
# Compressibility (1/GPa) = 0.02365522
#
# Stress axis : x y z
#
# Youngs Moduli (GPa) = 35.63288 28.76440 65.76514
#
# Poissons Ratio (x) = 0.54770 0.26152
# Poissons Ratio (y) = 0.67848 0.27439
# Poissons Ratio (z) = 0.14170 0.12001
#
# Static dielectric constant tensor:
#      x y z
#    x 1.619160 0.000000 0.000000 
#    y 0.000000 1.591210 0.000000 
#    z 0.000000 0.000000 1.713050 
# 
# From -- ./inp_files/3319.got.cif
#   From: 2010.05.17/outbox.cif.g08.bks.cpg/sg20_2_cif.got.tgz:3319.got - 2010.06.03 22:52:26.
