data_PCOD9316588
_publ_section_title
;
Structure prediction by ZEFSAII (Michael W. Deem and Ramdas Pophale) SiO2 
 PCOD9316588
Probable space group: C 2 2 21
;
_chemical_formula_sum "Si O2"
_cell_formula_units_Z 48
_cell_length_a 5.002942
_cell_length_b 28.001658
_cell_length_c 18.238961
_cell_angle_alpha 90.000000
_cell_angle_beta 90.000000
_cell_angle_gamma 90.000000
_cell_volume 2555.108283
_symmetry_space_group_name_H-M "C 2 2 21"
_symmetry_group_IT_number 20
_symmetry_cell_setting 'orthorhombic'
loop_
_space_group_symop_operation_xyz
x,y,z
-x,-y,1/2+z
x,-y,-z
-x,y,1/2-z
1/2+x,1/2+y,z
1/2-x,1/2-y,1/2+z
1/2+x,1/2-y,-z
1/2-x,1/2+y,1/2-z
loop_
_atom_site_type_symbol
_atom_site_label
_atom_site_fract_x
_atom_site_fract_y
_atom_site_fract_z
Si Si1 0.965708 0.483436 0.333697
Si Si2 0.260696 0.088866 0.298803
Si Si3 0.723298 0.241394 0.548899
Si Si4 0.030322 0.964197 0.069901
Si Si5 0.347936 0.840141 0.575138
Si Si6 0.353188 0.641795 0.519096
O O1 0.853262 0.536948 0.325232
O O2 0.748315 0.458293 0.386215
O O3 0.000000 0.464611 0.250000
O O4 0.249668 0.485066 0.374216
O O5 0.500000 0.109175 0.250000
O O6 0.232537 0.123419 0.366688
O O7 0.000000 0.084284 0.250000
O O8 0.423175 0.250593 0.520902
O O9 0.814176 0.285143 0.599835
O O10 0.763693 0.186271 0.570769
O O11 0.141945 0.912316 0.046574
O O12 0.999019 0.000000 0.000000
O O13 0.645571 0.852906 0.548878
O O14 0.153979 0.846816 0.505589
#
# Coordination Sequence:
#
# PCOD9316588 Si02
#       6
#     8   8   8   8   8   8
#     4  11  23  39  54  75 110 150 179 211 270 336
#     4  11  21  34  52  74  99 136 176 211 256 319
#     4   8  16  29  49  73 100 131 160 199 265 329
#     4  12  22  35  57  84 109 138 184 236 265 299
#     4  10  18  33  52  76 107 132 164 217 271 312
#     4  10  19  32  52  80 105 133 170 216 267 309
#
# _framework density 18.785898
#
# number of rings (size 3 to 8) (size 9 to 14) (size 15 to 20)
#    0.000    1.667    0.000    7.000    0.000    0.000 
#    0.000    0.000    0.000    3.000    0.000    0.000 
#    0.000    0.000    0.000    0.000    0.000    0.000 
#
# Total GULP energy -133773.982199 kJ/mol
# GULP energy per Si atom -5573.915925 kJ/mol
# Density = 1.874314 g / cm^3
# Si number density = 18.785898 Si / 1000 Ang^3
#
#
#
# Elastic Constant Matrix: (Units=GPa)
#
#
# Indices 1 2 3 4 5 6 
#
# 1 92.2628 1.6972 16.7293 0.0000 0.0000 0.0000
# 2 1.6972 113.6835 22.2982 0.0000 0.0000 0.0000
# 3 16.7293 22.2982 51.4021 0.0000 0.0000 0.0000
# 4 0.0000 0.0000 0.0000 13.6524 0.0000 0.0000
# 5 0.0000 0.0000 0.0000 0.0000 36.0922 0.0000
# 6 0.0000 0.0000 0.0000 0.0000 0.0000 30.2126
#
#
#
# Elastic Compliance Matrix: (Units=1/GPa)
#
#
# Indices 1 2 3 4 5 6 
#
# 1 0.011558 0.000618 -0.004030 0.000000 0.000000 0.000000
# 2 0.000618 0.009647 -0.004386 0.000000 0.000000 0.000000
# 3 -0.004030 -0.004386 0.022669 0.000000 0.000000 0.000000
# 4 0.000000 0.000000 0.000000 0.073247 0.000000 0.000000
# 5 0.000000 0.000000 0.000000 0.000000 0.027707 0.000000
# 6 0.000000 0.000000 0.000000 0.000000 0.000000 0.033099
#
#
# Mechanical properties :
#
#
# Convention : Reuss Voigt Hill
#
# Bulk Modulus (GPa) = 35.36305 37.64420 36.50363
# Shear Modulus (GPa) = 24.63678 30.43301 27.53490
#
# Velocity S-wave (km/s) = 3.62532 4.02928 3.83263
# Velocity P-wave (km/s) = 6.03234 6.45979 6.24972
#
# Compressibility (1/GPa) = 0.02827810
#
# Stress axis : x y z
#
# Youngs Moduli (GPa) = 86.52086 103.65445 44.11376
#
# Poissons Ratio (x) = -0.06404 0.17776
# Poissons Ratio (y) = -0.05346 0.19349
# Poissons Ratio (z) = 0.34865 0.45464
#
# Static dielectric constant tensor:
#      x y z
#    x 1.658790 0.000000 0.000000 
#    y 0.000000 1.718560 0.000000 
#    z 0.000000 0.000000 1.689480 
# 
# From -- ./inp_files/17802.got.cif
#   From: 2010.05.17/outbox.cif.g08.bks.cpg/sg20_9_cif.got.tgz:17802.got - 2010.06.03 22:52:26.
