data_PCOD9316468
_publ_section_title
;
Structure prediction by ZEFSAII (Michael W. Deem and Ramdas Pophale) SiO2 
 PCOD9316468
Probable space group: C 2 2 21
;
_chemical_formula_sum "Si O2"
_cell_formula_units_Z 64
_cell_length_a 17.320889
_cell_length_b 11.872832
_cell_length_c 11.797465
_cell_angle_alpha 90.000000
_cell_angle_beta 90.000000
_cell_angle_gamma 90.000000
_cell_volume 2426.125144
_symmetry_space_group_name_H-M "C 2 2 21"
_symmetry_group_IT_number 20
_symmetry_cell_setting 'orthorhombic'
loop_
_space_group_symop_operation_xyz
x,y,z
-x,-y,1/2+z
x,-y,-z
-x,y,1/2-z
1/2+x,1/2+y,z
1/2-x,1/2-y,1/2+z
1/2+x,1/2-y,-z
1/2-x,1/2+y,1/2-z
loop_
_atom_site_type_symbol
_atom_site_label
_atom_site_fract_x
_atom_site_fract_y
_atom_site_fract_z
Si Si1 0.062429 0.420878 0.094956
Si Si2 0.337386 0.691506 0.575238
Si Si3 0.781836 0.147922 0.947020
Si Si4 0.122797 0.161190 0.339618
Si Si5 0.079598 0.235827 0.711801
Si Si6 0.291067 0.902856 0.215010
Si Si7 0.582009 0.977723 0.655518
Si Si8 0.442523 0.343629 0.603583
O O1 0.078438 0.474322 0.216249
O O2 0.076263 0.290471 0.094883
O O3 0.969569 0.435610 0.087357
O O4 0.097695 0.500000 0.000000
O O5 0.275347 0.753489 0.494230
O O6 0.377946 0.770514 0.670455
O O7 0.290274 0.611583 0.656655
O O8 0.403420 0.622024 0.512257
O O9 0.858011 0.183611 0.874283
O O10 0.727649 0.090049 0.849898
O O11 0.819752 0.105708 0.067344
O O12 0.160132 0.286577 0.315315
O O13 0.103923 0.113853 0.213898
O O14 0.035060 0.153923 0.388422
O O15 0.053800 0.351615 0.651480
O O16 0.000000 0.174703 0.750000
O O17 0.327908 0.006078 0.143915
#
# Coordination Sequence:
#
# PCOD9316468 Si02
#       8
#     8   8   8   8   8   8   8   8
#     4  11  20  28  48  75 113 150 182 219 267 340
#     4  10  21  34  53  74 111 159 192 235 278 336
#     4  10  21  35  53  75 114 157 194 234 279 342
#     4  10  18  30  51  73 100 142 187 234 281 324
#     4  11  22  36  56  88 118 151 193 235 282 348
#     4  10  19  36  50  74 113 158 190 227 288 344
#     4  11  20  35  49  81 116 153 189 220 284 345
#     4  11  18  32  51  76 106 145 194 237 275 329
#
# _framework density 26.379511999999998
#
# number of rings (size 3 to 8) (size 9 to 14) (size 15 to 20)
#    0.000    1.500    5.000    2.250    1.750    0.000 
#    0.000    0.000    0.000    0.000    0.000    0.000 
#    0.000   78.000    0.000    0.000    0.000    0.000 
#
# Total GULP energy -178370.327305 kJ/mol
# GULP energy per Si atom -5574.072728 kJ/mol
# Density = 2.631947 g / cm^3
# Si number density = 26.379512 Si / 1000 Ang^3
#
#
#
# Elastic Constant Matrix: (Units=GPa)
#
#
# Indices 1 2 3 4 5 6 
#
# 1 123.1848 16.1158 41.6679 0.0000 0.0000 0.0000
# 2 16.1158 27.4917 3.7098 0.0000 0.0000 0.0000
# 3 41.6679 3.7098 147.6861 0.0000 0.0000 0.0000
# 4 0.0000 0.0000 0.0000 8.6417 0.0000 0.0000
# 5 0.0000 0.0000 0.0000 0.0000 59.6957 0.0000
# 6 0.0000 0.0000 0.0000 0.0000 0.0000 25.5000
#
#
#
# Elastic Compliance Matrix: (Units=1/GPa)
#
#
# Indices 1 2 3 4 5 6 
#
# 1 0.009695 -0.005332 -0.002602 0.000000 0.000000 0.000000
# 2 -0.005332 0.039431 0.000514 0.000000 0.000000 0.000000
# 3 -0.002602 0.000514 0.007492 0.000000 0.000000 0.000000
# 4 0.000000 0.000000 0.000000 0.115718 0.000000 0.000000
# 5 0.000000 0.000000 0.000000 0.000000 0.016752 0.000000
# 6 0.000000 0.000000 0.000000 0.000000 0.000000 0.039216
#
#
# Mechanical properties :
#
#
# Convention : Reuss Voigt Hill
#
# Bulk Modulus (GPa) = 23.93557 46.81661 35.37609
# Shear Modulus (GPa) = 19.44995 34.55876 27.00436
#
# Velocity S-wave (km/s) = 2.71830 3.62340 3.20298
# Velocity P-wave (km/s) = 4.35263 5.94064 5.20753
#
# Compressibility (1/GPa) = 0.04177883
#
# Stress axis : x y z
#
# Youngs Moduli (GPa) = 103.14074 25.36068 133.47225
#
# Poissons Ratio (x) = 0.13524 0.34723
# Poissons Ratio (y) = 0.55000 -0.06861
# Poissons Ratio (z) = 0.26832 -0.01304
#
# Static dielectric constant tensor:
#      x y z
#    x 2.691970 0.000000 0.000000 
#    y 0.000000 2.257840 0.000000 
#    z 0.000000 0.000000 2.196990 
# 
# From -- ./inp_files/15971.got.cif
#   From: 2010.05.17/outbox.cif.g08.bks.cpg/sg20_8_cif.got.tgz:15971.got - 2010.06.03 22:52:26.
