data_PCOD9316742
_publ_section_title
;
Structure prediction by ZEFSAII (Michael W. Deem and Ramdas Pophale) SiO2 
 PCOD9316742
Probable space group: C 2 2 21
;
_chemical_formula_sum "Si O2"
_cell_formula_units_Z 48
_cell_length_a 9.684022
_cell_length_b 17.147666
_cell_length_c 14.722552
_cell_angle_alpha 90.000000
_cell_angle_beta 90.000000
_cell_angle_gamma 90.000000
_cell_volume 2444.803058
_symmetry_space_group_name_H-M "C 2 2 21"
_symmetry_group_IT_number 20
_symmetry_cell_setting 'orthorhombic'
loop_
_space_group_symop_operation_xyz
x,y,z
-x,-y,1/2+z
x,-y,-z
-x,y,1/2-z
1/2+x,1/2+y,z
1/2-x,1/2-y,1/2+z
1/2+x,1/2-y,-z
1/2-x,1/2+y,1/2-z
loop_
_atom_site_type_symbol
_atom_site_label
_atom_site_fract_x
_atom_site_fract_y
_atom_site_fract_z
Si Si1 0.489056 0.785429 0.356242
Si Si2 0.782596 0.588473 0.843102
Si Si3 0.678708 0.956255 0.912296
Si Si4 0.000000 0.472023 0.750000
Si Si5 0.122517 0.000000 0.000000
Si Si6 0.430516 0.640644 0.024686
Si Si7 0.796664 0.118790 0.846190
O O1 0.500000 0.761041 0.250000
O O2 0.617926 0.842362 0.375232
O O3 0.505617 0.713511 0.423694
O O4 0.346190 0.833541 0.363568
O O5 0.709738 0.544016 0.923944
O O6 0.683252 0.618952 0.762169
O O7 0.885883 0.528029 0.794174
O O8 0.572986 0.930152 0.834475
O O9 0.778701 0.886103 0.940819
O O10 0.770703 0.028322 0.873935
O O11 0.611346 0.000000 0.000000
O O12 0.026681 0.933579 0.957361
O O13 0.410290 0.650620 0.916111
#
# Coordination Sequence:
#
# PCOD9316742 Si02
#       7
#     8   8   8   4   4   8   8
#     4  10  21  40  65  87 121 170 215 260 323 380
#     4  10  21  39  63  90 122 165 217 260 311 385
#     4   9  17  35  61  82 118 159 205 252 310 371
#     4  10  18  36  64  86 110 172 210 248 314 378
#     4  12  26  36  60 102 124 162 216 262 322 388
#     4  11  23  39  60  95 127 163 208 265 328 378
#     4   9  18  41  64  81 123 175 201 253 329 376
#
# _framework density 19.633482999999998
#
# number of rings (size 3 to 8) (size 9 to 14) (size 15 to 20)
#    0.000    2.000    6.667    0.000    3.500    3.333 
#    0.000    0.000   14.667    0.000    0.000    0.000 
#    0.000    0.000    0.000    0.000    0.000    0.000 
#
# Total GULP energy -133805.933275 kJ/mol
# GULP energy per Si atom -5575.247220 kJ/mol
# Density = 1.958880 g / cm^3
# Si number density = 19.633483 Si / 1000 Ang^3
#
#
#
# Elastic Constant Matrix: (Units=GPa)
#
#
# Indices 1 2 3 4 5 6 
#
# 1 53.9669 24.2550 55.0368 0.0000 0.0000 0.0000
# 2 24.2550 73.6403 53.2950 0.0000 0.0000 0.0000
# 3 55.0368 53.2950 118.0866 0.0000 0.0000 0.0000
# 4 0.0000 0.0000 0.0000 28.9227 0.0000 0.0000
# 5 0.0000 0.0000 0.0000 0.0000 43.6484 0.0000
# 6 0.0000 0.0000 0.0000 0.0000 0.0000 22.2921
#
#
#
# Elastic Compliance Matrix: (Units=1/GPa)
#
#
# Indices 1 2 3 4 5 6 
#
# 1 0.035325 0.000416 -0.016652 0.000000 0.000000 0.000000
# 2 0.000416 0.020171 -0.009298 0.000000 0.000000 0.000000
# 3 -0.016652 -0.009298 0.020426 0.000000 0.000000 0.000000
# 4 0.000000 0.000000 0.000000 0.034575 0.000000 0.000000
# 5 0.000000 0.000000 0.000000 0.000000 0.022910 0.000000
# 6 0.000000 0.000000 0.000000 0.000000 0.000000 0.044859
#
#
# Mechanical properties :
#
#
# Convention : Reuss Voigt Hill
#
# Bulk Modulus (GPa) = 40.23318 56.76306 48.49812
# Shear Modulus (GPa) = 21.04225 26.51310 23.77768
#
# Velocity S-wave (km/s) = 3.27732 3.67877 3.48383
# Velocity P-wave (km/s) = 5.90404 6.85701 6.39829
#
# Compressibility (1/GPa) = 0.02485510
#
# Stress axis : x y z
#
# Youngs Moduli (GPa) = 28.30890 49.57510 48.95835
#
# Poissons Ratio (x) = -0.02063 0.81524
# Poissons Ratio (y) = -0.01178 0.45520
# Poissons Ratio (z) = 0.47139 0.46094
#
# Static dielectric constant tensor:
#      x y z
#    x 1.729590 0.000000 0.000000 
#    y 0.000000 1.650900 0.000000 
#    z 0.000000 0.000000 1.758430 
# 
# From -- ./inp_files/18973.got.cif
#   From: 2010.05.17/outbox.cif.g08.bks.cpg/sg20_10_cif.got.tgz:18973.got - 2010.06.03 22:52:26.
