data_PCOD9316282
_publ_section_title
;
Structure prediction by ZEFSAII (Michael W. Deem and Ramdas Pophale) SiO2 
 PCOD9316282
Probable space group: C 2 2 21
;
_chemical_formula_sum "Si O2"
_cell_formula_units_Z 48
_cell_length_a 15.613063
_cell_length_b 8.397550
_cell_length_c 17.198652
_cell_angle_alpha 90.000000
_cell_angle_beta 90.000000
_cell_angle_gamma 90.000000
_cell_volume 2254.940669
_symmetry_space_group_name_H-M "C 2 2 21"
_symmetry_group_IT_number 20
_symmetry_cell_setting 'orthorhombic'
loop_
_space_group_symop_operation_xyz
x,y,z
-x,-y,1/2+z
x,-y,-z
-x,y,1/2-z
1/2+x,1/2+y,z
1/2-x,1/2-y,1/2+z
1/2+x,1/2-y,-z
1/2-x,1/2+y,1/2-z
loop_
_atom_site_type_symbol
_atom_site_label
_atom_site_fract_x
_atom_site_fract_y
_atom_site_fract_z
Si Si1 0.344511 0.838647 0.293086
Si Si2 0.500000 0.073192 0.250000
Si Si3 0.295041 0.074890 0.418120
Si Si4 0.425990 0.000000 0.000000
Si Si5 0.146742 0.715548 0.623253
Si Si6 0.977935 0.914004 0.661583
Si Si7 0.028158 0.747667 0.097485
O O1 0.307939 0.802062 0.207728
O O2 0.389414 0.685018 0.331962
O O3 0.422240 0.958184 0.271926
O O4 0.287828 0.936103 0.353546
O O5 0.482936 0.180130 0.175179
O O6 0.206684 0.167523 0.424753
O O7 0.372957 0.193209 0.397738
O O8 0.318762 0.000000 0.500000
O O9 0.370093 0.941360 0.072953
O O10 0.483750 0.150137 0.027568
O O11 0.054564 0.794402 0.639654
O O12 0.000000 0.967883 0.750000
O O13 0.976344 0.062440 0.603289
#
# Coordination Sequence:
#
# PCOD9316282 Si02
#       7
#     8   4   8   4   8   8   8
#     4  10  20  45  70  90 136 173 221 269 332 399
#     4  10  16  38  70  92 122 166 220 262 314 398
#     4  11  26  45  61  95 139 176 214 274 343 394
#     4  12  24  44  66  94 136 176 228 274 338 392
#     4  11  24  44  65 101 132 174 220 284 333 395
#     4  10  21  40  72 101 122 165 238 277 317 403
#     4  11  22  40  69  95 127 177 220 269 335 403
#
# _framework density 21.286591000000001
#
# number of rings (size 3 to 8) (size 9 to 14) (size 15 to 20)
#    0.000    1.333    5.833    1.000    2.333    2.667 
#    6.000    0.000    0.000    0.000    0.000    0.000 
#    0.000    0.000    0.000    0.000    0.000    0.000 
#
# Total GULP energy -134019.064505 kJ/mol
# GULP energy per Si atom -5584.127688 kJ/mol
# Density = 2.123814 g / cm^3
# Si number density = 21.286591 Si / 1000 Ang^3
#
#
#
# Elastic Constant Matrix: (Units=GPa)
#
#
# Indices 1 2 3 4 5 6 
#
# 1 31.1818 12.1500 7.4326 0.0000 0.0000 0.0000
# 2 12.1500 91.8721 31.0683 0.0000 0.0000 0.0000
# 3 7.4326 31.0683 80.0226 0.0000 0.0000 0.0000
# 4 0.0000 0.0000 0.0000 38.1066 0.0000 0.0000
# 5 0.0000 0.0000 0.0000 0.0000 12.5977 0.0000
# 6 0.0000 0.0000 0.0000 0.0000 0.0000 12.7814
#
#
#
# Elastic Compliance Matrix: (Units=1/GPa)
#
#
# Indices 1 2 3 4 5 6 
#
# 1 0.033995 -0.003946 -0.001625 0.000000 0.000000 0.000000
# 2 -0.003946 0.012988 -0.004676 0.000000 0.000000 0.000000
# 3 -0.001625 -0.004676 0.014463 0.000000 0.000000 0.000000
# 4 0.000000 0.000000 0.000000 0.026242 0.000000 0.000000
# 5 0.000000 0.000000 0.000000 0.000000 0.079379 0.000000
# 6 0.000000 0.000000 0.000000 0.000000 0.000000 0.078239
#
#
# Mechanical properties :
#
#
# Convention : Reuss Voigt Hill
#
# Bulk Modulus (GPa) = 24.41960 33.81981 29.11971
# Shear Modulus (GPa) = 17.89221 22.85885 20.37553
#
# Velocity S-wave (km/s) = 2.90235 3.28054 3.09722
# Velocity P-wave (km/s) = 4.76741 5.50196 5.14781
#
# Compressibility (1/GPa) = 0.04095071
#
# Stress axis : x y z
#
# Youngs Moduli (GPa) = 29.41608 76.99524 69.14279
#
# Poissons Ratio (x) = 0.30383 0.11239
# Poissons Ratio (y) = 0.11608 0.32331
# Poissons Ratio (z) = 0.04781 0.36002
#
# Static dielectric constant tensor:
#      x y z
#    x 1.723760 0.000000 0.000000 
#    y 0.000000 1.786580 0.000000 
#    z 0.000000 0.000000 1.842920 
# 
# From -- ./inp_files/24831.got.cif
#   From: 2010.05.17/outbox.cif.g08.bks.cpg/sg20_13_cif.got.tgz:24831.got - 2010.06.03 22:52:26.
