data_PCOD9316631
_publ_section_title
;
Structure prediction by ZEFSAII (Michael W. Deem and Ramdas Pophale) SiO2 
 PCOD9316631
Probable space group: C 2 2 21
;
_chemical_formula_sum "Si O2"
_cell_formula_units_Z 48
_cell_length_a 14.577792
_cell_length_b 10.982901
_cell_length_c 12.797213
_cell_angle_alpha 90.000000
_cell_angle_beta 90.000000
_cell_angle_gamma 90.000000
_cell_volume 2048.916296
_symmetry_space_group_name_H-M "C 2 2 21"
_symmetry_group_IT_number 20
_symmetry_cell_setting 'orthorhombic'
loop_
_space_group_symop_operation_xyz
x,y,z
-x,-y,1/2+z
x,-y,-z
-x,y,1/2-z
1/2+x,1/2+y,z
1/2-x,1/2-y,1/2+z
1/2+x,1/2-y,-z
1/2-x,1/2+y,1/2-z
loop_
_atom_site_type_symbol
_atom_site_label
_atom_site_fract_x
_atom_site_fract_y
_atom_site_fract_z
Si Si1 0.230293 0.786268 0.063525
Si Si2 0.931670 0.879911 0.121342
Si Si3 0.776766 0.593946 0.246088
Si Si4 0.391358 0.523114 0.660077
Si Si5 0.906941 0.370620 0.956223
Si Si6 0.220231 0.591580 0.914083
O O1 0.221277 0.693967 0.161503
O O2 0.172747 0.905917 0.081535
O O3 0.334774 0.825594 0.043634
O O4 0.194045 0.721928 0.957803
O O5 0.907888 0.880891 0.244602
O O6 0.965587 0.749949 0.075454
O O7 0.831396 0.906023 0.075343
O O8 0.006726 0.987631 0.114599
O O9 0.671136 0.581879 0.208255
O O10 0.845530 0.611560 0.149623
O O11 0.800086 0.464109 0.301789
O O12 0.945023 0.500000 0.000000
O O13 0.181794 0.500000 0.000000
#
# Coordination Sequence:
#
# PCOD9316631 Si02
#       6
#     8   8   8   8   8   8
#     4  10  19  33  57  84 113 145 204 244 283 343
#     4   9  19  33  53  80 118 150 188 238 303 342
#     4  10  19  35  55  82 114 149 201 244 276 354
#     4  10  18  34  57  81 109 156 193 237 294 345
#     4  11  20  33  57  88 111 157 196 236 297 354
#     4   8  17  33  53  78 107 151 187 242 297 335
#
# _framework density 23.427019999999999
#
# number of rings (size 3 to 8) (size 9 to 14) (size 15 to 20)
#    0.000    2.333    3.333    0.000    0.000    0.000 
#    3.000    2.500    3.667    0.000    0.000    0.000 
#    0.000    0.000    0.000    0.000    0.000    0.000 
#
# Total GULP energy -133671.709898 kJ/mol
# GULP energy per Si atom -5569.654579 kJ/mol
# Density = 2.337370 g / cm^3
# Si number density = 23.427020 Si / 1000 Ang^3
#
#
#
# Elastic Constant Matrix: (Units=GPa)
#
#
# Indices 1 2 3 4 5 6 
#
# 1 43.5368 -5.4109 18.3899 0.0000 0.0000 0.0000
# 2 -5.4109 68.5324 43.6980 0.0000 0.0000 0.0000
# 3 18.3899 43.6980 101.6666 0.0000 0.0000 0.0000
# 4 0.0000 0.0000 0.0000 59.4622 0.0000 0.0000
# 5 0.0000 0.0000 0.0000 0.0000 14.0363 0.0000
# 6 0.0000 0.0000 0.0000 0.0000 0.0000 8.5639
#
#
#
# Elastic Compliance Matrix: (Units=1/GPa)
#
#
# Indices 1 2 3 4 5 6 
#
# 1 0.027288 0.007303 -0.008075 0.000000 0.000000 0.000000
# 2 0.007303 0.022055 -0.010801 0.000000 0.000000 0.000000
# 3 -0.008075 -0.010801 0.015939 0.000000 0.000000 0.000000
# 4 0.000000 0.000000 0.000000 0.016817 0.000000 0.000000
# 5 0.000000 0.000000 0.000000 0.000000 0.071244 0.000000
# 6 0.000000 0.000000 0.000000 0.000000 0.000000 0.116769
#
#
# Mechanical properties :
#
#
# Convention : Reuss Voigt Hill
#
# Bulk Modulus (GPa) = 23.73216 36.34331 30.03773
# Shear Modulus (GPa) = 16.27062 26.88307 21.57684
#
# Velocity S-wave (km/s) = 2.63824 3.39119 3.03813
# Velocity P-wave (km/s) = 4.40825 5.55703 5.01564
#
# Compressibility (1/GPa) = 0.04213692
#
# Stress axis : x y z
#
# Youngs Moduli (GPa) = 36.64669 45.34107 62.73910
#
# Poissons Ratio (x) = -0.33114 0.50662
# Poissons Ratio (y) = -0.26764 0.67763
# Poissons Ratio (z) = 0.29592 0.48971
#
# Static dielectric constant tensor:
#      x y z
#    x 1.925280 0.000000 0.000000 
#    y 0.000000 1.967260 0.000000 
#    z 0.000000 0.000000 1.937170 
# 
# From -- ./inp_files/21369.got.cif
#   From: 2010.05.17/outbox.cif.g08.bks.cpg/sg20_11_cif.got.tgz:21369.got - 2010.06.03 22:52:26.
