data_PCOD9316099
_publ_section_title
;
Structure prediction by ZEFSAII (Michael W. Deem and Ramdas Pophale) SiO2 
 PCOD9316099
Probable space group: P 21 21 21
;
_chemical_formula_sum "Si O2"
_cell_formula_units_Z 24
_cell_length_a 7.772773
_cell_length_b 14.099715
_cell_length_c 9.002683
_cell_angle_alpha 90.000000
_cell_angle_beta 90.000000
_cell_angle_gamma 90.000000
_cell_volume 986.638997
_symmetry_space_group_name_H-M "P 21 21 21"
_symmetry_group_IT_number 19
_symmetry_cell_setting 'orthorhombic'
loop_
_space_group_symop_operation_xyz
x,y,z
1/2-x,-y,1/2+z
1/2+x,1/2-y,-z
-x,1/2+y,1/2-z
loop_
_atom_site_type_symbol
_atom_site_label
_atom_site_fract_x
_atom_site_fract_y
_atom_site_fract_z
Si Si1 0.206597 0.554184 0.965330
Si Si2 0.946590 0.376478 0.605133
Si Si3 0.613334 0.485916 0.672060
Si Si4 0.836128 0.312864 0.290500
Si Si5 0.057758 0.691744 0.733230
Si Si6 0.409300 0.374052 0.896305
O O1 0.187413 0.629467 0.832174
O O2 0.257108 0.451413 0.902027
O O3 0.363761 0.583784 0.073523
O O4 0.029738 0.547486 0.055162
O O5 0.804174 0.457889 0.621899
O O6 0.904726 0.315431 0.457476
O O7 0.921105 0.303757 0.739994
O O8 0.591166 0.596788 0.702930
O O9 0.568201 0.431096 0.824766
O O10 0.632413 0.328131 0.294225
O O11 0.874845 0.215849 0.207283
O O12 0.065186 0.662924 0.562505
#
# Coordination Sequence:
#
# PCOD9316099 Si02
#       6
#     4   4   4   4   4   4
#     4  12  27  55  79 117 160 215 261 337 405 479
#     4  12  27  53  81 115 162 212 266 328 407 483
#     4  12  28  53  81 111 165 210 272 330 405 491
#     4  12  29  50  77 117 156 215 272 327 405 485
#     4  12  28  47  84 116 160 208 262 336 406 478
#     4  12  29  48  78 122 159 210 271 334 402 474
#
# _framework density 24.325008
#
# number of rings (size 3 to 8) (size 9 to 14) (size 15 to 20)
#    0.000    0.000    3.333    5.000    7.000    1.333 
#    0.000    0.000    0.000    0.000    0.000    0.000 
#    0.000    0.000    0.000    0.000    0.000    0.000 
#
# Total GULP energy -134700.308367 kJ/mol
# GULP energy per Si atom -5612.512849 kJ/mol
# Density = 2.426964 g / cm^3
# Si number density = 24.325008 Si / 1000 Ang^3
#
#
#
# Elastic Constant Matrix: (Units=GPa)
#
#
# Indices 1 2 3 4 5 6 
#
# 1 81.4957 21.1807 -2.2291 0.0000 0.0000 0.0000
# 2 21.1807 166.5972 44.3661 0.0000 0.0000 0.0000
# 3 -2.2291 44.3661 74.2884 0.0000 0.0000 0.0000
# 4 0.0000 0.0000 0.0000 45.4337 0.0000 0.0000
# 5 0.0000 0.0000 0.0000 0.0000 24.0238 0.0000
# 6 0.0000 0.0000 0.0000 0.0000 0.0000 36.7454
#
#
#
# Elastic Compliance Matrix: (Units=1/GPa)
#
#
# Indices 1 2 3 4 5 6 
#
# 1 0.012852 -0.002065 0.001619 0.000000 0.000000 0.000000
# 2 -0.002065 0.007470 -0.004523 0.000000 0.000000 0.000000
# 3 0.001619 -0.004523 0.016211 0.000000 0.000000 0.000000
# 4 0.000000 0.000000 0.000000 0.022010 0.000000 0.000000
# 5 0.000000 0.000000 0.000000 0.000000 0.041625 0.000000
# 6 0.000000 0.000000 0.000000 0.000000 0.000000 0.027214
#
#
# Mechanical properties :
#
#
# Convention : Reuss Voigt Hill
#
# Bulk Modulus (GPa) = 37.60274 49.89075 43.74675
# Shear Modulus (GPa) = 34.20342 38.51149 36.35745
#
# Velocity S-wave (km/s) = 3.75387 3.98327 3.87027
# Velocity P-wave (km/s) = 5.85498 6.45831 6.16403
#
# Compressibility (1/GPa) = 0.02659380
#
# Stress axis : x y z
#
# Youngs Moduli (GPa) = 77.81153 133.87751 61.68748
#
# Poissons Ratio (x) = 0.27646 -0.09986
# Poissons Ratio (y) = 0.16068 0.27900
# Poissons Ratio (z) = -0.12597 0.60551
#
# Static dielectric constant tensor:
#      x y z
#    x 1.934060 0.000000 0.000000 
#    y 0.000000 1.962970 0.000000 
#    z 0.000000 0.000000 1.931910 
# 
# From -- ./inp_files/2841.got.cif
#   From: 2010.05.17/outbox.cif.g08.bks.cpg/sg19_2_cif.got.tgz:2841.got - 2010.06.03 22:46:19.
