data_PCOD9316971
_publ_section_title
;
Structure prediction by ZEFSAII (Michael W. Deem and Ramdas Pophale) SiO2 
 PCOD9316971
Probable space group: C 2 2 21
;
_chemical_formula_sum "Si O2"
_cell_formula_units_Z 48
_cell_length_a 7.967326
_cell_length_b 13.226641
_cell_length_c 20.646694
_cell_angle_alpha 90.000000
_cell_angle_beta 90.000000
_cell_angle_gamma 90.000000
_cell_volume 2175.768450
_symmetry_space_group_name_H-M "C 2 2 21"
_symmetry_group_IT_number 20
_symmetry_cell_setting 'orthorhombic'
loop_
_space_group_symop_operation_xyz
x,y,z
-x,-y,1/2+z
x,-y,-z
-x,y,1/2-z
1/2+x,1/2+y,z
1/2-x,1/2-y,1/2+z
1/2+x,1/2-y,-z
1/2-x,1/2+y,1/2-z
loop_
_atom_site_type_symbol
_atom_site_label
_atom_site_fract_x
_atom_site_fract_y
_atom_site_fract_z
Si Si1 0.447464 0.227412 0.592219
Si Si2 0.847086 0.936350 0.872454
Si Si3 0.720616 0.685943 0.975552
Si Si4 0.000000 0.937307 0.750000
Si Si5 0.897901 0.722649 0.343119
Si Si6 0.978180 0.000000 0.000000
Si Si7 0.262519 0.253014 0.714717
O O1 0.543966 0.333606 0.610997
O O2 0.297605 0.246608 0.540581
O O3 0.591305 0.168838 0.551572
O O4 0.375287 0.192671 0.662107
O O5 0.933924 0.994030 0.812795
O O6 0.670618 0.892098 0.849620
O O7 0.859464 0.996968 0.937737
O O8 0.628082 0.734274 0.914043
O O9 0.607663 0.591292 0.993522
O O10 0.855237 0.860082 0.726897
O O11 0.783281 0.779597 0.288283
O O12 0.086015 0.727788 0.319287
#
# Coordination Sequence:
#
# PCOD9316971 Si02
#       7
#     8   8   8   4   8   4   8
#     4   9  17  30  52  77 102 135 178 222 262 313
#     4   8  16  30  50  74 103 139 175 213 264 319
#     4  10  19  32  53  79 107 142 180 219 268 317
#     4   8  14  28  50  76 102 138 174 214 268 320
#     4   9  17  30  53  83 105 134 179 224 268 319
#     4  10  20  34  52  80 116 148 176 218 270 318
#     4   9  16  29  53  83 106 127 177 235 267 306
#
# _framework density 22.061169
#
# number of rings (size 3 to 8) (size 9 to 14) (size 15 to 20)
#    0.000    3.000    0.000    2.000    0.000    0.000 
#    0.000    1.667    0.000   49.000    0.000   46.667 
#    0.000    0.000    0.000    0.000    0.000    0.000 
#
# Total GULP energy -133602.679018 kJ/mol
# GULP energy per Si atom -5566.778292 kJ/mol
# Density = 2.201096 g / cm^3
# Si number density = 22.061169 Si / 1000 Ang^3
#
#
#
# Elastic Constant Matrix: (Units=GPa)
#
#
# Indices 1 2 3 4 5 6 
#
# 1 91.5741 -0.9418 24.9473 0.0000 0.0000 0.0000
# 2 -0.9418 7.8835 5.7904 0.0000 0.0000 0.0000
# 3 24.9473 5.7904 135.5828 0.0000 0.0000 0.0000
# 4 0.0000 0.0000 0.0000 21.3569 0.0000 0.0000
# 5 0.0000 0.0000 0.0000 0.0000 36.1708 0.0000
# 6 0.0000 0.0000 0.0000 0.0000 0.0000 10.9192
#
#
#
# Elastic Compliance Matrix: (Units=1/GPa)
#
#
# Indices 1 2 3 4 5 6 
#
# 1 0.011567 0.003040 -0.002258 0.000000 0.000000 0.000000
# 2 0.003040 0.131754 -0.006186 0.000000 0.000000 0.000000
# 3 -0.002258 -0.006186 0.008055 0.000000 0.000000 0.000000
# 4 0.000000 0.000000 0.000000 0.046823 0.000000 0.000000
# 5 0.000000 0.000000 0.000000 0.000000 0.027647 0.000000
# 6 0.000000 0.000000 0.000000 0.000000 0.000000 0.091582
#
#
# Mechanical properties :
#
#
# Convention : Reuss Voigt Hill
#
# Bulk Modulus (GPa) = 7.11403 32.73693 19.92548
# Shear Modulus (GPa) = 13.33008 27.37234 20.35121
#
# Velocity S-wave (km/s) = 2.46078 3.52625 3.04055
# Velocity P-wave (km/s) = 3.36238 5.60808 4.62365
#
# Compressibility (1/GPa) = 0.14056733
#
# Stress axis : x y z
#
# Youngs Moduli (GPa) = 86.45619 7.58992 124.14251
#
# Poissons Ratio (x) = -0.02308 0.28033
# Poissons Ratio (y) = -0.26285 0.76799
# Poissons Ratio (z) = 0.19523 0.04695
#
# Static dielectric constant tensor:
#      x y z
#    x 1.845320 0.000000 0.000000 
#    y 0.000000 1.868710 0.000000 
#    z 0.000000 0.000000 1.846060 
# 
# From -- ./inp_files/26608.got.cif
#   From: 2010.05.17/outbox.cif.g08.bks.cpg/sg20_14_cif.got.tgz:26608.got - 2010.06.03 22:52:26.
