data_PCOD9316824
_publ_section_title
;
Structure prediction by ZEFSAII (Michael W. Deem and Ramdas Pophale) SiO2 
 PCOD9316824
Probable space group: C 2 2 21
;
_chemical_formula_sum "Si O2"
_cell_formula_units_Z 32
_cell_length_a 13.843095
_cell_length_b 5.068157
_cell_length_c 18.326103
_cell_angle_alpha 90.000000
_cell_angle_beta 90.000000
_cell_angle_gamma 90.000000
_cell_volume 1285.740672
_symmetry_space_group_name_H-M "C 2 2 21"
_symmetry_group_IT_number 20
_symmetry_cell_setting 'orthorhombic'
loop_
_space_group_symop_operation_xyz
x,y,z
-x,-y,1/2+z
x,-y,-z
-x,y,1/2-z
1/2+x,1/2+y,z
1/2-x,1/2-y,1/2+z
1/2+x,1/2-y,-z
1/2-x,1/2+y,1/2-z
loop_
_atom_site_type_symbol
_atom_site_label
_atom_site_fract_x
_atom_site_fract_y
_atom_site_fract_z
Si Si1 0.388076 0.701572 0.122336
Si Si2 0.547854 0.674507 0.874940
Si Si3 0.000000 0.568848 0.750000
Si Si4 0.274321 0.527346 0.700645
Si Si5 0.988106 0.500000 0.500000
O O1 0.435546 0.413283 0.113745
O O2 0.282704 0.819628 0.134681
O O3 0.426923 0.763024 0.203448
O O4 0.444826 0.852298 0.058603
O O5 0.548054 0.887223 0.810857
O O6 0.623735 0.468503 0.840977
O O7 0.574604 0.798303 0.952328
O O8 0.229637 0.253808 0.734118
#
# Coordination Sequence:
#
# PCOD9316824 Si02
#       5
#     8   8   4   8   4
#     4  11  23  44  70 102 146 191 239 304 371 435
#     4  11  23  44  70 102 146 191 239 304 371 435
#     4  10  18  38  68  96 134 174 234 294 358 430
#     4  12  26  46  76 118 142 186 258 316 370 446
#     4  10  26  46  64 104 142 202 246 282 386 442
#
# _framework density 24.888376000000001
#
# number of rings (size 3 to 8) (size 9 to 14) (size 15 to 20)
#    0.000    1.000    2.500    4.500    7.000    0.000 
#    9.000    0.000    0.000    0.000    0.000    0.000 
#    0.000    0.000    0.000    0.000    0.000    0.000 
#
# Total GULP energy -89108.627157 kJ/mol
# GULP energy per Si atom -5569.289197 kJ/mol
# Density = 2.483173 g / cm^3
# Si number density = 24.888376 Si / 1000 Ang^3
#
#
#
# Elastic Constant Matrix: (Units=GPa)
#
#
# Indices 1 2 3 4 5 6 
#
# 1 66.4218 -10.5523 12.3282 0.0000 0.0000 0.0000
# 2 -10.5523 86.5948 24.6906 0.0000 0.0000 0.0000
# 3 12.3282 24.6906 153.6711 0.0000 0.0000 0.0000
# 4 0.0000 0.0000 0.0000 56.8742 0.0000 0.0000
# 5 0.0000 0.0000 0.0000 0.0000 36.9464 0.0000
# 6 0.0000 0.0000 0.0000 0.0000 0.0000 22.9702
#
#
#
# Elastic Compliance Matrix: (Units=1/GPa)
#
#
# Indices 1 2 3 4 5 6 
#
# 1 0.015740 0.002388 -0.001646 0.000000 0.000000 0.000000
# 2 0.002388 0.012465 -0.002194 0.000000 0.000000 0.000000
# 3 -0.001646 -0.002194 0.006992 0.000000 0.000000 0.000000
# 4 0.000000 0.000000 0.000000 0.017583 0.000000 0.000000
# 5 0.000000 0.000000 0.000000 0.000000 0.027066 0.000000
# 6 0.000000 0.000000 0.000000 0.000000 0.000000 0.043535
#
#
# Mechanical properties :
#
#
# Convention : Reuss Voigt Hill
#
# Bulk Modulus (GPa) = 30.96874 39.95784 35.46329
# Shear Modulus (GPa) = 36.48301 42.03957 39.26129
#
# Velocity S-wave (km/s) = 3.83282 4.11435 3.97608
# Velocity P-wave (km/s) = 5.66192 6.21773 5.94633
#
# Compressibility (1/GPa) = 0.03229063
#
# Stress axis : x y z
#
# Youngs Moduli (GPa) = 63.53169 80.22712 143.01984
#
# Poissons Ratio (x) = -0.19154 0.23546
# Poissons Ratio (y) = -0.15168 0.31382
# Poissons Ratio (z) = 0.10460 0.17604
#
# Static dielectric constant tensor:
#      x y z
#    x 2.501340 0.000000 0.000000 
#    y 0.000000 2.097770 0.000000 
#    z 0.000000 0.000000 1.929480 
# 
# From -- ./inp_files/21035.got.cif
#   From: 2010.05.17/outbox.cif.g08.bks.cpg/sg20_11_cif.got.tgz:21035.got - 2010.06.03 22:52:26.
