data_PCOD9316648
_publ_section_title
;
Structure prediction by ZEFSAII (Michael W. Deem and Ramdas Pophale) SiO2 
 PCOD9316648
Probable space group: C 2 2 21
;
_chemical_formula_sum "Si O2"
_cell_formula_units_Z 56
_cell_length_a 6.201569
_cell_length_b 22.455655
_cell_length_c 19.218067
_cell_angle_alpha 90.000000
_cell_angle_beta 90.000000
_cell_angle_gamma 90.000000
_cell_volume 2676.313659
_symmetry_space_group_name_H-M "C 2 2 21"
_symmetry_group_IT_number 20
_symmetry_cell_setting 'orthorhombic'
loop_
_space_group_symop_operation_xyz
x,y,z
-x,-y,1/2+z
x,-y,-z
-x,y,1/2-z
1/2+x,1/2+y,z
1/2-x,1/2-y,1/2+z
1/2+x,1/2-y,-z
1/2-x,1/2+y,1/2-z
loop_
_atom_site_type_symbol
_atom_site_label
_atom_site_fract_x
_atom_site_fract_y
_atom_site_fract_z
Si Si1 0.000000 0.510696 0.750000
Si Si2 0.461489 0.879471 0.442994
Si Si3 0.910734 0.935580 0.972344
Si Si4 0.000000 0.802827 0.250000
Si Si5 0.880470 0.020383 0.177488
Si Si6 0.320994 0.723375 0.889565
Si Si7 0.680120 0.587808 0.834466
Si Si8 0.162783 0.813380 0.996806
O O1 0.875825 0.475885 0.690600
O O2 0.812298 0.551678 0.777609
O O3 0.321484 0.923167 0.491097
O O4 0.300784 0.840485 0.395101
O O5 0.651736 0.908601 0.397550
O O6 0.591536 0.831094 0.487672
O O7 0.920707 0.940035 0.889333
O O8 0.043224 0.876353 0.989170
O O9 0.989170 0.000000 0.000000
O O10 0.129439 0.765911 0.308283
O O11 0.129672 0.848489 0.199315
O O12 0.000000 0.037647 0.250000
O O13 0.970817 0.954270 0.155504
O O14 0.173760 0.772300 0.928472
O O15 0.536129 0.716825 0.938186
#
# Coordination Sequence:
#
# PCOD9316648 Si02
#       8
#     4   8   8   4   8   8   8   8
#     4  10  18  34  60  87 136 179 212 278 356 406
#     4  11  23  38  69  93 138 179 223 286 353 418
#     4  11  25  41  66 104 137 181 240 282 340 440
#     4  12  22  38  68 107 134 163 246 290 352 408
#     4  10  22  39  62  93 142 180 229 287 348 408
#     4  11  24  43  67 103 132 183 227 295 347 433
#     4  11  20  36  62 101 134 172 217 306 351 400
#     4  11  23  45  70  92 143 181 230 281 362 412
#
# _framework density 20.924305
#
# number of rings (size 3 to 8) (size 9 to 14) (size 15 to 20)
#    0.000    1.143    5.000    2.571    2.000    4.000 
#    0.000    1.429    0.000    0.000    0.000    0.000 
#    0.000    0.000    0.000    0.000    0.000    0.000 
#
# Total GULP energy -156034.207256 kJ/mol
# GULP energy per Si atom -5572.650259 kJ/mol
# Density = 2.087668 g / cm^3
# Si number density = 20.924305 Si / 1000 Ang^3
#
#
#
# Elastic Constant Matrix: (Units=GPa)
#
#
# Indices 1 2 3 4 5 6 
#
# 1 67.4206 26.4659 38.4858 0.0000 0.0000 0.0000
# 2 26.4659 65.2364 39.7080 0.0000 0.0000 0.0000
# 3 38.4858 39.7080 134.9914 0.0000 0.0000 0.0000
# 4 0.0000 0.0000 0.0000 33.8776 0.0000 0.0000
# 5 0.0000 0.0000 0.0000 0.0000 41.7449 0.0000
# 6 0.0000 0.0000 0.0000 0.0000 0.0000 20.6276
#
#
#
# Elastic Compliance Matrix: (Units=1/GPa)
#
#
# Indices 1 2 3 4 5 6 
#
# 1 0.019170 -0.005421 -0.003871 0.000000 0.000000 0.000000
# 2 -0.005421 0.020205 -0.004398 0.000000 0.000000 0.000000
# 3 -0.003871 -0.004398 0.009805 0.000000 0.000000 0.000000
# 4 0.000000 0.000000 0.000000 0.029518 0.000000 0.000000
# 5 0.000000 0.000000 0.000000 0.000000 0.023955 0.000000
# 6 0.000000 0.000000 0.000000 0.000000 0.000000 0.048479
#
#
# Mechanical properties :
#
#
# Convention : Reuss Voigt Hill
#
# Bulk Modulus (GPa) = 45.86994 52.99643 49.43318
# Shear Modulus (GPa) = 26.91391 30.11594 28.51492
#
# Velocity S-wave (km/s) = 3.59033 3.79790 3.69557
# Velocity P-wave (km/s) = 6.25753 6.67943 6.47192
#
# Compressibility (1/GPa) = 0.02180077
#
# Stress axis : x y z
#
# Youngs Moduli (GPa) = 52.16548 49.49271 101.98844
#
# Poissons Ratio (x) = 0.26830 0.39476
# Poissons Ratio (y) = 0.28279 0.44853
# Poissons Ratio (z) = 0.20192 0.21766
#
# Static dielectric constant tensor:
#      x y z
#    x 1.827240 0.000000 0.000000 
#    y 0.000000 1.772130 0.000000 
#    z 0.000000 0.000000 1.838650 
# 
# From -- ./inp_files/26208.got.cif
#   From: 2010.05.17/outbox.cif.g08.bks.cpg/sg20_14_cif.got.tgz:26208.got - 2010.06.03 22:52:26.
