data_PCOD9316767
_publ_section_title
;
Structure prediction by ZEFSAII (Michael W. Deem and Ramdas Pophale) SiO2 
 PCOD9316767
Probable space group: C 2 2 21
;
_chemical_formula_sum "Si O2"
_cell_formula_units_Z 48
_cell_length_a 14.375088
_cell_length_b 11.813139
_cell_length_c 11.804733
_cell_angle_alpha 90.000000
_cell_angle_beta 90.000000
_cell_angle_gamma 90.000000
_cell_volume 2004.619704
_symmetry_space_group_name_H-M "C 2 2 21"
_symmetry_group_IT_number 20
_symmetry_cell_setting 'orthorhombic'
loop_
_space_group_symop_operation_xyz
x,y,z
-x,-y,1/2+z
x,-y,-z
-x,y,1/2-z
1/2+x,1/2+y,z
1/2-x,1/2-y,1/2+z
1/2+x,1/2-y,-z
1/2-x,1/2+y,1/2-z
loop_
_atom_site_type_symbol
_atom_site_label
_atom_site_fract_x
_atom_site_fract_y
_atom_site_fract_z
Si Si1 0.684707 0.801180 0.128667
Si Si2 0.631765 0.371317 0.686103
Si Si3 0.000000 0.692036 0.250000
Si Si4 0.177793 0.500000 0.500000
Si Si5 0.698108 0.570844 0.800107
Si Si6 0.659009 0.175958 0.115056
Si Si7 0.608336 0.757776 0.532861
O O1 0.629165 0.712285 0.206028
O O2 0.720423 0.895169 0.213936
O O3 0.785297 0.760462 0.077678
O O4 0.633386 0.839075 0.015457
O O5 0.620867 0.497370 0.734371
O O6 0.739283 0.367231 0.644943
O O7 0.583366 0.323058 0.573203
O O8 0.084569 0.622424 0.198541
O O9 0.042128 0.755985 0.359009
O O10 0.249470 0.501373 0.395048
O O11 0.115002 0.388051 0.493746
O O12 0.662796 0.688948 0.854237
#
# Coordination Sequence:
#
# PCOD9316767 Si02
#       7
#     8   8   4   4   8   8   8
#     4  10  18  37  60  96 115 160 213 261 310 371
#     4  10  19  37  64  95 117 161 225 267 304 376
#     4  12  22  44  56  84 138 172 196 262 332 392
#     4  12  18  36  68  98 120 168 212 266 314 380
#     4  11  18  34  67  94 121 155 221 267 307 370
#     4  10  21  36  61  90 123 167 199 261 326 376
#     4  11  22  37  63  89 131 170 209 259 327 383
#
# _framework density 23.944690000000001
#
# number of rings (size 3 to 8) (size 9 to 14) (size 15 to 20)
#    0.000    1.333   10.000    0.000    0.000    2.667 
#    0.000    4.167   11.000    0.000    0.000    0.000 
#    0.000    0.000    0.000    0.000    0.000    0.000 
#
# Total GULP energy -133987.195119 kJ/mol
# GULP energy per Si atom -5582.799797 kJ/mol
# Density = 2.389019 g / cm^3
# Si number density = 23.944690 Si / 1000 Ang^3
#
#
#
# Elastic Constant Matrix: (Units=GPa)
#
#
# Indices 1 2 3 4 5 6 
#
# 1 52.5615 -10.6648 21.6348 0.0000 0.0000 0.0000
# 2 -10.6648 76.1051 13.4957 0.0000 0.0000 0.0000
# 3 21.6348 13.4957 168.6056 0.0000 0.0000 0.0000
# 4 0.0000 0.0000 0.0000 15.4671 0.0000 0.0000
# 5 0.0000 0.0000 0.0000 0.0000 43.1169 0.0000
# 6 0.0000 0.0000 0.0000 0.0000 0.0000 2.9753
#
#
#
# Elastic Compliance Matrix: (Units=1/GPa)
#
#
# Indices 1 2 3 4 5 6 
#
# 1 0.020948 0.003461 -0.002965 0.000000 0.000000 0.000000
# 2 0.003461 0.013901 -0.001557 0.000000 0.000000 0.000000
# 3 -0.002965 -0.001557 0.006436 0.000000 0.000000 0.000000
# 4 0.000000 0.000000 0.000000 0.064653 0.000000 0.000000
# 5 0.000000 0.000000 0.000000 0.000000 0.023193 0.000000
# 6 0.000000 0.000000 0.000000 0.000000 0.000000 0.336101
#
#
# Mechanical properties :
#
#
# Convention : Reuss Voigt Hill
#
# Bulk Modulus (GPa) = 25.53370 38.46705 32.00037
# Shear Modulus (GPa) = 10.40783 30.49896 20.45339
#
# Velocity S-wave (km/s) = 2.08712 3.57280 2.92583
# Velocity P-wave (km/s) = 4.06138 5.75497 4.98069
#
# Compressibility (1/GPa) = 0.03916394
#
# Stress axis : x y z
#
# Youngs Moduli (GPa) = 47.73706 71.93817 155.37422
#
# Poissons Ratio (x) = -0.24900 0.46069
# Poissons Ratio (y) = -0.16523 0.24189
# Poissons Ratio (z) = 0.14154 0.11199
#
# Static dielectric constant tensor:
#      x y z
#    x 1.941430 0.000000 0.000000 
#    y 0.000000 1.954980 0.000000 
#    z 0.000000 0.000000 1.947730 
# 
# From -- ./inp_files/15799.got.cif
#   From: 2010.05.17/outbox.cif.g08.bks.cpg/sg20_8_cif.got.tgz:15799.got - 2010.06.03 22:52:26.
