data_PCOD9316837
_publ_section_title
;
Structure prediction by ZEFSAII (Michael W. Deem and Ramdas Pophale) SiO2 
 PCOD9316837
Probable space group: C 2 2 21
;
_chemical_formula_sum "Si O2"
_cell_formula_units_Z 56
_cell_length_a 15.604100
_cell_length_b 7.994256
_cell_length_c 20.779634
_cell_angle_alpha 90.000000
_cell_angle_beta 90.000000
_cell_angle_gamma 90.000000
_cell_volume 2592.117418
_symmetry_space_group_name_H-M "C 2 2 21"
_symmetry_group_IT_number 20
_symmetry_cell_setting 'orthorhombic'
loop_
_space_group_symop_operation_xyz
x,y,z
-x,-y,1/2+z
x,-y,-z
-x,y,1/2-z
1/2+x,1/2+y,z
1/2-x,1/2-y,1/2+z
1/2+x,1/2-y,-z
1/2-x,1/2+y,1/2-z
loop_
_atom_site_type_symbol
_atom_site_label
_atom_site_fract_x
_atom_site_fract_y
_atom_site_fract_z
Si Si1 0.500000 0.850180 0.750000
Si Si2 0.300704 0.603338 0.112478
Si Si3 0.411576 0.710987 0.873367
Si Si4 0.189127 0.495476 0.777093
Si Si5 0.271847 0.349848 0.661332
Si Si6 0.077722 0.804566 0.518800
Si Si7 0.895023 0.163735 0.456597
Si Si8 0.814579 0.500000 0.500000
O O1 0.477833 0.750962 0.816286
O O2 0.590339 0.946725 0.763234
O O3 0.379336 0.482249 0.133149
O O4 0.236610 0.628343 0.171620
O O5 0.342700 0.742784 0.065166
O O6 0.242514 0.497999 0.063426
O O7 0.323414 0.810195 0.863309
O O8 0.437620 0.762496 0.946421
O O9 0.251942 0.485736 0.715618
O O10 0.193711 0.680653 0.805489
O O11 0.335768 0.382673 0.603293
O O12 0.992272 0.788672 0.560300
O O13 0.091948 0.000000 0.500000
O O14 0.862978 0.324753 0.496105
O O15 0.899695 0.000000 0.500000
#
# Coordination Sequence:
#
# PCOD9316837 Si02
#       8
#     4   8   8   8   8   8   8   4
#     4  10  22  36  62  96 132 168 224 294 332 402
#     4  10  18  39  64  88 123 183 220 264 344 416
#     4   9  17  37  61  86 128 169 218 266 328 416
#     4  10  22  41  66  88 129 176 219 280 338 408
#     4  10  21  44  62  93 133 171 226 269 337 416
#     4   9  18  36  60  92 127 165 218 280 324 403
#     4  11  24  40  67 104 134 169 232 292 332 415
#     4  12  20  40  74  90 134 182 224 276 360 396
#
# _framework density 21.603959
#
# number of rings (size 3 to 8) (size 9 to 14) (size 15 to 20)
#    0.000    2.000    5.000    0.000    2.000    1.143 
#   23.143    0.000    9.429    0.000    0.000    0.000 
#    0.000    0.000    0.000    0.000    0.000    0.000 
#
# Total GULP energy -155868.545978 kJ/mol
# GULP energy per Si atom -5566.733785 kJ/mol
# Density = 2.155479 g / cm^3
# Si number density = 21.603959 Si / 1000 Ang^3
#
#
#
# Elastic Constant Matrix: (Units=GPa)
#
#
# Indices 1 2 3 4 5 6 
#
# 1 108.8902 18.8893 33.1135 0.0000 0.0000 0.0000
# 2 18.8893 49.0564 11.6370 0.0000 0.0000 0.0000
# 3 33.1135 11.6370 74.7908 0.0000 0.0000 0.0000
# 4 0.0000 0.0000 0.0000 24.9340 0.0000 0.0000
# 5 0.0000 0.0000 0.0000 0.0000 45.1610 0.0000
# 6 0.0000 0.0000 0.0000 0.0000 0.0000 -59.5474
#
#
#
# Elastic Compliance Matrix: (Units=1/GPa)
#
#
# Indices 1 2 3 4 5 6 
#
# 1 0.011082 -0.003222 -0.004405 0.000000 0.000000 0.000000
# 2 -0.003222 0.022103 -0.002012 0.000000 0.000000 0.000000
# 3 -0.004405 -0.002012 0.015634 0.000000 0.000000 0.000000
# 4 0.000000 0.000000 0.000000 0.040106 0.000000 0.000000
# 5 0.000000 0.000000 0.000000 0.000000 0.022143 0.000000
# 6 0.000000 0.000000 0.000000 0.000000 0.000000 -0.016793
#
#
# Mechanical properties :
#
#
# Convention : Reuss Voigt Hill
#
# Bulk Modulus (GPa) = 33.85317 40.00190 36.92754
# Shear Modulus (GPa) = 40.51829 13.38266 26.95047
#
# Velocity S-wave (km/s) = 4.33541 2.49158 3.53580
# Velocity P-wave (km/s) = 6.38474 5.18011 5.81371
#
# Compressibility (1/GPa) = 0.02953933
#
# Stress axis : x y z
#
# Youngs Moduli (GPa) = 90.23506 45.24309 63.96249
#
# Poissons Ratio (x) = 0.14578 0.28177
# Poissons Ratio (y) = 0.29076 0.12872
# Poissons Ratio (z) = 0.39751 0.09105
#
# Static dielectric constant tensor:
#      x y z
#    x 1.799990 0.000000 0.000000 
#    y 0.000000 1.855520 0.000000 
#    z 0.000000 0.000000 2.094270 
# 
# From -- ./inp_files/27622.got.cif
#   From: 2010.05.17/outbox.cif.g08.bks.cpg/sg20_14_cif.got.tgz:27622.got - 2010.06.03 22:52:26.
