data_PCOD9316041
_publ_section_title
;
Structure prediction by ZEFSAII (Michael W. Deem and Ramdas Pophale) SiO2 
 PCOD9316041
Probable space group: P 21 21 21
;
_chemical_formula_sum "Si O2"
_cell_formula_units_Z 24
_cell_length_a 8.261050
_cell_length_b 13.815500
_cell_length_c 9.354587
_cell_angle_alpha 90.000000
_cell_angle_beta 90.000000
_cell_angle_gamma 90.000000
_cell_volume 1067.644031
_symmetry_space_group_name_H-M "P 21 21 21"
_symmetry_group_IT_number 19
_symmetry_cell_setting 'orthorhombic'
loop_
_space_group_symop_operation_xyz
x,y,z
1/2-x,-y,1/2+z
1/2+x,1/2-y,-z
-x,1/2+y,1/2-z
loop_
_atom_site_type_symbol
_atom_site_label
_atom_site_fract_x
_atom_site_fract_y
_atom_site_fract_z
Si Si1 0.065522 0.322716 0.322080
Si Si2 0.072998 0.710027 0.422396
Si Si3 0.918932 0.233295 0.582903
Si Si4 0.942494 0.828072 0.658087
Si Si5 0.413133 0.971999 0.044013
Si Si6 0.578458 0.483037 0.801115
O O1 0.235652 0.277285 0.365533
O O2 0.009736 0.297372 0.163637
O O3 0.932055 0.272138 0.422329
O O4 0.059489 0.437755 0.333646
O O5 0.257637 0.694568 0.379269
O O6 0.051201 0.743849 0.584159
O O7 0.972940 0.616705 0.374239
O O8 0.016731 0.312017 0.676219
O O9 0.001053 0.127935 0.587653
O O10 0.991125 0.933574 0.601139
O O11 0.240550 0.979827 0.122354
O O12 0.399475 0.973085 0.870430
#
# Coordination Sequence:
#
# PCOD9316041 Si02
#       6
#     4   4   4   4   4   4
#     4  12  25  48  71 105 140 186 236 294 352 422
#     4  12  25  48  71 105 140 186 236 294 352 422
#     4  12  27  46  76 103 143 186 238 292 357 421
#     4  12  27  46  76 103 143 186 238 292 357 421
#     4  12  27  48  72 108 142 189 236 296 356 419
#     4  12  27  46  74 104 148 183 242 294 354 423
#
# _framework density 22.479402
#
# number of rings (size 3 to 8) (size 9 to 14) (size 15 to 20)
#    0.000    0.000    3.333    7.000    4.667    0.000 
#    0.000    0.000    0.000    0.000    0.000    0.000 
#    0.000    0.000    0.000    0.000    0.000    0.000 
#
# Total GULP energy -134428.621473 kJ/mol
# GULP energy per Si atom -5601.192561 kJ/mol
# Density = 2.242824 g / cm^3
# Si number density = 22.479402 Si / 1000 Ang^3
#
#
#
# Elastic Constant Matrix: (Units=GPa)
#
#
# Indices 1 2 3 4 5 6 
#
# 1 82.5988 -10.7240 3.3542 0.0000 0.0000 0.0000
# 2 -10.7240 119.7142 5.9660 0.0000 0.0000 0.0000
# 3 3.3542 5.9660 59.8421 0.0000 0.0000 0.0000
# 4 0.0000 0.0000 0.0000 35.4147 0.0000 0.0000
# 5 0.0000 0.0000 0.0000 0.0000 30.8217 0.0000
# 6 0.0000 0.0000 0.0000 0.0000 0.0000 37.9795
#
#
#
# Elastic Compliance Matrix: (Units=1/GPa)
#
#
# Indices 1 2 3 4 5 6 
#
# 1 0.012287 0.001141 -0.000802 0.000000 0.000000 0.000000
# 2 0.001141 0.008501 -0.000911 0.000000 0.000000 0.000000
# 3 -0.000802 -0.000911 0.016846 0.000000 0.000000 0.000000
# 4 0.000000 0.000000 0.000000 0.028237 0.000000 0.000000
# 5 0.000000 0.000000 0.000000 0.000000 0.032445 0.000000
# 6 0.000000 0.000000 0.000000 0.000000 0.000000 0.026330
#
#
# Mechanical properties :
#
#
# Convention : Reuss Voigt Hill
#
# Bulk Modulus (GPa) = 27.40601 28.81640 28.11121
# Shear Modulus (GPa) = 36.24361 38.41378 37.32869
#
# Velocity S-wave (km/s) = 4.01971 4.13830 4.07943
# Velocity P-wave (km/s) = 5.81052 5.97335 5.89250
#
# Compressibility (1/GPa) = 0.03648835
#
# Stress axis : x y z
#
# Youngs Moduli (GPa) = 81.38416 117.63559 59.35958
#
# Poissons Ratio (x) = -0.13419 0.04763
# Poissons Ratio (y) = -0.09283 0.05410
# Poissons Ratio (z) = 0.06531 0.10722
#
# Static dielectric constant tensor:
#      x y z
#    x 1.798090 0.000000 0.000000 
#    y 0.000000 1.819300 0.000000 
#    z 0.000000 0.000000 1.774720 
# 
# From -- ./inp_files/2690.got.cif
#   From: 2010.05.17/outbox.cif.g08.bks.cpg/sg19_2_cif.got.tgz:2690.got - 2010.06.03 22:46:19.
