data_PCOD9316774
_publ_section_title
;
Structure prediction by ZEFSAII (Michael W. Deem and Ramdas Pophale) SiO2 
 PCOD9316774
Probable space group: C 2 2 21
;
_chemical_formula_sum "Si O2"
_cell_formula_units_Z 44
_cell_length_a 9.431839
_cell_length_b 10.168844
_cell_length_c 19.734026
_cell_angle_alpha 90.000000
_cell_angle_beta 90.000000
_cell_angle_gamma 90.000000
_cell_volume 1892.708183
_symmetry_space_group_name_H-M "C 2 2 21"
_symmetry_group_IT_number 20
_symmetry_cell_setting 'orthorhombic'
loop_
_space_group_symop_operation_xyz
x,y,z
-x,-y,1/2+z
x,-y,-z
-x,y,1/2-z
1/2+x,1/2+y,z
1/2-x,1/2-y,1/2+z
1/2+x,1/2-y,-z
1/2-x,1/2+y,1/2-z
loop_
_atom_site_type_symbol
_atom_site_label
_atom_site_fract_x
_atom_site_fract_y
_atom_site_fract_z
Si Si1 0.320688 0.807752 0.630175
Si Si2 0.500684 0.673862 0.144489
Si Si3 0.227471 0.958459 0.183497
Si Si4 0.331052 0.342117 0.512563
Si Si5 0.929315 0.442659 0.928295
Si Si6 0.000000 0.407891 0.250000
O O1 0.334060 0.688782 0.683924
O O2 0.336541 0.740797 0.555469
O O3 0.449796 0.907501 0.624695
O O4 0.164154 0.865286 0.640657
O O5 0.603418 0.564520 0.177712
O O6 0.555203 0.697857 0.068552
O O7 0.514674 0.805857 0.187618
O O8 0.349778 0.980511 0.238966
O O9 0.319204 0.967401 0.113564
O O10 0.351452 0.500000 0.500000
O O11 0.176460 0.326401 0.547767
O O12 0.982075 0.500000 0.000000
#
# Coordination Sequence:
#
# PCOD9316774 Si02
#       6
#     8   8   8   8   8   4
#     4  11  20  36  63  91 126 158 196 262 325 356
#     4  10  22  40  64  93 123 167 211 258 311 379
#     4  10  22  45  61  86 127 159 209 258 308 371
#     4  10  18  37  64  89 129 161 200 260 326 376
#     4  10  20  37  58  92 123 160 205 249 310 386
#     4  10  24  40  68  84 124 176 206 258 310 370
#
# _framework density 23.247112999999999
#
# number of rings (size 3 to 8) (size 9 to 14) (size 15 to 20)
#    0.000    1.818    5.455    1.091    2.545    3.636 
#    3.273    3.636    0.000    0.000    0.000    0.000 
#    0.000    0.000    0.000    0.000    0.000    0.000 
#
# Total GULP energy -122831.983609 kJ/mol
# GULP energy per Si atom -5583.271982 kJ/mol
# Density = 2.319420 g / cm^3
# Si number density = 23.247113 Si / 1000 Ang^3
#
#
#
# Elastic Constant Matrix: (Units=GPa)
#
#
# Indices 1 2 3 4 5 6 
#
# 1 102.1544 49.3480 -1.4700 0.0000 0.0000 0.0000
# 2 49.3480 59.2389 3.7800 0.0000 0.0000 0.0000
# 3 -1.4700 3.7800 54.2238 0.0000 0.0000 0.0000
# 4 0.0000 0.0000 0.0000 27.0216 0.0000 0.0000
# 5 0.0000 0.0000 0.0000 0.0000 50.1761 0.0000
# 6 0.0000 0.0000 0.0000 0.0000 0.0000 36.7211
#
#
#
# Elastic Compliance Matrix: (Units=1/GPa)
#
#
# Indices 1 2 3 4 5 6 
#
# 1 0.016488 -0.013825 0.001411 0.000000 0.000000 0.000000
# 2 -0.013825 0.028548 -0.002365 0.000000 0.000000 0.000000
# 3 0.001411 -0.002365 0.018645 0.000000 0.000000 0.000000
# 4 0.000000 0.000000 0.000000 0.037007 0.000000 0.000000
# 5 0.000000 0.000000 0.000000 0.000000 0.019930 0.000000
# 6 0.000000 0.000000 0.000000 0.000000 0.000000 0.027232
#
#
# Mechanical properties :
#
#
# Convention : Reuss Voigt Hill
#
# Bulk Modulus (GPa) = 29.30567 35.43701 32.37134
# Shear Modulus (GPa) = 26.48535 33.71437 30.09986
#
# Velocity S-wave (km/s) = 3.37901 3.81236 3.60221
# Velocity P-wave (km/s) = 5.27798 5.88689 5.59073
#
# Compressibility (1/GPa) = 0.03412309
#
# Stress axis : x y z
#
# Youngs Moduli (GPa) = 60.65072 35.02827 53.63316
#
# Poissons Ratio (x) = 0.48426 -0.07566
# Poissons Ratio (y) = 0.83849 0.12684
# Poissons Ratio (z) = -0.08556 0.08284
#
# Static dielectric constant tensor:
#      x y z
#    x 1.902170 0.000000 0.000000 
#    y 0.000000 1.922140 0.000000 
#    z 0.000000 0.000000 1.980160 
# 
# From -- ./inp_files/28665.got.cif
#   From: 2010.05.17/outbox.cif.g08.bks.cpg/sg20_15_cif.got.tgz:28665.got - 2010.06.03 22:52:26.
