data_PCOD9316783
_publ_section_title
;
Structure prediction by ZEFSAII (Michael W. Deem and Ramdas Pophale) SiO2 
 PCOD9316783
Probable space group: C 2 2 21
;
_chemical_formula_sum "Si O2"
_cell_formula_units_Z 36
_cell_length_a 14.429448
_cell_length_b 7.210035
_cell_length_c 14.704813
_cell_angle_alpha 90.000000
_cell_angle_beta 90.000000
_cell_angle_gamma 90.000000
_cell_volume 1529.842058
_symmetry_space_group_name_H-M "C 2 2 21"
_symmetry_group_IT_number 20
_symmetry_cell_setting 'orthorhombic'
loop_
_space_group_symop_operation_xyz
x,y,z
-x,-y,1/2+z
x,-y,-z
-x,y,1/2-z
1/2+x,1/2+y,z
1/2-x,1/2-y,1/2+z
1/2+x,1/2-y,-z
1/2-x,1/2+y,1/2-z
loop_
_atom_site_type_symbol
_atom_site_label
_atom_site_fract_x
_atom_site_fract_y
_atom_site_fract_z
Si Si1 0.496373 0.748914 0.356007
Si Si2 0.803661 0.709539 0.868889
Si Si3 0.309024 0.788279 0.467389
Si Si4 0.804417 0.862723 0.195333
Si Si5 0.500000 0.386465 0.250000
O O1 0.500000 0.820368 0.250000
O O2 0.591072 0.827360 0.398849
O O3 0.408853 0.781952 0.419975
O O4 0.490795 0.526817 0.335807
O O5 0.813846 0.927914 0.841315
O O6 0.770610 0.623240 0.774815
O O7 0.723922 0.679495 0.943317
O O8 0.298148 0.000000 0.500000
O O9 0.235323 0.746831 0.387952
O O10 0.901941 0.789488 0.234455
#
# Coordination Sequence:
#
# PCOD9316783 Si02
#       5
#     8   8   8   8   4
#     4   9  17  38  58  76 114 158 181 225 302 333
#     4  10  21  35  62  81 113 150 193 233 285 340
#     4  10  20  34  58  84 114 149 196 232 282 343
#     4  10  18  38  53  84 111 151 186 235 286 334
#     4   8  18  32  62  76 106 152 184 228 292 328
#
# _framework density 23.531839999999999
#
# number of rings (size 3 to 8) (size 9 to 14) (size 15 to 20)
#    0.667    1.778    2.222    0.000    0.000    1.778 
#    0.000   15.556    0.000    0.000    0.000    0.000 
#    0.000    0.000    0.000    0.000    0.000    0.000 
#
# Total GULP energy -100317.840350 kJ/mol
# GULP energy per Si atom -5573.213353 kJ/mol
# Density = 2.347828 g / cm^3
# Si number density = 23.531840 Si / 1000 Ang^3
#
#
#
# Elastic Constant Matrix: (Units=GPa)
#
#
# Indices 1 2 3 4 5 6 
#
# 1 198.1015 -6.6947 72.4844 0.0000 0.0000 0.0000
# 2 -6.6947 20.7104 3.2240 0.0000 0.0000 0.0000
# 3 72.4844 3.2240 114.6657 0.0000 0.0000 0.0000
# 4 0.0000 0.0000 0.0000 18.0955 0.0000 0.0000
# 5 0.0000 0.0000 0.0000 0.0000 55.1999 0.0000
# 6 0.0000 0.0000 0.0000 0.0000 0.0000 13.9737
#
#
#
# Elastic Compliance Matrix: (Units=1/GPa)
#
#
# Indices 1 2 3 4 5 6 
#
# 1 0.006730 0.002850 -0.004335 0.000000 0.000000 0.000000
# 2 0.002850 0.049704 -0.003199 0.000000 0.000000 0.000000
# 3 -0.004335 -0.003199 0.011551 0.000000 0.000000 0.000000
# 4 0.000000 0.000000 0.000000 0.055262 0.000000 0.000000
# 5 0.000000 0.000000 0.000000 0.000000 0.018116 0.000000
# 6 0.000000 0.000000 0.000000 0.000000 0.000000 0.071563
#
#
# Mechanical properties :
#
#
# Convention : Reuss Voigt Hill
#
# Bulk Modulus (GPa) = 17.05949 52.38946 34.72448
# Shear Modulus (GPa) = 20.67541 35.08477 27.88009
#
# Velocity S-wave (km/s) = 2.96736 3.86547 3.44580
# Velocity P-wave (km/s) = 4.35954 6.49877 5.53352
#
# Compressibility (1/GPa) = 0.05861839
#
# Stress axis : x y z
#
# Youngs Moduli (GPa) = 148.58315 20.11900 86.57262
#
# Poissons Ratio (x) = -0.05735 0.37526
# Poissons Ratio (y) = -0.42351 0.27697
# Poissons Ratio (z) = 0.64404 0.06437
#
# Static dielectric constant tensor:
#      x y z
#    x 1.967820 0.000000 0.000000 
#    y 0.000000 1.967310 0.000000 
#    z 0.000000 0.000000 1.872530 
# 
# From -- ./inp_files/20454.got.cif
#   From: 2010.05.17/outbox.cif.g08.bks.cpg/sg20_11_cif.got.tgz:20454.got - 2010.06.03 22:52:26.
