data_PCOD9316451
_publ_section_title
;
Structure prediction by ZEFSAII (Michael W. Deem and Ramdas Pophale) SiO2 
 PCOD9316451
Probable space group: C 2 2 21
;
_chemical_formula_sum "Si O2"
_cell_formula_units_Z 56
_cell_length_a 19.199514
_cell_length_b 13.103545
_cell_length_c 11.905502
_cell_angle_alpha 90.000000
_cell_angle_beta 90.000000
_cell_angle_gamma 90.000000
_cell_volume 2995.206381
_symmetry_space_group_name_H-M "C 2 2 21"
_symmetry_group_IT_number 20
_symmetry_cell_setting 'orthorhombic'
loop_
_space_group_symop_operation_xyz
x,y,z
-x,-y,1/2+z
x,-y,-z
-x,y,1/2-z
1/2+x,1/2+y,z
1/2-x,1/2-y,1/2+z
1/2+x,1/2-y,-z
1/2-x,1/2+y,1/2-z
loop_
_atom_site_type_symbol
_atom_site_label
_atom_site_fract_x
_atom_site_fract_y
_atom_site_fract_z
Si Si1 0.131105 0.705633 0.467504
Si Si2 0.830259 0.593759 0.807971
Si Si3 0.233213 0.118128 0.460284
Si Si4 0.474491 0.833582 0.479367
Si Si5 0.740213 0.101596 0.305290
Si Si6 0.553466 0.978921 0.832419
Si Si7 0.160371 0.746138 0.890795
O O1 0.147506 0.627500 0.569177
O O2 0.166198 0.813683 0.502240
O O3 0.171957 0.659679 0.358937
O O4 0.046750 0.706958 0.469919
O O5 0.764890 0.519972 0.818815
O O6 0.882732 0.522418 0.736626
O O7 0.826609 0.692255 0.729597
O O8 0.247653 0.121465 0.326940
O O9 0.296132 0.175550 0.523883
O O10 0.228905 0.000000 0.500000
O O11 0.431731 0.898102 0.571900
O O12 0.420513 0.755363 0.423991
O O13 0.486046 0.922801 0.386310
O O14 0.803479 0.145716 0.378415
O O15 0.500000 0.926264 0.750000
#
# Coordination Sequence:
#
# PCOD9316451 Si02
#       7
#     8   8   8   8   8   8   8
#     4  11  23  37  60  91 123 157 199 258 306 370
#     4  11  19  35  56  85 120 153 192 246 302 360
#     4  11  22  41  60  85 118 166 209 250 295 360
#     4  10  21  34  53  90 123 153 193 245 311 361
#     4  11  22  36  59  86 122 159 203 243 302 363
#     4  10  18  29  53  82 123 152 180 236 309 368
#     4  10  22  36  57  88 117 157 199 250 301 355
#
# _framework density 18.696542000000001
#
# number of rings (size 3 to 8) (size 9 to 14) (size 15 to 20)
#    0.000    1.429    4.286    2.143    4.000    0.000 
#    0.000    0.000    0.000    3.429    0.000    4.000 
#    0.000    0.000    0.000    0.000    0.000    0.000 
#
# Total GULP energy -156035.477403 kJ/mol
# GULP energy per Si atom -5572.695622 kJ/mol
# Density = 1.865399 g / cm^3
# Si number density = 18.696542 Si / 1000 Ang^3
#
#
#
# Elastic Constant Matrix: (Units=GPa)
#
#
# Indices 1 2 3 4 5 6 
#
# 1 96.3833 33.2179 28.0369 0.0000 0.0000 0.0000
# 2 33.2179 35.2932 34.4347 0.0000 0.0000 0.0000
# 3 28.0369 34.4347 90.5653 0.0000 0.0000 0.0000
# 4 0.0000 0.0000 0.0000 21.5478 0.0000 0.0000
# 5 0.0000 0.0000 0.0000 0.0000 22.1949 0.0000
# 6 0.0000 0.0000 0.0000 0.0000 0.0000 16.1388
#
#
#
# Elastic Compliance Matrix: (Units=1/GPa)
#
#
# Indices 1 2 3 4 5 6 
#
# 1 0.015436 -0.015685 0.001185 0.000000 0.000000 0.000000
# 2 -0.015685 0.060981 -0.018331 0.000000 0.000000 0.000000
# 3 0.001185 -0.018331 0.017645 0.000000 0.000000 0.000000
# 4 0.000000 0.000000 0.000000 0.046408 0.000000 0.000000
# 5 0.000000 0.000000 0.000000 0.000000 0.045055 0.000000
# 6 0.000000 0.000000 0.000000 0.000000 0.000000 0.061962
#
#
# Mechanical properties :
#
#
# Convention : Reuss Voigt Hill
#
# Bulk Modulus (GPa) = 35.20971 45.95787 40.58379
# Shear Modulus (GPa) = 15.49831 20.41312 17.95572
#
# Velocity S-wave (km/s) = 2.88226 3.30784 3.10236
# Velocity P-wave (km/s) = 5.47262 6.26286 5.88103
#
# Compressibility (1/GPa) = 0.02840125
#
# Stress axis : x y z
#
# Youngs Moduli (GPa) = 64.78304 16.39852 56.67445
#
# Poissons Ratio (x) = 0.25720 -0.06715
# Poissons Ratio (y) = 1.01609 1.03888
# Poissons Ratio (z) = -0.07676 0.30060
#
# Static dielectric constant tensor:
#      x y z
#    x 1.707360 0.000000 0.000000 
#    y 0.000000 1.660910 0.000000 
#    z 0.000000 0.000000 1.706090 
# 
# From -- ./inp_files/16326.got.cif
#   From: 2010.05.17/outbox.cif.g08.bks.cpg/sg20_9_cif.got.tgz:16326.got - 2010.06.03 22:52:26.
