data_PCOD9316085
_publ_section_title
;
Structure prediction by ZEFSAII (Michael W. Deem and Ramdas Pophale) SiO2 
 PCOD9316085
Probable space group: P 21 21 21
;
_chemical_formula_sum "Si O2"
_cell_formula_units_Z 20
_cell_length_a 11.743034
_cell_length_b 7.538419
_cell_length_c 8.245550
_cell_angle_alpha 90.000000
_cell_angle_beta 90.000000
_cell_angle_gamma 90.000000
_cell_volume 729.928331
_symmetry_space_group_name_H-M "P 21 21 21"
_symmetry_group_IT_number 19
_symmetry_cell_setting 'orthorhombic'
loop_
_space_group_symop_operation_xyz
x,y,z
1/2-x,-y,1/2+z
1/2+x,1/2-y,-z
-x,1/2+y,1/2-z
loop_
_atom_site_type_symbol
_atom_site_label
_atom_site_fract_x
_atom_site_fract_y
_atom_site_fract_z
Si Si1 0.279080 0.648289 0.375366
Si Si2 0.609699 0.569811 0.879870
Si Si3 0.031612 0.522991 0.704143
Si Si4 0.846629 0.382475 0.904354
Si Si5 0.895542 0.016306 0.325073
O O1 0.372731 0.629009 0.234685
O O2 0.195832 0.808874 0.422085
O O3 0.350260 0.612673 0.537393
O O4 0.188467 0.496632 0.329469
O O5 0.730690 0.476887 0.850944
O O6 0.620670 0.782717 0.886906
O O7 0.519496 0.515362 0.742773
O O8 0.551152 0.506076 0.050388
O O9 0.950480 0.513933 0.863129
O O10 0.103322 0.703516 0.680577
#
# Coordination Sequence:
#
# PCOD9316085 Si02
#       5
#     4   4   4   4   4
#     4  12  26  53  81 115 167 215 276 350 410 505
#     4  12  29  50  83 125 164 223 277 344 419 502
#     4  12  28  53  81 121 167 224 284 348 417 506
#     4  12  28  47  84 116 168 216 278 341 416 491
#     4  12  27  51  81 121 168 212 281 337 424 500
#
# _framework density 27.399951999999999
#
# number of rings (size 3 to 8) (size 9 to 14) (size 15 to 20)
#    0.000    0.000    4.000    3.600    8.400    0.000 
#    7.200    0.000    0.000    0.000    0.000    0.000 
#    0.000    0.000    0.000    0.000    0.000    0.000 
#
# Total GULP energy -111955.447013 kJ/mol
# GULP energy per Si atom -5597.772351 kJ/mol
# Density = 2.733759 g / cm^3
# Si number density = 27.399952 Si / 1000 Ang^3
#
#
#
# Elastic Constant Matrix: (Units=GPa)
#
#
# Indices 1 2 3 4 5 6 
#
# 1 256.6709 54.1789 57.5063 0.0000 0.0000 0.0000
# 2 54.1789 130.4420 35.9616 0.0000 0.0000 0.0000
# 3 57.5063 35.9616 117.8876 0.0000 0.0000 0.0000
# 4 0.0000 0.0000 0.0000 47.2191 0.0000 0.0000
# 5 0.0000 0.0000 0.0000 0.0000 51.4410 0.0000
# 6 0.0000 0.0000 0.0000 0.0000 0.0000 71.9098
#
#
#
# Elastic Compliance Matrix: (Units=1/GPa)
#
#
# Indices 1 2 3 4 5 6 
#
# 1 0.004600 -0.001411 -0.001814 0.000000 0.000000 0.000000
# 2 -0.001411 0.008803 -0.001997 0.000000 0.000000 0.000000
# 3 -0.001814 -0.001997 0.009977 0.000000 0.000000 0.000000
# 4 0.000000 0.000000 0.000000 0.021178 0.000000 0.000000
# 5 0.000000 0.000000 0.000000 0.000000 0.019440 0.000000
# 6 0.000000 0.000000 0.000000 0.000000 0.000000 0.013906
#
#
# Mechanical properties :
#
#
# Convention : Reuss Voigt Hill
#
# Bulk Modulus (GPa) = 77.30029 88.92159 83.11094
# Shear Modulus (GPa) = 53.96155 57.93755 55.94955
#
# Velocity S-wave (km/s) = 4.44261 4.60337 4.52371
# Velocity P-wave (km/s) = 7.38842 7.79605 7.59497
#
# Compressibility (1/GPa) = 0.01293656
#
# Stress axis : x y z
#
# Youngs Moduli (GPa) = 217.38413 113.60076 100.23454
#
# Poissons Ratio (x) = 0.16025 0.18179
# Poissons Ratio (y) = 0.30665 0.20018
# Poissons Ratio (z) = 0.39426 0.22688
#
# Static dielectric constant tensor:
#      x y z
#    x 2.100250 0.000000 0.000000 
#    y 0.000000 2.161260 0.000000 
#    z 0.000000 0.000000 2.197170 
# 
# From -- ./inp_files/3303.got.cif
#   From: 2010.05.17/outbox.cif.g08.bks.cpg/sg19_2_cif.got.tgz:3303.got - 2010.06.03 22:46:19.
