data_PCOD9316829
_publ_section_title
;
Structure prediction by ZEFSAII (Michael W. Deem and Ramdas Pophale) SiO2 
 PCOD9316829
Probable space group: C 2 2 21
;
_chemical_formula_sum "Si O2"
_cell_formula_units_Z 56
_cell_length_a 20.299156
_cell_length_b 8.747098
_cell_length_c 16.723189
_cell_angle_alpha 90.000000
_cell_angle_beta 90.000000
_cell_angle_gamma 90.000000
_cell_volume 2969.347813
_symmetry_space_group_name_H-M "C 2 2 21"
_symmetry_group_IT_number 20
_symmetry_cell_setting 'orthorhombic'
loop_
_space_group_symop_operation_xyz
x,y,z
-x,-y,1/2+z
x,-y,-z
-x,y,1/2-z
1/2+x,1/2+y,z
1/2-x,1/2-y,1/2+z
1/2+x,1/2-y,-z
1/2-x,1/2+y,1/2-z
loop_
_atom_site_type_symbol
_atom_site_label
_atom_site_fract_x
_atom_site_fract_y
_atom_site_fract_z
Si Si1 0.140388 0.825150 0.011699
Si Si2 0.386746 0.982864 0.297721
Si Si3 0.441368 0.280318 0.811298
Si Si4 0.221950 0.613988 0.925820
Si Si5 0.691137 0.734659 0.809594
Si Si6 0.476656 0.119487 0.563004
Si Si7 0.811924 0.968690 0.814443
O O1 0.162274 0.793358 0.102090
O O2 0.203799 0.780347 0.957547
O O3 0.082240 0.713702 0.980478
O O4 0.121397 0.000000 0.000000
O O5 0.407444 0.869738 0.227721
O O6 0.325955 0.917868 0.350620
O O7 0.445346 0.976101 0.362779
O O8 0.361841 0.148221 0.270529
O O9 0.500000 0.324429 0.750000
O O10 0.473142 0.235138 0.895580
O O11 0.385358 0.406360 0.816771
O O12 0.292582 0.570562 0.891516
O O13 0.206634 0.500000 0.000000
O O14 0.760440 0.826317 0.812922
O O15 0.697490 0.578052 0.761792
O O16 0.505044 0.000000 0.500000
#
# Coordination Sequence:
#
# PCOD9316829 Si02
#       7
#     8   8   8   8   8   8   8
#     4  11  22  36  67  96 121 157 219 262 311 376
#     4   9  17  37  63  92 117 159 205 255 308 370
#     4  10  23  40  63  90 131 168 208 251 315 381
#     4  10  18  39  61  87 124 161 199 258 318 367
#     4  11  22  38  66  95 124 159 211 266 318 379
#     4  10  19  41  67  88 120 168 214 257 300 377
#     4  11  23  38  61  96 131 161 204 261 327 366
#
# _framework density 18.859361
#
# number of rings (size 3 to 8) (size 9 to 14) (size 15 to 20)
#    0.000    1.714    4.286    2.571    8.000    0.000 
#    0.000    6.429    0.000    0.000    0.000    0.000 
#    0.000    0.000    0.000    0.000    0.000    0.000 
#
# Total GULP energy -156131.090364 kJ/mol
# GULP energy per Si atom -5576.110370 kJ/mol
# Density = 1.881644 g / cm^3
# Si number density = 18.859361 Si / 1000 Ang^3
#
#
#
# Elastic Constant Matrix: (Units=GPa)
#
#
# Indices 1 2 3 4 5 6 
#
# 1 85.9304 32.5601 38.6405 0.0000 0.0000 0.0000
# 2 32.5601 57.0880 36.9025 0.0000 0.0000 0.0000
# 3 38.6405 36.9025 94.2161 0.0000 0.0000 0.0000
# 4 0.0000 0.0000 0.0000 28.2210 0.0000 0.0000
# 5 0.0000 0.0000 0.0000 0.0000 26.3537 0.0000
# 6 0.0000 0.0000 0.0000 0.0000 0.0000 22.7715
#
#
#
# Elastic Compliance Matrix: (Units=1/GPa)
#
#
# Indices 1 2 3 4 5 6 
#
# 1 0.015883 -0.006492 -0.003971 0.000000 0.000000 0.000000
# 2 -0.006492 0.026109 -0.007564 0.000000 0.000000 0.000000
# 3 -0.003971 -0.007564 0.015205 0.000000 0.000000 0.000000
# 4 0.000000 0.000000 0.000000 0.035435 0.000000 0.000000
# 5 0.000000 0.000000 0.000000 0.000000 0.037945 0.000000
# 6 0.000000 0.000000 0.000000 0.000000 0.000000 0.043915
#
#
# Mechanical properties :
#
#
# Convention : Reuss Voigt Hill
#
# Bulk Modulus (GPa) = 47.29659 50.38228 48.83944
# Shear Modulus (GPa) = 22.97870 24.07799 23.52834
#
# Velocity S-wave (km/s) = 3.49438 3.57699 3.53593
# Velocity P-wave (km/s) = 6.43537 6.62061 6.52865
#
# Compressibility (1/GPa) = 0.02114317
#
# Stress axis : x y z
#
# Youngs Moduli (GPa) = 62.96078 38.30140 65.76682
#
# Poissons Ratio (x) = 0.24864 0.26118
# Poissons Ratio (y) = 0.40872 0.49745
# Poissons Ratio (z) = 0.25004 0.28971
#
# Static dielectric constant tensor:
#      x y z
#    x 1.681620 0.000000 0.000000 
#    y 0.000000 1.676840 0.000000 
#    z 0.000000 0.000000 1.663120 
# 
# From -- ./inp_files/25447.got.cif
#   From: 2010.05.17/outbox.cif.g08.bks.cpg/sg20_13_cif.got.tgz:25447.got - 2010.06.03 22:52:26.
