data_PCOD9316185
_publ_section_title
;
Structure prediction by ZEFSAII (Michael W. Deem and Ramdas Pophale) SiO2 
 PCOD9316185
Probable space group: C 2 2 21
;
_chemical_formula_sum "Si O2"
_cell_formula_units_Z 36
_cell_length_a 7.389464
_cell_length_b 14.883958
_cell_length_c 13.671206
_cell_angle_alpha 90.000000
_cell_angle_beta 90.000000
_cell_angle_gamma 90.000000
_cell_volume 1503.620371
_symmetry_space_group_name_H-M "C 2 2 21"
_symmetry_group_IT_number 20
_symmetry_cell_setting 'orthorhombic'
loop_
_space_group_symop_operation_xyz
x,y,z
-x,-y,1/2+z
x,-y,-z
-x,y,1/2-z
1/2+x,1/2+y,z
1/2-x,1/2-y,1/2+z
1/2+x,1/2-y,-z
1/2-x,1/2+y,1/2-z
loop_
_atom_site_type_symbol
_atom_site_label
_atom_site_fract_x
_atom_site_fract_y
_atom_site_fract_z
Si Si1 0.000000 0.525023 0.250000
Si Si2 0.628515 0.769356 0.112294
Si Si3 0.079030 0.407012 0.956707
Si Si4 0.765432 0.646817 0.798935
Si Si5 0.348901 0.399606 0.494979
O O1 0.931065 0.584206 0.340406
O O2 0.837940 0.454995 0.222712
O O3 0.764711 0.798071 0.199079
O O4 0.438574 0.804508 0.153236
O O5 0.599798 0.667383 0.081301
O O6 0.671562 0.824522 0.012730
O O7 0.868732 0.404839 0.989504
O O8 0.154323 0.500000 0.000000
O O9 0.622100 0.638661 0.885938
O O10 0.421687 0.500000 0.500000
#
# Coordination Sequence:
#
# PCOD9316185 Si02
#       5
#     4   8   8   8   8
#     4  10  14  28  52  72  96 122 162 204 252 290
#     4   9  18  30  50  73 102 128 166 205 251 299
#     4  10  16  29  50  73  96 127 163 208 246 289
#     4   9  17  32  51  72  98 131 163 206 263 295
#     4  10  18  31  49  74  97 132 170 202 244 301
#
# _framework density 23.942214
#
# number of rings (size 3 to 8) (size 9 to 14) (size 15 to 20)
#    0.000    2.667    8.889    0.000    0.000    1.778 
#    0.000    0.000    0.000   18.667    0.000    0.000 
#    0.000    0.000    0.000    0.000    0.000    0.000 
#
# Total GULP energy -100410.491628 kJ/mol
# GULP energy per Si atom -5578.360646 kJ/mol
# Density = 2.388772 g / cm^3
# Si number density = 23.942214 Si / 1000 Ang^3
#
#
#
# Elastic Constant Matrix: (Units=GPa)
#
#
# Indices 1 2 3 4 5 6 
#
# 1 49.3513 -3.1210 9.0623 0.0000 0.0000 0.0000
# 2 -3.1210 112.8493 76.6609 0.0000 0.0000 0.0000
# 3 9.0623 76.6609 213.4894 0.0000 0.0000 0.0000
# 4 0.0000 0.0000 0.0000 26.9048 0.0000 0.0000
# 5 0.0000 0.0000 0.0000 0.0000 13.6364 0.0000
# 6 0.0000 0.0000 0.0000 0.0000 0.0000 -2.0308
#
#
#
# Elastic Compliance Matrix: (Units=1/GPa)
#
#
# Indices 1 2 3 4 5 6 
#
# 1 0.020623 0.001541 -0.001429 0.000000 0.000000 0.000000
# 2 0.001541 0.011836 -0.004315 0.000000 0.000000 0.000000
# 3 -0.001429 -0.004315 0.006294 0.000000 0.000000 0.000000
# 4 0.000000 0.000000 0.000000 0.037168 0.000000 0.000000
# 5 0.000000 0.000000 0.000000 0.000000 0.073333 0.000000
# 6 0.000000 0.000000 0.000000 0.000000 0.000000 -0.492410
#
#
# Mechanical properties :
#
#
# Convention : Reuss Voigt Hill
#
# Bulk Modulus (GPa) = 32.95312 60.09939 46.52626
# Shear Modulus (GPa) = -15.40195 27.24126 5.91966
#
# Velocity S-wave (km/s) = -2.53908 3.37678 1.57412
# Velocity P-wave (km/s) = 2.27982 6.35294 4.77270
#
# Compressibility (1/GPa) = 0.03034614
#
# Stress axis : x y z
#
# Youngs Moduli (GPa) = 48.49028 84.49155 158.87384
#
# Poissons Ratio (x) = -0.13019 0.22699
# Poissons Ratio (y) = -0.07472 0.68560
# Poissons Ratio (z) = 0.06928 0.36461
#
# Static dielectric constant tensor:
#      x y z
#    x 1.970640 0.000000 0.000000 
#    y 0.000000 1.950040 0.000000 
#    z 0.000000 0.000000 2.011030 
# 
# From -- ./inp_files/18444.got.cif
#   From: 2010.05.17/outbox.cif.g08.bks.cpg/sg20_10_cif.got.tgz:18444.got - 2010.06.03 22:52:26.
