data_PCOD9316539
_publ_section_title
;
Structure prediction by ZEFSAII (Michael W. Deem and Ramdas Pophale) SiO2 
 PCOD9316539
Probable space group: C 2 2 21
;
_chemical_formula_sum "Si O2"
_cell_formula_units_Z 52
_cell_length_a 6.422558
_cell_length_b 21.478898
_cell_length_c 21.242536
_cell_angle_alpha 90.000000
_cell_angle_beta 90.000000
_cell_angle_gamma 90.000000
_cell_volume 2930.396544
_symmetry_space_group_name_H-M "C 2 2 21"
_symmetry_group_IT_number 20
_symmetry_cell_setting 'orthorhombic'
loop_
_space_group_symop_operation_xyz
x,y,z
-x,-y,1/2+z
x,-y,-z
-x,y,1/2-z
1/2+x,1/2+y,z
1/2-x,1/2-y,1/2+z
1/2+x,1/2-y,-z
1/2-x,1/2+y,1/2-z
loop_
_atom_site_type_symbol
_atom_site_label
_atom_site_fract_x
_atom_site_fract_y
_atom_site_fract_z
Si Si1 0.807298 0.035229 0.350790
Si Si2 0.000000 0.422812 0.750000
Si Si3 0.374471 0.356827 0.813324
Si Si4 0.740637 0.165014 0.972662
Si Si5 0.471421 0.721509 0.424490
Si Si6 0.643024 0.117422 0.456665
Si Si7 0.542207 0.444520 0.050269
O O1 0.665897 0.036073 0.288780
O O2 0.659213 0.064563 0.404372
O O3 0.998247 0.083165 0.339647
O O4 0.897627 0.973931 0.383007
O O5 0.143403 0.378763 0.794333
O O6 0.500000 0.338578 0.750000
O O7 0.396947 0.302798 0.865074
O O8 0.609943 0.208203 0.925492
O O9 0.864303 0.107161 0.944231
O O10 0.584643 0.136786 0.024061
O O11 0.897598 0.209006 0.011937
O O12 0.273576 0.675532 0.429977
O O13 0.764038 0.090397 0.517298
O O14 0.485402 0.500000 0.000000
#
# Coordination Sequence:
#
# PCOD9316539 Si02
#       7
#     8   4   8   8   8   8   8
#     4   9  18  33  51  77 113 135 181 228 265 319
#     4  10  18  32  54  80 104 146 180 222 286 316
#     4   9  19  34  53  81 108 137 181 233 274 317
#     4  11  19  31  53  80 114 147 175 216 280 325
#     4  10  19  32  51  82 114 139 179 224 270 329
#     4   9  18  32  49  76 113 144 168 215 268 328
#     4   9  20  33  48  79 114 144 175 216 270 331
#
# _framework density 17.745038000000001
#
# number of rings (size 3 to 8) (size 9 to 14) (size 15 to 20)
#    0.000    2.462    1.538    1.846    0.000    3.077 
#    0.000    0.000    0.000    0.000   16.000    0.000 
#    0.000    0.000    0.000    0.000    0.000    0.000 
#
# Total GULP energy -144919.510812 kJ/mol
# GULP energy per Si atom -5573.827339 kJ/mol
# Density = 1.770465 g / cm^3
# Si number density = 17.745038 Si / 1000 Ang^3
#
#
#
# Elastic Constant Matrix: (Units=GPa)
#
#
# Indices 1 2 3 4 5 6 
#
# 1 74.4692 39.6128 20.4475 0.0000 0.0000 0.0000
# 2 39.6128 87.2764 33.5194 0.0000 0.0000 0.0000
# 3 20.4475 33.5194 64.5662 0.0000 0.0000 0.0000
# 4 0.0000 0.0000 0.0000 24.1467 0.0000 0.0000
# 5 0.0000 0.0000 0.0000 0.0000 21.7220 0.0000
# 6 0.0000 0.0000 0.0000 0.0000 0.0000 21.0967
#
#
#
# Elastic Compliance Matrix: (Units=1/GPa)
#
#
# Indices 1 2 3 4 5 6 
#
# 1 0.017870 -0.007416 -0.001809 0.000000 0.000000 0.000000
# 2 -0.007416 0.017389 -0.006679 0.000000 0.000000 0.000000
# 3 -0.001809 -0.006679 0.019528 0.000000 0.000000 0.000000
# 4 0.000000 0.000000 0.000000 0.041414 0.000000 0.000000
# 5 0.000000 0.000000 0.000000 0.000000 0.046036 0.000000
# 6 0.000000 0.000000 0.000000 0.000000 0.000000 0.047401
#
#
# Mechanical properties :
#
#
# Convention : Reuss Voigt Hill
#
# Bulk Modulus (GPa) = 43.51799 45.94125 44.72962
# Shear Modulus (GPa) = 21.82402 22.24188 22.03295
#
# Velocity S-wave (km/s) = 3.51075 3.54420 3.52751
# Velocity P-wave (km/s) = 6.40399 6.53409 6.46937
#
# Compressibility (1/GPa) = 0.02297900
#
# Stress axis : x y z
#
# Youngs Moduli (GPa) = 55.95998 57.50820 51.20781
#
# Poissons Ratio (x) = 0.42647 0.09265
# Poissons Ratio (y) = 0.41499 0.34201
# Poissons Ratio (z) = 0.10125 0.38409
#
# Static dielectric constant tensor:
#      x y z
#    x 1.618810 0.000000 0.000000 
#    y 0.000000 1.608070 0.000000 
#    z 0.000000 0.000000 1.629830 
# 
# From -- ./inp_files/26111.got.cif
#   From: 2010.05.17/outbox.cif.g08.bks.cpg/sg20_14_cif.got.tgz:26111.got - 2010.06.03 22:52:26.
