data_PCOD9316349
_publ_section_title
;
Structure prediction by ZEFSAII (Michael W. Deem and Ramdas Pophale) SiO2 
 PCOD9316349
Probable space group: C 2 2 21
;
_chemical_formula_sum "Si O2"
_cell_formula_units_Z 64
_cell_length_a 8.155406
_cell_length_b 24.658197
_cell_length_c 14.595152
_cell_angle_alpha 90.000000
_cell_angle_beta 90.000000
_cell_angle_gamma 90.000000
_cell_volume 2935.050152
_symmetry_space_group_name_H-M "C 2 2 21"
_symmetry_group_IT_number 20
_symmetry_cell_setting 'orthorhombic'
loop_
_space_group_symop_operation_xyz
x,y,z
-x,-y,1/2+z
x,-y,-z
-x,y,1/2-z
1/2+x,1/2+y,z
1/2-x,1/2-y,1/2+z
1/2+x,1/2-y,-z
1/2-x,1/2+y,1/2-z
loop_
_atom_site_type_symbol
_atom_site_label
_atom_site_fract_x
_atom_site_fract_y
_atom_site_fract_z
Si Si1 0.811858 0.232934 0.747953
Si Si2 0.608403 0.275278 0.897514
Si Si3 0.700909 0.048774 0.949733
Si Si4 0.154941 0.307189 0.442372
Si Si5 0.981554 0.988711 0.640422
Si Si6 0.325408 0.872856 0.290051
Si Si7 0.944083 0.881326 0.957475
Si Si8 0.800621 0.911341 0.397554
O O1 0.683809 0.273435 0.795756
O O2 0.757957 0.214220 0.646461
O O3 0.784974 0.179346 0.811608
O O4 0.000000 0.250364 0.750000
O O5 0.520307 0.219743 0.927599
O O6 0.475494 0.322837 0.915109
O O7 0.758192 0.286795 0.966178
O O8 0.633986 0.082424 0.864937
O O9 0.857909 0.016300 0.906142
O O10 0.765477 0.094683 0.020470
O O11 0.605079 0.000000 0.000000
O O12 0.163059 0.372780 0.443078
O O13 0.831459 0.024576 0.600836
O O14 0.000000 0.991403 0.750000
O O15 0.972730 0.927134 0.606350
O O16 0.500000 0.852786 0.250000
O O17 0.222559 0.900723 0.209458
O O18 0.039461 0.884996 0.054655
#
# Coordination Sequence:
#
# PCOD9316349 Si02
#       8
#     8   8   8   8   8   8   8   8
#     4  11  24  38  62  90 121 162 211 265 315 367
#     4  11  22  41  59  91 131 161 205 254 317 393
#     4   9  19  35  57  89 126 155 204 249 306 373
#     4  10  22  36  59  90 123 164 203 253 316 374
#     4  10  17  32  59  90 111 151 205 258 295 362
#     4  11  22  35  61  93 124 157 201 262 318 363
#     4   9  21  34  59  90 118 161 200 251 308 373
#     4   9  18  34  54  83 119 146 199 250 303 349
#
# _framework density 21.805420000000002
#
# number of rings (size 3 to 8) (size 9 to 14) (size 15 to 20)
#    0.000    2.000    1.250    3.750   10.500    1.000 
#    0.000    1.250    0.000    0.750    0.000    0.000 
#    0.000    0.000    0.000    0.000    0.000    0.000 
#
# Total GULP energy -178361.953695 kJ/mol
# GULP energy per Si atom -5573.811053 kJ/mol
# Density = 2.175579 g / cm^3
# Si number density = 21.805420 Si / 1000 Ang^3
#
#
#
# Elastic Constant Matrix: (Units=GPa)
#
#
# Indices 1 2 3 4 5 6 
#
# 1 47.6243 12.1241 10.0376 0.0000 0.0000 0.0000
# 2 12.1241 75.7619 19.9647 0.0000 0.0000 0.0000
# 3 10.0376 19.9647 85.2181 0.0000 0.0000 0.0000
# 4 0.0000 0.0000 0.0000 37.3591 0.0000 0.0000
# 5 0.0000 0.0000 0.0000 0.0000 26.1566 0.0000
# 6 0.0000 0.0000 0.0000 0.0000 0.0000 16.0864
#
#
#
# Elastic Compliance Matrix: (Units=1/GPa)
#
#
# Indices 1 2 3 4 5 6 
#
# 1 0.022174 -0.003048 -0.001898 0.000000 0.000000 0.000000
# 2 -0.003048 0.014487 -0.003035 0.000000 0.000000 0.000000
# 3 -0.001898 -0.003035 0.012669 0.000000 0.000000 0.000000
# 4 0.000000 0.000000 0.000000 0.026767 0.000000 0.000000
# 5 0.000000 0.000000 0.000000 0.000000 0.038231 0.000000
# 6 0.000000 0.000000 0.000000 0.000000 0.000000 0.062164
#
#
# Mechanical properties :
#
#
# Convention : Reuss Voigt Hill
#
# Bulk Modulus (GPa) = 29.96892 32.53967 31.25430
# Shear Modulus (GPa) = 24.56078 27.01896 25.78987
#
# Velocity S-wave (km/s) = 3.35977 3.52390 3.44281
# Velocity P-wave (km/s) = 5.36883 5.61358 5.49257
#
# Compressibility (1/GPa) = 0.03336790
#
# Stress axis : x y z
#
# Youngs Moduli (GPa) = 45.09856 69.02820 78.93208
#
# Poissons Ratio (x) = 0.21042 0.14978
# Poissons Ratio (y) = 0.13748 0.23955
# Poissons Ratio (z) = 0.08558 0.20949
#
# Static dielectric constant tensor:
#      x y z
#    x 1.830960 0.000000 0.000000 
#    y 0.000000 1.842610 0.000000 
#    z 0.000000 0.000000 1.825920 
# 
# From -- ./inp_files/19360.got.cif
#   From: 2010.05.17/outbox.cif.g08.bks.cpg/sg20_10_cif.got.tgz:19360.got - 2010.06.03 22:52:26.
