data_PCOD9316822
_publ_section_title
;
Structure prediction by ZEFSAII (Michael W. Deem and Ramdas Pophale) SiO2 
 PCOD9316822
Probable space group: C 2 2 21
;
_chemical_formula_sum "Si O2"
_cell_formula_units_Z 48
_cell_length_a 7.466851
_cell_length_b 21.479668
_cell_length_c 15.041806
_cell_angle_alpha 90.000000
_cell_angle_beta 90.000000
_cell_angle_gamma 90.000000
_cell_volume 2412.487283
_symmetry_space_group_name_H-M "C 2 2 21"
_symmetry_group_IT_number 20
_symmetry_cell_setting 'orthorhombic'
loop_
_space_group_symop_operation_xyz
x,y,z
-x,-y,1/2+z
x,-y,-z
-x,y,1/2-z
1/2+x,1/2+y,z
1/2-x,1/2-y,1/2+z
1/2+x,1/2-y,-z
1/2-x,1/2+y,1/2-z
loop_
_atom_site_type_symbol
_atom_site_label
_atom_site_fract_x
_atom_site_fract_y
_atom_site_fract_z
Si Si1 0.189772 0.500000 0.000000
Si Si2 0.860561 0.905243 0.133271
Si Si3 0.374884 0.887999 0.608549
Si Si4 0.220183 0.586069 0.675796
Si Si5 0.000000 0.524744 0.250000
Si Si6 0.068766 0.182271 0.475900
Si Si7 0.347140 0.174598 0.990070
O O1 0.299189 0.533991 0.921751
O O2 0.083006 0.443480 0.960256
O O3 0.738077 0.893329 0.220015
O O4 0.068735 0.918617 0.153743
O O5 0.856266 0.845063 0.069513
O O6 0.376744 0.925944 0.698988
O O7 0.181890 0.857918 0.593753
O O8 0.523385 0.839653 0.574243
O O9 0.139740 0.630862 0.598842
O O10 0.112517 0.521208 0.685607
O O11 0.110976 0.254459 0.463737
O O12 0.857843 0.170156 0.477430
#
# Coordination Sequence:
#
# PCOD9316822 Si02
#       7
#     4   8   8   8   4   8   8
#     4  10  18  38  68  88 124 170 210 262 322 376
#     4   9  20  39  62  94 125 164 213 264 319 374
#     4  11  23  40  63  92 129 166 209 267 317 380
#     4  10  22  38  63  96 124 165 211 269 310 387
#     4  12  24  40  62  96 134 164 214 264 326 386
#     4  10  22  41  65  93 126 169 215 263 316 384
#     4  11  22  42  67  91 125 170 217 258 322 380
#
# _framework density 19.896478999999999
#
# number of rings (size 3 to 8) (size 9 to 14) (size 15 to 20)
#    0.000    1.667    3.333    1.000    2.333    4.000 
#    3.000    0.833    0.000    0.000    0.000    0.000 
#    0.000    0.000    0.000    0.000    0.000    0.000 
#
# Total GULP energy -133601.370771 kJ/mol
# GULP energy per Si atom -5566.723782 kJ/mol
# Density = 1.985119 g / cm^3
# Si number density = 19.896479 Si / 1000 Ang^3
#
#
#
# Elastic Constant Matrix: (Units=GPa)
#
#
# Indices 1 2 3 4 5 6 
#
# 1 46.1858 12.4413 28.9294 0.0000 0.0000 0.0000
# 2 12.4413 94.8088 45.2399 0.0000 0.0000 0.0000
# 3 28.9294 45.2399 64.4804 0.0000 0.0000 0.0000
# 4 0.0000 0.0000 0.0000 29.6405 0.0000 0.0000
# 5 0.0000 0.0000 0.0000 0.0000 27.2899 0.0000
# 6 0.0000 0.0000 0.0000 0.0000 0.0000 26.9018
#
#
#
# Elastic Compliance Matrix: (Units=1/GPa)
#
#
# Indices 1 2 3 4 5 6 
#
# 1 0.031029 0.003865 -0.016633 0.000000 0.000000 0.000000
# 2 0.003865 0.016337 -0.013196 0.000000 0.000000 0.000000
# 3 -0.016633 -0.013196 0.032230 0.000000 0.000000 0.000000
# 4 0.000000 0.000000 0.000000 0.033738 0.000000 0.000000
# 5 0.000000 0.000000 0.000000 0.000000 0.036644 0.000000
# 6 0.000000 0.000000 0.000000 0.000000 0.000000 0.037172
#
#
# Mechanical properties :
#
#
# Convention : Reuss Voigt Hill
#
# Bulk Modulus (GPa) = 36.14390 42.07736 39.11063
# Shear Modulus (GPa) = 20.13688 24.69071 22.41379
#
# Velocity S-wave (km/s) = 3.18478 3.52655 3.36001
# Velocity P-wave (km/s) = 5.63286 6.14623 5.89514
#
# Compressibility (1/GPa) = 0.02766719
#
# Stress axis : x y z
#
# Youngs Moduli (GPa) = 32.22795 61.20973 31.02729
#
# Poissons Ratio (x) = -0.23657 0.51608
# Poissons Ratio (y) = -0.12456 0.40945
# Poissons Ratio (z) = 0.53605 0.80775
#
# Static dielectric constant tensor:
#      x y z
#    x 1.718250 0.000000 0.000000 
#    y 0.000000 1.681170 0.000000 
#    z 0.000000 0.000000 1.816890 
# 
# From -- ./inp_files/19061.got.cif
#   From: 2010.05.17/outbox.cif.g08.bks.cpg/sg20_10_cif.got.tgz:19061.got - 2010.06.03 22:52:26.
