data_PCOD9316952
_publ_section_title
;
Structure prediction by ZEFSAII (Michael W. Deem and Ramdas Pophale) SiO2 
 PCOD9316952
Probable space group: C 2 2 21
;
_chemical_formula_sum "Si O2"
_cell_formula_units_Z 48
_cell_length_a 26.721690
_cell_length_b 5.382826
_cell_length_c 17.254661
_cell_angle_alpha 90.000000
_cell_angle_beta 90.000000
_cell_angle_gamma 90.000000
_cell_volume 2481.879513
_symmetry_space_group_name_H-M "C 2 2 21"
_symmetry_group_IT_number 20
_symmetry_cell_setting 'orthorhombic'
loop_
_space_group_symop_operation_xyz
x,y,z
-x,-y,1/2+z
x,-y,-z
-x,y,1/2-z
1/2+x,1/2+y,z
1/2-x,1/2-y,1/2+z
1/2+x,1/2-y,-z
1/2-x,1/2+y,1/2-z
loop_
_atom_site_type_symbol
_atom_site_label
_atom_site_fract_x
_atom_site_fract_y
_atom_site_fract_z
Si Si1 0.365762 0.296808 0.802505
Si Si2 0.918345 0.125701 0.924004
Si Si3 0.511767 0.825097 0.842047
Si Si4 0.546976 0.689829 0.189325
Si Si5 0.773487 0.121435 0.783073
Si Si6 0.185481 0.400850 0.582051
O O1 0.403712 0.414422 0.863637
O O2 0.402550 0.224568 0.733243
O O3 0.329201 0.512698 0.770743
O O4 0.332780 0.101744 0.852637
O O5 0.865973 0.261342 0.940790
O O6 0.959325 0.294256 0.884649
O O7 0.939134 0.000000 0.000000
O O8 0.500000 0.844470 0.750000
O O9 0.546399 0.581475 0.849172
O O10 0.534821 0.084841 0.867242
O O11 0.500000 0.668758 0.250000
O O12 0.759325 0.372469 0.735061
O O13 0.776846 0.218329 0.872078
O O14 0.205684 0.500000 0.500000
#
# Coordination Sequence:
#
# PCOD9316952 Si02
#       6
#     8   8   8   8   8   8
#     4  11  21  37  60  86 126 163 201 256 310 369
#     4  11  21  32  52  89 131 166 196 242 313 378
#     4  10  19  32  49  73 120 158 204 234 269 345
#     4  10  19  32  53  78 116 158 207 236 274 344
#     4  11  24  42  60  88 129 162 208 259 316 390
#     4  11  22  36  62  91 131 161 196 250 331 398
#
# _framework density 19.340181999999999
#
# number of rings (size 3 to 8) (size 9 to 14) (size 15 to 20)
#    0.000    1.333    6.667    2.000    2.333    0.000 
#    0.000    0.000    0.000    0.000    0.000    1.167 
#   10.000    0.000    0.000    0.000    0.000    0.000 
#
# Total GULP energy -133621.771939 kJ/mol
# GULP energy per Si atom -5567.573831 kJ/mol
# Density = 1.929616 g / cm^3
# Si number density = 19.340182 Si / 1000 Ang^3
#
#
#
# Elastic Constant Matrix: (Units=GPa)
#
#
# Indices 1 2 3 4 5 6 
#
# 1 44.5232 7.1164 33.3812 0.0000 0.0000 0.0000
# 2 7.1164 91.9649 1.2841 0.0000 0.0000 0.0000
# 3 33.3812 1.2841 35.4037 0.0000 0.0000 0.0000
# 4 0.0000 0.0000 0.0000 54.1770 0.0000 0.0000
# 5 0.0000 0.0000 0.0000 0.0000 10.2874 0.0000
# 6 0.0000 0.0000 0.0000 0.0000 0.0000 22.2295
#
#
#
# Elastic Compliance Matrix: (Units=1/GPa)
#
#
# Indices 1 2 3 4 5 6 
#
# 1 0.078929 -0.005071 -0.074236 0.000000 0.000000 0.000000
# 2 -0.005071 0.011205 0.004375 0.000000 0.000000 0.000000
# 3 -0.074236 0.004375 0.098082 0.000000 0.000000 0.000000
# 4 0.000000 0.000000 0.000000 0.018458 0.000000 0.000000
# 5 0.000000 0.000000 0.000000 0.000000 0.097207 0.000000
# 6 0.000000 0.000000 0.000000 0.000000 0.000000 0.044985
#
#
# Mechanical properties :
#
#
# Convention : Reuss Voigt Hill
#
# Bulk Modulus (GPa) = 26.07442 28.38392 27.22917
# Shear Modulus (GPa) = 9.77491 26.01278 17.89384
#
# Velocity S-wave (km/s) = 2.25059 3.67142 3.04504
# Velocity P-wave (km/s) = 4.50165 5.71668 5.14515
#
# Compressibility (1/GPa) = 0.03835177
#
# Stress axis : x y z
#
# Youngs Moduli (GPa) = 12.66962 89.24556 10.19556
#
# Poissons Ratio (x) = 0.45257 0.75688
# Poissons Ratio (y) = 0.06425 -0.04461
# Poissons Ratio (z) = 0.94054 -0.39045
#
# Static dielectric constant tensor:
#      x y z
#    x 1.726570 0.000000 0.000000 
#    y 0.000000 1.811650 0.000000 
#    z 0.000000 0.000000 1.664770 
# 
# From -- ./inp_files/22823.got.cif
#   From: 2010.05.17/outbox.cif.g08.bks.cpg/sg20_12_cif.got.tgz:22823.got - 2010.06.03 22:52:26.
