data_PCOD9316201
_publ_section_title
;
Structure prediction by ZEFSAII (Michael W. Deem and Ramdas Pophale) SiO2 
 PCOD9316201
Probable space group: C 2 2 21
;
_chemical_formula_sum "Si O2"
_cell_formula_units_Z 48
_cell_length_a 16.604925
_cell_length_b 15.122778
_cell_length_c 9.453078
_cell_angle_alpha 90.000000
_cell_angle_beta 90.000000
_cell_angle_gamma 90.000000
_cell_volume 2373.786942
_symmetry_space_group_name_H-M "C 2 2 21"
_symmetry_group_IT_number 20
_symmetry_cell_setting 'orthorhombic'
loop_
_space_group_symop_operation_xyz
x,y,z
-x,-y,1/2+z
x,-y,-z
-x,y,1/2-z
1/2+x,1/2+y,z
1/2-x,1/2-y,1/2+z
1/2+x,1/2-y,-z
1/2-x,1/2+y,1/2-z
loop_
_atom_site_type_symbol
_atom_site_label
_atom_site_fract_x
_atom_site_fract_y
_atom_site_fract_z
Si Si1 0.000000 0.829120 0.750000
Si Si2 0.552701 0.073192 0.386283
Si Si3 0.685611 0.200862 0.236219
Si Si4 0.564223 0.220384 0.011612
Si Si5 0.668823 0.411055 0.677689
Si Si6 0.332748 0.601002 0.844690
Si Si7 0.500000 0.646371 0.750000
O O1 0.074988 0.888408 0.698564
O O2 0.956978 0.766415 0.634596
O O3 0.500000 0.039447 0.250000
O O4 0.621637 0.139844 0.324361
O O5 0.489671 0.133702 0.471891
O O6 0.581560 0.000000 0.500000
O O7 0.652862 0.199588 0.073274
O O8 0.773024 0.158910 0.251104
O O9 0.688935 0.302812 0.285288
O O10 0.533325 0.290125 0.128656
O O11 0.683232 0.402168 0.510324
O O12 0.697923 0.509439 0.722024
O O13 0.428226 0.592649 0.817424
#
# Coordination Sequence:
#
# PCOD9316201 Si02
#       7
#     4   8   8   8   8   8   4
#     4  12  23  40  65 108 124 154 233 280 302 397
#     4  10  20  41  64  94 130 176 221 266 321 400
#     4  10  22  45  64  90 136 180 209 267 347 391
#     4  10  20  40  66  89 128 172 209 255 335 380
#     4  11  24  40  63 101 127 168 219 274 319 395
#     4  10  21  43  66  86 128 175 212 263 333 385
#     4  10  15  42  67  80 114 180 201 250 330 391
#
# _framework density 20.220855
#
# number of rings (size 3 to 8) (size 9 to 14) (size 15 to 20)
#    0.000    1.667    5.833    0.500    3.500    0.000 
#   18.000    0.000    0.000    0.000    0.000    0.000 
#    0.000    0.000    0.000    0.000    0.000    0.000 
#
# Total GULP energy -133671.555353 kJ/mol
# GULP energy per Si atom -5569.648140 kJ/mol
# Density = 2.017483 g / cm^3
# Si number density = 20.220855 Si / 1000 Ang^3
#
#
#
# Elastic Constant Matrix: (Units=GPa)
#
#
# Indices 1 2 3 4 5 6 
#
# 1 90.2177 54.6977 7.4363 0.0000 0.0000 0.0000
# 2 54.6977 142.4138 45.1814 0.0000 0.0000 0.0000
# 3 7.4363 45.1814 65.0685 0.0000 0.0000 0.0000
# 4 0.0000 0.0000 0.0000 24.8548 0.0000 0.0000
# 5 0.0000 0.0000 0.0000 0.0000 15.0092 0.0000
# 6 0.0000 0.0000 0.0000 0.0000 0.0000 -84.2143
#
#
#
# Elastic Compliance Matrix: (Units=1/GPa)
#
#
# Indices 1 2 3 4 5 6 
#
# 1 0.014865 -0.006631 0.002906 0.000000 0.000000 0.000000
# 2 -0.006631 0.011964 -0.007549 0.000000 0.000000 0.000000
# 3 0.002906 -0.007549 0.020278 0.000000 0.000000 0.000000
# 4 0.000000 0.000000 0.000000 0.040234 0.000000 0.000000
# 5 0.000000 0.000000 0.000000 0.000000 0.066626 0.000000
# 6 0.000000 0.000000 0.000000 0.000000 0.000000 -0.011874
#
#
# Mechanical properties :
#
#
# Convention : Reuss Voigt Hill
#
# Bulk Modulus (GPa) = 40.72088 56.92563 48.82326
# Shear Modulus (GPa) = 28.93053 3.82226 16.37640
#
# Velocity S-wave (km/s) = 3.78660 1.37636 2.84892
# Velocity P-wave (km/s) = 6.26894 5.54426 5.91770
#
# Compressibility (1/GPa) = 0.02455742
#
# Stress axis : x y z
#
# Youngs Moduli (GPa) = 67.27128 83.58597 49.31362
#
# Poissons Ratio (x) = 0.55427 -0.14329
# Poissons Ratio (y) = 0.44609 0.37229
# Poissons Ratio (z) = -0.19546 0.63102
#
# Static dielectric constant tensor:
#      x y z
#    x 1.741480 0.000000 0.000000 
#    y 0.000000 1.778290 0.000000 
#    z 0.000000 0.000000 1.741240 
# 
# From -- ./inp_files/9379.got.cif
#   From: 2010.05.17/outbox.cif.g08.bks.cpg/sg20_5_cif.got.tgz:9379.got - 2010.06.03 22:52:26.
