data_PCOD9316048
_publ_section_title
;
Structure prediction by ZEFSAII (Michael W. Deem and Ramdas Pophale) SiO2 
 PCOD9316048
Probable space group: P 21 21 21
;
_chemical_formula_sum "Si O2"
_cell_formula_units_Z 24
_cell_length_a 13.023290
_cell_length_b 14.098977
_cell_length_c 5.695519
_cell_angle_alpha 90.000000
_cell_angle_beta 90.000000
_cell_angle_gamma 90.000000
_cell_volume 1045.783098
_symmetry_space_group_name_H-M "P 21 21 21"
_symmetry_group_IT_number 19
_symmetry_cell_setting 'orthorhombic'
loop_
_space_group_symop_operation_xyz
x,y,z
1/2-x,-y,1/2+z
1/2+x,1/2-y,-z
-x,1/2+y,1/2-z
loop_
_atom_site_type_symbol
_atom_site_label
_atom_site_fract_x
_atom_site_fract_y
_atom_site_fract_z
Si Si1 0.036108 0.148767 0.351451
Si Si2 0.188911 0.000000 0.500000
Si Si3 0.130788 0.345461 0.202413
Si Si4 0.369213 0.345461 0.297586
Si Si5 0.036108 0.851233 0.648549
Si Si6 0.527584 0.000000 0.500000
O O1 0.074861 0.254420 0.315382
O O2 0.919249 0.151686 0.444029
O O3 0.113515 0.091549 0.521336
O O4 0.037215 0.082459 0.122924
O O5 0.113515 0.908451 0.478664
O O6 0.250000 0.992335 0.750000
O O7 0.250000 0.332243 0.250000
O O8 0.097070 0.444306 0.315781
O O9 0.080752 0.348315 0.944029
O O10 0.425139 0.254420 0.184618
O O11 0.402930 0.444306 0.184219
O O12 0.037215 0.917541 0.877077
#
# Coordination Sequence:
#
# PCOD9316048 Si02
#       6
#     4   4   4   4   4   4
#     4  12  26  49  75 109 159 198 264 328 381 471
#     4  12  27  47  82 116 156 212 269 325 398 464
#     4  12  28  47  76 111 151 208 256 318 397 468
#     4  12  28  47  76 111 151 208 256 318 397 468
#     4  12  26  49  75 109 159 198 264 328 381 471
#     4  12  25  49  76 102 156 202 249 325 388 462
#
# _framework density 22.949307999999998
#
# number of rings (size 3 to 8) (size 9 to 14) (size 15 to 20)
#    0.000    0.000    6.667    2.000    4.667    2.667 
#    0.000    0.000    0.000    0.000    0.000    0.000 
#    0.000    0.000    0.000    0.000    0.000    0.000 
#
# Total GULP energy -134138.142542 kJ/mol
# GULP energy per Si atom -5589.089273 kJ/mol
# Density = 2.289707 g / cm^3
# Si number density = 22.949308 Si / 1000 Ang^3
#
#
#
# Elastic Constant Matrix: (Units=GPa)
#
#
# Indices 1 2 3 4 5 6 
#
# 1 129.4410 16.9724 44.0783 0.0000 0.0000 0.0000
# 2 16.9724 143.4461 15.4570 0.0000 0.0000 0.0000
# 3 44.0783 15.4570 69.3053 0.0000 0.0000 0.0000
# 4 0.0000 0.0000 0.0000 52.4556 0.0000 0.0000
# 5 0.0000 0.0000 0.0000 0.0000 30.8029 0.0000
# 6 0.0000 0.0000 0.0000 0.0000 0.0000 23.1527
#
#
#
# Elastic Compliance Matrix: (Units=1/GPa)
#
#
# Indices 1 2 3 4 5 6 
#
# 1 0.009897 -0.000505 -0.006182 0.000000 0.000000 0.000000
# 2 -0.000505 0.007169 -0.001278 0.000000 0.000000 0.000000
# 3 -0.006182 -0.001278 0.018646 0.000000 0.000000 0.000000
# 4 0.000000 0.000000 0.000000 0.019064 0.000000 0.000000
# 5 0.000000 0.000000 0.000000 0.000000 0.032465 0.000000
# 6 0.000000 0.000000 0.000000 0.000000 0.000000 0.043192
#
#
# Mechanical properties :
#
#
# Convention : Reuss Voigt Hill
#
# Bulk Modulus (GPa) = 50.55038 55.02308 52.78673
# Shear Modulus (GPa) = 32.68965 38.99454 35.84210
#
# Velocity S-wave (km/s) = 3.77825 4.12656 3.95624
# Velocity P-wave (km/s) = 6.41158 6.83613 6.62726
#
# Compressibility (1/GPa) = 0.01978225
#
# Stress axis : x y z
#
# Youngs Moduli (GPa) = 101.04271 139.49578 53.63223
#
# Poissons Ratio (x) = 0.07043 0.33154
# Poissons Ratio (y) = 0.05101 0.06853
# Poissons Ratio (z) = 0.62463 0.17824
#
# Static dielectric constant tensor:
#      x y z
#    x 1.883810 0.000000 0.000000 
#    y 0.000000 1.798270 0.000000 
#    z 0.000000 0.000000 2.014270 
# 
# From -- ./inp_files/943.got.cif
#   From: 2010.05.17/outbox.cif.g08.bks.cpg/sg19_1_cif.got.tgz:943.got - 2010.06.03 22:46:19.
