data_PCOD9316566
_publ_section_title
;
Structure prediction by ZEFSAII (Michael W. Deem and Ramdas Pophale) SiO2 
 PCOD9316566
Probable space group: C 2 2 21
;
_chemical_formula_sum "Si O2"
_cell_formula_units_Z 48
_cell_length_a 11.368145
_cell_length_b 11.636837
_cell_length_c 18.542028
_cell_angle_alpha 90.000000
_cell_angle_beta 90.000000
_cell_angle_gamma 90.000000
_cell_volume 2452.910984
_symmetry_space_group_name_H-M "C 2 2 21"
_symmetry_group_IT_number 20
_symmetry_cell_setting 'orthorhombic'
loop_
_space_group_symop_operation_xyz
x,y,z
-x,-y,1/2+z
x,-y,-z
-x,y,1/2-z
1/2+x,1/2+y,z
1/2-x,1/2-y,1/2+z
1/2+x,1/2-y,-z
1/2-x,1/2+y,1/2-z
loop_
_atom_site_type_symbol
_atom_site_label
_atom_site_fract_x
_atom_site_fract_y
_atom_site_fract_z
Si Si1 0.854749 0.320355 0.611826
Si Si2 0.374691 0.442710 0.927772
Si Si3 0.766572 0.038063 0.416060
Si Si4 0.088634 0.767630 0.950506
Si Si5 0.466075 0.406266 0.331659
Si Si6 0.995419 0.529489 0.914464
O O1 0.717879 0.357899 0.611259
O O2 0.880889 0.272762 0.531043
O O3 0.915473 0.222710 0.660067
O O4 0.921437 0.439480 0.624186
O O5 0.486452 0.364541 0.951316
O O6 0.424308 0.547882 0.879833
O O7 0.320032 0.500000 0.000000
O O8 0.795265 0.173292 0.417565
O O9 0.785094 0.000000 0.500000
O O10 0.638339 0.996308 0.394372
O O11 0.858999 0.981058 0.362901
O O12 0.039025 0.659090 0.907444
O O13 0.500000 0.429608 0.250000
O O14 0.001044 0.500000 0.000000
#
# Coordination Sequence:
#
# PCOD9316566 Si02
#       6
#     8   8   8   8   8   8
#     4  11  21  36  60  90 125 156 201 261 316 368
#     4  11  21  38  67  94 123 158 215 267 311 368
#     4  10  18  36  61  83 117 158 202 253 310 363
#     4  10  18  32  57  90 120 148 194 256 310 353
#     4  11  23  42  61  85 124 169 210 254 322 385
#     4   9  20  31  53  94 119 145 192 251 311 366
#
# _framework density 19.568587999999998
#
# number of rings (size 3 to 8) (size 9 to 14) (size 15 to 20)
#    0.000    1.667    3.333    3.500    4.667    1.333 
#    3.000    0.000    0.000    1.000    0.000    0.000 
#    0.000    0.000    0.000    0.000    0.000    0.000 
#
# Total GULP energy -133812.294495 kJ/mol
# GULP energy per Si atom -5575.512271 kJ/mol
# Density = 1.952405 g / cm^3
# Si number density = 19.568588 Si / 1000 Ang^3
#
#
#
# Elastic Constant Matrix: (Units=GPa)
#
#
# Indices 1 2 3 4 5 6 
#
# 1 75.9610 25.8472 13.9192 0.0000 0.0000 0.0000
# 2 25.8472 103.3807 6.1443 0.0000 0.0000 0.0000
# 3 13.9192 6.1443 44.5355 0.0000 0.0000 0.0000
# 4 0.0000 0.0000 0.0000 11.8997 0.0000 0.0000
# 5 0.0000 0.0000 0.0000 0.0000 0.9176 0.0000
# 6 0.0000 0.0000 0.0000 0.0000 0.0000 9.6274
#
#
#
# Elastic Compliance Matrix: (Units=1/GPa)
#
#
# Indices 1 2 3 4 5 6 
#
# 1 0.015145 -0.003534 -0.004246 0.000000 0.000000 0.000000
# 2 -0.003534 0.010578 -0.000355 0.000000 0.000000 0.000000
# 3 -0.004246 -0.000355 0.023830 0.000000 0.000000 0.000000
# 4 0.000000 0.000000 0.000000 0.084036 0.000000 0.000000
# 5 0.000000 0.000000 0.000000 0.000000 1.089781 0.000000
# 6 0.000000 0.000000 0.000000 0.000000 0.000000 0.103871
#
#
# Mechanical properties :
#
#
# Convention : Reuss Voigt Hill
#
# Bulk Modulus (GPa) = 30.04527 35.07761 32.56144
# Shear Modulus (GPa) = 3.69112 16.35337 10.02224
#
# Velocity S-wave (km/s) = 1.37490 2.89397 2.26555
# Velocity P-wave (km/s) = 4.23174 5.39733 4.84968
#
# Compressibility (1/GPa) = 0.03328310
#
# Stress axis : x y z
#
# Youngs Moduli (GPa) = 66.02712 94.53844 41.96396
#
# Poissons Ratio (x) = 0.33412 0.17818
# Poissons Ratio (y) = 0.23336 0.01489
# Poissons Ratio (z) = 0.28035 0.03354
#
# Static dielectric constant tensor:
#      x y z
#    x 1.735500 0.000000 0.000000 
#    y 0.000000 1.742260 0.000000 
#    z 0.000000 0.000000 1.683110 
# 
# From -- ./inp_files/24227.got.cif
#   From: 2010.05.17/outbox.cif.g08.bks.cpg/sg20_13_cif.got.tgz:24227.got - 2010.06.03 22:52:26.
