data_PCOD9316636
_publ_section_title
;
Structure prediction by ZEFSAII (Michael W. Deem and Ramdas Pophale) SiO2 
 PCOD9316636
Probable space group: C 2 2 21
;
_chemical_formula_sum "Si O2"
_cell_formula_units_Z 44
_cell_length_a 8.427494
_cell_length_b 25.858659
_cell_length_c 9.870854
_cell_angle_alpha 90.000000
_cell_angle_beta 90.000000
_cell_angle_gamma 90.000000
_cell_volume 2151.092962
_symmetry_space_group_name_H-M "C 2 2 21"
_symmetry_group_IT_number 20
_symmetry_cell_setting 'orthorhombic'
loop_
_space_group_symop_operation_xyz
x,y,z
-x,-y,1/2+z
x,-y,-z
-x,y,1/2-z
1/2+x,1/2+y,z
1/2-x,1/2-y,1/2+z
1/2+x,1/2-y,-z
1/2-x,1/2+y,1/2-z
loop_
_atom_site_type_symbol
_atom_site_label
_atom_site_fract_x
_atom_site_fract_y
_atom_site_fract_z
Si Si1 0.314122 0.502260 0.724117
Si Si2 0.868645 0.776773 0.846964
Si Si3 0.881910 0.500000 0.500000
Si Si4 0.365795 0.166477 0.157494
Si Si5 0.459259 0.275893 0.392387
Si Si6 0.678234 0.071954 0.507930
O O1 0.500000 0.500635 0.750000
O O2 0.263734 0.554700 0.645450
O O3 0.261800 0.457977 0.617508
O O4 0.221417 0.496262 0.864653
O O5 0.781151 0.819197 0.753756
O O6 0.725221 0.739512 0.894052
O O7 0.000000 0.750462 0.750000
O O8 0.963592 0.799809 0.974508
O O9 0.000841 0.548715 0.513633
O O10 0.500000 0.138715 0.250000
O O11 0.449348 0.220216 0.115391
O O12 0.322525 0.131468 0.031178
O O13 0.500000 0.302713 0.250000
#
# Coordination Sequence:
#
# PCOD9316636 Si02
#       6
#     8   8   4   8   8   8
#     4  10  20  34  55  84 117 151 187 232 279 328
#     4  10  19  34  56  80 109 145 182 226 280 335
#     4  10  18  34  58  80 114 156 188 226 276 336
#     4   9  19  34  56  84 112 142 187 234 280 335
#     4   9  18  33  55  81 108 143 184 228 274 333
#     4  10  19  35  57  83 112 152 192 225 274 339
#
# _framework density 20.454719000000001
#
# number of rings (size 3 to 8) (size 9 to 14) (size 15 to 20)
#    0.000    2.909    0.000    6.545    0.000    0.727 
#    0.000    5.455    0.000   20.727    0.000    0.000 
#    0.000    0.000    0.000    0.000    0.000    0.000 
#
# Total GULP energy -122701.071251 kJ/mol
# GULP energy per Si atom -5577.321421 kJ/mol
# Density = 2.040816 g / cm^3
# Si number density = 20.454719 Si / 1000 Ang^3
#
#
#
# Elastic Constant Matrix: (Units=GPa)
#
#
# Indices 1 2 3 4 5 6 
#
# 1 161.8154 3.3825 80.4577 0.0000 0.0000 0.0000
# 2 3.3825 38.9608 3.2595 0.0000 0.0000 0.0000
# 3 80.4577 3.2595 110.9984 0.0000 0.0000 0.0000
# 4 0.0000 0.0000 0.0000 27.4693 0.0000 0.0000
# 5 0.0000 0.0000 0.0000 0.0000 40.7213 0.0000
# 6 0.0000 0.0000 0.0000 0.0000 0.0000 -0.5322
#
#
#
# Elastic Compliance Matrix: (Units=1/GPa)
#
#
# Indices 1 2 3 4 5 6 
#
# 1 0.009665 -0.000254 -0.006998 0.000000 0.000000 0.000000
# 2 -0.000254 0.025737 -0.000572 0.000000 0.000000 0.000000
# 3 -0.006998 -0.000572 0.014099 0.000000 0.000000 0.000000
# 4 0.000000 0.000000 0.000000 0.036404 0.000000 0.000000
# 5 0.000000 0.000000 0.000000 0.000000 0.024557 0.000000
# 6 0.000000 0.000000 0.000000 0.000000 0.000000 -1.878895
#
#
# Mechanical properties :
#
#
# Convention : Reuss Voigt Hill
#
# Bulk Modulus (GPa) = 29.53970 53.99711 41.76841
# Shear Modulus (GPa) = -2.87109 28.51001 12.81946
#
# Velocity S-wave (km/s) = -1.18603 3.73743 2.50616
# Velocity P-wave (km/s) = 3.54927 6.71418 5.37017
#
# Compressibility (1/GPa) = 0.03385274
#
# Stress axis : x y z
#
# Youngs Moduli (GPa) = 103.46856 38.85499 70.92933
#
# Poissons Ratio (x) = 0.00985 0.49637
# Poissons Ratio (y) = 0.02624 0.04057
# Poissons Ratio (z) = 0.72408 0.02222
#
# Static dielectric constant tensor:
#      x y z
#    x 1.734990 0.000000 0.000000 
#    y 0.000000 1.754530 0.000000 
#    z 0.000000 0.000000 1.800480 
# 
# From -- ./inp_files/6393.got.cif
#   From: 2010.05.17/outbox.cif.g08.bks.cpg/sg20_4_cif.got.tgz:6393.got - 2010.06.03 22:52:26.
