data_PCOD9316148
_publ_section_title
;
Structure prediction by ZEFSAII (Michael W. Deem and Ramdas Pophale) SiO2 
 PCOD9316148
Probable space group: P 21 21 21
;
_chemical_formula_sum "Si O2"
_cell_formula_units_Z 28
_cell_length_a 9.000000
_cell_length_b 15.000000
_cell_length_c 9.000000
_cell_angle_alpha 90.000000
_cell_angle_beta 90.000000
_cell_angle_gamma 90.000000
_cell_volume 1215.000000
_symmetry_space_group_name_H-M "P 21 21 21"
_symmetry_group_IT_number 19
_symmetry_cell_setting 'orthorhombic'
loop_
_space_group_symop_operation_xyz
x,y,z
1/2-x,-y,1/2+z
1/2+x,1/2-y,-z
-x,1/2+y,1/2-z
loop_
_atom_site_type_symbol
_atom_site_label
_atom_site_fract_x
_atom_site_fract_y
_atom_site_fract_z
Si Si1 0.737326 0.261243 0.190469
Si Si2 0.293613 0.014927 0.585184
Si Si3 0.917070 0.763047 0.380443
Si Si4 0.374807 0.894636 0.837107
Si Si5 0.787936 0.107236 0.398620
Si Si6 0.254928 0.575903 0.767057
Si Si7 0.417992 0.935653 0.288927
O O1 0.713481 0.191741 0.321830
O O2 0.703947 0.360146 0.245981
O O3 0.906752 0.253225 0.137283
O O4 0.632936 0.245317 0.049669
O O5 0.246111 0.092521 0.466352
O O6 0.129165 0.993198 0.660039
O O7 0.382957 0.985273 0.735706
O O8 0.384925 0.959503 0.459485
O O9 0.845078 0.685781 0.277119
O O10 0.861447 0.857162 0.318751
O O11 0.535181 0.877004 0.909725
O O12 0.720787 0.085073 0.557793
O O13 0.769242 0.024236 0.289398
O O14 0.082943 0.598729 0.732139
#
# Coordination Sequence:
#
# PCOD9316148 Si02
#       7
#     4   4   4   4   4   4   4
#     4  11  25  46  70 100 137 181 225 279 339 408
#     4  10  22  40  73  95 133 175 219 286 331 398
#     4  11  25  43  70  98 141 180 223 280 341 401
#     4  10  22  45  65 102 135 173 229 274 336 407
#     4  11  27  45  67  95 139 177 224 283 343 402
#     4  12  27  45  68  99 137 177 225 286 342 405
#     4  11  24  44  69 103 136 173 235 274 340 407
#
# _framework density 23.045266999999999
#
# number of rings (size 3 to 8) (size 9 to 14) (size 15 to 20)
#    0.000    1.143    2.857    1.714   10.000    1.143 
#    5.143    0.000    0.000    0.000    0.000    0.000 
#    0.000    0.000    0.000    0.000    0.000    0.000 
#
# Total GULP energy -156140.535205 kJ/mol
# GULP energy per Si atom -5576.447686 kJ/mol
# Density = 2.299282 g / cm^3
# Si number density = 23.045267 Si / 1000 Ang^3
#
#
#
# Elastic Constant Matrix: (Units=GPa)
#
#
# Indices 1 2 3 4 5 6 
#
# 1 30.8239 2.6646 12.2670 0.0000 0.0000 0.0000
# 2 2.6646 18.7736 -34.2016 0.0000 0.0000 0.0000
# 3 12.2670 -34.2016 94.5618 0.0000 0.0000 0.0000
# 4 0.0000 0.0000 0.0000 26.1722 0.0000 0.0000
# 5 0.0000 0.0000 0.0000 0.0000 29.7277 0.0000
# 6 0.0000 0.0000 0.0000 0.0000 0.0000 29.9805
#
#
#
# Elastic Compliance Matrix: (Units=1/GPa)
#
#
# Indices 1 2 3 4 5 6 
#
# 1 0.046823 -0.051926 -0.024855 0.000000 0.000000 0.000000
# 2 -0.051926 0.213753 0.084048 0.000000 0.000000 0.000000
# 3 -0.024855 0.084048 0.044198 0.000000 0.000000 0.000000
# 4 0.000000 0.000000 0.000000 0.038209 0.000000 0.000000
# 5 0.000000 0.000000 0.000000 0.000000 0.033639 0.000000
# 6 0.000000 0.000000 0.000000 0.000000 0.000000 0.033355
#
#
# Mechanical properties :
#
#
# Convention : Reuss Voigt Hill
#
# Bulk Modulus (GPa) = 3.13179 11.73548 7.43363
# Shear Modulus (GPa) = 9.96254 28.07138 19.01696
#
# Velocity S-wave (km/s) = 2.08145 3.49391 2.87575
# Velocity P-wave (km/s) = 2.67179 4.62385 3.77614
#
# Compressibility (1/GPa) = 0.31930658
#
# Stress axis : x y z
#
# Youngs Moduli (GPa) = 21.35714 4.67829 22.62538
#
# Poissons Ratio (x) = 0.24293 0.56236
# Poissons Ratio (y) = 1.10900 -1.90161
# Poissons Ratio (z) = 0.53083 -0.39320
#
# Static dielectric constant tensor:
#      x y z
#    x 1.892100 0.000000 0.000000 
#    y 0.000000 2.028040 0.000000 
#    z 0.000000 0.000000 1.867910 
# 
# From -- ./inp_files/2852.got.cif
#   From: 2010.05.17/outbox.ucp.g08.bks.cvg/sg19_2_cif.got.tgz:2852.got - 2010.06.11 13:13:52.
