data_PCOD9316973
_publ_section_title
;
Structure prediction by ZEFSAII (Michael W. Deem and Ramdas Pophale) SiO2 
 PCOD9316973
Probable space group: C 2 2 21
;
_chemical_formula_sum "Si O2"
_cell_formula_units_Z 48
_cell_length_a 9.552586
_cell_length_b 17.128460
_cell_length_c 16.048578
_cell_angle_alpha 90.000000
_cell_angle_beta 90.000000
_cell_angle_gamma 90.000000
_cell_volume 2625.885780
_symmetry_space_group_name_H-M "C 2 2 21"
_symmetry_group_IT_number 20
_symmetry_cell_setting 'orthorhombic'
loop_
_space_group_symop_operation_xyz
x,y,z
-x,-y,1/2+z
x,-y,-z
-x,y,1/2-z
1/2+x,1/2+y,z
1/2-x,1/2-y,1/2+z
1/2+x,1/2-y,-z
1/2-x,1/2+y,1/2-z
loop_
_atom_site_type_symbol
_atom_site_label
_atom_site_fract_x
_atom_site_fract_y
_atom_site_fract_z
Si Si1 0.173747 0.184246 0.657076
Si Si2 0.368479 0.481169 0.091828
Si Si3 0.850994 0.786547 0.353881
Si Si4 0.829980 0.078045 0.529601
Si Si5 0.678073 0.644710 0.319776
Si Si6 0.873810 0.821044 0.634795
O O1 0.198108 0.095462 0.631225
O O2 0.173515 0.191992 0.757098
O O3 0.288142 0.242314 0.619812
O O4 0.017090 0.208441 0.628450
O O5 0.532242 0.457471 0.076749
O O6 0.344982 0.557795 0.146606
O O7 0.312891 0.500000 0.000000
O O8 0.777008 0.853062 0.409926
O O9 0.797459 0.697808 0.361246
O O10 0.868261 0.123538 0.444936
O O11 0.748074 0.000000 0.500000
O O12 0.692014 0.642629 0.219590
O O13 0.535581 0.690769 0.342472
#
# Coordination Sequence:
#
# PCOD9316973 Si02
#       6
#     8   8   8   8   8   8
#     4   9  20  36  54  77 106 143 175 219 271 328
#     4  10  19  33  54  80 102 137 183 219 261 312
#     4   9  20  34  56  77 108 141 180 216 275 325
#     4  10  19  32  53  83 102 135 183 224 258 311
#     4  10  20  35  56  80 107 140 179 225 268 318
#     4  10  20  33  56  80 107 137 178 223 271 309
#
# _framework density 18.279546
#
# number of rings (size 3 to 8) (size 9 to 14) (size 15 to 20)
#    0.000    2.333    3.333    0.000    4.667    1.333 
#    0.000    0.000    3.667    4.000    0.000    0.000 
#    0.000    0.000    0.000    0.000    0.000    0.000 
#
# Total GULP energy -133611.910813 kJ/mol
# GULP energy per Si atom -5567.162951 kJ/mol
# Density = 1.823794 g / cm^3
# Si number density = 18.279546 Si / 1000 Ang^3
#
#
#
# Elastic Constant Matrix: (Units=GPa)
#
#
# Indices 1 2 3 4 5 6 
#
# 1 32.0247 47.0031 9.6094 0.0000 0.0000 0.0000
# 2 47.0031 160.7366 39.5089 0.0000 0.0000 0.0000
# 3 9.6094 39.5089 40.7732 0.0000 0.0000 0.0000
# 4 0.0000 0.0000 0.0000 35.6639 0.0000 0.0000
# 5 0.0000 0.0000 0.0000 0.0000 10.1696 0.0000
# 6 0.0000 0.0000 0.0000 0.0000 0.0000 18.9550
#
#
#
# Elastic Compliance Matrix: (Units=1/GPa)
#
#
# Indices 1 2 3 4 5 6 
#
# 1 0.055071 -0.016951 0.003446 0.000000 0.000000 0.000000
# 2 -0.016951 0.013384 -0.008974 0.000000 0.000000 0.000000
# 3 0.003446 -0.008974 0.032409 0.000000 0.000000 0.000000
# 4 0.000000 0.000000 0.000000 0.028040 0.000000 0.000000
# 5 0.000000 0.000000 0.000000 0.000000 0.098332 0.000000
# 6 0.000000 0.000000 0.000000 0.000000 0.000000 0.052757
#
#
# Mechanical properties :
#
#
# Convention : Reuss Voigt Hill
#
# Bulk Modulus (GPa) = 17.88677 47.30860 32.59769
# Shear Modulus (GPa) = 14.55236 22.11857 18.33546
#
# Velocity S-wave (km/s) = 2.82459 3.48230 3.17055
# Velocity P-wave (km/s) = 4.52151 6.48887 5.59238
#
# Compressibility (1/GPa) = 0.05590723
#
# Stress axis : x y z
#
# Youngs Moduli (GPa) = 18.15821 74.71538 30.85524
#
# Poissons Ratio (x) = 1.26652 -0.10634
# Poissons Ratio (y) = 0.30781 0.27690
# Poissons Ratio (z) = -0.06258 0.67050
#
# Static dielectric constant tensor:
#      x y z
#    x 1.645990 0.000000 0.000000 
#    y 0.000000 1.646820 0.000000 
#    z 0.000000 0.000000 1.658140 
# 
# From -- ./inp_files/24322.got.cif
#   From: 2010.05.17/outbox.cif.g08.bks.cpg/sg20_13_cif.got.tgz:24322.got - 2010.06.03 22:52:26.
