data_PCOD9316613
_publ_section_title
;
Structure prediction by ZEFSAII (Michael W. Deem and Ramdas Pophale) SiO2 
 PCOD9316613
Probable space group: C 2 2 21
;
_chemical_formula_sum "Si O2"
_cell_formula_units_Z 40
_cell_length_a 10.954772
_cell_length_b 22.510702
_cell_length_c 8.266931
_cell_angle_alpha 90.000000
_cell_angle_beta 90.000000
_cell_angle_gamma 90.000000
_cell_volume 2038.621944
_symmetry_space_group_name_H-M "C 2 2 21"
_symmetry_group_IT_number 20
_symmetry_cell_setting 'orthorhombic'
loop_
_space_group_symop_operation_xyz
x,y,z
-x,-y,1/2+z
x,-y,-z
-x,y,1/2-z
1/2+x,1/2+y,z
1/2-x,1/2-y,1/2+z
1/2+x,1/2-y,-z
1/2-x,1/2+y,1/2-z
loop_
_atom_site_type_symbol
_atom_site_label
_atom_site_fract_x
_atom_site_fract_y
_atom_site_fract_z
Si Si1 0.880104 0.357257 0.403096
Si Si2 0.929882 0.436789 0.922900
Si Si3 0.237258 0.146609 0.934034
Si Si4 0.000000 0.173805 0.750000
Si Si5 0.000000 0.747807 0.750000
Si Si6 0.317972 0.718724 0.018804
O O1 0.816811 0.365466 0.229488
O O2 0.772950 0.336315 0.517750
O O3 0.965256 0.408777 0.462415
O O4 0.960840 0.297468 0.389496
O O5 0.000000 0.440506 0.750000
O O6 0.896762 0.500000 0.000000
O O7 0.808583 0.394871 0.936421
O O8 0.095907 0.140146 0.872454
O O9 0.256433 0.216148 0.979648
O O10 0.091336 0.210920 0.634177
O O11 0.108650 0.785338 0.684155
#
# Coordination Sequence:
#
# PCOD9316613 Si02
#       6
#     8   8   8   4   4   8
#     4  10  19  37  54  84 120 158 202 258 309 372
#     4  12  25  40  65  90 122 164 217 271 324 381
#     4  10  21  37  59  87 127 165 210 253 318 374
#     4  10  22  36  58  89 131 172 206 260 308 386
#     4  10  18  34  50  79 129 158 194 252 296 384
#     4  10  20  32  58  87 127 165 201 251 313 372
#
# _framework density 19.621098
#
# number of rings (size 3 to 8) (size 9 to 14) (size 15 to 20)
#    0.000    1.600    4.000    2.400    1.400    4.800 
#    0.000    0.000    0.000    9.600    0.000    1.400 
#    0.000    0.000    0.000    0.000    0.000    0.000 
#
# Total GULP energy -111375.269436 kJ/mol
# GULP energy per Si atom -5568.763472 kJ/mol
# Density = 1.957644 g / cm^3
# Si number density = 19.621098 Si / 1000 Ang^3
#
#
#
# Elastic Constant Matrix: (Units=GPa)
#
#
# Indices 1 2 3 4 5 6 
#
# 1 104.0604 29.5296 24.1103 0.0000 0.0000 0.0000
# 2 29.5296 63.5427 14.8895 0.0000 0.0000 0.0000
# 3 24.1103 14.8895 53.8928 0.0000 0.0000 0.0000
# 4 0.0000 0.0000 0.0000 24.9260 0.0000 0.0000
# 5 0.0000 0.0000 0.0000 0.0000 47.3873 0.0000
# 6 0.0000 0.0000 0.0000 0.0000 0.0000 5.1257
#
#
#
# Elastic Compliance Matrix: (Units=1/GPa)
#
#
# Indices 1 2 3 4 5 6 
#
# 1 0.011838 -0.004555 -0.004037 0.000000 0.000000 0.000000
# 2 -0.004555 0.018580 -0.003095 0.000000 0.000000 0.000000
# 3 -0.004037 -0.003095 0.021217 0.000000 0.000000 0.000000
# 4 0.000000 0.000000 0.000000 0.040119 0.000000 0.000000
# 5 0.000000 0.000000 0.000000 0.000000 0.021103 0.000000
# 6 0.000000 0.000000 0.000000 0.000000 0.000000 0.195097
#
#
# Mechanical properties :
#
#
# Convention : Reuss Voigt Hill
#
# Bulk Modulus (GPa) = 35.38776 39.83941 37.61358
# Shear Modulus (GPa) = 14.67360 25.68556 20.17958
#
# Velocity S-wave (km/s) = 2.73765 3.62204 3.21045
# Velocity P-wave (km/s) = 5.29789 6.15148 5.74057
#
# Compressibility (1/GPa) = 0.02825836
#
# Stress axis : x y z
#
# Youngs Moduli (GPa) = 84.47423 53.82233 47.13252
#
# Poissons Ratio (x) = 0.24517 0.19030
# Poissons Ratio (y) = 0.38480 0.14589
# Poissons Ratio (z) = 0.34106 0.16659
#
# Static dielectric constant tensor:
#      x y z
#    x 1.831030 0.000000 0.000000 
#    y 0.000000 1.650360 0.000000 
#    z 0.000000 0.000000 1.789480 
# 
# From -- ./inp_files/7129.got.cif
#   From: 2010.05.17/outbox.cif.g08.bks.cpg/sg20_4_cif.got.tgz:7129.got - 2010.06.03 22:52:26.
