data_PCOD9316868
_publ_section_title
;
Structure prediction by ZEFSAII (Michael W. Deem and Ramdas Pophale) SiO2 
 PCOD9316868
Probable space group: C 2 2 21
;
_chemical_formula_sum "Si O2"
_cell_formula_units_Z 52
_cell_length_a 11.272338
_cell_length_b 14.395319
_cell_length_c 13.762936
_cell_angle_alpha 90.000000
_cell_angle_beta 90.000000
_cell_angle_gamma 90.000000
_cell_volume 2233.296505
_symmetry_space_group_name_H-M "C 2 2 21"
_symmetry_group_IT_number 20
_symmetry_cell_setting 'orthorhombic'
loop_
_space_group_symop_operation_xyz
x,y,z
-x,-y,1/2+z
x,-y,-z
-x,y,1/2-z
1/2+x,1/2+y,z
1/2-x,1/2-y,1/2+z
1/2+x,1/2-y,-z
1/2-x,1/2+y,1/2-z
loop_
_atom_site_type_symbol
_atom_site_label
_atom_site_fract_x
_atom_site_fract_y
_atom_site_fract_z
Si Si1 0.366754 0.379628 0.754156
Si Si2 0.978399 0.000000 0.000000
Si Si3 0.179426 0.847082 0.947573
Si Si4 0.709542 0.774437 0.879973
Si Si5 0.500000 0.266706 0.250000
Si Si6 0.630415 0.000000 0.500000
Si Si7 0.336536 0.567930 0.814219
Si Si8 0.381473 0.891833 0.198148
O O1 0.500000 0.347300 0.750000
O O2 0.307145 0.327233 0.665512
O O3 0.293395 0.359214 0.850819
O O4 0.371422 0.489671 0.733626
O O5 0.064104 0.912121 0.971668
O O6 0.893541 0.030833 0.912800
O O7 0.288992 0.913020 0.970969
O O8 0.181177 0.754042 0.010431
O O9 0.583382 0.786049 0.825977
O O10 0.791635 0.687120 0.843734
O O11 0.595162 0.335971 0.298813
O O12 0.584478 0.038942 0.607011
O O13 0.198001 0.570561 0.788812
O O14 0.500000 0.857913 0.250000
#
# Coordination Sequence:
#
# PCOD9316868 Si02
#       8
#     8   4   8   8   4   4   8   8
#     4  12  22  39  64  95 127 164 212 272 324 390
#     4  11  18  35  68 100 120 159 227 284 312 376
#     4  10  19  38  63  90 125 166 212 268 331 385
#     4  10  23  39  62  88 130 165 211 255 337 383
#     4  10  18  42  64  90 122 168 214 270 304 392
#     4   9  18  35  66  86 110 167 217 250 320 392
#     4  11  20  36  67  95 120 161 224 269 313 380
#     4  10  21  39  62  87 124 168 209 265 321 390
#
# _framework density 23.283967000000001
#
# number of rings (size 3 to 8) (size 9 to 14) (size 15 to 20)
#    0.000    1.538    5.385    0.462    0.000    0.615 
#    9.692    0.000    3.385    0.000    0.000    0.000 
#    0.000    0.000    0.000    0.000    0.000    0.000 
#
# Total GULP energy -144811.971222 kJ/mol
# GULP energy per Si atom -5569.691201 kJ/mol
# Density = 2.323097 g / cm^3
# Si number density = 23.283967 Si / 1000 Ang^3
#
#
#
# Elastic Constant Matrix: (Units=GPa)
#
#
# Indices 1 2 3 4 5 6 
#
# 1 88.9849 9.9284 4.9116 0.0000 0.0000 0.0000
# 2 9.9284 35.9728 -11.0770 0.0000 0.0000 0.0000
# 3 4.9116 -11.0770 48.5677 0.0000 0.0000 0.0000
# 4 0.0000 0.0000 0.0000 19.6190 0.0000 0.0000
# 5 0.0000 0.0000 0.0000 0.0000 26.1215 0.0000
# 6 0.0000 0.0000 0.0000 0.0000 0.0000 -22.3615
#
#
#
# Elastic Compliance Matrix: (Units=1/GPa)
#
#
# Indices 1 2 3 4 5 6 
#
# 1 0.011787 -0.003894 -0.002080 0.000000 0.000000 0.000000
# 2 -0.003894 0.031185 0.007506 0.000000 0.000000 0.000000
# 3 -0.002080 0.007506 0.022512 0.000000 0.000000 0.000000
# 4 0.000000 0.000000 0.000000 0.050971 0.000000 0.000000
# 5 0.000000 0.000000 0.000000 0.000000 0.038283 0.000000
# 6 0.000000 0.000000 0.000000 0.000000 0.000000 -0.044720
#
#
# Mechanical properties :
#
#
# Convention : Reuss Voigt Hill
#
# Bulk Modulus (GPa) = 14.58813 20.11682 17.35247
# Shear Modulus (GPa) = 38.51996 15.99329 27.25663
#
# Velocity S-wave (km/s) = 4.07179 2.62368 3.42514
# Velocity P-wave (km/s) = 5.32775 4.22336 4.80737
#
# Compressibility (1/GPa) = 0.06854887
#
# Stress axis : x y z
#
# Youngs Moduli (GPa) = 84.83842 32.06686 44.42052
#
# Poissons Ratio (x) = 0.12486 0.09240
# Poissons Ratio (y) = 0.33034 -0.33343
# Poissons Ratio (z) = 0.17647 -0.24070
#
# Static dielectric constant tensor:
#      x y z
#    x 1.880840 0.000000 0.000000 
#    y 0.000000 1.956830 0.000000 
#    z 0.000000 0.000000 1.520770 
# 
# From -- ./inp_files/20210.got.cif
#   From: 2010.05.17/outbox.cif.g08.bks.cpg/sg20_11_cif.got.tgz:20210.got - 2010.06.03 22:52:26.
