data_PCOD9316129
_publ_section_title
;
Structure prediction by ZEFSAII (Michael W. Deem and Ramdas Pophale) SiO2 
 PCOD9316129
Probable space group: P 21 21 21
;
_chemical_formula_sum "Si O2"
_cell_formula_units_Z 32
_cell_length_a 15.000000
_cell_length_b 9.000000
_cell_length_c 12.000000
_cell_angle_alpha 90.000000
_cell_angle_beta 90.000000
_cell_angle_gamma 90.000000
_cell_volume 1620.000000
_symmetry_space_group_name_H-M "P 21 21 21"
_symmetry_group_IT_number 19
_symmetry_cell_setting 'orthorhombic'
loop_
_space_group_symop_operation_xyz
x,y,z
1/2-x,-y,1/2+z
1/2+x,1/2-y,-z
-x,1/2+y,1/2-z
loop_
_atom_site_type_symbol
_atom_site_label
_atom_site_fract_x
_atom_site_fract_y
_atom_site_fract_z
Si Si1 0.895465 0.651244 0.738337
Si Si2 0.158212 0.575782 0.469508
Si Si3 0.412889 0.494398 0.214151
Si Si4 0.666462 0.272806 0.994070
Si Si5 0.085289 0.447577 0.158207
Si Si6 0.221673 0.019928 0.211480
Si Si7 0.258852 0.659307 0.813728
Si Si8 0.579922 0.743180 0.737454
O O1 0.902840 0.826412 0.771942
O O2 0.864795 0.654993 0.608961
O O3 0.818244 0.558282 0.802251
O O4 0.989613 0.566471 0.746507
O O5 0.107461 0.547283 0.584952
O O6 0.239907 0.688765 0.488760
O O7 0.199950 0.420344 0.423068
O O8 0.099661 0.657211 0.373391
O O9 0.339200 0.405814 0.288228
O O10 0.597309 0.141899 0.957400
O O11 0.681439 0.396970 0.897843
O O12 0.179208 0.412660 0.217459
O O13 0.071767 0.625821 0.168354
O O14 0.008813 0.355467 0.222931
O O15 0.232570 0.161445 0.297873
O O16 0.156917 0.881734 0.244880
#
# Coordination Sequence:
#
# PCOD9316129 Si02
#       8
#     4   4   4   4   4   4   4   4
#     4  12  26  46  66 103 138 182 225 283 338 409
#     4  11  22  43  70  94 132 178 222 273 338 395
#     4  12  24  44  69  96 139 179 226 280 341 400
#     4  11  22  43  69  94 133 178 218 277 335 398
#     4  10  20  38  65  94 129 166 217 274 336 387
#     4  11  23  42  70  97 137 173 226 276 341 399
#     4  10  21  41  67  96 127 174 219 276 331 399
#     4  11  22  41  66 100 131 170 219 281 330 401
#
# _framework density 19.753086
#
# number of rings (size 3 to 8) (size 9 to 14) (size 15 to 20)
#    0.000    1.000    5.000    3.750    0.000    2.000 
#    0.000    2.500    0.000    0.000    0.000    0.000 
#    0.000    0.000    0.000    0.000    0.000    0.000 
#
# Total GULP energy -178675.246502 kJ/mol
# GULP energy per Si atom -5583.601453 kJ/mol
# Density = 1.970813 g / cm^3
# Si number density = 19.753086 Si / 1000 Ang^3
#
#
#
# Elastic Constant Matrix: (Units=GPa)
#
#
# Indices 1 2 3 4 5 6 
#
# 1 109.5647 34.2257 2.6577 0.0000 0.0000 0.0000
# 2 34.2257 160.6737 13.0101 0.0000 0.0000 0.0000
# 3 2.6577 13.0101 53.7608 0.0000 0.0000 0.0000
# 4 0.0000 0.0000 0.0000 36.8731 0.0000 0.0000
# 5 0.0000 0.0000 0.0000 0.0000 24.0392 0.0000
# 6 0.0000 0.0000 0.0000 0.0000 0.0000 45.6714
#
#
#
# Elastic Compliance Matrix: (Units=1/GPa)
#
#
# Indices 1 2 3 4 5 6 
#
# 1 0.009778 -0.002084 0.000021 0.000000 0.000000 0.000000
# 2 -0.002084 0.006793 -0.001541 0.000000 0.000000 0.000000
# 3 0.000021 -0.001541 0.018973 0.000000 0.000000 0.000000
# 4 0.000000 0.000000 0.000000 0.027120 0.000000 0.000000
# 5 0.000000 0.000000 0.000000 0.000000 0.041599 0.000000
# 6 0.000000 0.000000 0.000000 0.000000 0.000000 0.021896
#
#
# Mechanical properties :
#
#
# Convention : Reuss Voigt Hill
#
# Bulk Modulus (GPa) = 35.29247 47.08735 41.18991
# Shear Modulus (GPa) = 35.01144 39.59045 37.30095
#
# Velocity S-wave (km/s) = 4.21462 4.48176 4.35024
# Velocity P-wave (km/s) = 6.44900 7.11838 6.79194
#
# Compressibility (1/GPa) = 0.02833465
#
# Stress axis : x y z
#
# Youngs Moduli (GPa) = 102.27395 147.21960 52.70727
#
# Poissons Ratio (x) = 0.30688 -0.00111
# Poissons Ratio (y) = 0.21319 0.08121
# Poissons Ratio (z) = -0.00216 0.22683
#
# Static dielectric constant tensor:
#      x y z
#    x 1.710900 0.000000 0.000000 
#    y 0.000000 1.676780 0.000000 
#    z 0.000000 0.000000 1.751140 
# 
# From -- ./inp_files/5243.got.cif
#   From: 2010.05.17/outbox.ucp.g08.bks.cvg/sg19_3_cif.got.tgz:5243.got - 2010.06.11 13:13:52.
