data_PCOD9316033
_publ_section_title
;
Structure prediction by ZEFSAII (Michael W. Deem and Ramdas Pophale) SiO2 
 PCOD9316033
Probable space group: P 21 21 21
;
_chemical_formula_sum "Si O2"
_cell_formula_units_Z 20
_cell_length_a 27.895928
_cell_length_b 4.922789
_cell_length_c 5.432856
_cell_angle_alpha 90.000000
_cell_angle_beta 90.000000
_cell_angle_gamma 90.000000
_cell_volume 746.071120
_symmetry_space_group_name_H-M "P 21 21 21"
_symmetry_group_IT_number 19
_symmetry_cell_setting 'orthorhombic'
loop_
_space_group_symop_operation_xyz
x,y,z
1/2-x,-y,1/2+z
1/2+x,1/2-y,-z
-x,1/2+y,1/2-z
loop_
_atom_site_type_symbol
_atom_site_label
_atom_site_fract_x
_atom_site_fract_y
_atom_site_fract_z
Si Si1 0.494969 0.702642 0.899313
Si Si2 0.250750 0.672960 0.497432
Si Si3 0.830180 0.546969 0.215136
Si Si4 0.891422 0.934475 0.891708
Si Si5 0.403375 0.070250 0.415217
O O1 0.505447 0.521271 0.657019
O O2 0.443363 0.604220 0.985524
O O3 0.540459 0.634076 0.066032
O O4 0.257191 0.496240 0.249599
O O5 0.298241 0.844987 0.557103
O O6 0.207067 0.874294 0.442907
O O7 0.874399 0.381397 0.333830
O O8 0.851715 0.798688 0.063972
O O9 0.895997 0.742218 0.651804
O O10 0.883329 0.236183 0.796672
#
# Coordination Sequence:
#
# PCOD9316033 Si02
#       5
#     4   4   4   4   4
#     4  12  24  50  78 122 172 228 284 354 432 522
#     4  12  32  56  90 122 180 232 298 380 450 528
#     4  12  32  54  80 134 166 228 298 366 448 524
#     4  12  29  50  85 122 171 228 286 358 439 525
#     4  12  29  50  85 122 171 228 286 358 439 525
#
# _framework density 26.807096999999999
#
# number of rings (size 3 to 8) (size 9 to 14) (size 15 to 20)
#    0.000    0.000    2.000    4.800   14.000    0.000 
#    0.000    0.000    0.000    0.000    0.000    0.000 
#    0.000    0.000    0.000    0.000    0.000    0.000 
#
# Total GULP energy -112399.534786 kJ/mol
# GULP energy per Si atom -5619.976739 kJ/mol
# Density = 2.674608 g / cm^3
# Si number density = 26.807097 Si / 1000 Ang^3
#
#
#
# Elastic Constant Matrix: (Units=GPa)
#
#
# Indices 1 2 3 4 5 6 
#
# 1 145.1392 26.2627 35.5596 0.0000 0.0000 0.0000
# 2 26.2627 68.9178 21.5535 0.0000 0.0000 0.0000
# 3 35.5596 21.5535 121.2704 0.0000 0.0000 0.0000
# 4 0.0000 0.0000 0.0000 66.8441 0.0000 0.0000
# 5 0.0000 0.0000 0.0000 0.0000 66.2385 0.0000
# 6 0.0000 0.0000 0.0000 0.0000 0.0000 44.3621
#
#
#
# Elastic Compliance Matrix: (Units=1/GPa)
#
#
# Indices 1 2 3 4 5 6 
#
# 1 0.007776 -0.002383 -0.001857 0.000000 0.000000 0.000000
# 2 -0.002383 0.016094 -0.002162 0.000000 0.000000 0.000000
# 3 -0.001857 -0.002162 0.009175 0.000000 0.000000 0.000000
# 4 0.000000 0.000000 0.000000 0.014960 0.000000 0.000000
# 5 0.000000 0.000000 0.000000 0.000000 0.015097 0.000000
# 6 0.000000 0.000000 0.000000 0.000000 0.000000 0.022542
#
#
# Mechanical properties :
#
#
# Convention : Reuss Voigt Hill
#
# Bulk Modulus (GPa) = 49.40055 55.78655 52.59355
# Shear Modulus (GPa) = 47.53163 52.28572 49.90867
#
# Velocity S-wave (km/s) = 4.21539 4.42117 4.31951
# Velocity P-wave (km/s) = 6.49314 6.84966 6.67378
#
# Compressibility (1/GPa) = 0.02024269
#
# Stress axis : x y z
#
# Youngs Moduli (GPa) = 128.60176 62.13477 108.99577
#
# Poissons Ratio (x) = 0.14804 0.20237
# Poissons Ratio (y) = 0.30640 0.23563
# Poissons Ratio (z) = 0.23877 0.13432
#
# Static dielectric constant tensor:
#      x y z
#    x 2.048370 0.000000 0.000000 
#    y 0.000000 2.041020 0.000000 
#    z 0.000000 0.000000 2.137750 
# 
# From -- ./inp_files/2213.got.cif
#   From: 2010.05.17/outbox.cif.g08.bks.cpg/sg19_2_cif.got.tgz:2213.got - 2010.06.03 22:46:19.
