data_PCOD9316622
_publ_section_title
;
Structure prediction by ZEFSAII (Michael W. Deem and Ramdas Pophale) SiO2 
 PCOD9316622
Probable space group: C 2 2 21
;
_chemical_formula_sum "Si O2"
_cell_formula_units_Z 60
_cell_length_a 14.875149
_cell_length_b 8.551480
_cell_length_c 21.404991
_cell_angle_alpha 90.000000
_cell_angle_beta 90.000000
_cell_angle_gamma 90.000000
_cell_volume 2722.812016
_symmetry_space_group_name_H-M "C 2 2 21"
_symmetry_group_IT_number 20
_symmetry_cell_setting 'orthorhombic'
loop_
_space_group_symop_operation_xyz
x,y,z
-x,-y,1/2+z
x,-y,-z
-x,y,1/2-z
1/2+x,1/2+y,z
1/2-x,1/2-y,1/2+z
1/2+x,1/2-y,-z
1/2-x,1/2+y,1/2-z
loop_
_atom_site_type_symbol
_atom_site_label
_atom_site_fract_x
_atom_site_fract_y
_atom_site_fract_z
Si Si1 0.688426 0.722292 0.383905
Si Si2 0.849441 0.828527 0.314885
Si Si3 0.065401 0.026842 0.572441
Si Si4 0.009927 0.412259 0.358682
Si Si5 0.000000 0.665457 0.250000
Si Si6 0.194740 0.309284 0.006347
Si Si7 0.117676 0.144180 0.121315
Si Si8 0.466853 0.812819 0.572857
O O1 0.753097 0.750412 0.325112
O O2 0.644905 0.550557 0.388593
O O3 0.603177 0.831829 0.373875
O O4 0.739629 0.752475 0.450533
O O5 0.912709 0.777335 0.257897
O O6 0.904432 0.745351 0.370812
O O7 0.844059 0.011647 0.332161
O O8 0.055819 0.211800 0.578912
O O9 0.083619 0.000000 0.500000
O O10 0.969022 0.946630 0.589577
O O11 0.980731 0.505174 0.420508
O O12 0.016744 0.545464 0.306659
O O13 0.932215 0.287389 0.344081
O O14 0.191461 0.219547 0.073318
O O15 0.204165 0.500000 0.000000
O O16 0.092574 0.271031 0.985939
#
# Coordination Sequence:
#
# PCOD9316622 Si02
#       8
#     8   8   8   8   4   8   8   8
#     4  10  23  38  56  94 137 152 213 259 322 384
#     4   9  21  41  61  89 117 163 206 273 315 388
#     4  10  18  34  54  85 126 177 200 242 295 374
#     4  10  21  42  61  95 115 162 218 281 306 386
#     4  10  22  46  74  78 116 162 222 278 346 358
#     4  11  19  35  58  91 134 184 196 250 313 391
#     4  10  20  36  63  89 128 165 221 243 302 406
#     4   9  18  34  60  82 125 168 219 234 304 385
#
# _framework density 22.036041000000001
#
# number of rings (size 3 to 8) (size 9 to 14) (size 15 to 20)
#    0.000    2.133    2.667    0.400    0.000    0.533 
#    7.200    6.667    0.000    0.000    0.000    0.000 
#    0.000    0.000    0.000    0.000    0.000    0.000 
#
# Total GULP energy -167065.106992 kJ/mol
# GULP energy per Si atom -5568.836900 kJ/mol
# Density = 2.198589 g / cm^3
# Si number density = 22.036041 Si / 1000 Ang^3
#
#
#
# Elastic Constant Matrix: (Units=GPa)
#
#
# Indices 1 2 3 4 5 6 
#
# 1 64.2703 21.8892 -0.8877 0.0000 0.0000 0.0000
# 2 21.8892 96.9763 7.3970 0.0000 0.0000 0.0000
# 3 -0.8877 7.3970 24.6291 0.0000 0.0000 0.0000
# 4 0.0000 0.0000 0.0000 34.0624 0.0000 0.0000
# 5 0.0000 0.0000 0.0000 0.0000 14.9947 0.0000
# 6 0.0000 0.0000 0.0000 0.0000 0.0000 18.8764
#
#
#
# Elastic Compliance Matrix: (Units=1/GPa)
#
#
# Indices 1 2 3 4 5 6 
#
# 1 0.016933 -0.003959 0.001799 0.000000 0.000000 0.000000
# 2 -0.003959 0.011479 -0.003590 0.000000 0.000000 0.000000
# 3 0.001799 -0.003590 0.041746 0.000000 0.000000 0.000000
# 4 0.000000 0.000000 0.000000 0.029358 0.000000 0.000000
# 5 0.000000 0.000000 0.000000 0.000000 0.066690 0.000000
# 6 0.000000 0.000000 0.000000 0.000000 0.000000 0.052976
#
#
# Mechanical properties :
#
#
# Convention : Reuss Voigt Hill
#
# Bulk Modulus (GPa) = 17.04822 26.96360 22.00591
# Shear Modulus (GPa) = 19.98129 24.08521 22.03325
#
# Velocity S-wave (km/s) = 3.01450 3.30963 3.16551
# Velocity P-wave (km/s) = 4.45754 5.18339 4.83411
#
# Compressibility (1/GPa) = 0.05865716
#
# Stress axis : x y z
#
# Youngs Moduli (GPa) = 59.05775 87.11324 23.95464
#
# Poissons Ratio (x) = 0.34490 -0.04310
# Poissons Ratio (y) = 0.23382 0.08601
# Poissons Ratio (z) = -0.10627 0.31277
#
# Static dielectric constant tensor:
#      x y z
#    x 1.892490 0.000000 0.000000 
#    y 0.000000 1.875250 0.000000 
#    z 0.000000 0.000000 1.939700 
# 
# From -- ./inp_files/29308.got.cif
#   From: 2010.05.17/outbox.cif.g08.bks.cpg/sg20_15_cif.got.tgz:29308.got - 2010.06.03 22:52:26.
