data_PCOD9316882
_publ_section_title
;
Structure prediction by ZEFSAII (Michael W. Deem and Ramdas Pophale) SiO2 
 PCOD9316882
Probable space group: C 2 2 21
;
_chemical_formula_sum "Si O2"
_cell_formula_units_Z 40
_cell_length_a 22.040277
_cell_length_b 9.159161
_cell_length_c 8.676609
_cell_angle_alpha 90.000000
_cell_angle_beta 90.000000
_cell_angle_gamma 90.000000
_cell_volume 1751.550924
_symmetry_space_group_name_H-M "C 2 2 21"
_symmetry_group_IT_number 20
_symmetry_cell_setting 'orthorhombic'
loop_
_space_group_symop_operation_xyz
x,y,z
-x,-y,1/2+z
x,-y,-z
-x,y,1/2-z
1/2+x,1/2+y,z
1/2-x,1/2-y,1/2+z
1/2+x,1/2-y,-z
1/2-x,1/2+y,1/2-z
loop_
_atom_site_type_symbol
_atom_site_label
_atom_site_fract_x
_atom_site_fract_y
_atom_site_fract_z
Si Si1 0.936255 0.331146 0.480331
Si Si2 0.303490 0.224204 0.671161
Si Si3 0.818383 0.000000 0.500000
Si Si4 0.000000 0.893455 0.750000
Si Si5 0.094094 0.143392 0.744520
Si Si6 0.686400 0.337821 0.484238
O O1 0.954116 0.500000 0.500000
O O2 0.868186 0.323203 0.401510
O O3 0.938384 0.261589 0.649362
O O4 0.975162 0.217023 0.379133
O O5 0.283218 0.373771 0.585334
O O6 0.247284 0.129025 0.615019
O O7 0.306327 0.258458 0.852233
O O8 0.859847 0.930828 0.367487
O O9 0.948580 0.008503 0.803540
O O10 0.133994 0.230826 0.620650
O O11 0.660177 0.500000 0.500000
#
# Coordination Sequence:
#
# PCOD9316882 Si02
#       6
#     8   8   4   4   8   8
#     4  11  25  47  70 106 146 186 235 309 368 418
#     4  11  23  41  67  99 147 185 239 292 364 428
#     4  10  18  44  64 100 134 182 240 284 352 428
#     4  12  22  44  80 100 140 192 242 304 348 436
#     4  11  23  45  71 106 138 188 246 289 352 440
#     4  12  24  41  67 102 137 191 241 294 354 433
#
# _framework density 22.836903
#
# number of rings (size 3 to 8) (size 9 to 14) (size 15 to 20)
#    0.000    0.800    6.000    3.000    0.000    5.600 
#    0.000    0.000    0.000    0.000    0.000    0.000 
#    0.000    0.000    0.000    0.000    0.000    0.000 
#
# Total GULP energy -111600.594705 kJ/mol
# GULP energy per Si atom -5580.029735 kJ/mol
# Density = 2.278493 g / cm^3
# Si number density = 22.836903 Si / 1000 Ang^3
#
#
#
# Elastic Constant Matrix: (Units=GPa)
#
#
# Indices 1 2 3 4 5 6 
#
# 1 95.9468 25.2053 81.4225 0.0000 0.0000 0.0000
# 2 25.2053 92.0195 37.2319 0.0000 0.0000 0.0000
# 3 81.4225 37.2319 147.9102 0.0000 0.0000 0.0000
# 4 0.0000 0.0000 0.0000 27.5170 0.0000 0.0000
# 5 0.0000 0.0000 0.0000 0.0000 40.3782 0.0000
# 6 0.0000 0.0000 0.0000 0.0000 0.0000 69.4347
#
#
#
# Elastic Compliance Matrix: (Units=1/GPa)
#
#
# Indices 1 2 3 4 5 6 
#
# 1 0.019663 -0.001121 -0.010542 0.000000 0.000000 0.000000
# 2 -0.001121 0.012163 -0.002445 0.000000 0.000000 0.000000
# 3 -0.010542 -0.002445 0.013180 0.000000 0.000000 0.000000
# 4 0.000000 0.000000 0.000000 0.036341 0.000000 0.000000
# 5 0.000000 0.000000 0.000000 0.000000 0.024766 0.000000
# 6 0.000000 0.000000 0.000000 0.000000 0.000000 0.014402
#
#
# Mechanical properties :
#
#
# Convention : Reuss Voigt Hill
#
# Bulk Modulus (GPa) = 59.55622 69.28843 64.42232
# Shear Modulus (GPa) = 32.39859 40.26709 36.33284
#
# Velocity S-wave (km/s) = 3.77064 4.20366 3.99302
# Velocity P-wave (km/s) = 6.71510 7.34625 7.03775
#
# Compressibility (1/GPa) = 0.01679086
#
# Stress axis : x y z
#
# Youngs Moduli (GPa) = 50.85647 82.21360 75.87442
#
# Poissons Ratio (x) = 0.09212 0.79989
# Poissons Ratio (y) = 0.05699 0.18551
# Poissons Ratio (z) = 0.53614 0.20101
#
# Static dielectric constant tensor:
#      x y z
#    x 1.889880 0.000000 0.000000 
#    y 0.000000 1.904440 0.000000 
#    z 0.000000 0.000000 1.787990 
# 
# From -- ./inp_files/10529.got.cif
#   From: 2010.05.17/outbox.cif.g08.bks.cpg/sg20_6_cif.got.tgz:10529.got - 2010.06.03 22:52:26.
