data_PCOD9316785
_publ_section_title
;
Structure prediction by ZEFSAII (Michael W. Deem and Ramdas Pophale) SiO2 
 PCOD9316785
Probable space group: C 2 2 21
;
_chemical_formula_sum "Si O2"
_cell_formula_units_Z 60
_cell_length_a 18.236924
_cell_length_b 16.135790
_cell_length_c 10.739794
_cell_angle_alpha 90.000000
_cell_angle_beta 90.000000
_cell_angle_gamma 90.000000
_cell_volume 3160.368850
_symmetry_space_group_name_H-M "C 2 2 21"
_symmetry_group_IT_number 20
_symmetry_cell_setting 'orthorhombic'
loop_
_space_group_symop_operation_xyz
x,y,z
-x,-y,1/2+z
x,-y,-z
-x,y,1/2-z
1/2+x,1/2+y,z
1/2-x,1/2-y,1/2+z
1/2+x,1/2-y,-z
1/2-x,1/2+y,1/2-z
loop_
_atom_site_type_symbol
_atom_site_label
_atom_site_fract_x
_atom_site_fract_y
_atom_site_fract_z
Si Si1 0.329589 0.698793 0.156057
Si Si2 0.481575 0.747792 0.610560
Si Si3 0.893426 0.097702 0.368830
Si Si4 0.615659 0.172376 0.473415
Si Si5 0.321302 0.566815 0.640992
Si Si6 0.829086 0.750213 0.286992
Si Si7 0.048225 0.902743 0.520483
Si Si8 0.686232 0.000000 0.500000
O O1 0.359894 0.672785 0.291082
O O2 0.242121 0.700946 0.166507
O O3 0.375697 0.636261 0.067382
O O4 0.349981 0.787100 0.096654
O O5 0.500000 0.773432 0.750000
O O6 0.529502 0.806103 0.522658
O O7 0.394683 0.756447 0.611850
O O8 0.515350 0.655578 0.589611
O O9 0.857029 0.090961 0.506306
O O10 0.980136 0.106441 0.383845
O O11 0.870855 0.008910 0.308275
O O12 0.648187 0.217182 0.349537
O O13 0.637262 0.077602 0.463565
O O14 0.316541 0.650357 0.719870
O O15 0.241831 0.529137 0.609078
O O16 0.055320 0.000000 0.500000
#
# Coordination Sequence:
#
# PCOD9316785 Si02
#       8
#     8   8   8   8   8   8   8   4
#     4  11  24  33  56  91 122 150 195 253 298 350
#     4   9  20  35  57  81 111 154 199 240 289 359
#     4  10  19  36  56  88 117 157 198 236 297 359
#     4  10  22  38  59  88 113 160 203 245 298 350
#     4  10  19  33  63  88 108 159 198 232 300 366
#     4  11  19  38  59  85 122 150 195 249 304 357
#     4  11  20  37  56  87 123 159 194 237 306 372
#     4  10  18  38  58  84 112 140 206 244 278 348
#
# _framework density 18.985126999999999
#
# number of rings (size 3 to 8) (size 9 to 14) (size 15 to 20)
#    0.000    1.867    4.000    2.000    0.000    4.267 
#    0.000    0.000    1.467    9.600    0.000    0.000 
#    0.000    0.000    0.000    0.000    0.000    0.000 
#
# Total GULP energy -167111.620811 kJ/mol
# GULP energy per Si atom -5570.387360 kJ/mol
# Density = 1.894192 g / cm^3
# Si number density = 18.985127 Si / 1000 Ang^3
#
#
#
# Elastic Constant Matrix: (Units=GPa)
#
#
# Indices 1 2 3 4 5 6 
#
# 1 122.0765 45.4696 7.1865 0.0000 0.0000 0.0000
# 2 45.4696 125.5710 25.4672 0.0000 0.0000 0.0000
# 3 7.1865 25.4672 41.7611 0.0000 0.0000 0.0000
# 4 0.0000 0.0000 0.0000 24.4052 0.0000 0.0000
# 5 0.0000 0.0000 0.0000 0.0000 19.0184 0.0000
# 6 0.0000 0.0000 0.0000 0.0000 0.0000 28.1539
#
#
#
# Elastic Compliance Matrix: (Units=1/GPa)
#
#
# Indices 1 2 3 4 5 6 
#
# 1 0.009479 -0.003539 0.000527 0.000000 0.000000 0.000000
# 2 -0.003539 0.010409 -0.005739 0.000000 0.000000 0.000000
# 3 0.000527 -0.005739 0.027355 0.000000 0.000000 0.000000
# 4 0.000000 0.000000 0.000000 0.040975 0.000000 0.000000
# 5 0.000000 0.000000 0.000000 0.000000 0.052581 0.000000
# 6 0.000000 0.000000 0.000000 0.000000 0.000000 0.035519
#
#
# Mechanical properties :
#
#
# Convention : Reuss Voigt Hill
#
# Bulk Modulus (GPa) = 33.62367 49.51725 41.57046
# Shear Modulus (GPa) = 24.54200 28.40118 26.47159
#
# Velocity S-wave (km/s) = 3.59931 3.87197 3.73813
# Velocity P-wave (km/s) = 5.91797 6.79178 6.36988
#
# Compressibility (1/GPa) = 0.02974095
#
# Stress axis : x y z
#
# Youngs Moduli (GPa) = 105.49869 96.07018 36.55685
#
# Poissons Ratio (x) = 0.34001 -0.01927
# Poissons Ratio (y) = 0.37338 0.20979
# Poissons Ratio (z) = -0.05561 0.55132
#
# Static dielectric constant tensor:
#      x y z
#    x 1.723590 0.000000 0.000000 
#    y 0.000000 1.674440 0.000000 
#    z 0.000000 0.000000 1.714820 
# 
# From -- ./inp_files/15886.got.cif
#   From: 2010.05.17/outbox.cif.g08.bks.cpg/sg20_8_cif.got.tgz:15886.got - 2010.06.03 22:52:26.
