data_PCOD9316754
_publ_section_title
;
Structure prediction by ZEFSAII (Michael W. Deem and Ramdas Pophale) SiO2 
 PCOD9316754
Probable space group: C 2 2 21
;
_chemical_formula_sum "Si O2"
_cell_formula_units_Z 60
_cell_length_a 18.456980
_cell_length_b 17.475120
_cell_length_c 8.744886
_cell_angle_alpha 90.000000
_cell_angle_beta 90.000000
_cell_angle_gamma 90.000000
_cell_volume 2820.557519
_symmetry_space_group_name_H-M "C 2 2 21"
_symmetry_group_IT_number 20
_symmetry_cell_setting 'orthorhombic'
loop_
_space_group_symop_operation_xyz
x,y,z
-x,-y,1/2+z
x,-y,-z
-x,y,1/2-z
1/2+x,1/2+y,z
1/2-x,1/2-y,1/2+z
1/2+x,1/2-y,-z
1/2-x,1/2+y,1/2-z
loop_
_atom_site_type_symbol
_atom_site_label
_atom_site_fract_x
_atom_site_fract_y
_atom_site_fract_z
Si Si1 0.862396 0.566091 0.650617
Si Si2 0.336396 0.578912 0.575034
Si Si3 0.386820 0.384465 0.114769
Si Si4 0.723268 0.500000 0.500000
Si Si5 0.791600 0.306520 0.166971
Si Si6 0.828922 0.724323 0.167658
Si Si7 0.419658 0.086926 0.305112
Si Si8 0.977288 0.915151 0.573825
O O1 0.782804 0.526226 0.626103
O O2 0.847194 0.645646 0.731696
O O3 0.901452 0.582637 0.487519
O O4 0.905405 0.501359 0.743217
O O5 0.311032 0.500000 0.500000
O O6 0.377892 0.561147 0.736214
O O7 0.269060 0.633139 0.608114
O O8 0.396753 0.614500 0.462149
O O9 0.329250 0.425390 0.998452
O O10 0.371033 0.303395 0.194102
O O11 0.461462 0.375522 0.027966
O O12 0.749928 0.241266 0.261195
O O13 0.826818 0.276659 0.014348
O O14 0.864920 0.648918 0.235056
O O15 0.500000 0.107935 0.250000
O O16 0.000000 0.914004 0.750000
O O17 0.978016 0.000000 0.500000
#
# Coordination Sequence:
#
# PCOD9316754 Si02
#       8
#     8   8   8   4   8   8   8   8
#     4  10  23  43  73 100 130 171 233 285 343 409
#     4  10  22  36  58  91 119 158 211 263 315 376
#     4  11  22  39  61  85 129 172 214 263 325 395
#     4  10  18  36  66  88 120 168 212 266 322 376
#     4  11  24  42  62 100 130 175 217 283 340 406
#     4  11  25  40  65  94 137 173 218 269 354 406
#     4  10  24  45  72 100 134 179 224 287 353 413
#     4  11  22  36  56  88 120 165 214 267 318 379
#
# _framework density 21.272389
#
# number of rings (size 3 to 8) (size 9 to 14) (size 15 to 20)
#    0.000    1.600    3.333    2.800    3.733    5.333 
#    0.000    1.333    0.000    0.000    0.000    0.000 
#    0.000    0.000    0.000    0.000    0.000    0.000 
#
# Total GULP energy -167189.657145 kJ/mol
# GULP energy per Si atom -5572.988571 kJ/mol
# Density = 2.122397 g / cm^3
# Si number density = 21.272389 Si / 1000 Ang^3
#
#
#
# Elastic Constant Matrix: (Units=GPa)
#
#
# Indices 1 2 3 4 5 6 
#
# 1 39.9214 17.2977 11.0869 0.0000 0.0000 0.0000
# 2 17.2977 51.9337 11.6329 0.0000 0.0000 0.0000
# 3 11.0869 11.6329 61.5692 0.0000 0.0000 0.0000
# 4 0.0000 0.0000 0.0000 38.9814 0.0000 0.0000
# 5 0.0000 0.0000 0.0000 0.0000 25.4363 0.0000
# 6 0.0000 0.0000 0.0000 0.0000 0.0000 12.6548
#
#
#
# Elastic Compliance Matrix: (Units=1/GPa)
#
#
# Indices 1 2 3 4 5 6 
#
# 1 0.030050 -0.009186 -0.003676 0.000000 0.000000 0.000000
# 2 -0.009186 0.022914 -0.002675 0.000000 0.000000 0.000000
# 3 -0.003676 -0.002675 0.017409 0.000000 0.000000 0.000000
# 4 0.000000 0.000000 0.000000 0.025653 0.000000 0.000000
# 5 0.000000 0.000000 0.000000 0.000000 0.039314 0.000000
# 6 0.000000 0.000000 0.000000 0.000000 0.000000 0.079022
#
#
# Mechanical properties :
#
#
# Convention : Reuss Voigt Hill
#
# Bulk Modulus (GPa) = 25.44509 25.93992 25.69250
# Shear Modulus (GPa) = 19.33972 22.97494 21.15733
#
# Velocity S-wave (km/s) = 3.01848 3.28995 3.15714
# Velocity P-wave (km/s) = 4.91282 5.16259 5.03925
#
# Compressibility (1/GPa) = 0.03930031
#
# Stress axis : x y z
#
# Youngs Moduli (GPa) = 33.27779 43.64137 57.44077
#
# Poissons Ratio (x) = 0.40087 0.21113
# Poissons Ratio (y) = 0.30568 0.15367
# Poissons Ratio (z) = 0.12232 0.11675
#
# Static dielectric constant tensor:
#      x y z
#    x 1.847690 0.000000 0.000000 
#    y 0.000000 1.801410 0.000000 
#    z 0.000000 0.000000 1.848340 
# 
# From -- ./inp_files/9600.got.cif
#   From: 2010.05.17/outbox.cif.g08.bks.cpg/sg20_5_cif.got.tgz:9600.got - 2010.06.03 22:52:26.
