data_PCOD9316597
_publ_section_title
;
Structure prediction by ZEFSAII (Michael W. Deem and Ramdas Pophale) SiO2 
 PCOD9316597
Probable space group: C 2 2 21
;
_chemical_formula_sum "Si O2"
_cell_formula_units_Z 48
_cell_length_a 15.352792
_cell_length_b 17.412282
_cell_length_c 8.454423
_cell_angle_alpha 90.000000
_cell_angle_beta 90.000000
_cell_angle_gamma 90.000000
_cell_volume 2260.096753
_symmetry_space_group_name_H-M "C 2 2 21"
_symmetry_group_IT_number 20
_symmetry_cell_setting 'orthorhombic'
loop_
_space_group_symop_operation_xyz
x,y,z
-x,-y,1/2+z
x,-y,-z
-x,y,1/2-z
1/2+x,1/2+y,z
1/2-x,1/2-y,1/2+z
1/2+x,1/2-y,-z
1/2-x,1/2+y,1/2-z
loop_
_atom_site_type_symbol
_atom_site_label
_atom_site_fract_x
_atom_site_fract_y
_atom_site_fract_z
Si Si1 0.580611 0.420909 0.558584
Si Si2 0.807709 0.049903 0.345185
Si Si3 0.073071 0.251092 0.423630
Si Si4 0.244293 0.414644 0.156096
Si Si5 0.259761 0.693426 0.538366
Si Si6 0.099793 0.690655 0.937638
O O1 0.536978 0.500000 0.500000
O O2 0.608306 0.434406 0.739011
O O3 0.540769 0.336113 0.547345
O O4 0.671610 0.415136 0.457932
O O5 0.770891 0.130636 0.401228
O O6 0.827307 0.000000 0.500000
O O7 0.743461 0.997669 0.239500
O O8 0.169281 0.263116 0.491052
O O9 0.088994 0.271508 0.238314
O O10 0.000127 0.308502 0.491920
O O11 0.258563 0.353193 0.297335
O O12 0.154259 0.387710 0.077328
O O13 0.338848 0.752515 0.535029
#
# Coordination Sequence:
#
# PCOD9316597 Si02
#       6
#     8   8   8   8   8   8
#     4  10  18  33  56  82 117 149 189 236 295 348
#     4   9  18  33  58  86 108 151 194 235 293 354
#     4  10  20  33  57  86 113 154 196 239 296 359
#     4   9  19  33  56  83 112 153 189 236 294 347
#     4  10  18  34  58  82 112 148 194 242 290 350
#     4  10  19  34  57  83 115 154 193 238 294 354
#
# _framework density 21.238029999999998
#
# number of rings (size 3 to 8) (size 9 to 14) (size 15 to 20)
#    0.000    2.333    3.333    0.000    0.000    0.000 
#    0.000    3.333    0.000   29.000    0.000    0.000 
#    0.000    0.000    0.000    0.000    0.000    0.000 
#
# Total GULP energy -133902.849715 kJ/mol
# GULP energy per Si atom -5579.285405 kJ/mol
# Density = 2.118969 g / cm^3
# Si number density = 21.238030 Si / 1000 Ang^3
#
#
#
# Elastic Constant Matrix: (Units=GPa)
#
#
# Indices 1 2 3 4 5 6 
#
# 1 73.3719 2.1412 3.3469 0.0000 0.0000 0.0000
# 2 2.1412 64.3143 14.3772 0.0000 0.0000 0.0000
# 3 3.3469 14.3772 34.9293 0.0000 0.0000 0.0000
# 4 0.0000 0.0000 0.0000 23.5317 0.0000 0.0000
# 5 0.0000 0.0000 0.0000 0.0000 15.5270 0.0000
# 6 0.0000 0.0000 0.0000 0.0000 0.0000 23.4441
#
#
#
# Elastic Compliance Matrix: (Units=1/GPa)
#
#
# Indices 1 2 3 4 5 6 
#
# 1 0.013691 -0.000179 -0.001238 0.000000 0.000000 0.000000
# 2 -0.000179 0.017127 -0.007032 0.000000 0.000000 0.000000
# 3 -0.001238 -0.007032 0.031642 0.000000 0.000000 0.000000
# 4 0.000000 0.000000 0.000000 0.042496 0.000000 0.000000
# 5 0.000000 0.000000 0.000000 0.000000 0.064404 0.000000
# 6 0.000000 0.000000 0.000000 0.000000 0.000000 0.042655
#
#
# Mechanical properties :
#
#
# Convention : Reuss Voigt Hill
#
# Bulk Modulus (GPa) = 21.94859 23.59400 22.77130
# Shear Modulus (GPa) = 20.48337 22.68390 21.58363
#
# Velocity S-wave (km/s) = 3.10896 3.27169 3.19136
# Velocity P-wave (km/s) = 4.82125 5.04038 4.93203
#
# Compressibility (1/GPa) = 0.04556101
#
# Stress axis : x y z
#
# Youngs Moduli (GPa) = 73.04121 58.38858 31.60311
#
# Poissons Ratio (x) = 0.01045 0.03913
# Poissons Ratio (y) = 0.01308 0.22224
# Poissons Ratio (z) = 0.09044 0.41061
#
# Static dielectric constant tensor:
#      x y z
#    x 1.796030 0.000000 0.000000 
#    y 0.000000 1.781680 0.000000 
#    z 0.000000 0.000000 1.805320 
# 
# From -- ./inp_files/8407.got.cif
#   From: 2010.05.17/outbox.cif.g08.bks.cpg/sg20_5_cif.got.tgz:8407.got - 2010.06.03 22:52:26.
