data_PCOD9316775
_publ_section_title
;
Structure prediction by ZEFSAII (Michael W. Deem and Ramdas Pophale) SiO2 
 PCOD9316775
Probable space group: C 2 2 21
;
_chemical_formula_sum "Si O2"
_cell_formula_units_Z 40
_cell_length_a 10.738631
_cell_length_b 19.668787
_cell_length_c 8.675747
_cell_angle_alpha 90.000000
_cell_angle_beta 90.000000
_cell_angle_gamma 90.000000
_cell_volume 1832.455241
_symmetry_space_group_name_H-M "C 2 2 21"
_symmetry_group_IT_number 20
_symmetry_cell_setting 'orthorhombic'
loop_
_space_group_symop_operation_xyz
x,y,z
-x,-y,1/2+z
x,-y,-z
-x,y,1/2-z
1/2+x,1/2+y,z
1/2-x,1/2-y,1/2+z
1/2+x,1/2-y,-z
1/2-x,1/2+y,1/2-z
loop_
_atom_site_type_symbol
_atom_site_label
_atom_site_fract_x
_atom_site_fract_y
_atom_site_fract_z
Si Si1 0.774043 0.536438 0.158253
Si Si2 0.728123 0.792794 0.389715
Si Si3 0.014706 0.356238 0.582078
Si Si4 0.360364 0.092283 0.674756
Si Si5 0.360136 0.326225 0.695158
O O1 0.899676 0.576748 0.109652
O O2 0.802944 0.480834 0.288176
O O3 0.680472 0.595603 0.206158
O O4 0.731702 0.500000 0.000000
O O5 0.597022 0.806080 0.478533
O O6 0.724032 0.852459 0.262445
O O7 0.723419 0.721865 0.303252
O O8 0.832581 0.802877 0.519296
O O9 0.000000 0.325619 0.750000
O O10 0.891493 0.381926 0.496006
O O11 0.500000 0.091281 0.750000
O O12 0.500000 0.316669 0.750000
#
# Coordination Sequence:
#
# PCOD9316775 Si02
#       5
#     8   8   8   8   8
#     4  11  20  37  65 100 139 180 227 285 346 432
#     4  10  23  41  66  96 134 175 237 290 352 420
#     4  10  21  34  66 106 139 175 223 296 365 405
#     4  10  18  37  66 101 136 175 222 293 351 397
#     4  11  24  44  72  98 140 185 230 294 366 427
#
# _framework density 21.828635999999999
#
# number of rings (size 3 to 8) (size 9 to 14) (size 15 to 20)
#    0.000    1.600    6.000    2.400    0.000    6.400 
#    0.000    2.000   13.200    0.000    0.000    0.000 
#    0.000    0.000    0.000    0.000    0.000    0.000 
#
# Total GULP energy -111821.831642 kJ/mol
# GULP energy per Si atom -5591.091582 kJ/mol
# Density = 2.177895 g / cm^3
# Si number density = 21.828636 Si / 1000 Ang^3
#
#
#
# Elastic Constant Matrix: (Units=GPa)
#
#
# Indices 1 2 3 4 5 6 
#
# 1 81.9607 44.3269 46.4545 0.0000 0.0000 0.0000
# 2 44.3269 95.8789 28.4147 0.0000 0.0000 0.0000
# 3 46.4545 28.4147 106.4688 0.0000 0.0000 0.0000
# 4 0.0000 0.0000 0.0000 41.0976 0.0000 0.0000
# 5 0.0000 0.0000 0.0000 0.0000 31.8751 0.0000
# 6 0.0000 0.0000 0.0000 0.0000 0.0000 26.1016
#
#
#
# Elastic Compliance Matrix: (Units=1/GPa)
#
#
# Indices 1 2 3 4 5 6 
#
# 1 0.019942 -0.007211 -0.006776 0.000000 0.000000 0.000000
# 2 -0.007211 0.013933 -0.000572 0.000000 0.000000 0.000000
# 3 -0.006776 -0.000572 0.012502 0.000000 0.000000 0.000000
# 4 0.000000 0.000000 0.000000 0.024332 0.000000 0.000000
# 5 0.000000 0.000000 0.000000 0.000000 0.031372 0.000000
# 6 0.000000 0.000000 0.000000 0.000000 0.000000 0.038312
#
#
# Mechanical properties :
#
#
# Convention : Reuss Voigt Hill
#
# Bulk Modulus (GPa) = 57.94671 58.07784 58.01228
# Shear Modulus (GPa) = 28.52806 30.82232 29.67519
#
# Velocity S-wave (km/s) = 3.61904 3.76175 3.69109
# Velocity P-wave (km/s) = 6.63831 6.74772 6.69324
#
# Compressibility (1/GPa) = 0.01725723
#
# Stress axis : x y z
#
# Youngs Moduli (GPa) = 50.14563 71.77035 79.98824
#
# Poissons Ratio (x) = 0.51756 0.54204
# Poissons Ratio (y) = 0.36162 0.04576
# Poissons Ratio (z) = 0.33981 0.04106
#
# Static dielectric constant tensor:
#      x y z
#    x 1.799280 0.000000 0.000000 
#    y 0.000000 1.798420 0.000000 
#    z 0.000000 0.000000 1.875730 
# 
# From -- ./inp_files/7072.got.cif
#   From: 2010.05.17/outbox.cif.g08.bks.cpg/sg20_4_cif.got.tgz:7072.got - 2010.06.03 22:52:26.
