data_PCOD9316094
_publ_section_title
;
Structure prediction by ZEFSAII (Michael W. Deem and Ramdas Pophale) SiO2 
 PCOD9316094
Probable space group: P 21 21 21
;
_chemical_formula_sum "Si O2"
_cell_formula_units_Z 20
_cell_length_a 9.314350
_cell_length_b 8.928870
_cell_length_c 8.878938
_cell_angle_alpha 90.000000
_cell_angle_beta 90.000000
_cell_angle_gamma 90.000000
_cell_volume 738.431265
_symmetry_space_group_name_H-M "P 21 21 21"
_symmetry_group_IT_number 19
_symmetry_cell_setting 'orthorhombic'
loop_
_space_group_symop_operation_xyz
x,y,z
1/2-x,-y,1/2+z
1/2+x,1/2-y,-z
-x,1/2+y,1/2-z
loop_
_atom_site_type_symbol
_atom_site_label
_atom_site_fract_x
_atom_site_fract_y
_atom_site_fract_z
Si Si1 0.860888 0.963298 0.124860
Si Si2 0.636443 0.335868 0.813054
Si Si3 0.457913 0.566310 0.430174
Si Si4 0.086173 0.252828 0.651804
Si Si5 0.207900 0.886188 0.368051
O O1 0.835508 0.828826 0.243737
O O2 0.712702 0.042021 0.076351
O O3 0.912910 0.875652 0.976823
O O4 0.979998 0.080713 0.181559
O O5 0.718155 0.445463 0.694306
O O6 0.696343 0.356262 0.983450
O O7 0.494005 0.676773 0.293617
O O8 0.519189 0.400754 0.404048
O O9 0.547106 0.632053 0.569155
O O10 0.241309 0.208971 0.723150
#
# Coordination Sequence:
#
# PCOD9316094 Si02
#       5
#     4   4   4   4   4
#     4  12  31  51  86 121 169 223 292 353 438 517
#     4  12  28  52  82 123 167 222 282 354 434 521
#     4  12  29  51  84 121 163 224 285 357 429 517
#     4  12  29  53  82 119 169 221 291 358 427 517
#     4  12  27  49  82 114 168 220 280 346 430 500
#
# _framework density 27.084444999999999
#
# number of rings (size 3 to 8) (size 9 to 14) (size 15 to 20)
#    0.000    0.000    4.000    2.400   14.000    1.600 
#    0.000    0.000    0.000    0.000    0.000    0.000 
#    0.000    0.000    0.000    0.000    0.000    0.000 
#
# Total GULP energy -112117.473892 kJ/mol
# GULP energy per Si atom -5605.873695 kJ/mol
# Density = 2.702280 g / cm^3
# Si number density = 27.084445 Si / 1000 Ang^3
#
#
#
# Elastic Constant Matrix: (Units=GPa)
#
#
# Indices 1 2 3 4 5 6 
#
# 1 142.9924 32.8658 28.7805 0.0000 0.0000 0.0000
# 2 32.8658 173.1235 35.9937 0.0000 0.0000 0.0000
# 3 28.7805 35.9937 114.4244 0.0000 0.0000 0.0000
# 4 0.0000 0.0000 0.0000 69.0435 0.0000 0.0000
# 5 0.0000 0.0000 0.0000 0.0000 58.8304 0.0000
# 6 0.0000 0.0000 0.0000 0.0000 0.0000 38.0894
#
#
#
# Elastic Compliance Matrix: (Units=1/GPa)
#
#
# Indices 1 2 3 4 5 6 
#
# 1 0.007562 -0.001113 -0.001552 0.000000 0.000000 0.000000
# 2 -0.001113 0.006344 -0.001716 0.000000 0.000000 0.000000
# 3 -0.001552 -0.001716 0.009669 0.000000 0.000000 0.000000
# 4 0.000000 0.000000 0.000000 0.014484 0.000000 0.000000
# 5 0.000000 0.000000 0.000000 0.000000 0.016998 0.000000
# 6 0.000000 0.000000 0.000000 0.000000 0.000000 0.026254
#
#
# Mechanical properties :
#
#
# Convention : Reuss Voigt Hill
#
# Bulk Modulus (GPa) = 67.50243 69.53559 68.51901
# Shear Modulus (GPa) = 52.62616 55.38600 54.00608
#
# Velocity S-wave (km/s) = 4.41277 4.52700 4.47025
# Velocity P-wave (km/s) = 7.13726 7.28384 7.21093
#
# Compressibility (1/GPa) = 0.01481428
#
# Stress axis : x y z
#
# Youngs Moduli (GPa) = 132.24886 157.62430 103.41866
#
# Poissons Ratio (x) = 0.17541 0.16049
# Poissons Ratio (y) = 0.14717 0.17744
# Poissons Ratio (z) = 0.20523 0.27044
#
# Static dielectric constant tensor:
#      x y z
#    x 2.205850 0.000000 0.000000 
#    y 0.000000 2.152560 0.000000 
#    z 0.000000 0.000000 2.085150 
# 
# From -- ./inp_files/2564.got.cif
#   From: 2010.05.17/outbox.cif.g08.bks.cpg/sg19_2_cif.got.tgz:2564.got - 2010.06.03 22:46:19.
