data_PCOD9316966
_publ_section_title
;
Structure prediction by ZEFSAII (Michael W. Deem and Ramdas Pophale) SiO2 
 PCOD9316966
Probable space group: C 2 2 21
;
_chemical_formula_sum "Si O2"
_cell_formula_units_Z 64
_cell_length_a 23.769623
_cell_length_b 19.498419
_cell_length_c 8.847177
_cell_angle_alpha 90.000000
_cell_angle_beta 90.000000
_cell_angle_gamma 90.000000
_cell_volume 4100.401732
_symmetry_space_group_name_H-M "C 2 2 21"
_symmetry_group_IT_number 20
_symmetry_cell_setting 'orthorhombic'
loop_
_space_group_symop_operation_xyz
x,y,z
-x,-y,1/2+z
x,-y,-z
-x,y,1/2-z
1/2+x,1/2+y,z
1/2-x,1/2-y,1/2+z
1/2+x,1/2-y,-z
1/2-x,1/2+y,1/2-z
loop_
_atom_site_type_symbol
_atom_site_label
_atom_site_fract_x
_atom_site_fract_y
_atom_site_fract_z
Si Si1 0.938772 0.137711 0.818263
Si Si2 0.247592 0.000022 0.180399
Si Si3 0.273799 0.856569 0.319680
Si Si4 0.335709 0.733367 0.181031
Si Si5 0.114713 0.999980 0.818195
Si Si6 0.164285 0.766668 0.318898
Si Si7 0.773805 0.643464 0.319714
Si Si8 0.061228 0.137754 0.318244
O O1 0.914303 0.067251 0.750335
O O2 0.894578 0.197917 0.780188
O O3 0.000000 0.150413 0.750000
O O4 0.941551 0.131788 0.000012
O O5 0.274595 0.068914 0.246259
O O6 0.274589 0.931134 0.246302
O O7 0.181034 0.000030 0.220947
O O8 0.251667 0.000000 0.000000
O O9 0.321424 0.804671 0.261108
O O10 0.214452 0.819760 0.277830
O O11 0.275840 0.862305 0.499985
O O12 0.285539 0.680283 0.222126
O O13 0.394571 0.697959 0.219775
O O14 0.333121 0.743032 0.999960
O O15 0.085690 0.932699 0.749742
O O16 0.109161 0.000000 0.000000
O O17 0.178566 0.695372 0.238784
O O18 0.000000 0.150477 0.250000
#
# Coordination Sequence:
#
# PCOD9316966 Si02
#       8
#     8   8   8   8   8   8   8   8
#     4  11  22  36  52  71 100 136 174 212 249 294
#     4  11  21  32  50  75 104 135 168 205 250 303
#     4  10  19  32  52  74  99 129 166 207 251 301
#     4   9  19  34  50  71  99 131 165 207 254 295
#     4  11  22  34  49  71 100 137 177 211 244 291
#     4   9  19  34  50  71  99 131 165 207 254 295
#     4  10  19  32  52  74  99 129 166 207 251 301
#     4  11  22  36  52  71 100 136 174 212 249 294
#
# _framework density 15.608226999999999
#
# number of rings (size 3 to 8) (size 9 to 14) (size 15 to 20)
#    0.000    1.750    2.500    2.625    0.000    4.000 
#    0.000    0.000    0.000    0.000    0.000    0.875 
#    0.000    0.000    0.000    0.000    0.000    0.000 
#
# Total GULP energy -178685.185244 kJ/mol
# GULP energy per Si atom -5583.912039 kJ/mol
# Density = 1.557270 g / cm^3
# Si number density = 15.608227 Si / 1000 Ang^3
#
#
#
# Elastic Constant Matrix: (Units=GPa)
#
#
# Indices 1 2 3 4 5 6 
#
# 1 99.5047 75.1464 45.9038 0.0000 0.0000 0.0000
# 2 75.1464 153.6971 59.6757 0.0000 0.0000 0.0000
# 3 45.9038 59.6757 51.2663 0.0000 0.0000 0.0000
# 4 0.0000 0.0000 0.0000 26.5273 0.0000 0.0000
# 5 0.0000 0.0000 0.0000 0.0000 21.1196 0.0000
# 6 0.0000 0.0000 0.0000 0.0000 0.0000 17.2732
#
#
#
# Elastic Compliance Matrix: (Units=1/GPa)
#
#
# Indices 1 2 3 4 5 6 
#
# 1 0.018937 -0.004882 -0.011274 0.000000 0.000000 0.000000
# 2 -0.004882 0.013130 -0.010913 0.000000 0.000000 0.000000
# 3 -0.011274 -0.010913 0.042304 0.000000 0.000000 0.000000
# 4 0.000000 0.000000 0.000000 0.037697 0.000000 0.000000
# 5 0.000000 0.000000 0.000000 0.000000 0.047349 0.000000
# 6 0.000000 0.000000 0.000000 0.000000 0.000000 0.057893
#
#
# Mechanical properties :
#
#
# Convention : Reuss Voigt Hill
#
# Bulk Modulus (GPa) = 49.42180 73.99110 61.70645
# Shear Modulus (GPa) = 17.97310 21.23350 19.60330
#
# Velocity S-wave (km/s) = 3.39708 3.69237 3.54780
# Velocity P-wave (km/s) = 6.86437 8.10470 7.51018
#
# Compressibility (1/GPa) = 0.02023399
#
# Stress axis : x y z
#
# Youngs Moduli (GPa) = 52.80544 76.16023 23.63838
#
# Poissons Ratio (x) = 0.37178 0.26651
# Poissons Ratio (y) = 0.25777 0.25797
# Poissons Ratio (z) = 0.59534 0.83114
#
# Static dielectric constant tensor:
#      x y z
#    x 1.506560 0.000000 0.000000 
#    y 0.000000 1.496440 0.000000 
#    z 0.000000 0.000000 1.516760 
# 
# From -- ./inp_files/10367.got.cif
#   From: 2010.05.17/outbox.cif.g08.bks.cpg/sg20_6_cif.got.tgz:10367.got - 2010.06.03 22:52:26.
