data_PCOD9316926
_publ_section_title
;
Structure prediction by ZEFSAII (Michael W. Deem and Ramdas Pophale) SiO2 
 PCOD9316926
Probable space group: C 2 2 21
;
_chemical_formula_sum "Si O2"
_cell_formula_units_Z 48
_cell_length_a 10.277357
_cell_length_b 14.312069
_cell_length_c 12.170528
_cell_angle_alpha 90.000000
_cell_angle_beta 90.000000
_cell_angle_gamma 90.000000
_cell_volume 1790.165915
_symmetry_space_group_name_H-M "C 2 2 21"
_symmetry_group_IT_number 20
_symmetry_cell_setting 'orthorhombic'
loop_
_space_group_symop_operation_xyz
x,y,z
-x,-y,1/2+z
x,-y,-z
-x,y,1/2-z
1/2+x,1/2+y,z
1/2-x,1/2-y,1/2+z
1/2+x,1/2-y,-z
1/2-x,1/2+y,1/2-z
loop_
_atom_site_type_symbol
_atom_site_label
_atom_site_fract_x
_atom_site_fract_y
_atom_site_fract_z
Si Si1 0.063593 0.985202 0.612625
Si Si2 0.808433 0.513714 0.753743
Si Si3 0.330212 0.368027 0.403504
Si Si4 0.694130 0.179548 0.195333
Si Si5 0.920859 0.398129 0.465892
Si Si6 0.093615 0.796796 0.878525
O O1 0.951695 0.061866 0.597313
O O2 0.159429 0.999896 0.712718
O O3 0.142226 0.000000 0.500000
O O4 0.005126 0.882864 0.623039
O O5 0.793965 0.575315 0.860997
O O6 0.858913 0.408209 0.766360
O O7 0.867296 0.571962 0.654559
O O8 0.364759 0.281406 0.324486
O O9 0.307377 0.328533 0.524736
O O10 0.824776 0.208449 0.265528
O O11 0.672153 0.133277 0.071684
O O12 0.978605 0.500000 0.500000
O O13 0.974326 0.295697 0.428582
#
# Coordination Sequence:
#
# PCOD9316926 Si02
#       6
#     8   8   8   8   8   8
#     4  10  20  33  52  80 110 134 170 223 274 318
#     4  11  19  34  54  79 105 137 177 223 272 322
#     4  10  20  31  47  74 107 138 167 219 268 318
#     4  10  19  31  49  72 106 139 174 215 262 319
#     4   9  19  33  51  75 105 142 180 218 265 325
#     4  10  19  32  48  76 107 138 176 215 272 321
#
# _framework density 26.813154000000001
#
# number of rings (size 3 to 8) (size 9 to 14) (size 15 to 20)
#    0.000    2.000    3.333    2.000    0.000    0.000 
#    0.000    0.000    0.000    0.000    0.000   33.833 
#    0.000    0.000    0.000    0.000    0.000    0.000 
#
# Total GULP energy -133705.178557 kJ/mol
# GULP energy per Si atom -5571.049107 kJ/mol
# Density = 2.675213 g / cm^3
# Si number density = 26.813154 Si / 1000 Ang^3
#
#
#
# Elastic Constant Matrix: (Units=GPa)
#
#
# Indices 1 2 3 4 5 6 
#
# 1 45.3416 45.7186 29.6696 0.0000 0.0000 0.0000
# 2 45.7186 252.1181 44.8726 0.0000 0.0000 0.0000
# 3 29.6696 44.8726 110.2226 0.0000 0.0000 0.0000
# 4 0.0000 0.0000 0.0000 50.4184 0.0000 0.0000
# 5 0.0000 0.0000 0.0000 0.0000 17.6399 0.0000
# 6 0.0000 0.0000 0.0000 0.0000 0.0000 9.6602
#
#
#
# Elastic Compliance Matrix: (Units=1/GPa)
#
#
# Indices 1 2 3 4 5 6 
#
# 1 0.030754 -0.004424 -0.006477 0.000000 0.000000 0.000000
# 2 -0.004424 0.004913 -0.000809 0.000000 0.000000 0.000000
# 3 -0.006477 -0.000809 0.011145 0.000000 0.000000 0.000000
# 4 0.000000 0.000000 0.000000 0.019834 0.000000 0.000000
# 5 0.000000 0.000000 0.000000 0.000000 0.056690 0.000000
# 6 0.000000 0.000000 0.000000 0.000000 0.000000 0.103518
#
#
# Mechanical properties :
#
#
# Convention : Reuss Voigt Hill
#
# Bulk Modulus (GPa) = 42.75092 72.02267 57.38680
# Shear Modulus (GPa) = 19.37445 34.70513 27.03979
#
# Velocity S-wave (km/s) = 2.69099 3.60159 3.17906
# Velocity P-wave (km/s) = 5.06299 6.64940 5.90967
#
# Compressibility (1/GPa) = 0.02339131
#
# Stress axis : x y z
#
# Youngs Moduli (GPa) = 32.51604 203.55614 89.72231
#
# Poissons Ratio (x) = 0.90054 0.58116
# Poissons Ratio (y) = 0.14385 0.07260
# Poissons Ratio (z) = 0.21062 0.16470
#
# Static dielectric constant tensor:
#      x y z
#    x 2.188750 0.000000 0.000000 
#    y 0.000000 2.067850 0.000000 
#    z 0.000000 0.000000 2.187950 
# 
# From -- ./inp_files/21367.got.cif
#   From: 2010.05.17/outbox.cif.g08.bks.cpg/sg20_11_cif.got.tgz:21367.got - 2010.06.03 22:52:26.
