data_PCOD9316362
_publ_section_title
;
Structure prediction by ZEFSAII (Michael W. Deem and Ramdas Pophale) SiO2 
 PCOD9316362
Probable space group: C 2 2 21
;
_chemical_formula_sum "Si O2"
_cell_formula_units_Z 44
_cell_length_a 10.772574
_cell_length_b 11.885870
_cell_length_c 12.514416
_cell_angle_alpha 90.000000
_cell_angle_beta 90.000000
_cell_angle_gamma 90.000000
_cell_volume 1602.363522
_symmetry_space_group_name_H-M "C 2 2 21"
_symmetry_group_IT_number 20
_symmetry_cell_setting 'orthorhombic'
loop_
_space_group_symop_operation_xyz
x,y,z
-x,-y,1/2+z
x,-y,-z
-x,y,1/2-z
1/2+x,1/2+y,z
1/2-x,1/2-y,1/2+z
1/2+x,1/2-y,-z
1/2-x,1/2+y,1/2-z
loop_
_atom_site_type_symbol
_atom_site_label
_atom_site_fract_x
_atom_site_fract_y
_atom_site_fract_z
Si Si1 0.361979 0.130229 0.623767
Si Si2 0.500000 0.212242 0.250000
Si Si3 0.293582 0.630787 0.692617
Si Si4 0.000000 0.169180 0.250000
Si Si5 0.711923 0.500000 0.000000
Si Si6 0.661303 0.668861 0.437806
Si Si7 0.447719 0.863419 0.962390
O O1 0.299709 0.070787 0.725272
O O2 0.408944 0.248557 0.678712
O O3 0.264001 0.128567 0.524137
O O4 0.486741 0.086714 0.567361
O O5 0.614564 0.295882 0.262878
O O6 0.480092 0.136292 0.352544
O O7 0.353705 0.551537 0.602768
O O8 0.222938 0.725544 0.623720
O O9 0.087190 0.108115 0.339746
O O10 0.809705 0.589569 0.049692
O O11 0.557844 0.730265 0.509814
#
# Coordination Sequence:
#
# PCOD9316362 Si02
#       7
#     8   4   8   4   4   8   8
#     4  10  17  33  57  86 125 162 215 271 326 381
#     4  12  20  34  65 103 122 166 234 272 316 416
#     4  10  21  36  63  90 131 174 219 271 339 400
#     4   8  18  26  45  81 122 150 194 254 330 368
#     4  10  24  44  60  88 138 176 206 284 354 390
#     4   9  16  32  52  85 122 161 203 272 317 377
#     4  10  21  34  60  91 127 165 220 269 332 403
#
# _framework density 27.459437999999999
#
# number of rings (size 3 to 8) (size 9 to 14) (size 15 to 20)
#    0.000    2.182    3.636    1.091    0.000    1.455 
#    0.000    0.000    0.000   12.000    0.000    0.000 
#    0.000    0.000    0.000    0.000    0.000    0.000 
#
# Total GULP energy -122650.948854 kJ/mol
# GULP energy per Si atom -5575.043130 kJ/mol
# Density = 2.739694 g / cm^3
# Si number density = 27.459438 Si / 1000 Ang^3
#
#
#
# Elastic Constant Matrix: (Units=GPa)
#
#
# Indices 1 2 3 4 5 6 
#
# 1 70.4669 26.5180 49.2776 0.0000 0.0000 0.0000
# 2 26.5180 42.8406 35.1483 0.0000 0.0000 0.0000
# 3 49.2776 35.1483 203.5259 0.0000 0.0000 0.0000
# 4 0.0000 0.0000 0.0000 21.6180 0.0000 0.0000
# 5 0.0000 0.0000 0.0000 0.0000 60.2011 0.0000
# 6 0.0000 0.0000 0.0000 0.0000 0.0000 29.8226
#
#
#
# Elastic Compliance Matrix: (Units=1/GPa)
#
#
# Indices 1 2 3 4 5 6 
#
# 1 0.020114 -0.009851 -0.003169 0.000000 0.000000 0.000000
# 2 -0.009851 0.032020 -0.003145 0.000000 0.000000 0.000000
# 3 -0.003169 -0.003145 0.006224 0.000000 0.000000 0.000000
# 4 0.000000 0.000000 0.000000 0.046258 0.000000 0.000000
# 5 0.000000 0.000000 0.000000 0.000000 0.016611 0.000000
# 6 0.000000 0.000000 0.000000 0.000000 0.000000 0.033532
#
#
# Mechanical properties :
#
#
# Convention : Reuss Voigt Hill
#
# Bulk Modulus (GPa) = 38.41822 59.85792 49.13807
# Shear Modulus (GPa) = 25.54117 36.05430 30.79773
#
# Velocity S-wave (km/s) = 3.05313 3.62747 3.35262
# Velocity P-wave (km/s) = 5.14296 6.27620 5.73763
#
# Compressibility (1/GPa) = 0.02602932
#
# Stress axis : x y z
#
# Youngs Moduli (GPa) = 49.71672 31.23066 160.67609
#
# Poissons Ratio (x) = 0.30764 0.50916
# Poissons Ratio (y) = 0.48974 0.50528
# Poissons Ratio (z) = 0.15754 0.09821
#
# Static dielectric constant tensor:
#      x y z
#    x 2.196280 0.000000 0.000000 
#    y 0.000000 2.232850 0.000000 
#    z 0.000000 0.000000 2.135040 
# 
# From -- ./inp_files/14071.got.cif
#   From: 2010.05.17/outbox.cif.g08.bks.cpg/sg20_8_cif.got.tgz:14071.got - 2010.06.03 22:52:26.
