data_PCOD9316784
_publ_section_title
;
Structure prediction by ZEFSAII (Michael W. Deem and Ramdas Pophale) SiO2 
 PCOD9316784
Probable space group: C 2 2 21
;
_chemical_formula_sum "Si O2"
_cell_formula_units_Z 56
_cell_length_a 12.798600
_cell_length_b 8.583350
_cell_length_c 22.138130
_cell_angle_alpha 90.000000
_cell_angle_beta 90.000000
_cell_angle_gamma 90.000000
_cell_volume 2431.981245
_symmetry_space_group_name_H-M "C 2 2 21"
_symmetry_group_IT_number 20
_symmetry_cell_setting 'orthorhombic'
loop_
_space_group_symop_operation_xyz
x,y,z
-x,-y,1/2+z
x,-y,-z
-x,y,1/2-z
1/2+x,1/2+y,z
1/2-x,1/2-y,1/2+z
1/2+x,1/2-y,-z
1/2-x,1/2+y,1/2-z
loop_
_atom_site_type_symbol
_atom_site_label
_atom_site_fract_x
_atom_site_fract_y
_atom_site_fract_z
Si Si1 0.590795 0.510891 0.934989
Si Si2 0.962694 0.500000 0.000000
Si Si3 0.869996 0.733159 0.652720
Si Si4 0.500000 0.911296 0.250000
Si Si5 0.557730 0.747137 0.589013
Si Si6 0.754251 0.976961 0.066889
Si Si7 0.319394 0.064815 0.188790
Si Si8 0.199764 0.672711 0.586362
O O1 0.609687 0.348324 0.903305
O O2 0.520613 0.613811 0.891066
O O3 0.696525 0.606592 0.946018
O O4 0.536376 0.500000 0.000000
O O5 0.002845 0.360597 0.957291
O O6 0.894181 0.597115 0.951216
O O7 0.822052 0.582738 0.619388
O O8 0.782815 0.825299 0.693321
O O9 0.971758 0.692115 0.691522
O O10 0.394521 0.012714 0.242613
O O11 0.657966 0.658447 0.560670
O O12 0.604001 0.842337 0.643955
O O13 0.802628 0.142063 0.086204
O O14 0.706852 0.000000 0.000000
O O15 0.291322 0.907362 0.152116
#
# Coordination Sequence:
#
# PCOD9316784 Si02
#       8
#     8   4   8   4   8   8   8   8
#     4  11  22  39  63 101 138 176 221 286 354 442
#     4  10  18  38  54  90 140 182 204 270 334 428
#     4  10  26  47  69 103 141 182 243 295 360 425
#     4  12  26  50  76  96 138 194 248 302 344 420
#     4  10  22  37  61  97 137 176 227 275 351 425
#     4  11  20  38  68 102 135 182 221 282 362 435
#     4   9  24  47  66  96 132 174 236 296 343 410
#     4  10  20  37  64  90 135 175 212 279 353 400
#
# _framework density 23.026495000000001
#
# number of rings (size 3 to 8) (size 9 to 14) (size 15 to 20)
#    0.000    1.714    2.143    2.143    4.000    2.286 
#    6.429    0.000    0.000    0.000    0.000    0.000 
#    0.000    0.000    0.000    0.000    0.000    0.000 
#
# Total GULP energy -156383.014729 kJ/mol
# GULP energy per Si atom -5585.107669 kJ/mol
# Density = 2.297409 g / cm^3
# Si number density = 23.026495 Si / 1000 Ang^3
#
#
#
# Elastic Constant Matrix: (Units=GPa)
#
#
# Indices 1 2 3 4 5 6 
#
# 1 41.2035 7.0899 12.5367 0.0000 0.0000 0.0000
# 2 7.0899 117.8956 25.5683 0.0000 0.0000 0.0000
# 3 12.5367 25.5683 43.0778 0.0000 0.0000 0.0000
# 4 0.0000 0.0000 0.0000 11.7534 0.0000 0.0000
# 5 0.0000 0.0000 0.0000 0.0000 31.9730 0.0000
# 6 0.0000 0.0000 0.0000 0.0000 0.0000 35.4368
#
#
#
# Elastic Compliance Matrix: (Units=1/GPa)
#
#
# Indices 1 2 3 4 5 6 
#
# 1 0.026628 0.000091 -0.007804 0.000000 0.000000 0.000000
# 2 0.000091 0.009736 -0.005805 0.000000 0.000000 0.000000
# 3 -0.007804 -0.005805 0.028930 0.000000 0.000000 0.000000
# 4 0.000000 0.000000 0.000000 0.085082 0.000000 0.000000
# 5 0.000000 0.000000 0.000000 0.000000 0.031276 0.000000
# 6 0.000000 0.000000 0.000000 0.000000 0.000000 0.028219
#
#
# Mechanical properties :
#
#
# Convention : Reuss Voigt Hill
#
# Bulk Modulus (GPa) = 26.13736 32.50740 29.32238
# Shear Modulus (GPa) = 20.02727 26.29810 23.16268
#
# Velocity S-wave (km/s) = 2.95235 3.38313 3.17506
# Velocity P-wave (km/s) = 4.79557 5.42299 5.11890
#
# Compressibility (1/GPa) = 0.03825942
#
# Stress axis : x y z
#
# Youngs Moduli (GPa) = 37.55379 102.71650 34.56589
#
# Poissons Ratio (x) = -0.00935 0.26974
# Poissons Ratio (y) = -0.00342 0.20065
# Poissons Ratio (z) = 0.29305 0.59626
#
# Static dielectric constant tensor:
#      x y z
#    x 1.934310 0.000000 0.000000 
#    y 0.000000 1.853150 0.000000 
#    z 0.000000 0.000000 1.946370 
# 
# From -- ./inp_files/27616.got.cif
#   From: 2010.05.17/outbox.cif.g08.bks.cpg/sg20_14_cif.got.tgz:27616.got - 2010.06.03 22:52:26.
