data_PCOD9316228
_publ_section_title
;
Structure prediction by ZEFSAII (Michael W. Deem and Ramdas Pophale) SiO2 
 PCOD9316228
Probable space group: C 2 2 21
;
_chemical_formula_sum "Si O2"
_cell_formula_units_Z 60
_cell_length_a 14.351036
_cell_length_b 14.570439
_cell_length_c 12.744634
_cell_angle_alpha 90.000000
_cell_angle_beta 90.000000
_cell_angle_gamma 90.000000
_cell_volume 2664.914371
_symmetry_space_group_name_H-M "C 2 2 21"
_symmetry_group_IT_number 20
_symmetry_cell_setting 'orthorhombic'
loop_
_space_group_symop_operation_xyz
x,y,z
-x,-y,1/2+z
x,-y,-z
-x,y,1/2-z
1/2+x,1/2+y,z
1/2-x,1/2-y,1/2+z
1/2+x,1/2-y,-z
1/2-x,1/2+y,1/2-z
loop_
_atom_site_type_symbol
_atom_site_label
_atom_site_fract_x
_atom_site_fract_y
_atom_site_fract_z
Si Si1 0.074986 0.662435 0.817626
Si Si2 0.154285 0.313673 0.832850
Si Si3 0.437011 0.500000 0.500000
Si Si4 0.225258 0.975749 0.162919
Si Si5 0.829246 0.282968 0.118035
Si Si6 0.708873 0.003903 0.881981
Si Si7 0.422231 0.300386 0.513305
Si Si8 0.792564 0.334215 0.901319
O O1 0.112574 0.727044 0.724332
O O2 0.152001 0.597771 0.867022
O O3 0.035964 0.724217 0.910350
O O4 0.000000 0.604961 0.750000
O O5 0.256996 0.300049 0.882145
O O6 0.136993 0.420204 0.857821
O O7 0.170295 0.295327 0.709421
O O8 0.090381 0.243789 0.898001
O O9 0.370299 0.518229 0.600288
O O10 0.476378 0.397417 0.516669
O O11 0.271998 0.877596 0.143965
O O12 0.218069 0.995801 0.286455
O O13 0.290276 0.056113 0.115616
O O14 0.855065 0.300053 0.997358
O O15 0.744713 0.000000 0.000000
O O16 0.316031 0.313571 0.563694
#
# Coordination Sequence:
#
# PCOD9316228 Si02
#       8
#     8   8   4   8   8   8   8   8
#     4  11  23  38  53  77 110 160 196 220 257 340
#     4  10  17  29  52  78 110 138 172 235 294 328
#     4  10  16  30  52  88 104 130 174 226 298 342
#     4   9  15  25  46  73 110 134 169 220 278 336
#     4  10  17  29  50  77 107 142 178 227 276 323
#     4  10  20  32  48  76 115 146 179 225 282 331
#     4  10  18  31  54  79 109 140 183 229 282 332
#     4   9  16  27  47  79 109 133 173 232 287 327
#
# _framework density 22.514794999999999
#
# number of rings (size 3 to 8) (size 9 to 14) (size 15 to 20)
#    0.000    2.133    6.667    0.000    0.000    0.000 
#    0.000    4.000    0.000    0.000    5.200    0.000 
#    0.000    0.000    0.000    0.000    0.000    0.000 
#
# Total GULP energy -167023.913745 kJ/mol
# GULP energy per Si atom -5567.463792 kJ/mol
# Density = 2.246355 g / cm^3
# Si number density = 22.514795 Si / 1000 Ang^3
#
#
#
# Elastic Constant Matrix: (Units=GPa)
#
#
# Indices 1 2 3 4 5 6 
#
# 1 8.2489 -8.0013 6.1059 0.0000 0.0000 0.0000
# 2 -8.0013 78.8865 30.0820 0.0000 0.0000 0.0000
# 3 6.1059 30.0820 186.1956 0.0000 0.0000 0.0000
# 4 0.0000 0.0000 0.0000 33.0066 0.0000 0.0000
# 5 0.0000 0.0000 0.0000 0.0000 14.9676 0.0000
# 6 0.0000 0.0000 0.0000 0.0000 0.0000 -2.7623
#
#
#
# Elastic Compliance Matrix: (Units=1/GPa)
#
#
# Indices 1 2 3 4 5 6 
#
# 1 0.143731 0.017451 -0.007533 0.000000 0.000000 0.000000
# 2 0.017451 0.015627 -0.003097 0.000000 0.000000 0.000000
# 3 -0.007533 -0.003097 0.006118 0.000000 0.000000 0.000000
# 4 0.000000 0.000000 0.000000 0.030297 0.000000 0.000000
# 5 0.000000 0.000000 0.000000 0.000000 0.066811 0.000000
# 6 0.000000 0.000000 0.000000 0.000000 0.000000 -0.362022
#
#
# Mechanical properties :
#
#
# Convention : Reuss Voigt Hill
#
# Bulk Modulus (GPa) = 5.58290 36.63379 21.10834
# Shear Modulus (GPa) = -93.67954 25.38535 -34.14709
#
# Velocity S-wave (km/s) = -6.45742 3.36146 -3.89865
# Velocity P-wave (km/s) = 7.28785 5.60109 3.29701
#
# Compressibility (1/GPa) = 0.17911843
#
# Stress axis : x y z
#
# Youngs Moduli (GPa) = 6.95744 63.99006 163.45012
#
# Poissons Ratio (x) = -1.11667 1.23122
# Poissons Ratio (y) = -0.12141 0.50621
# Poissons Ratio (z) = 0.05241 0.19818
#
# Static dielectric constant tensor:
#      x y z
#    x 1.963300 0.000000 0.000000 
#    y 0.000000 1.872160 0.000000 
#    z 0.000000 0.000000 1.844720 
# 
# From -- ./inp_files/15873.got.cif
#   From: 2010.05.17/outbox.cif.g08.bks.cpg/sg20_8_cif.got.tgz:15873.got - 2010.06.03 22:52:26.
