data_PCOD9316435
_publ_section_title
;
Structure prediction by ZEFSAII (Michael W. Deem and Ramdas Pophale) SiO2 
 PCOD9316435
Probable space group: C 2 2 21
;
_chemical_formula_sum "Si O2"
_cell_formula_units_Z 40
_cell_length_a 14.469218
_cell_length_b 18.961677
_cell_length_c 8.261058
_cell_angle_alpha 90.000000
_cell_angle_beta 90.000000
_cell_angle_gamma 90.000000
_cell_volume 2266.509145
_symmetry_space_group_name_H-M "C 2 2 21"
_symmetry_group_IT_number 20
_symmetry_cell_setting 'orthorhombic'
loop_
_space_group_symop_operation_xyz
x,y,z
-x,-y,1/2+z
x,-y,-z
-x,y,1/2-z
1/2+x,1/2+y,z
1/2-x,1/2-y,1/2+z
1/2+x,1/2-y,-z
1/2-x,1/2+y,1/2-z
loop_
_atom_site_type_symbol
_atom_site_label
_atom_site_fract_x
_atom_site_fract_y
_atom_site_fract_z
Si Si1 0.938891 0.216049 0.908505
Si Si2 0.111816 0.837168 0.897838
Si Si3 0.103280 0.693986 0.700715
Si Si4 0.209670 0.123362 0.769050
Si Si5 0.102030 0.011058 0.192305
O O1 0.852149 0.170468 0.850853
O O2 0.000000 0.234930 0.750000
O O3 0.903892 0.281627 0.014148
O O4 0.009694 0.172249 0.023098
O O5 0.128552 0.765179 0.801492
O O6 0.117271 0.905898 0.784459
O O7 0.178040 0.851409 0.050710
O O8 0.182223 0.638192 0.739669
O O9 0.000000 0.672126 0.750000
O O10 0.177575 0.043055 0.741917
O O11 0.000000 0.990136 0.250000
O O12 0.102488 0.000000 0.000000
#
# Coordination Sequence:
#
# PCOD9316435 Si02
#       5
#     8   8   8   8   8
#     4   9  17  30  47  69  97 122 150 193 239 281
#     4   9  18  31  48  72  97 123 153 191 241 284
#     4  10  19  31  47  69  96 127 161 194 226 272
#     4  10  18  29  46  71  98 125 155 190 236 284
#     4  10  18  29  47  73  99 121 146 186 239 289
#
# _framework density 17.648285000000001
#
# number of rings (size 3 to 8) (size 9 to 14) (size 15 to 20)
#    0.000    2.400    0.000    6.000    0.000    0.000 
#    0.000    0.000    0.000    0.000    0.000   64.400 
#    0.000    0.000    0.000    0.000    0.000    0.000 
#
# Total GULP energy -111517.721305 kJ/mol
# GULP energy per Si atom -5575.886065 kJ/mol
# Density = 1.760812 g / cm^3
# Si number density = 17.648285 Si / 1000 Ang^3
#
#
#
# Elastic Constant Matrix: (Units=GPa)
#
#
# Indices 1 2 3 4 5 6 
#
# 1 103.9526 64.5784 5.8163 0.0000 0.0000 0.0000
# 2 64.5784 74.7848 13.9141 0.0000 0.0000 0.0000
# 3 5.8163 13.9141 39.3076 0.0000 0.0000 0.0000
# 4 0.0000 0.0000 0.0000 10.5725 0.0000 0.0000
# 5 0.0000 0.0000 0.0000 0.0000 12.2490 0.0000
# 6 0.0000 0.0000 0.0000 0.0000 0.0000 6.9861
#
#
#
# Elastic Compliance Matrix: (Units=1/GPa)
#
#
# Indices 1 2 3 4 5 6 
#
# 1 0.021213 -0.018984 0.003581 0.000000 0.000000 0.000000
# 2 -0.018984 0.031304 -0.008272 0.000000 0.000000 0.000000
# 3 0.003581 -0.008272 0.027839 0.000000 0.000000 0.000000
# 4 0.000000 0.000000 0.000000 0.094585 0.000000 0.000000
# 5 0.000000 0.000000 0.000000 0.000000 0.081640 0.000000
# 6 0.000000 0.000000 0.000000 0.000000 0.000000 0.143141
#
#
# Mechanical properties :
#
#
# Convention : Reuss Voigt Hill
#
# Bulk Modulus (GPa) = 30.29783 42.96250 36.63016
# Shear Modulus (GPa) = 10.91531 14.87727 12.89629
#
# Velocity S-wave (km/s) = 2.48965 2.90657 2.70615
# Velocity P-wave (km/s) = 5.04671 5.97167 5.52857
#
# Compressibility (1/GPa) = 0.03300567
#
# Stress axis : x y z
#
# Youngs Moduli (GPa) = 47.14126 31.94493 35.92140
#
# Poissons Ratio (x) = 0.60644 -0.12864
# Poissons Ratio (y) = 0.89493 0.29714
# Poissons Ratio (z) = -0.16882 0.26424
#
# Static dielectric constant tensor:
#      x y z
#    x 1.594870 0.000000 0.000000 
#    y 0.000000 1.624520 0.000000 
#    z 0.000000 0.000000 1.637400 
# 
# From -- ./inp_files/7233.got.cif
#   From: 2010.05.17/outbox.cif.g08.bks.cpg/sg20_4_cif.got.tgz:7233.got - 2010.06.03 22:52:26.
