data_PCOD9316623
_publ_section_title
;
Structure prediction by ZEFSAII (Michael W. Deem and Ramdas Pophale) SiO2 
 PCOD9316623
Probable space group: C 2 2 21
;
_chemical_formula_sum "Si O2"
_cell_formula_units_Z 56
_cell_length_a 9.110990
_cell_length_b 9.865012
_cell_length_c 25.981505
_cell_angle_alpha 90.000000
_cell_angle_beta 90.000000
_cell_angle_gamma 90.000000
_cell_volume 2335.218337
_symmetry_space_group_name_H-M "C 2 2 21"
_symmetry_group_IT_number 20
_symmetry_cell_setting 'orthorhombic'
loop_
_space_group_symop_operation_xyz
x,y,z
-x,-y,1/2+z
x,-y,-z
-x,y,1/2-z
1/2+x,1/2+y,z
1/2-x,1/2-y,1/2+z
1/2+x,1/2-y,-z
1/2-x,1/2+y,1/2-z
loop_
_atom_site_type_symbol
_atom_site_label
_atom_site_fract_x
_atom_site_fract_y
_atom_site_fract_z
Si Si1 0.369924 0.306857 0.790120
Si Si2 0.390332 0.000000 0.000000
Si Si3 0.408783 0.420278 0.895272
Si Si4 0.073470 0.375732 0.927608
Si Si5 0.803366 0.256935 0.472367
Si Si6 0.673477 0.389473 0.261091
Si Si7 0.916818 0.000000 0.000000
Si Si8 0.166343 0.220016 0.631565
O O1 0.500000 0.285557 0.750000
O O2 0.438125 0.326470 0.846775
O O3 0.294232 0.453079 0.775542
O O4 0.261420 0.179094 0.785645
O O5 0.497638 0.010664 0.950582
O O6 0.287027 0.873610 0.990886
O O7 0.237828 0.389055 0.908287
O O8 0.492570 0.429104 0.950462
O O9 0.410535 0.573636 0.875664
O O10 0.962759 0.322069 0.884820
O O11 0.083803 0.283795 0.979895
O O12 0.691886 0.385214 0.479215
O O13 0.797329 0.254967 0.409538
O O14 0.500000 0.384620 0.250000
O O15 0.710371 0.290086 0.309203
#
# Coordination Sequence:
#
# PCOD9316623 Si02
#       8
#     8   4   8   8   8   8   4   8
#     4  10  22  40  60  86 119 153 196 248 296 349
#     4  10  19  32  51  78 110 144 185 234 285 342
#     4   9  17  34  57  79 107 147 188 230 288 345
#     4  10  18  34  55  76 112 150 184 233 287 342
#     4   9  18  33  53  80 112 146 185 227 280 342
#     4  10  21  40  62  84 115 155 198 246 297 350
#     4   8  15  32  55  76 106 144 181 226 281 342
#     4   9  18  33  55  80 108 148 191 233 287 344
#
# _framework density 23.980626000000001
#
# number of rings (size 3 to 8) (size 9 to 14) (size 15 to 20)
#    0.000    2.571    0.000    3.429    0.000    0.571 
#    0.000   36.429    0.000    0.000    0.000    0.000 
#    0.000    0.000    0.000    0.000    0.000    0.000 
#
# Total GULP energy -156109.674271 kJ/mol
# GULP energy per Si atom -5575.345510 kJ/mol
# Density = 2.392604 g / cm^3
# Si number density = 23.980626 Si / 1000 Ang^3
#
#
#
# Elastic Constant Matrix: (Units=GPa)
#
#
# Indices 1 2 3 4 5 6 
#
# 1 71.8305 9.1184 10.3007 0.0000 0.0000 0.0000
# 2 9.1184 47.3094 -4.1620 0.0000 0.0000 0.0000
# 3 10.3007 -4.1620 84.6095 0.0000 0.0000 0.0000
# 4 0.0000 0.0000 0.0000 33.0899 0.0000 0.0000
# 5 0.0000 0.0000 0.0000 0.0000 42.9777 0.0000
# 6 0.0000 0.0000 0.0000 0.0000 0.0000 16.6566
#
#
#
# Elastic Compliance Matrix: (Units=1/GPa)
#
#
# Indices 1 2 3 4 5 6 
#
# 1 0.014575 -0.002978 -0.001921 0.000000 0.000000 0.000000
# 2 -0.002978 0.021838 0.001437 0.000000 0.000000 0.000000
# 3 -0.001921 0.001437 0.012124 0.000000 0.000000 0.000000
# 4 0.000000 0.000000 0.000000 0.030221 0.000000 0.000000
# 5 0.000000 0.000000 0.000000 0.000000 0.023268 0.000000
# 6 0.000000 0.000000 0.000000 0.000000 0.000000 0.060036
#
#
# Mechanical properties :
#
#
# Convention : Reuss Voigt Hill
#
# Bulk Modulus (GPa) = 24.03160 26.02930 25.03045
# Shear Modulus (GPa) = 27.34381 31.11100 29.22740
#
# Velocity S-wave (km/s) = 3.38042 3.60577 3.49491
# Velocity P-wave (km/s) = 5.02785 5.31162 5.17168
#
# Compressibility (1/GPa) = 0.04161187
#
# Stress axis : x y z
#
# Youngs Moduli (GPa) = 68.60972 45.79201 82.48411
#
# Poissons Ratio (x) = 0.13638 0.15845
# Poissons Ratio (y) = 0.20434 -0.11851
# Poissons Ratio (z) = 0.13179 -0.06579
#
# Static dielectric constant tensor:
#      x y z
#    x 1.996430 0.000000 0.000000 
#    y 0.000000 1.956170 0.000000 
#    z 0.000000 0.000000 2.046880 
# 
# From -- ./inp_files/29144.got.cif
#   From: 2010.05.17/outbox.cif.g08.bks.cpg/sg20_15_cif.got.tgz:29144.got - 2010.06.03 22:52:26.
