data_PCOD9316863
_publ_section_title
;
Structure prediction by ZEFSAII (Michael W. Deem and Ramdas Pophale) SiO2 
 PCOD9316863
Probable space group: C 2 2 21
;
_chemical_formula_sum "Si O2"
_cell_formula_units_Z 64
_cell_length_a 26.516431
_cell_length_b 13.275691
_cell_length_c 8.910092
_cell_angle_alpha 90.000000
_cell_angle_beta 90.000000
_cell_angle_gamma 90.000000
_cell_volume 3136.565731
_symmetry_space_group_name_H-M "C 2 2 21"
_symmetry_group_IT_number 20
_symmetry_cell_setting 'orthorhombic'
loop_
_space_group_symop_operation_xyz
x,y,z
-x,-y,1/2+z
x,-y,-z
-x,y,1/2-z
1/2+x,1/2+y,z
1/2-x,1/2-y,1/2+z
1/2+x,1/2-y,-z
1/2-x,1/2+y,1/2-z
loop_
_atom_site_type_symbol
_atom_site_label
_atom_site_fract_x
_atom_site_fract_y
_atom_site_fract_z
Si Si1 0.357084 0.949499 0.852655
Si Si2 0.130440 0.054356 0.150549
Si Si3 0.900094 0.750871 0.026112
Si Si4 0.949668 0.063961 0.845439
Si Si5 0.809012 0.113879 0.066192
Si Si6 0.196791 0.613765 0.061858
Si Si7 0.400692 0.093711 0.606310
Si Si8 0.054451 0.220583 0.199599
O O1 0.393121 0.859554 0.907566
O O2 0.319551 0.898216 0.734026
O O3 0.384639 0.038664 0.760276
O O4 0.333309 0.000000 0.000000
O O5 0.172576 0.101194 0.260864
O O6 0.088178 0.139093 0.114240
O O7 0.097864 0.977745 0.252465
O O8 0.148773 0.000000 0.000000
O O9 0.939384 0.820305 0.114537
O O10 0.847724 0.813660 0.020134
O O11 0.917176 0.752581 0.853790
O O12 0.000000 0.052417 0.750000
O O13 0.952224 0.000000 0.000000
O O14 0.752540 0.157442 0.050828
O O15 0.811205 0.000000 0.000000
O O16 0.201890 0.500000 0.000000
O O17 0.148788 0.650544 0.964422
O O18 0.445326 0.173689 0.614198
O O19 0.412819 0.000000 0.500000
O O20 0.000000 0.182981 0.250000
#
# Coordination Sequence:
#
# PCOD9316863 Si02
#       8
#     8   8   8   8   8   8   8   8
#     4  10  19  38  62  87 117 154 204 253 304 359
#     4  11  23  37  63  92 132 163 201 255 303 382
#     4  11  22  39  62  89 124 159 201 259 300 364
#     4  12  23  41  62  91 125 169 205 245 314 376
#     4  10  18  42  61  86 128 161 197 249 319 364
#     4   8  19  37  66  85 115 165 197 250 318 373
#     4   9  20  43  63  85 119 159 209 259 312 366
#     4  11  23  41  62  89 125 167 206 257 319 361
#
# _framework density 20.404482999999999
#
# number of rings (size 3 to 8) (size 9 to 14) (size 15 to 20)
#    0.000    2.000    5.000    0.750    1.750    2.500 
#    6.750    0.000    0.000    0.000    0.000    0.000 
#    0.000    0.000    0.000    0.000    0.000    0.000 
#
# Total GULP energy -178448.890294 kJ/mol
# GULP energy per Si atom -5576.527822 kJ/mol
# Density = 2.035804 g / cm^3
# Si number density = 20.404483 Si / 1000 Ang^3
#
#
#
# Elastic Constant Matrix: (Units=GPa)
#
#
# Indices 1 2 3 4 5 6 
#
# 1 41.9306 19.8915 7.5025 0.0000 0.0000 0.0000
# 2 19.8915 63.5027 20.0539 0.0000 0.0000 0.0000
# 3 7.5025 20.0539 91.6464 0.0000 0.0000 0.0000
# 4 0.0000 0.0000 0.0000 15.1901 0.0000 0.0000
# 5 0.0000 0.0000 0.0000 0.0000 13.1963 0.0000
# 6 0.0000 0.0000 0.0000 0.0000 0.0000 8.6018
#
#
#
# Elastic Compliance Matrix: (Units=1/GPa)
#
#
# Indices 1 2 3 4 5 6 
#
# 1 0.028025 -0.008652 -0.000401 0.000000 0.000000 0.000000
# 2 -0.008652 0.019587 -0.003578 0.000000 0.000000 0.000000
# 3 -0.000401 -0.003578 0.011727 0.000000 0.000000 0.000000
# 4 0.000000 0.000000 0.000000 0.065832 0.000000 0.000000
# 5 0.000000 0.000000 0.000000 0.000000 0.075779 0.000000
# 6 0.000000 0.000000 0.000000 0.000000 0.000000 0.116255
#
#
# Mechanical properties :
#
#
# Convention : Reuss Voigt Hill
#
# Bulk Modulus (GPa) = 29.34429 32.44171 30.89300
# Shear Modulus (GPa) = 14.13120 17.37308 15.75214
#
# Velocity S-wave (km/s) = 2.63450 2.92110 2.78149
# Velocity P-wave (km/s) = 4.86483 5.22599 5.04864
#
# Compressibility (1/GPa) = 0.03407818
#
# Stress axis : x y z
#
# Youngs Moduli (GPa) = 35.68235 51.05346 85.27173
#
# Poissons Ratio (x) = 0.44171 0.03420
# Poissons Ratio (y) = 0.30872 0.30508
# Poissons Ratio (z) = 0.01431 0.18266
#
# Static dielectric constant tensor:
#      x y z
#    x 1.754680 0.000000 0.000000 
#    y 0.000000 1.738210 0.000000 
#    z 0.000000 0.000000 1.760410 
# 
# From -- ./inp_files/11602.got.cif
#   From: 2010.05.17/outbox.cif.g08.bks.cpg/sg20_6_cif.got.tgz:11602.got - 2010.06.03 22:52:26.
