data_PCOD9316411
_publ_section_title
;
Structure prediction by ZEFSAII (Michael W. Deem and Ramdas Pophale) SiO2 
 PCOD9316411
Probable space group: C 2 2 21
;
_chemical_formula_sum "Si O2"
_cell_formula_units_Z 40
_cell_length_a 10.650120
_cell_length_b 25.651814
_cell_length_c 8.275399
_cell_angle_alpha 90.000000
_cell_angle_beta 90.000000
_cell_angle_gamma 90.000000
_cell_volume 2260.796780
_symmetry_space_group_name_H-M "C 2 2 21"
_symmetry_group_IT_number 20
_symmetry_cell_setting 'orthorhombic'
loop_
_space_group_symop_operation_xyz
x,y,z
-x,-y,1/2+z
x,-y,-z
-x,y,1/2-z
1/2+x,1/2+y,z
1/2-x,1/2-y,1/2+z
1/2+x,1/2-y,-z
1/2-x,1/2+y,1/2-z
loop_
_atom_site_type_symbol
_atom_site_label
_atom_site_fract_x
_atom_site_fract_y
_atom_site_fract_z
Si Si1 0.847500 0.877232 0.259455
Si Si2 0.141346 0.243264 0.692794
Si Si3 0.875886 0.208831 0.160551
Si Si4 0.655988 0.443871 0.933169
Si Si5 0.631245 0.587767 0.418549
O O1 0.820206 0.815524 0.249513
O O2 0.806055 0.901796 0.429672
O O3 0.000000 0.880595 0.250000
O O4 0.805496 0.908835 0.096962
O O5 0.138135 0.240585 0.501928
O O6 0.246918 0.283479 0.745655
O O7 0.000000 0.254048 0.750000
O O8 0.896560 0.148508 0.117347
O O9 0.000000 0.227421 0.250000
O O10 0.502988 0.440872 0.931623
O O11 0.694915 0.433285 0.746649
O O12 0.694363 0.500000 0.000000
#
# Coordination Sequence:
#
# PCOD9316411 Si02
#       5
#     8   8   8   8   8
#     4   8  17  30  42  63  98 129 166 212 254 303
#     4  10  21  33  53  76 102 145 183 218 265 321
#     4  11  20  35  53  73 107 146 175 223 273 316
#     4  10  18  26  45  66  97 135 171 204 266 315
#     4   9  19  29  42  67  98 132 164 210 259 310
#
# _framework density 17.692876999999999
#
# number of rings (size 3 to 8) (size 9 to 14) (size 15 to 20)
#    0.000    2.400    2.000    2.400   11.200    0.000 
#    0.000    0.000    0.000    0.000    0.000    0.000 
#    0.000    3.200    0.400    0.000    0.000    0.000 
#
# Total GULP energy -111345.370681 kJ/mol
# GULP energy per Si atom -5567.268534 kJ/mol
# Density = 1.765261 g / cm^3
# Si number density = 17.692877 Si / 1000 Ang^3
#
#
#
# Elastic Constant Matrix: (Units=GPa)
#
#
# Indices 1 2 3 4 5 6 
#
# 1 45.0063 9.0774 16.1354 0.0000 0.0000 0.0000
# 2 9.0774 20.7175 11.5121 0.0000 0.0000 0.0000
# 3 16.1354 11.5121 113.1435 0.0000 0.0000 0.0000
# 4 0.0000 0.0000 0.0000 24.8446 0.0000 0.0000
# 5 0.0000 0.0000 0.0000 0.0000 15.1551 0.0000
# 6 0.0000 0.0000 0.0000 0.0000 0.0000 -9.4420
#
#
#
# Elastic Compliance Matrix: (Units=1/GPa)
#
#
# Indices 1 2 3 4 5 6 
#
# 1 0.025077 -0.009540 -0.002606 0.000000 0.000000 0.000000
# 2 -0.009540 0.054790 -0.004214 0.000000 0.000000 0.000000
# 3 -0.002606 -0.004214 0.009639 0.000000 0.000000 0.000000
# 4 0.000000 0.000000 0.000000 0.040250 0.000000 0.000000
# 5 0.000000 0.000000 0.000000 0.000000 0.065985 0.000000
# 6 0.000000 0.000000 0.000000 0.000000 0.000000 -0.105910
#
#
# Mechanical properties :
#
#
# Convention : Reuss Voigt Hill
#
# Bulk Modulus (GPa) = 17.60979 28.03525 22.82252
# Shear Modulus (GPa) = 35.34071 15.58767 25.46419
#
# Velocity S-wave (km/s) = 4.47414 2.97141 3.79784
# Velocity P-wave (km/s) = 6.05518 5.25854 5.67087
#
# Compressibility (1/GPa) = 0.05678659
#
# Stress axis : x y z
#
# Youngs Moduli (GPa) = 39.87660 18.25148 103.74820
#
# Poissons Ratio (x) = 0.17412 0.27033
# Poissons Ratio (y) = 0.38042 0.43723
# Poissons Ratio (z) = 0.10390 0.07692
#
# Static dielectric constant tensor:
#      x y z
#    x 1.543440 0.000000 0.000000 
#    y 0.000000 1.603710 0.000000 
#    z 0.000000 0.000000 1.716770 
# 
# From -- ./inp_files/6287.got.cif
#   From: 2010.05.17/outbox.cif.g08.bks.cpg/sg20_4_cif.got.tgz:6287.got - 2010.06.03 22:52:26.
