data_PCOD9316720
_publ_section_title
;
Structure prediction by ZEFSAII (Michael W. Deem and Ramdas Pophale) SiO2 
 PCOD9316720
Probable space group: C 2 2 21
;
_chemical_formula_sum "Si O2"
_cell_formula_units_Z 52
_cell_length_a 27.392822
_cell_length_b 8.331639
_cell_length_c 11.948910
_cell_angle_alpha 90.000000
_cell_angle_beta 90.000000
_cell_angle_gamma 90.000000
_cell_volume 2727.065126
_symmetry_space_group_name_H-M "C 2 2 21"
_symmetry_group_IT_number 20
_symmetry_cell_setting 'orthorhombic'
loop_
_space_group_symop_operation_xyz
x,y,z
-x,-y,1/2+z
x,-y,-z
-x,y,1/2-z
1/2+x,1/2+y,z
1/2-x,1/2-y,1/2+z
1/2+x,1/2-y,-z
1/2-x,1/2+y,1/2-z
loop_
_atom_site_type_symbol
_atom_site_label
_atom_site_fract_x
_atom_site_fract_y
_atom_site_fract_z
Si Si1 0.132555 0.163801 0.114088
Si Si2 0.147559 0.800372 0.134914
Si Si3 0.539903 0.184507 0.842170
Si Si4 0.305560 0.130006 0.778233
Si Si5 0.899982 0.430904 0.797759
Si Si6 0.253706 0.093298 0.381657
Si Si7 0.027401 0.500000 0.500000
O O1 0.077990 0.170909 0.159848
O O2 0.168224 0.289150 0.171806
O O3 0.155564 0.990753 0.136299
O O4 0.123496 0.216500 0.986732
O O5 0.116489 0.733804 0.238544
O O6 0.196203 0.694935 0.123392
O O7 0.500000 0.217021 0.750000
O O8 0.572427 0.033538 0.798931
O O9 0.508942 0.134687 0.950388
O O10 0.287528 0.273114 0.857975
O O11 0.348757 0.019927 0.829025
O O12 0.261149 0.028999 0.723171
O O13 0.937248 0.433125 0.901684
O O14 0.248174 0.000000 0.500000
#
# Coordination Sequence:
#
# PCOD9316720 Si02
#       7
#     8   8   8   8   8   8   4
#     4  10  19  36  58  83 113 148 199 249 299 352
#     4  10  20  35  58  86 110 154 198 247 294 355
#     4   9  18  33  58  78 109 153 192 243 300 366
#     4  10  21  38  57  83 117 155 199 244 299 357
#     4   9  20  36  57  84 119 153 197 248 304 366
#     4  11  21  39  60  88 118 158 207 249 296 353
#     4  10  18  36  58  90 116 154 202 242 310 368
#
# _framework density 19.068117999999998
#
# number of rings (size 3 to 8) (size 9 to 14) (size 15 to 20)
#    0.000    2.154    1.538    1.846    0.000    0.000 
#    8.308    5.385    0.000    0.000    0.000    0.000 
#    0.000    0.000    0.000    0.000    0.000    0.000 
#
# Total GULP energy -144738.729304 kJ/mol
# GULP energy per Si atom -5566.874204 kJ/mol
# Density = 1.902472 g / cm^3
# Si number density = 19.068118 Si / 1000 Ang^3
#
#
#
# Elastic Constant Matrix: (Units=GPa)
#
#
# Indices 1 2 3 4 5 6 
#
# 1 72.8025 26.7622 26.7397 0.0000 0.0000 0.0000
# 2 26.7622 59.8895 38.9413 0.0000 0.0000 0.0000
# 3 26.7397 38.9413 61.0771 0.0000 0.0000 0.0000
# 4 0.0000 0.0000 0.0000 22.2027 0.0000 0.0000
# 5 0.0000 0.0000 0.0000 0.0000 20.3473 0.0000
# 6 0.0000 0.0000 0.0000 0.0000 0.0000 23.2022
#
#
#
# Elastic Compliance Matrix: (Units=1/GPa)
#
#
# Indices 1 2 3 4 5 6 
#
# 1 0.017122 -0.004744 -0.004472 0.000000 0.000000 0.000000
# 2 -0.004744 0.029835 -0.016946 0.000000 0.000000 0.000000
# 3 -0.004472 -0.016946 0.029135 0.000000 0.000000 0.000000
# 4 0.000000 0.000000 0.000000 0.045039 0.000000 0.000000
# 5 0.000000 0.000000 0.000000 0.000000 0.049147 0.000000
# 6 0.000000 0.000000 0.000000 0.000000 0.000000 0.043099
#
#
# Mechanical properties :
#
#
# Convention : Reuss Voigt Hill
#
# Bulk Modulus (GPa) = 42.06929 42.07282 42.07105
# Shear Modulus (GPa) = 18.27336 19.90551 19.08943
#
# Velocity S-wave (km/s) = 3.09903 3.23447 3.16748
# Velocity P-wave (km/s) = 5.90896 6.00512 5.95724
#
# Compressibility (1/GPa) = 0.02377031
#
# Stress axis : x y z
#
# Youngs Moduli (GPa) = 58.40475 33.51718 34.32348
#
# Poissons Ratio (x) = 0.15899 0.15348
# Poissons Ratio (y) = 0.27704 0.58163
# Poissons Ratio (z) = 0.26117 0.56797
#
# Static dielectric constant tensor:
#      x y z
#    x 1.690440 0.000000 0.000000 
#    y 0.000000 1.715930 0.000000 
#    z 0.000000 0.000000 1.700410 
# 
# From -- ./inp_files/16999.got.cif
#   From: 2010.05.17/outbox.cif.g08.bks.cpg/sg20_9_cif.got.tgz:16999.got - 2010.06.03 22:52:26.
