data_PCOD9316324
_publ_section_title
;
Structure prediction by ZEFSAII (Michael W. Deem and Ramdas Pophale) SiO2 
 PCOD9316324
Probable space group: C 2 2 21
;
_chemical_formula_sum "Si O2"
_cell_formula_units_Z 56
_cell_length_a 15.649932
_cell_length_b 21.138393
_cell_length_c 7.282616
_cell_angle_alpha 90.000000
_cell_angle_beta 90.000000
_cell_angle_gamma 90.000000
_cell_volume 2409.194337
_symmetry_space_group_name_H-M "C 2 2 21"
_symmetry_group_IT_number 20
_symmetry_cell_setting 'orthorhombic'
loop_
_space_group_symop_operation_xyz
x,y,z
-x,-y,1/2+z
x,-y,-z
-x,y,1/2-z
1/2+x,1/2+y,z
1/2-x,1/2-y,1/2+z
1/2+x,1/2-y,-z
1/2-x,1/2+y,1/2-z
loop_
_atom_site_type_symbol
_atom_site_label
_atom_site_fract_x
_atom_site_fract_y
_atom_site_fract_z
Si Si1 0.338473 0.860061 0.367850
Si Si2 0.418736 0.328326 0.937343
Si Si3 0.414688 0.548271 0.838611
Si Si4 0.448362 0.768352 0.559927
Si Si5 0.207198 0.244000 0.693207
Si Si6 0.234892 0.120826 0.250589
Si Si7 0.732631 0.982117 0.218985
O O1 0.426749 0.830735 0.442155
O O2 0.287123 0.802099 0.277017
O O3 0.280321 0.874483 0.548578
O O4 0.335944 0.925672 0.255744
O O5 0.367250 0.366813 0.778601
O O6 0.436833 0.383338 0.083729
O O7 0.501918 0.283961 0.941246
O O8 0.346885 0.283412 0.024735
O O9 0.500000 0.522197 0.750000
O O10 0.324607 0.550136 0.735616
O O11 0.394831 0.500000 0.000000
O O12 0.500000 0.781037 0.750000
O O13 0.357210 0.743251 0.633557
O O14 0.230524 0.316565 0.655122
O O15 0.261915 0.050993 0.184437
O O16 0.723960 0.000000 0.000000
#
# Coordination Sequence:
#
# PCOD9316324 Si02
#       7
#     8   8   8   8   8   8   8
#     4   9  16  29  48  71  96 135 178 216 262 322
#     4  10  17  31  50  72 105 142 174 220 281 334
#     4  11  19  32  51  75 113 153 181 215 273 342
#     4   9  18  29  46  71  98 131 171 222 268 319
#     4   9  16  28  48  72  95 130 178 222 256 313
#     4   9  16  29  49  74 101 132 184 225 263 321
#     4   9  15  30  49  71  99 138 182 214 261 329
#
# _framework density 23.244285999999999
#
# number of rings (size 3 to 8) (size 9 to 14) (size 15 to 20)
#    0.000    2.571    5.714    1.286    0.000    0.000 
#    2.571    0.714    0.000    0.000    0.000   70.000 
#    0.000    0.000    0.000    0.000    0.000    0.000 
#
# Total GULP energy -155999.973693 kJ/mol
# GULP energy per Si atom -5571.427632 kJ/mol
# Density = 2.319138 g / cm^3
# Si number density = 23.244286 Si / 1000 Ang^3
#
#
#
# Elastic Constant Matrix: (Units=GPa)
#
#
# Indices 1 2 3 4 5 6 
#
# 1 51.1991 52.4033 14.7624 0.0000 0.0000 0.0000
# 2 52.4033 210.2808 28.9920 0.0000 0.0000 0.0000
# 3 14.7624 28.9920 46.5890 0.0000 0.0000 0.0000
# 4 0.0000 0.0000 0.0000 19.3151 0.0000 0.0000
# 5 0.0000 0.0000 0.0000 0.0000 19.8968 0.0000
# 6 0.0000 0.0000 0.0000 0.0000 0.0000 -82.2915
#
#
#
# Elastic Compliance Matrix: (Units=1/GPa)
#
#
# Indices 1 2 3 4 5 6 
#
# 1 0.027169 -0.006108 -0.004808 0.000000 0.000000 0.000000
# 2 -0.006108 0.006575 -0.002156 0.000000 0.000000 0.000000
# 3 -0.004808 -0.002156 0.024330 0.000000 0.000000 0.000000
# 4 0.000000 0.000000 0.000000 0.051773 0.000000 0.000000
# 5 0.000000 0.000000 0.000000 0.000000 0.050259 0.000000
# 6 0.000000 0.000000 0.000000 0.000000 0.000000 -0.012152
#
#
# Mechanical properties :
#
#
# Convention : Reuss Voigt Hill
#
# Bulk Modulus (GPa) = 31.31885 55.59825 43.45855
# Shear Modulus (GPa) = 27.06476 5.51149 16.28813
#
# Velocity S-wave (km/s) = 3.41598 1.54151 2.65002
# Velocity P-wave (km/s) = 5.39088 5.20955 5.30099
#
# Compressibility (1/GPa) = 0.03192966
#
# Stress axis : x y z
#
# Youngs Moduli (GPa) = 36.80600 152.09232 41.10217
#
# Poissons Ratio (x) = 0.92896 0.19762
# Poissons Ratio (y) = 0.22481 0.08862
# Poissons Ratio (z) = 0.17697 0.32794
#
# Static dielectric constant tensor:
#      x y z
#    x 1.927330 0.000000 0.000000 
#    y 0.000000 1.910810 0.000000 
#    z 0.000000 0.000000 2.883510 
# 
# From -- ./inp_files/8741.got.cif
#   From: 2010.05.17/outbox.cif.g08.bks.cpg/sg20_5_cif.got.tgz:8741.got - 2010.06.03 22:52:26.
