data_PCOD9316956
_publ_section_title
;
Structure prediction by ZEFSAII (Michael W. Deem and Ramdas Pophale) SiO2 
 PCOD9316956
Probable space group: C 2 2 21
;
_chemical_formula_sum "Si O2"
_cell_formula_units_Z 56
_cell_length_a 21.300071
_cell_length_b 5.281211
_cell_length_c 22.145131
_cell_angle_alpha 90.000000
_cell_angle_beta 90.000000
_cell_angle_gamma 90.000000
_cell_volume 2491.109535
_symmetry_space_group_name_H-M "C 2 2 21"
_symmetry_group_IT_number 20
_symmetry_cell_setting 'orthorhombic'
loop_
_space_group_symop_operation_xyz
x,y,z
-x,-y,1/2+z
x,-y,-z
-x,y,1/2-z
1/2+x,1/2+y,z
1/2-x,1/2-y,1/2+z
1/2+x,1/2-y,-z
1/2-x,1/2+y,1/2-z
loop_
_atom_site_type_symbol
_atom_site_label
_atom_site_fract_x
_atom_site_fract_y
_atom_site_fract_z
Si Si1 0.854936 0.753787 0.463452
Si Si2 0.796879 0.748175 0.961912
Si Si3 0.593444 0.971795 0.848543
Si Si4 0.786020 0.213900 0.172176
Si Si5 0.928686 0.779153 0.224941
Si Si6 0.295766 0.713294 0.311548
Si Si7 0.034094 0.704230 0.683896
O O1 0.868559 0.500000 0.500000
O O2 0.779396 0.761197 0.455338
O O3 0.891489 0.718651 0.401622
O O4 0.873849 0.000000 0.500000
O O5 0.819743 0.759248 0.892580
O O6 0.815742 0.500000 0.000000
O O7 0.812375 0.000000 0.000000
O O8 0.604936 0.802374 0.787285
O O9 0.642942 0.201275 0.847428
O O10 0.525714 0.108776 0.854367
O O11 0.753271 0.937216 0.172933
O O12 0.813363 0.222411 0.240442
O O13 0.736154 0.446949 0.174034
O O14 0.919725 0.534604 0.183514
O O15 0.000000 0.780338 0.250000
O O16 0.928657 0.031749 0.184689
O O17 0.000000 0.714809 0.750000
#
# Coordination Sequence:
#
# PCOD9316956 Si02
#       7
#     8   8   8   8   8   8   8
#     4  10  22  31  44  72 101 136 186 209 233 305
#     4  10  19  32  50  65  95 140 181 216 250 303
#     4  10  19  33  54  70 105 147 170 211 277 302
#     4  10  20  35  45  73 105 129 185 217 259 308
#     4   8  16  28  43  68  92 117 159 199 242 305
#     4  10  21  31  51  72 102 141 169 222 265 315
#     4   8  16  28  43  68  92 118 160 199 240 305
#
# _framework density 22.479945000000001
#
# number of rings (size 3 to 8) (size 9 to 14) (size 15 to 20)
#    0.000    2.857    1.429    0.857    4.000    9.143 
#    0.000    0.000    0.000    0.000    0.000    0.000 
#    0.000   40.000    0.000    0.714    0.000    0.571 
#
# Total GULP energy -156063.296105 kJ/mol
# GULP energy per Si atom -5573.689147 kJ/mol
# Density = 2.242878 g / cm^3
# Si number density = 22.479945 Si / 1000 Ang^3
#
#
#
# Elastic Constant Matrix: (Units=GPa)
#
#
# Indices 1 2 3 4 5 6 
#
# 1 10.8701 8.4934 4.2944 0.0000 0.0000 0.0000
# 2 8.4934 176.7161 32.5479 0.0000 0.0000 0.0000
# 3 4.2944 32.5479 102.5063 0.0000 0.0000 0.0000
# 4 0.0000 0.0000 0.0000 36.6808 0.0000 0.0000
# 5 0.0000 0.0000 0.0000 0.0000 19.4004 0.0000
# 6 0.0000 0.0000 0.0000 0.0000 0.0000 21.4609
#
#
#
# Elastic Compliance Matrix: (Units=1/GPa)
#
#
# Indices 1 2 3 4 5 6 
#
# 1 0.096296 -0.004126 -0.002724 0.000000 0.000000 0.000000
# 2 -0.004126 0.006187 -0.001792 0.000000 0.000000 0.000000
# 3 -0.002724 -0.001792 0.010439 0.000000 0.000000 0.000000
# 4 0.000000 0.000000 0.000000 0.027262 0.000000 0.000000
# 5 0.000000 0.000000 0.000000 0.000000 0.051545 0.000000
# 6 0.000000 0.000000 0.000000 0.000000 0.000000 0.046596
#
#
# Mechanical properties :
#
#
# Convention : Reuss Voigt Hill
#
# Bulk Modulus (GPa) = 10.45619 42.30711 26.38165
# Shear Modulus (GPa) = 17.39198 31.82554 24.60876
#
# Velocity S-wave (km/s) = 2.78450 3.76670 3.31221
# Velocity P-wave (km/s) = 3.87290 6.14639 5.13700
#
# Compressibility (1/GPa) = 0.09563717
#
# Stress axis : x y z
#
# Youngs Moduli (GPa) = 10.38466 161.62623 95.79907
#
# Poissons Ratio (x) = 0.66695 0.26096
# Poissons Ratio (y) = 0.04285 0.17164
# Poissons Ratio (z) = 0.02829 0.28958
#
# Static dielectric constant tensor:
#      x y z
#    x 1.831880 0.000000 0.000000 
#    y 0.000000 1.928940 0.000000 
#    z 0.000000 0.000000 1.783880 
# 
# From -- ./inp_files/28071.got.cif
#   From: 2010.05.17/outbox.cif.g08.bks.cpg/sg20_15_cif.got.tgz:28071.got - 2010.06.03 22:52:26.
