data_PCOD9316495
_publ_section_title
;
Structure prediction by ZEFSAII (Michael W. Deem and Ramdas Pophale) SiO2 
 PCOD9316495
Probable space group: C 2 2 21
;
_chemical_formula_sum "Si O2"
_cell_formula_units_Z 64
_cell_length_a 24.533842
_cell_length_b 17.307911
_cell_length_c 8.437427
_cell_angle_alpha 90.000000
_cell_angle_beta 90.000000
_cell_angle_gamma 90.000000
_cell_volume 3582.780862
_symmetry_space_group_name_H-M "C 2 2 21"
_symmetry_group_IT_number 20
_symmetry_cell_setting 'orthorhombic'
loop_
_space_group_symop_operation_xyz
x,y,z
-x,-y,1/2+z
x,-y,-z
-x,y,1/2-z
1/2+x,1/2+y,z
1/2-x,1/2-y,1/2+z
1/2+x,1/2-y,-z
1/2-x,1/2+y,1/2-z
loop_
_atom_site_type_symbol
_atom_site_label
_atom_site_fract_x
_atom_site_fract_y
_atom_site_fract_z
Si Si1 0.248229 0.396934 0.826406
Si Si2 0.785502 0.163761 0.850580
Si Si3 0.818707 0.222301 0.336684
Si Si4 0.062067 0.624447 0.317000
Si Si5 0.622171 0.152374 0.646013
Si Si6 0.440588 0.033073 0.678167
Si Si7 0.270929 0.951897 0.151948
Si Si8 0.148840 0.273963 0.829668
O O1 0.292589 0.360081 0.705657
O O2 0.226083 0.481872 0.787050
O O3 0.196357 0.339237 0.828361
O O4 0.279187 0.386427 0.992716
O O5 0.734241 0.222231 0.852423
O O6 0.774741 0.107922 0.703957
O O7 0.837304 0.215803 0.814023
O O8 0.855476 0.263920 0.200829
O O9 0.848537 0.229811 0.504149
O O10 0.080521 0.646763 0.496647
O O11 0.082285 0.536788 0.286293
O O12 0.093546 0.682687 0.203828
O O13 0.000000 0.623559 0.250000
O O14 0.594624 0.109542 0.796794
O O15 0.675266 0.098636 0.615025
O O16 0.500000 0.049762 0.750000
O O17 0.443660 0.000000 0.500000
O O18 0.256481 0.000000 0.000000
#
# Coordination Sequence:
#
# PCOD9316495 Si02
#       8
#     8   8   8   8   8   8   8   8
#     4  10  18  31  49  72 102 131 164 203 247 309
#     4   9  19  31  47  71  99 131 162 201 249 305
#     4   9  19  31  49  73  97 129 166 204 249 306
#     4  11  22  35  50  70  97 133 179 224 260 300
#     4  11  21  34  49  70  98 135 173 208 258 304
#     4  11  21  33  47  65  91 125 169 216 254 289
#     4  11  20  30  47  71 100 130 163 199 243 303
#     4  10  18  33  50  68  98 132 166 205 256 302
#
# _framework density 17.863219999999998
#
# number of rings (size 3 to 8) (size 9 to 14) (size 15 to 20)
#    0.000    1.750    0.000    6.750    0.000    6.000 
#    0.000    0.000    0.000    0.000    0.000    0.000 
#    0.000   13.000    0.000    0.000    0.000    0.250 
#
# Total GULP energy -178409.508868 kJ/mol
# GULP energy per Si atom -5575.297152 kJ/mol
# Density = 1.782256 g / cm^3
# Si number density = 17.863220 Si / 1000 Ang^3
#
#
#
# Elastic Constant Matrix: (Units=GPa)
#
#
# Indices 1 2 3 4 5 6 
#
# 1 52.9375 22.5082 14.9317 0.0000 0.0000 0.0000
# 2 22.5082 34.5204 4.6026 0.0000 0.0000 0.0000
# 3 14.9317 4.6026 70.7556 0.0000 0.0000 0.0000
# 4 0.0000 0.0000 0.0000 24.4829 0.0000 0.0000
# 5 0.0000 0.0000 0.0000 0.0000 21.6217 0.0000
# 6 0.0000 0.0000 0.0000 0.0000 0.0000 22.0388
#
#
#
# Elastic Compliance Matrix: (Units=1/GPa)
#
#
# Indices 1 2 3 4 5 6 
#
# 1 0.027600 -0.017370 -0.004695 0.000000 0.000000 0.000000
# 2 -0.017370 0.040153 0.001054 0.000000 0.000000 0.000000
# 3 -0.004695 0.001054 0.015055 0.000000 0.000000 0.000000
# 4 0.000000 0.000000 0.000000 0.040845 0.000000 0.000000
# 5 0.000000 0.000000 0.000000 0.000000 0.046250 0.000000
# 6 0.000000 0.000000 0.000000 0.000000 0.000000 0.045375
#
#
# Mechanical properties :
#
#
# Convention : Reuss Voigt Hill
#
# Bulk Modulus (GPa) = 24.51756 26.92204 25.71980
# Shear Modulus (GPa) = 18.45733 21.37340 19.91536
#
# Velocity S-wave (km/s) = 3.21792 3.46280 3.34261
# Velocity P-wave (km/s) = 5.24992 5.57601 5.41542
#
# Compressibility (1/GPa) = 0.04078710
#
# Stress axis : x y z
#
# Youngs Moduli (GPa) = 36.23223 24.90445 66.42176
#
# Poissons Ratio (x) = 0.43259 0.31182
# Poissons Ratio (y) = 0.62935 -0.06999
# Poissons Ratio (z) = 0.17009 -0.02624
#
# Static dielectric constant tensor:
#      x y z
#    x 1.595800 0.000000 0.000000 
#    y 0.000000 1.617220 0.000000 
#    z 0.000000 0.000000 1.720600 
# 
# From -- ./inp_files/10869.got.cif
#   From: 2010.05.17/outbox.cif.g08.bks.cpg/sg20_6_cif.got.tgz:10869.got - 2010.06.03 22:52:26.
