data_PCOD9316900
_publ_section_title
;
Structure prediction by ZEFSAII (Michael W. Deem and Ramdas Pophale) SiO2 
 PCOD9316900
Probable space group: C 2 2 21
;
_chemical_formula_sum "Si O2"
_cell_formula_units_Z 40
_cell_length_a 27.012492
_cell_length_b 7.311849
_cell_length_c 8.429494
_cell_angle_alpha 90.000000
_cell_angle_beta 90.000000
_cell_angle_gamma 90.000000
_cell_volume 1664.920003
_symmetry_space_group_name_H-M "C 2 2 21"
_symmetry_group_IT_number 20
_symmetry_cell_setting 'orthorhombic'
loop_
_space_group_symop_operation_xyz
x,y,z
-x,-y,1/2+z
x,-y,-z
-x,y,1/2-z
1/2+x,1/2+y,z
1/2-x,1/2-y,1/2+z
1/2+x,1/2-y,-z
1/2-x,1/2+y,1/2-z
loop_
_atom_site_type_symbol
_atom_site_label
_atom_site_fract_x
_atom_site_fract_y
_atom_site_fract_z
Si Si1 0.055364 0.790662 0.813871
Si Si2 0.610149 0.722273 0.499025
Si Si3 0.212666 0.161928 0.398118
Si Si4 0.803781 0.114437 0.649836
Si Si5 0.087462 0.782819 0.154128
O O1 0.088510 0.713260 0.669137
O O2 0.000000 0.776476 0.750000
O O3 0.069538 0.005810 0.831930
O O4 0.062004 0.712113 0.992355
O O5 0.603693 0.500000 0.500000
O O6 0.669639 0.761600 0.497695
O O7 0.584616 0.787974 0.663266
O O8 0.255384 0.270337 0.310514
O O9 0.237678 0.000000 0.500000
O O10 0.182293 0.042870 0.272609
O O11 0.853688 0.222809 0.617149
O O12 0.786942 0.000000 0.500000
#
# Coordination Sequence:
#
# PCOD9316900 Si02
#       5
#     8   8   8   8   8
#     4  10  19  29  48  75 107 147 189 232 307 365
#     4   9  17  33  47  70 112 144 182 239 288 343
#     4  11  21  37  55  83 115 161 202 243 292 361
#     4  12  21  36  57  79 117 163 199 244 299 353
#     4  10  19  32  48  73 110 151 182 236 303 343
#
# _framework density 24.025178
#
# number of rings (size 3 to 8) (size 9 to 14) (size 15 to 20)
#    0.000    1.600    8.000    1.200    8.400    0.000 
#    0.000    0.000    0.000    0.000    0.000    0.000 
#    0.000   11.200    0.000    0.000    0.000    0.000 
#
# Total GULP energy -111437.247044 kJ/mol
# GULP energy per Si atom -5571.862352 kJ/mol
# Density = 2.397050 g / cm^3
# Si number density = 24.025178 Si / 1000 Ang^3
#
#
#
# Elastic Constant Matrix: (Units=GPa)
#
#
# Indices 1 2 3 4 5 6 
#
# 1 118.9703 4.3614 54.7510 0.0000 0.0000 0.0000
# 2 4.3614 51.5799 21.1475 0.0000 0.0000 0.0000
# 3 54.7510 21.1475 201.2101 0.0000 0.0000 0.0000
# 4 0.0000 0.0000 0.0000 -6.1913 0.0000 0.0000
# 5 0.0000 0.0000 0.0000 0.0000 61.0896 0.0000
# 6 0.0000 0.0000 0.0000 0.0000 0.0000 7.3735
#
#
#
# Elastic Compliance Matrix: (Units=1/GPa)
#
#
# Indices 1 2 3 4 5 6 
#
# 1 0.009612 0.000271 -0.002644 0.000000 0.000000 0.000000
# 2 0.000271 0.020268 -0.002204 0.000000 0.000000 0.000000
# 3 -0.002644 -0.002204 0.005921 0.000000 0.000000 0.000000
# 4 0.000000 0.000000 0.000000 -0.161516 0.000000 0.000000
# 5 0.000000 0.000000 0.000000 0.000000 0.016369 0.000000
# 6 0.000000 0.000000 0.000000 0.000000 0.000000 0.135621
#
#
# Mechanical properties :
#
#
# Convention : Reuss Voigt Hill
#
# Bulk Modulus (GPa) = 37.52654 59.14223 48.33438
# Shear Modulus (GPa) = 112.83456 31.88770 72.36113
#
# Velocity S-wave (km/s) = 6.86055 3.64711 5.49402
# Velocity P-wave (km/s) = 8.85492 6.51195 7.77223
#
# Compressibility (1/GPa) = 0.02664781
#
# Stress axis : x y z
#
# Youngs Moduli (GPa) = 104.03277 49.33858 168.88857
#
# Poissons Ratio (x) = -0.01338 0.44656
# Poissons Ratio (y) = -0.02822 0.37224
# Poissons Ratio (z) = 0.27507 0.10874
#
# Static dielectric constant tensor:
#      x y z
#    x 1.849220 0.000000 0.000000 
#    y 0.000000 1.885610 0.000000 
#    z 0.000000 0.000000 2.162560 
# 
# From -- ./inp_files/10483.got.cif
#   From: 2010.05.17/outbox.cif.g08.bks.cpg/sg20_6_cif.got.tgz:10483.got - 2010.06.03 22:52:26.
