data_PCOD9316352
_publ_section_title
;
Structure prediction by ZEFSAII (Michael W. Deem and Ramdas Pophale) SiO2 
 PCOD9316352
Probable space group: C 2 2 21
;
_chemical_formula_sum "Si O2"
_cell_formula_units_Z 60
_cell_length_a 20.812068
_cell_length_b 11.975795
_cell_length_c 14.042358
_cell_angle_alpha 90.000000
_cell_angle_beta 90.000000
_cell_angle_gamma 90.000000
_cell_volume 3499.932191
_symmetry_space_group_name_H-M "C 2 2 21"
_symmetry_group_IT_number 20
_symmetry_cell_setting 'orthorhombic'
loop_
_space_group_symop_operation_xyz
x,y,z
-x,-y,1/2+z
x,-y,-z
-x,y,1/2-z
1/2+x,1/2+y,z
1/2-x,1/2-y,1/2+z
1/2+x,1/2-y,-z
1/2-x,1/2+y,1/2-z
loop_
_atom_site_type_symbol
_atom_site_label
_atom_site_fract_x
_atom_site_fract_y
_atom_site_fract_z
Si Si1 0.149108 0.631418 0.985065
Si Si2 0.430153 0.660184 0.491208
Si Si3 0.248239 0.733871 0.849040
Si Si4 0.225686 0.610836 0.524551
Si Si5 0.655388 0.467149 0.350492
Si Si6 0.454509 0.500000 0.000000
Si Si7 0.144029 0.023546 0.872696
Si Si8 0.262394 0.315963 0.867739
O O1 0.086301 0.710195 0.983426
O O2 0.187933 0.660804 0.887658
O O3 0.138269 0.500000 0.000000
O O4 0.196381 0.673315 0.071190
O O5 0.499680 0.605907 0.476581
O O6 0.382494 0.589848 0.421081
O O7 0.406796 0.617120 0.594457
O O8 0.308061 0.650058 0.858864
O O9 0.245373 0.784490 0.743133
O O10 0.255414 0.832771 0.924951
O O11 0.186125 0.500000 0.500000
O O12 0.287591 0.565348 0.584910
O O13 0.198902 0.712221 0.586402
O O14 0.591133 0.471573 0.411634
O O15 0.645404 0.488015 0.239036
O O16 0.701232 0.568234 0.383779
#
# Coordination Sequence:
#
# PCOD9316352 Si02
#       8
#     8   8   8   8   8   4   8   8
#     4  11  19  34  52  80 111 145 194 235 277 340
#     4  10  20  36  54  79 103 151 202 233 274 329
#     4  11  21  31  56  81 119 148 175 232 284 353
#     4  11  18  31  48  75 109 147 181 215 275 337
#     4  12  21  37  53  88 118 145 183 231 301 342
#     4  10  24  36  58  78 110 146 186 252 280 322
#     4  10  17  33  54  73 111 139 184 232 269 337
#     4  11  21  31  53  84 116 148 177 226 290 352
#
# _framework density 17.143190000000001
#
# number of rings (size 3 to 8) (size 9 to 14) (size 15 to 20)
#    0.000    1.333    6.667    3.200    0.000    2.133 
#    0.000    0.000    0.000    3.200    0.000    3.733 
#    0.000    0.000    0.000    0.000    0.000    0.000 
#
# Total GULP energy -167138.218980 kJ/mol
# GULP energy per Si atom -5571.273966 kJ/mol
# Density = 1.710417 g / cm^3
# Si number density = 17.143190 Si / 1000 Ang^3
#
#
#
# Elastic Constant Matrix: (Units=GPa)
#
#
# Indices 1 2 3 4 5 6 
#
# 1 68.3420 31.0229 21.7342 0.0000 0.0000 0.0000
# 2 31.0229 136.7969 20.4315 0.0000 0.0000 0.0000
# 3 21.7342 20.4315 95.8985 0.0000 0.0000 0.0000
# 4 0.0000 0.0000 0.0000 20.9932 0.0000 0.0000
# 5 0.0000 0.0000 0.0000 0.0000 16.4902 0.0000
# 6 0.0000 0.0000 0.0000 0.0000 0.0000 25.0185
#
#
#
# Elastic Compliance Matrix: (Units=1/GPa)
#
#
# Indices 1 2 3 4 5 6 
#
# 1 0.017195 -0.003426 -0.003167 0.000000 0.000000 0.000000
# 2 -0.003426 0.008233 -0.000978 0.000000 0.000000 0.000000
# 3 -0.003167 -0.000978 0.011354 0.000000 0.000000 0.000000
# 4 0.000000 0.000000 0.000000 0.047634 0.000000 0.000000
# 5 0.000000 0.000000 0.000000 0.000000 0.060642 0.000000
# 6 0.000000 0.000000 0.000000 0.000000 0.000000 0.039970
#
#
# Mechanical properties :
#
#
# Convention : Reuss Voigt Hill
#
# Bulk Modulus (GPa) = 46.21121 49.71275 47.96198
# Shear Modulus (GPa) = 24.10990 27.69032 25.90011
#
# Velocity S-wave (km/s) = 3.75425 4.02336 3.89113
# Velocity P-wave (km/s) = 6.76809 7.11651 6.94449
#
# Compressibility (1/GPa) = 0.02163977
#
# Stress axis : x y z
#
# Youngs Moduli (GPa) = 58.15693 121.46003 88.07689
#
# Poissons Ratio (x) = 0.41618 0.27894
# Poissons Ratio (y) = 0.19927 0.08610
# Poissons Ratio (z) = 0.18418 0.11873
#
# Static dielectric constant tensor:
#      x y z
#    x 1.581330 0.000000 0.000000 
#    y 0.000000 1.631790 0.000000 
#    z 0.000000 0.000000 1.604680 
# 
# From -- ./inp_files/21883.got.cif
#   From: 2010.05.17/outbox.cif.g08.bks.cpg/sg20_11_cif.got.tgz:21883.got - 2010.06.03 22:52:26.
