data_PCOD9316810
_publ_section_title
;
Structure prediction by ZEFSAII (Michael W. Deem and Ramdas Pophale) SiO2 
 PCOD9316810
Probable space group: C 2 2 21
;
_chemical_formula_sum "Si O2"
_cell_formula_units_Z 40
_cell_length_a 8.692832
_cell_length_b 10.982014
_cell_length_c 17.869362
_cell_angle_alpha 90.000000
_cell_angle_beta 90.000000
_cell_angle_gamma 90.000000
_cell_volume 1705.895118
_symmetry_space_group_name_H-M "C 2 2 21"
_symmetry_group_IT_number 20
_symmetry_cell_setting 'orthorhombic'
loop_
_space_group_symop_operation_xyz
x,y,z
-x,-y,1/2+z
x,-y,-z
-x,y,1/2-z
1/2+x,1/2+y,z
1/2-x,1/2-y,1/2+z
1/2+x,1/2-y,-z
1/2-x,1/2+y,1/2-z
loop_
_atom_site_type_symbol
_atom_site_label
_atom_site_fract_x
_atom_site_fract_y
_atom_site_fract_z
Si Si1 0.824449 0.000000 0.500000
Si Si2 0.334692 0.904975 0.636967
Si Si3 0.991596 0.126940 0.376862
Si Si4 0.000000 0.230524 0.750000
Si Si5 0.776709 0.333504 0.341559
Si Si6 0.196943 0.232317 0.494636
O O1 0.918496 0.013840 0.421639
O O2 0.731737 0.125136 0.505056
O O3 0.442418 0.817465 0.683599
O O4 0.694414 0.683688 0.578318
O O5 0.316977 0.851032 0.553333
O O6 0.153771 0.899782 0.661664
O O7 0.875455 0.210428 0.331048
O O8 0.041531 0.209697 0.448539
O O9 0.147641 0.157037 0.721867
O O10 0.878047 0.454854 0.350579
#
# Coordination Sequence:
#
# PCOD9316810 Si02
#       6
#     4   8   8   4   8   8
#     4  10  18  38  66 110 136 156 220 294 330 384
#     4  10  25  44  67  98 135 175 230 276 333 406
#     4   9  22  39  68  99 127 173 221 272 334 384
#     4  12  30  42  64 102 140 182 220 272 360 392
#     4  11  24  45  69  97 137 180 224 281 335 405
#     4   9  22  41  71 104 128 173 231 280 328 392
#
# _framework density 23.4481
#
# number of rings (size 3 to 8) (size 9 to 14) (size 15 to 20)
#    1.200    0.800    0.000    1.800    8.400    7.200 
#    3.600    0.000    0.000    0.000    0.000    0.000 
#    0.000    0.000    0.000    0.000    0.000    0.000 
#
# Total GULP energy -111628.797989 kJ/mol
# GULP energy per Si atom -5581.439899 kJ/mol
# Density = 2.339473 g / cm^3
# Si number density = 23.448100 Si / 1000 Ang^3
#
#
#
# Elastic Constant Matrix: (Units=GPa)
#
#
# Indices 1 2 3 4 5 6 
#
# 1 16.9959 -14.7414 -7.5159 0.0000 0.0000 0.0000
# 2 -14.7414 98.4371 1.7455 0.0000 0.0000 0.0000
# 3 -7.5159 1.7455 48.8441 0.0000 0.0000 0.0000
# 4 0.0000 0.0000 0.0000 12.5949 0.0000 0.0000
# 5 0.0000 0.0000 0.0000 0.0000 36.1383 0.0000
# 6 0.0000 0.0000 0.0000 0.0000 0.0000 23.1478
#
#
#
# Elastic Compliance Matrix: (Units=1/GPa)
#
#
# Indices 1 2 3 4 5 6 
#
# 1 0.072939 0.010731 0.010840 0.000000 0.000000 0.000000
# 2 0.010731 0.011744 0.001232 0.000000 0.000000 0.000000
# 3 0.010840 0.001232 0.022097 0.000000 0.000000 0.000000
# 4 0.000000 0.000000 0.000000 0.079397 0.000000 0.000000
# 5 0.000000 0.000000 0.000000 0.000000 0.027671 0.000000
# 6 0.000000 0.000000 0.000000 0.000000 0.000000 0.043201
#
#
# Mechanical properties :
#
#
# Convention : Reuss Voigt Hill
#
# Bulk Modulus (GPa) = 6.56236 13.69483 10.12859
# Shear Modulus (GPa) = 19.06653 26.69545 22.88099
#
# Velocity S-wave (km/s) = 2.85465 3.37781 3.12719
# Velocity P-wave (km/s) = 3.69731 4.58977 4.16750
#
# Compressibility (1/GPa) = 0.15238422
#
# Stress axis : x y z
#
# Youngs Moduli (GPa) = 13.71015 85.15056 45.25438
#
# Poissons Ratio (x) = -0.91372 -0.49056
# Poissons Ratio (y) = -0.14712 -0.05573
# Poissons Ratio (z) = -0.14862 -0.10486
#
# Static dielectric constant tensor:
#      x y z
#    x 1.949270 0.000000 0.000000 
#    y 0.000000 1.878380 0.000000 
#    z 0.000000 0.000000 1.884430 
# 
# From -- ./inp_files/26551.got.cif
#   From: 2010.05.17/outbox.cif.g08.bks.cpg/sg20_14_cif.got.tgz:26551.got - 2010.06.03 22:52:26.
