data_PCOD9316180
_publ_section_title
;
Structure prediction by ZEFSAII (Michael W. Deem and Ramdas Pophale) SiO2 
 PCOD9316180
Probable space group: C 2 2 21
;
_chemical_formula_sum "Si O2"
_cell_formula_units_Z 44
_cell_length_a 16.366529
_cell_length_b 16.241922
_cell_length_c 6.879831
_cell_angle_alpha 90.000000
_cell_angle_beta 90.000000
_cell_angle_gamma 90.000000
_cell_volume 1828.823421
_symmetry_space_group_name_H-M "C 2 2 21"
_symmetry_group_IT_number 20
_symmetry_cell_setting 'orthorhombic'
loop_
_space_group_symop_operation_xyz
x,y,z
-x,-y,1/2+z
x,-y,-z
-x,y,1/2-z
1/2+x,1/2+y,z
1/2-x,1/2-y,1/2+z
1/2+x,1/2-y,-z
1/2-x,1/2+y,1/2-z
loop_
_atom_site_type_symbol
_atom_site_label
_atom_site_fract_x
_atom_site_fract_y
_atom_site_fract_z
Si Si1 0.000000 0.986562 0.250000
Si Si2 0.855394 0.888446 0.838164
Si Si3 0.887021 0.147853 0.588814
Si Si4 0.081353 0.581083 0.626537
Si Si5 0.248077 0.031656 0.773991
Si Si6 0.031094 0.247519 0.475959
O O1 0.955575 0.924025 0.398394
O O2 0.926614 0.043634 0.180870
O O3 0.848338 0.846513 0.625817
O O4 0.896291 0.820551 0.979251
O O5 0.776451 0.948912 0.847711
O O6 0.817002 0.107104 0.724071
O O7 0.947831 0.226939 0.597372
O O8 0.080563 0.500000 0.500000
O O9 0.163352 0.571708 0.753570
O O10 0.073570 0.664287 0.500853
O O11 0.000000 0.580860 0.750000
O O12 0.243752 0.000000 0.000000
O O13 0.000000 0.242223 0.250000
#
# Coordination Sequence:
#
# PCOD9316180 Si02
#       6
#     4   8   8   8   8   8
#     4  10  14  22  46  74 112 134 152 214 292 340
#     4   9  15  26  50  79 104 137 173 219 275 355
#     4   9  16  27  48  79 108 134 175 218 282 352
#     4  10  21  40  62  76 105 158 206 235 278 339
#     4   8  16  30  54  79 101 144 183 225 281 341
#     4   9  17  31  54  79 102 142 183 227 279 338
#
# _framework density 24.059184999999999
#
# number of rings (size 3 to 8) (size 9 to 14) (size 15 to 20)
#    0.000    2.909    2.727    1.636    0.000    0.000 
#    1.636    1.818   44.000    0.000    0.000    0.000 
#    0.000    0.000    0.000    0.000    0.000    0.000 
#
# Total GULP energy -122470.326040 kJ/mol
# GULP energy per Si atom -5566.833002 kJ/mol
# Density = 2.400443 g / cm^3
# Si number density = 24.059185 Si / 1000 Ang^3
#
#
#
# Elastic Constant Matrix: (Units=GPa)
#
#
# Indices 1 2 3 4 5 6 
#
# 1 161.7044 78.8946 19.4403 0.0000 0.0000 0.0000
# 2 78.8946 154.3531 18.7695 0.0000 0.0000 0.0000
# 3 19.4403 18.7695 16.4679 0.0000 0.0000 0.0000
# 4 0.0000 0.0000 0.0000 28.2468 0.0000 0.0000
# 5 0.0000 0.0000 0.0000 0.0000 28.9713 0.0000
# 6 0.0000 0.0000 0.0000 0.0000 0.0000 22.9611
#
#
#
# Elastic Compliance Matrix: (Units=1/GPa)
#
#
# Indices 1 2 3 4 5 6 
#
# 1 0.008730 -0.003725 -0.006060 0.000000 0.000000 0.000000
# 2 -0.003725 0.009111 -0.005986 0.000000 0.000000 0.000000
# 3 -0.006060 -0.005986 0.074701 0.000000 0.000000 0.000000
# 4 0.000000 0.000000 0.000000 0.035402 0.000000 0.000000
# 5 0.000000 0.000000 0.000000 0.000000 0.034517 0.000000
# 6 0.000000 0.000000 0.000000 0.000000 0.000000 0.043552
#
#
# Mechanical properties :
#
#
# Convention : Reuss Voigt Hill
#
# Bulk Modulus (GPa) = 16.39386 62.97047 39.68217
# Shear Modulus (GPa) = 19.38820 30.39724 24.89272
#
# Velocity S-wave (km/s) = 2.84184 3.55834 3.22008
# Velocity P-wave (km/s) = 4.19486 6.56600 5.50950
#
# Compressibility (1/GPa) = 0.06099845
#
# Stress axis : x y z
#
# Youngs Moduli (GPa) = 114.54408 109.76041 13.38676
#
# Poissons Ratio (x) = 0.40890 0.08112
# Poissons Ratio (y) = 0.42672 0.08014
# Poissons Ratio (z) = 0.69413 0.65705
#
# Static dielectric constant tensor:
#      x y z
#    x 1.939730 0.000000 0.000000 
#    y 0.000000 1.941790 0.000000 
#    z 0.000000 0.000000 2.179650 
# 
# From -- ./inp_files/9275.got.cif
#   From: 2010.05.17/outbox.cif.g08.bks.cpg/sg20_5_cif.got.tgz:9275.got - 2010.06.03 22:52:26.
