data_PCOD9316851
_publ_section_title
;
Structure prediction by ZEFSAII (Michael W. Deem and Ramdas Pophale) SiO2 
 PCOD9316851
Probable space group: C 2 2 21
;
_chemical_formula_sum "Si O2"
_cell_formula_units_Z 32
_cell_length_a 12.098884
_cell_length_b 8.386625
_cell_length_c 15.700205
_cell_angle_alpha 90.000000
_cell_angle_beta 90.000000
_cell_angle_gamma 90.000000
_cell_volume 1593.081009
_symmetry_space_group_name_H-M "C 2 2 21"
_symmetry_group_IT_number 20
_symmetry_cell_setting 'orthorhombic'
loop_
_space_group_symop_operation_xyz
x,y,z
-x,-y,1/2+z
x,-y,-z
-x,y,1/2-z
1/2+x,1/2+y,z
1/2-x,1/2-y,1/2+z
1/2+x,1/2-y,-z
1/2-x,1/2+y,1/2-z
loop_
_atom_site_type_symbol
_atom_site_label
_atom_site_fract_x
_atom_site_fract_y
_atom_site_fract_z
Si Si1 0.297880 0.370195 0.278266
Si Si2 0.500903 0.000000 0.000000
Si Si3 0.185026 0.455219 0.861453
Si Si4 0.000000 0.106047 0.250000
Si Si5 0.630693 0.766075 0.401852
O O1 0.229659 0.395677 0.191559
O O2 0.335476 0.188358 0.293628
O O3 0.398332 0.492868 0.277463
O O4 0.211534 0.394015 0.355740
O O5 0.427343 0.155074 0.981630
O O6 0.579546 0.981543 0.918661
O O7 0.286403 0.381593 0.916577
O O8 0.044457 0.208783 0.329426
#
# Coordination Sequence:
#
# PCOD9316851 Si02
#       5
#     8   4   8   4   8
#     4   9  20  41  62  90 116 163 217 250 296 373
#     4  12  22  40  62  88 138 166 190 264 346 340
#     4   9  22  42  62  93 120 166 209 259 302 375
#     4  10  18  40  64  82 122 160 210 260 294 360
#     4   9  22  38  56  93 119 156 207 260 293 382
#
# _framework density 20.086863999999998
#
# number of rings (size 3 to 8) (size 9 to 14) (size 15 to 20)
#    1.500    1.000    0.000    1.500    0.000    4.000 
#    9.000    0.000    0.000    0.000    0.000    0.000 
#    0.000    0.000    0.000    0.000    0.000    0.000 
#
# Total GULP energy -89098.526384 kJ/mol
# GULP energy per Si atom -5568.657899 kJ/mol
# Density = 2.004114 g / cm^3
# Si number density = 20.086864 Si / 1000 Ang^3
#
#
#
# Elastic Constant Matrix: (Units=GPa)
#
#
# Indices 1 2 3 4 5 6 
#
# 1 78.7787 7.2551 25.0455 0.0000 0.0000 0.0000
# 2 7.2551 52.9814 26.7442 0.0000 0.0000 0.0000
# 3 25.0455 26.7442 43.1580 0.0000 0.0000 0.0000
# 4 0.0000 0.0000 0.0000 29.9752 0.0000 0.0000
# 5 0.0000 0.0000 0.0000 0.0000 17.6009 0.0000
# 6 0.0000 0.0000 0.0000 0.0000 0.0000 17.5680
#
#
#
# Elastic Compliance Matrix: (Units=1/GPa)
#
#
# Indices 1 2 3 4 5 6 
#
# 1 0.016034 0.003640 -0.011560 0.000000 0.000000 0.000000
# 2 0.003640 0.028292 -0.019645 0.000000 0.000000 0.000000
# 3 -0.011560 -0.019645 0.042053 0.000000 0.000000 0.000000
# 4 0.000000 0.000000 0.000000 0.033361 0.000000 0.000000
# 5 0.000000 0.000000 0.000000 0.000000 0.056815 0.000000
# 6 0.000000 0.000000 0.000000 0.000000 0.000000 0.056922
#
#
# Mechanical properties :
#
#
# Convention : Reuss Voigt Hill
#
# Bulk Modulus (GPa) = 32.00109 32.55640 32.27875
# Shear Modulus (GPa) = 16.72112 20.75372 18.73742
#
# Velocity S-wave (km/s) = 2.88833 3.21783 3.05752
# Velocity P-wave (km/s) = 5.20473 5.48169 5.34500
#
# Compressibility (1/GPa) = 0.03124893
#
# Stress axis : x y z
#
# Youngs Moduli (GPa) = 62.36799 35.34520 23.77969
#
# Poissons Ratio (x) = -0.12865 0.27490
# Poissons Ratio (y) = -0.22701 0.46714
# Poissons Ratio (z) = 0.72099 0.69434
#
# Static dielectric constant tensor:
#      x y z
#    x 1.733160 0.000000 0.000000 
#    y 0.000000 1.703440 0.000000 
#    z 0.000000 0.000000 1.705070 
# 
# From -- ./inp_files/18252.got.cif
#   From: 2010.05.17/outbox.cif.g08.bks.cpg/sg20_10_cif.got.tgz:18252.got - 2010.06.03 22:52:26.
