data_PCOD9316724
_publ_section_title
;
Structure prediction by ZEFSAII (Michael W. Deem and Ramdas Pophale) SiO2 
 PCOD9316724
Probable space group: C 2 2 21
;
_chemical_formula_sum "Si O2"
_cell_formula_units_Z 44
_cell_length_a 26.514306
_cell_length_b 5.218820
_cell_length_c 15.089651
_cell_angle_alpha 90.000000
_cell_angle_beta 90.000000
_cell_angle_gamma 90.000000
_cell_volume 2088.006169
_symmetry_space_group_name_H-M "C 2 2 21"
_symmetry_group_IT_number 20
_symmetry_cell_setting 'orthorhombic'
loop_
_space_group_symop_operation_xyz
x,y,z
-x,-y,1/2+z
x,-y,-z
-x,y,1/2-z
1/2+x,1/2+y,z
1/2-x,1/2-y,1/2+z
1/2+x,1/2-y,-z
1/2-x,1/2+y,1/2-z
loop_
_atom_site_type_symbol
_atom_site_label
_atom_site_fract_x
_atom_site_fract_y
_atom_site_fract_z
Si Si1 0.124453 0.000000 0.500000
Si Si2 0.377500 0.390759 0.303575
Si Si3 0.936942 0.337614 0.863719
Si Si4 0.458615 0.257367 0.443034
Si Si5 0.643466 0.208242 0.662367
Si Si6 0.282951 0.862526 0.753220
O O1 0.089623 0.796878 0.447751
O O2 0.157194 0.880827 0.579106
O O3 0.414310 0.286950 0.225284
O O4 0.410601 0.368975 0.390707
O O5 0.358626 0.654230 0.257931
O O6 0.326764 0.224668 0.314275
O O7 0.913641 0.620552 0.857986
O O8 0.996220 0.320211 0.876513
O O9 0.477245 0.500000 0.500000
O O10 0.447867 0.000000 0.500000
O O11 0.682178 0.973187 0.667507
O O12 0.251370 0.605386 0.773038
#
# Coordination Sequence:
#
# PCOD9316724 Si02
#       6
#     4   8   8   8   8   8
#     4  10  18  36  60 102 138 164 214 268 340 382
#     4  10  24  43  69 100 129 177 226 282 328 403
#     4  10  21  40  64  97 140 173 221 268 329 397
#     4  12  27  43  66  97 142 187 223 265 326 399
#     4  10  21  38  71  98 134 172 219 283 335 403
#     4  11  22  42  71  96 123 170 227 278 339 400
#
# _framework density 21.072734000000001
#
# number of rings (size 3 to 8) (size 9 to 14) (size 15 to 20)
#    0.000    1.455    2.727    2.182    7.636    0.000 
#    0.000    0.000    2.000    6.545    0.000    0.000 
#    0.000    0.000    0.000    0.000    0.000    0.000 
#
# Total GULP energy -122611.178933 kJ/mol
# GULP energy per Si atom -5573.235406 kJ/mol
# Density = 2.102477 g / cm^3
# Si number density = 21.072734 Si / 1000 Ang^3
#
#
#
# Elastic Constant Matrix: (Units=GPa)
#
#
# Indices 1 2 3 4 5 6 
#
# 1 129.1350 41.2457 25.5120 0.0000 0.0000 0.0000
# 2 41.2457 113.0564 23.9794 0.0000 0.0000 0.0000
# 3 25.5120 23.9794 39.7204 0.0000 0.0000 0.0000
# 4 0.0000 0.0000 0.0000 27.6672 0.0000 0.0000
# 5 0.0000 0.0000 0.0000 0.0000 10.2122 0.0000
# 6 0.0000 0.0000 0.0000 0.0000 0.0000 31.2077
#
#
#
# Elastic Compliance Matrix: (Units=1/GPa)
#
#
# Indices 1 2 3 4 5 6 
#
# 1 0.009436 -0.002474 -0.004567 0.000000 0.000000 0.000000
# 2 -0.002474 0.010793 -0.004927 0.000000 0.000000 0.000000
# 3 -0.004567 -0.004927 0.031084 0.000000 0.000000 0.000000
# 4 0.000000 0.000000 0.000000 0.036144 0.000000 0.000000
# 5 0.000000 0.000000 0.000000 0.000000 0.097922 0.000000
# 6 0.000000 0.000000 0.000000 0.000000 0.000000 0.032043
#
#
# Mechanical properties :
#
#
# Convention : Reuss Voigt Hill
#
# Bulk Modulus (GPa) = 36.52700 51.48734 44.00717
# Shear Modulus (GPa) = 19.96139 26.56239 23.26189
#
# Velocity S-wave (km/s) = 3.08110 3.55422 3.32608
# Velocity P-wave (km/s) = 5.47987 6.42880 5.97321
#
# Compressibility (1/GPa) = 0.02737701
#
# Stress axis : x y z
#
# Youngs Moduli (GPa) = 105.97356 92.65601 32.17114
#
# Poissons Ratio (x) = 0.22922 0.14694
# Poissons Ratio (y) = 0.26216 0.15850
# Poissons Ratio (z) = 0.48402 0.45648
#
# Static dielectric constant tensor:
#      x y z
#    x 1.781280 0.000000 0.000000 
#    y 0.000000 1.883510 0.000000 
#    z 0.000000 0.000000 1.771430 
# 
# From -- ./inp_files/17736.got.cif
#   From: 2010.05.17/outbox.cif.g08.bks.cpg/sg20_9_cif.got.tgz:17736.got - 2010.06.03 22:52:26.
