data_PCOD9316859
_publ_section_title
;
Structure prediction by ZEFSAII (Michael W. Deem and Ramdas Pophale) SiO2 
 PCOD9316859
Probable space group: C 2 2 21
;
_chemical_formula_sum "Si O2"
_cell_formula_units_Z 60
_cell_length_a 7.663463
_cell_length_b 19.892421
_cell_length_c 17.592453
_cell_angle_alpha 90.000000
_cell_angle_beta 90.000000
_cell_angle_gamma 90.000000
_cell_volume 2681.878548
_symmetry_space_group_name_H-M "C 2 2 21"
_symmetry_group_IT_number 20
_symmetry_cell_setting 'orthorhombic'
loop_
_space_group_symop_operation_xyz
x,y,z
-x,-y,1/2+z
x,-y,-z
-x,y,1/2-z
1/2+x,1/2+y,z
1/2-x,1/2-y,1/2+z
1/2+x,1/2-y,-z
1/2-x,1/2+y,1/2-z
loop_
_atom_site_type_symbol
_atom_site_label
_atom_site_fract_x
_atom_site_fract_y
_atom_site_fract_z
Si Si1 0.995038 0.427568 0.474894
Si Si2 0.920329 0.946022 0.057716
Si Si3 0.331982 0.696977 0.113071
Si Si4 0.453344 0.833079 0.880144
Si Si5 0.132587 0.947301 0.681310
Si Si6 0.158027 0.190876 0.567255
Si Si7 0.003948 0.338333 0.160318
Si Si8 0.500000 0.077479 0.250000
O O1 0.063435 0.500000 0.500000
O O2 0.029586 0.376910 0.543921
O O3 0.782701 0.435584 0.469673
O O4 0.069906 0.396367 0.396486
O O5 0.985569 0.869251 0.065134
O O6 0.914895 0.986263 0.135265
O O7 0.002902 0.000000 0.000000
O O8 0.398992 0.621778 0.132927
O O9 0.426501 0.763726 0.143245
O O10 0.140901 0.693115 0.148601
O O11 0.306194 0.702219 0.022313
O O12 0.362359 0.765340 0.902021
O O13 0.391445 0.879378 0.811908
O O14 0.339658 0.955337 0.703005
O O15 0.000000 0.941920 0.750000
O O16 0.301835 0.164727 0.626462
O O17 0.000000 0.352803 0.250000
#
# Coordination Sequence:
#
# PCOD9316859 Si02
#       8
#     8   8   8   8   8   8   8   4
#     4  10  19  40  66  92 125 176 232 274 351 434
#     4  10  18  40  68  90 127 180 223 267 351 422
#     4  11  19  40  66  92 131 174 227 279 347 433
#     4  11  22  39  64  96 124 179 228 278 348 417
#     4  11  24  42  71 103 135 181 231 286 362 419
#     4  11  21  40  65  92 130 180 228 283 347 430
#     4  11  24  38  63 102 134 174 228 294 355 424
#     4  10  24  42  66  98 136 176 230 302 340 414
#
# _framework density 22.372378000000001
#
# number of rings (size 3 to 8) (size 9 to 14) (size 15 to 20)
#    0.000    1.333    5.333    2.800    5.600    0.000 
#   12.000    0.000    0.000    0.800    0.000    0.000 
#    0.000    0.000    0.000    0.000    0.000    0.000 
#
# Total GULP energy -167109.733711 kJ/mol
# GULP energy per Si atom -5570.324457 kJ/mol
# Density = 2.232146 g / cm^3
# Si number density = 22.372378 Si / 1000 Ang^3
#
#
#
# Elastic Constant Matrix: (Units=GPa)
#
#
# Indices 1 2 3 4 5 6 
#
# 1 17.5318 5.4066 10.3152 0.0000 0.0000 0.0000
# 2 5.4066 98.7886 28.6091 0.0000 0.0000 0.0000
# 3 10.3152 28.6091 130.5555 0.0000 0.0000 0.0000
# 4 0.0000 0.0000 0.0000 28.4740 0.0000 0.0000
# 5 0.0000 0.0000 0.0000 0.0000 5.1699 0.0000
# 6 0.0000 0.0000 0.0000 0.0000 0.0000 12.1270
#
#
#
# Elastic Compliance Matrix: (Units=1/GPa)
#
#
# Indices 1 2 3 4 5 6 
#
# 1 0.060206 -0.002047 -0.004308 0.000000 0.000000 0.000000
# 2 -0.002047 0.010878 -0.002222 0.000000 0.000000 0.000000
# 3 -0.004308 -0.002222 0.008487 0.000000 0.000000 0.000000
# 4 0.000000 0.000000 0.000000 0.035120 0.000000 0.000000
# 5 0.000000 0.000000 0.000000 0.000000 0.193425 0.000000
# 6 0.000000 0.000000 0.000000 0.000000 0.000000 0.082460
#
#
# Mechanical properties :
#
#
# Convention : Reuss Voigt Hill
#
# Bulk Modulus (GPa) = 16.02167 37.28197 26.65182
# Shear Modulus (GPa) = 11.66762 22.65719 17.16241
#
# Velocity S-wave (km/s) = 2.28616 3.18580 2.77271
# Velocity P-wave (km/s) = 3.76106 5.49844 4.71054
#
# Compressibility (1/GPa) = 0.06241547
#
# Stress axis : x y z
#
# Youngs Moduli (GPa) = 16.60976 91.92725 117.82876
#
# Poissons Ratio (x) = 0.18821 0.50763
# Poissons Ratio (y) = 0.03401 0.26182
# Poissons Ratio (z) = 0.07156 0.20426
#
# Static dielectric constant tensor:
#      x y z
#    x 1.942370 0.000000 0.000000 
#    y 0.000000 2.025660 0.000000 
#    z 0.000000 0.000000 1.837660 
# 
# From -- ./inp_files/23786.got.cif
#   From: 2010.05.17/outbox.cif.g08.bks.cpg/sg20_12_cif.got.tgz:23786.got - 2010.06.03 22:52:26.
