data_PCOD9316182
_publ_section_title
;
Structure prediction by ZEFSAII (Michael W. Deem and Ramdas Pophale) SiO2 
 PCOD9316182
Probable space group: C 2 2 21
;
_chemical_formula_sum "Si O2"
_cell_formula_units_Z 52
_cell_length_a 21.678649
_cell_length_b 8.841480
_cell_length_c 13.630345
_cell_angle_alpha 90.000000
_cell_angle_beta 90.000000
_cell_angle_gamma 90.000000
_cell_volume 2612.546512
_symmetry_space_group_name_H-M "C 2 2 21"
_symmetry_group_IT_number 20
_symmetry_cell_setting 'orthorhombic'
loop_
_space_group_symop_operation_xyz
x,y,z
-x,-y,1/2+z
x,-y,-z
-x,y,1/2-z
1/2+x,1/2+y,z
1/2-x,1/2-y,1/2+z
1/2+x,1/2-y,-z
1/2-x,1/2+y,1/2-z
loop_
_atom_site_type_symbol
_atom_site_label
_atom_site_fract_x
_atom_site_fract_y
_atom_site_fract_z
Si Si1 0.123520 0.461274 0.164795
Si Si2 0.767030 0.863951 0.376907
Si Si3 0.147904 0.317898 0.501711
Si Si4 0.208937 0.647277 0.303462
Si Si5 0.986391 0.324312 0.963981
Si Si6 0.500000 0.060091 0.250000
Si Si7 0.379225 0.761509 0.509227
O O1 0.169595 0.517731 0.247535
O O2 0.056978 0.458496 0.215375
O O3 0.122639 0.596120 0.084921
O O4 0.138312 0.315738 0.100006
O O5 0.705888 0.794279 0.429938
O O6 0.773511 0.769545 0.276825
O O7 0.827822 0.843140 0.442917
O O8 0.758961 0.041522 0.355830
O O9 0.141219 0.500000 0.500000
O O10 0.170112 0.275035 0.610380
O O11 0.077456 0.264436 0.488964
O O12 0.981266 0.341094 0.845407
O O13 0.047415 0.228717 0.990297
O O14 0.995926 0.500000 0.000000
#
# Coordination Sequence:
#
# PCOD9316182 Si02
#       7
#     8   8   8   8   8   4   8
#     4   9  16  27  47  74 112 139 173 216 273 328
#     4  10  22  35  53  80 117 147 184 223 273 331
#     4   9  19  33  51  78 114 144 177 228 285 324
#     4  10  20  36  53  80 113 144 183 222 272 328
#     4  10  16  28  48  76 112 140 174 227 283 323
#     4  10  14  24  46  76 108 142 162 220 288 328
#     4   9  17  30  46  76 112 143 176 220 272 324
#
# _framework density 19.903952
#
# number of rings (size 3 to 8) (size 9 to 14) (size 15 to 20)
#    0.000    2.462    4.615    0.000    2.154    0.000 
#    0.000    0.000    0.000    0.000    0.000   12.923 
#    0.000    0.000    0.000    0.000    0.000    0.000 
#
# Total GULP energy -144787.994887 kJ/mol
# GULP energy per Si atom -5568.769034 kJ/mol
# Density = 1.985865 g / cm^3
# Si number density = 19.903952 Si / 1000 Ang^3
#
#
#
# Elastic Constant Matrix: (Units=GPa)
#
#
# Indices 1 2 3 4 5 6 
#
# 1 115.0062 24.7637 6.5812 0.0000 0.0000 0.0000
# 2 24.7637 20.8650 -0.7397 0.0000 0.0000 0.0000
# 3 6.5812 -0.7397 60.0623 0.0000 0.0000 0.0000
# 4 0.0000 0.0000 0.0000 21.5451 0.0000 0.0000
# 5 0.0000 0.0000 0.0000 0.0000 20.6185 0.0000
# 6 0.0000 0.0000 0.0000 0.0000 0.0000 18.2564
#
#
#
# Elastic Compliance Matrix: (Units=1/GPa)
#
#
# Indices 1 2 3 4 5 6 
#
# 1 0.011808 -0.014066 -0.001467 0.000000 0.000000 0.000000
# 2 -0.014066 0.064705 0.002338 0.000000 0.000000 0.000000
# 3 -0.001467 0.002338 0.016839 0.000000 0.000000 0.000000
# 4 0.000000 0.000000 0.000000 0.046414 0.000000 0.000000
# 5 0.000000 0.000000 0.000000 0.000000 0.048500 0.000000
# 6 0.000000 0.000000 0.000000 0.000000 0.000000 0.054775
#
#
# Mechanical properties :
#
#
# Convention : Reuss Voigt Hill
#
# Bulk Modulus (GPa) = 14.93408 28.57155 21.75281
# Shear Modulus (GPa) = 17.13784 23.10589 20.12186
#
# Velocity S-wave (km/s) = 2.93751 3.41085 3.18299
# Velocity P-wave (km/s) = 4.36172 5.46788 4.94583
#
# Compressibility (1/GPa) = 0.06696096
#
# Stress axis : x y z
#
# Youngs Moduli (GPa) = 84.68852 15.45485 59.38618
#
# Poissons Ratio (x) = 0.21739 0.08712
# Poissons Ratio (y) = 1.19126 -0.13885
# Poissons Ratio (z) = 0.12424 -0.03614
#
# Static dielectric constant tensor:
#      x y z
#    x 1.794580 0.000000 0.000000 
#    y 0.000000 1.676570 0.000000 
#    z 0.000000 0.000000 1.760140 
# 
# From -- ./inp_files/21857.got.cif
#   From: 2010.05.17/outbox.cif.g08.bks.cpg/sg20_11_cif.got.tgz:21857.got - 2010.06.03 22:52:26.
