data_PCOD9316286
_publ_section_title
;
Structure prediction by ZEFSAII (Michael W. Deem and Ramdas Pophale) SiO2 
 PCOD9316286
Probable space group: C 2 2 21
;
_chemical_formula_sum "Si O2"
_cell_formula_units_Z 48
_cell_length_a 25.306710
_cell_length_b 13.474989
_cell_length_c 5.589552
_cell_angle_alpha 90.000000
_cell_angle_beta 90.000000
_cell_angle_gamma 90.000000
_cell_volume 1906.079930
_symmetry_space_group_name_H-M "C 2 2 21"
_symmetry_group_IT_number 20
_symmetry_cell_setting 'orthorhombic'
loop_
_space_group_symop_operation_xyz
x,y,z
-x,-y,1/2+z
x,-y,-z
-x,y,1/2-z
1/2+x,1/2+y,z
1/2-x,1/2-y,1/2+z
1/2+x,1/2-y,-z
1/2-x,1/2+y,1/2-z
loop_
_atom_site_type_symbol
_atom_site_label
_atom_site_fract_x
_atom_site_fract_y
_atom_site_fract_z
Si Si1 0.314152 0.370276 0.103714
Si Si2 0.646480 0.350338 0.900523
Si Si3 0.536755 0.900240 0.562946
Si Si4 0.149593 0.645372 0.385562
Si Si5 0.524707 0.297973 0.994065
Si Si6 0.691283 0.130325 0.889385
O O1 0.345669 0.397807 0.861805
O O2 0.320802 0.251039 0.122508
O O3 0.252557 0.392611 0.079940
O O4 0.334486 0.405987 0.361583
O O5 0.681244 0.249556 0.882690
O O6 0.586594 0.316691 0.959180
O O7 0.500000 0.960810 0.750000
O O8 0.587044 0.830029 0.598063
O O9 0.491220 0.820528 0.489159
O O10 0.569208 0.000000 0.500000
O O11 0.160880 0.596782 0.128912
O O12 0.169924 0.597928 0.631165
O O13 0.500000 0.341251 0.750000
O O14 0.500000 0.332481 0.250000
#
# Coordination Sequence:
#
# PCOD9316286 Si02
#       6
#     8   8   8   8   8   8
#     4  10  17  27  44  64  82  99 123 167 234 285
#     4  10  17  26  40  59  81 102 129 167 215 266
#     4  11  23  35  48  63  85 120 163 202 235 262
#     4  10  19  31  45  62  82 105 137 180 228 270
#     4  11  20  32  44  58  80 113 151 188 225 258
#     4  10  17  29  46  64  81  99 124 168 236 287
#
# _framework density 25.182573999999999
#
# number of rings (size 3 to 8) (size 9 to 14) (size 15 to 20)
#    0.000    1.667    0.000   12.500    0.000    1.333 
#    0.000    0.000    0.000    0.000    0.000    0.000 
#    0.000    0.000    0.000    0.000    0.000    0.000 
#
# Total GULP energy -133669.599173 kJ/mol
# GULP energy per Si atom -5569.566632 kJ/mol
# Density = 2.512526 g / cm^3
# Si number density = 25.182574 Si / 1000 Ang^3
#
#
#
# Elastic Constant Matrix: (Units=GPa)
#
#
# Indices 1 2 3 4 5 6 
#
# 1 150.6154 21.5230 9.4595 0.0000 0.0000 0.0000
# 2 21.5230 55.7155 47.8884 0.0000 0.0000 0.0000
# 3 9.4595 47.8884 216.2889 0.0000 0.0000 0.0000
# 4 0.0000 0.0000 0.0000 11.6148 0.0000 0.0000
# 5 0.0000 0.0000 0.0000 0.0000 53.2603 0.0000
# 6 0.0000 0.0000 0.0000 0.0000 0.0000 -10.3087
#
#
#
# Elastic Compliance Matrix: (Units=1/GPa)
#
#
# Indices 1 2 3 4 5 6 
#
# 1 0.007050 -0.003036 0.000364 0.000000 0.000000 0.000000
# 2 -0.003036 0.023474 -0.005065 0.000000 0.000000 0.000000
# 3 0.000364 -0.005065 0.005729 0.000000 0.000000 0.000000
# 4 0.000000 0.000000 0.000000 0.086097 0.000000 0.000000
# 5 0.000000 0.000000 0.000000 0.000000 0.018776 0.000000
# 6 0.000000 0.000000 0.000000 0.000000 0.000000 -0.097006
#
#
# Mechanical properties :
#
#
# Convention : Reuss Voigt Hill
#
# Bulk Modulus (GPa) = 48.12426 64.48463 56.30444
# Shear Modulus (GPa) = 75.16334 33.82986 54.49660
#
# Velocity S-wave (km/s) = 5.46920 3.66920 4.65699
# Velocity P-wave (km/s) = 7.68339 6.60402 7.16406
#
# Compressibility (1/GPa) = 0.02077954
#
# Stress axis : x y z
#
# Youngs Moduli (GPa) = 141.83446 42.59944 174.55364
#
# Poissons Ratio (x) = 0.12935 -0.06353
# Poissons Ratio (y) = 0.43067 0.88406
# Poissons Ratio (z) = -0.05162 0.21575
#
# Static dielectric constant tensor:
#      x y z
#    x 2.063150 0.000000 0.000000 
#    y 0.000000 2.116830 0.000000 
#    z 0.000000 0.000000 2.530920 
# 
# From -- ./inp_files/2734.got.cif
#   From: 2010.05.17/outbox.cif.g08.bks.cpg/sg20_2_cif.got.tgz:2734.got - 2010.06.03 22:52:26.
