data_PCOD9316639
_publ_section_title
;
Structure prediction by ZEFSAII (Michael W. Deem and Ramdas Pophale) SiO2 
 PCOD9316639
Probable space group: C 2 2 21
;
_chemical_formula_sum "Si O2"
_cell_formula_units_Z 52
_cell_length_a 19.973649
_cell_length_b 7.891275
_cell_length_c 16.083998
_cell_angle_alpha 90.000000
_cell_angle_beta 90.000000
_cell_angle_gamma 90.000000
_cell_volume 2535.120472
_symmetry_space_group_name_H-M "C 2 2 21"
_symmetry_group_IT_number 20
_symmetry_cell_setting 'orthorhombic'
loop_
_space_group_symop_operation_xyz
x,y,z
-x,-y,1/2+z
x,-y,-z
-x,y,1/2-z
1/2+x,1/2+y,z
1/2-x,1/2-y,1/2+z
1/2+x,1/2-y,-z
1/2-x,1/2+y,1/2-z
loop_
_atom_site_type_symbol
_atom_site_label
_atom_site_fract_x
_atom_site_fract_y
_atom_site_fract_z
Si Si1 0.709480 0.579707 0.835226
Si Si2 0.598644 0.608684 0.252629
Si Si3 0.062350 0.289716 0.077157
Si Si4 0.000000 0.817810 0.250000
Si Si5 0.894696 0.618039 0.333495
Si Si6 0.131957 0.563313 0.661562
Si Si7 0.642467 0.500000 0.000000
Si Si8 0.556338 0.000000 0.500000
O O1 0.673103 0.459898 0.767774
O O2 0.668092 0.755864 0.839511
O O3 0.788469 0.588472 0.830782
O O4 0.689593 0.494777 0.921347
O O5 0.566238 0.684805 0.165869
O O6 0.557815 0.444520 0.279674
O O7 0.599948 0.752566 0.321471
O O8 0.101096 0.463962 0.101813
O O9 0.993465 0.354560 0.036005
O O10 0.097101 0.166907 0.010120
O O11 0.034136 0.714979 0.174674
O O12 0.890177 0.541544 0.241410
O O13 0.105444 0.474073 0.578712
#
# Coordination Sequence:
#
# PCOD9316639 Si02
#       8
#     8   8   8   4   8   8   4   4
#     4  10  20  37  60  86 115 155 195 239 296 359
#     4   9  20  37  60  83 117 154 200 249 290 360
#     4  10  21  38  58  87 112 152 198 242 299 345
#     4  10  18  34  58  88 108 144 196 244 294 326
#     4  10  21  37  63  85 114 153 201 245 281 356
#     4  11  22  37  56  87 120 155 194 244 302 352
#     4  10  21  38  64  86 117 152 196 250 294 358
#     4  12  23  34  56  84 125 154 188 252 304 348
#
# _framework density 20.511845999999998
#
# number of rings (size 3 to 8) (size 9 to 14) (size 15 to 20)
#    0.000    1.846    0.000    4.154    0.000    4.923 
#    0.000    0.000    0.000    7.385    0.000    0.000 
#    0.000    0.000    0.000    0.000    0.000    0.000 
#
# Total GULP energy -144962.680119 kJ/mol
# GULP energy per Si atom -5575.487697 kJ/mol
# Density = 2.046516 g / cm^3
# Si number density = 20.511846 Si / 1000 Ang^3
#
#
#
# Elastic Constant Matrix: (Units=GPa)
#
#
# Indices 1 2 3 4 5 6 
#
# 1 107.4600 34.6273 38.5160 0.0000 0.0000 0.0000
# 2 34.6273 81.4101 16.2393 0.0000 0.0000 0.0000
# 3 38.5160 16.2393 78.4049 0.0000 0.0000 0.0000
# 4 0.0000 0.0000 0.0000 6.5659 0.0000 0.0000
# 5 0.0000 0.0000 0.0000 0.0000 15.8715 0.0000
# 6 0.0000 0.0000 0.0000 0.0000 0.0000 18.2462
#
#
#
# Elastic Compliance Matrix: (Units=1/GPa)
#
#
# Indices 1 2 3 4 5 6 
#
# 1 0.012588 -0.004298 -0.005294 0.000000 0.000000 0.000000
# 2 -0.004298 0.014281 -0.000846 0.000000 0.000000 0.000000
# 3 -0.005294 -0.000846 0.015530 0.000000 0.000000 0.000000
# 4 0.000000 0.000000 0.000000 0.152303 0.000000 0.000000
# 5 0.000000 0.000000 0.000000 0.000000 0.063006 0.000000
# 6 0.000000 0.000000 0.000000 0.000000 0.000000 0.054806
#
#
# Mechanical properties :
#
#
# Convention : Reuss Voigt Hill
#
# Bulk Modulus (GPa) = 46.46331 49.56002 48.01167
# Shear Modulus (GPa) = 14.68150 19.99620 17.33885
#
# Velocity S-wave (km/s) = 2.67827 3.12566 2.91057
# Velocity P-wave (km/s) = 5.68025 6.10250 5.89516
#
# Compressibility (1/GPa) = 0.02152236
#
# Stress axis : x y z
#
# Youngs Moduli (GPa) = 79.43941 70.02512 64.39138
#
# Poissons Ratio (x) = 0.30099 0.34086
# Poissons Ratio (y) = 0.34146 0.05449
# Poissons Ratio (z) = 0.42052 0.05926
#
# Static dielectric constant tensor:
#      x y z
#    x 1.757530 0.000000 0.000000 
#    y 0.000000 1.789890 0.000000 
#    z 0.000000 0.000000 1.757940 
# 
# From -- ./inp_files/21737.got.cif
#   From: 2010.05.17/outbox.cif.g08.bks.cpg/sg20_11_cif.got.tgz:21737.got - 2010.06.03 22:52:26.
