data_PCOD9316858
_publ_section_title
;
Structure prediction by ZEFSAII (Michael W. Deem and Ramdas Pophale) SiO2 
 PCOD9316858
Probable space group: C 2 2 21
;
_chemical_formula_sum "Si O2"
_cell_formula_units_Z 64
_cell_length_a 15.209698
_cell_length_b 11.244926
_cell_length_c 16.465485
_cell_angle_alpha 90.000000
_cell_angle_beta 90.000000
_cell_angle_gamma 90.000000
_cell_volume 2816.123653
_symmetry_space_group_name_H-M "C 2 2 21"
_symmetry_group_IT_number 20
_symmetry_cell_setting 'orthorhombic'
loop_
_space_group_symop_operation_xyz
x,y,z
-x,-y,1/2+z
x,-y,-z
-x,y,1/2-z
1/2+x,1/2+y,z
1/2-x,1/2-y,1/2+z
1/2+x,1/2-y,-z
1/2-x,1/2+y,1/2-z
loop_
_atom_site_type_symbol
_atom_site_label
_atom_site_fract_x
_atom_site_fract_y
_atom_site_fract_z
Si Si1 0.492374 0.767474 0.952019
Si Si2 0.253374 0.287879 0.779036
Si Si3 0.393169 0.370427 0.343232
Si Si4 0.913170 0.670388 0.705042
Si Si5 0.361591 0.488105 0.170734
Si Si6 0.347819 0.884053 0.463169
Si Si7 0.803279 0.746315 0.096163
Si Si8 0.036949 0.900921 0.899836
O O1 0.523352 0.709744 0.867311
O O2 0.390789 0.805824 0.945482
O O3 0.565202 0.860472 0.982735
O O4 0.509325 0.662774 0.017349
O O5 0.186486 0.223055 0.839468
O O6 0.334633 0.196943 0.766515
O O7 0.289695 0.411398 0.811865
O O8 0.216250 0.305098 0.686445
O O9 0.390163 0.427540 0.254709
O O10 0.394863 0.489005 0.399420
O O11 0.879840 0.593991 0.629283
O O12 0.933742 0.798086 0.662785
O O13 0.000000 0.626618 0.750000
O O14 0.327196 0.383685 0.114202
O O15 0.447014 0.546926 0.134068
O O16 0.285427 0.766325 0.456542
O O17 0.303080 0.000000 0.500000
#
# Coordination Sequence:
#
# PCOD9316858 Si02
#       8
#     8   8   8   8   8   8   8   8
#     4  11  25  41  67  99 134 174 221 284 334 400
#     4  10  22  36  61 102 130 165 214 283 329 385
#     4  11  22  36  60 100 130 159 218 275 333 383
#     4  10  18  40  68  89 124 174 233 265 316 400
#     4  11  21  38  69  97 127 171 220 279 326 390
#     4  10  25  44  65  95 134 176 221 270 336 408
#     4  10  24  41  67  96 132 172 226 269 334 400
#     4  11  20  36  68  95 124 169 224 275 333 384
#
# _framework density 22.726277
#
# number of rings (size 3 to 8) (size 9 to 14) (size 15 to 20)
#    0.000    1.500    3.750    0.750    5.250    0.000 
#    0.000    3.750    0.000    0.000    0.000    0.000 
#    0.000    0.000    0.000    0.000    0.000    0.000 
#
# Total GULP energy -178741.282333 kJ/mol
# GULP energy per Si atom -5585.665073 kJ/mol
# Density = 2.267455 g / cm^3
# Si number density = 22.726277 Si / 1000 Ang^3
#
#
#
# Elastic Constant Matrix: (Units=GPa)
#
#
# Indices 1 2 3 4 5 6 
#
# 1 110.6420 7.0035 23.5358 0.0000 0.0000 0.0000
# 2 7.0035 42.6098 13.1491 0.0000 0.0000 0.0000
# 3 23.5358 13.1491 42.3689 0.0000 0.0000 0.0000
# 4 0.0000 0.0000 0.0000 32.0576 0.0000 0.0000
# 5 0.0000 0.0000 0.0000 0.0000 39.2876 0.0000
# 6 0.0000 0.0000 0.0000 0.0000 0.0000 39.6930
#
#
#
# Elastic Compliance Matrix: (Units=1/GPa)
#
#
# Indices 1 2 3 4 5 6 
#
# 1 0.010250 0.000080 -0.005718 0.000000 0.000000 0.000000
# 2 0.000080 0.025955 -0.008100 0.000000 0.000000 0.000000
# 3 -0.005718 -0.008100 0.029292 0.000000 0.000000 0.000000
# 4 0.000000 0.000000 0.000000 0.031194 0.000000 0.000000
# 5 0.000000 0.000000 0.000000 0.000000 0.025453 0.000000
# 6 0.000000 0.000000 0.000000 0.000000 0.000000 0.025193
#
#
# Mechanical properties :
#
#
# Convention : Reuss Voigt Hill
#
# Bulk Modulus (GPa) = 26.30116 31.44419 28.87267
# Shear Modulus (GPa) = 26.66849 32.33645 29.50247
#
# Velocity S-wave (km/s) = 3.42930 3.77618 3.60692
# Velocity P-wave (km/s) = 5.22286 5.73401 5.48439
#
# Compressibility (1/GPa) = 0.03802114
#
# Stress axis : x y z
#
# Youngs Moduli (GPa) = 97.56559 38.52812 34.13853
#
# Poissons Ratio (x) = -0.00308 0.19522
# Poissons Ratio (y) = -0.00781 0.27651
# Poissons Ratio (z) = 0.55792 0.31206
#
# Static dielectric constant tensor:
#      x y z
#    x 1.924990 0.000000 0.000000 
#    y 0.000000 1.865460 0.000000 
#    z 0.000000 0.000000 1.878130 
# 
# From -- ./inp_files/24970.got.cif
#   From: 2010.05.17/outbox.cif.g08.bks.cpg/sg20_13_cif.got.tgz:24970.got - 2010.06.03 22:52:26.
