data_PCOD9316941
_publ_section_title
;
Structure prediction by ZEFSAII (Michael W. Deem and Ramdas Pophale) SiO2 
 PCOD9316941
Probable space group: C 2 2 21
;
_chemical_formula_sum "Si O2"
_cell_formula_units_Z 60
_cell_length_a 25.789076
_cell_length_b 9.515011
_cell_length_c 13.865189
_cell_angle_alpha 90.000000
_cell_angle_beta 90.000000
_cell_angle_gamma 90.000000
_cell_volume 3402.286412
_symmetry_space_group_name_H-M "C 2 2 21"
_symmetry_group_IT_number 20
_symmetry_cell_setting 'orthorhombic'
loop_
_space_group_symop_operation_xyz
x,y,z
-x,-y,1/2+z
x,-y,-z
-x,y,1/2-z
1/2+x,1/2+y,z
1/2-x,1/2-y,1/2+z
1/2+x,1/2-y,-z
1/2-x,1/2+y,1/2-z
loop_
_atom_site_type_symbol
_atom_site_label
_atom_site_fract_x
_atom_site_fract_y
_atom_site_fract_z
Si Si1 0.000000 0.991202 0.750000
Si Si2 0.836209 0.814141 0.619822
Si Si3 0.664735 0.960600 0.227424
Si Si4 0.180670 0.719292 0.095523
Si Si5 0.744954 0.965194 0.391428
Si Si6 0.452267 0.021114 0.680478
Si Si7 0.434601 0.700955 0.635878
Si Si8 0.953810 0.183399 0.415968
O O1 0.045390 0.102067 0.777932
O O2 0.004220 0.889206 0.844413
O O3 0.825935 0.700921 0.701567
O O4 0.827355 0.731839 0.518978
O O5 0.795376 0.938157 0.625319
O O6 0.895947 0.862826 0.618403
O O7 0.681057 0.064880 0.140647
O O8 0.698952 0.997999 0.318946
O O9 0.602757 0.972433 0.235852
O O10 0.127691 0.789757 0.135526
O O11 0.231982 0.808353 0.118561
O O12 0.728155 0.000000 0.500000
O O13 0.500000 0.048100 0.750000
O O14 0.454719 0.861382 0.643945
O O15 0.452775 0.147422 0.602465
O O16 0.455314 0.652525 0.530211
#
# Coordination Sequence:
#
# PCOD9316941 Si02
#       8
#     4   8   8   8   8   8   8   8
#     4  12  20  30  52  76 112 128 170 222 266 326
#     4   9  18  33  54  77 101 131 174 219 257 299
#     4  10  19  31  55  78 102 132 176 217 255 301
#     4   9  18  33  54  77 101 131 174 219 257 299
#     4  10  19  32  49  76 111 139 164 203 261 321
#     4  10  19  37  55  75 103 138 182 224 257 306
#     4  10  20  34  54  78 103 138 179 225 267 305
#     4  10  20  34  54  78 103 138 179 225 267 305
#
# _framework density 17.635200999999999
#
# number of rings (size 3 to 8) (size 9 to 14) (size 15 to 20)
#    0.000    2.133    1.333    2.800    0.000    5.333 
#    0.000    1.333    0.000    0.000    0.000    3.733 
#    0.000    0.000    0.000    0.000    0.000    0.000 
#
# Total GULP energy -167079.526837 kJ/mol
# GULP energy per Si atom -5569.317561 kJ/mol
# Density = 1.759506 g / cm^3
# Si number density = 17.635201 Si / 1000 Ang^3
#
#
#
# Elastic Constant Matrix: (Units=GPa)
#
#
# Indices 1 2 3 4 5 6 
#
# 1 47.4823 13.9127 39.2559 0.0000 0.0000 0.0000
# 2 13.9127 62.2365 13.7966 0.0000 0.0000 0.0000
# 3 39.2559 13.7966 54.5921 0.0000 0.0000 0.0000
# 4 0.0000 0.0000 0.0000 25.9733 0.0000 0.0000
# 5 0.0000 0.0000 0.0000 0.0000 27.2653 0.0000
# 6 0.0000 0.0000 0.0000 0.0000 0.0000 2.4132
#
#
#
# Elastic Compliance Matrix: (Units=1/GPa)
#
#
# Indices 1 2 3 4 5 6 
#
# 1 0.052678 -0.003579 -0.036975 0.000000 0.000000 0.000000
# 2 -0.003579 0.017265 -0.001789 0.000000 0.000000 0.000000
# 3 -0.036975 -0.001789 0.045358 0.000000 0.000000 0.000000
# 4 0.000000 0.000000 0.000000 0.038501 0.000000 0.000000
# 5 0.000000 0.000000 0.000000 0.000000 0.036677 0.000000
# 6 0.000000 0.000000 0.000000 0.000000 0.000000 0.414391
#
#
# Mechanical properties :
#
#
# Convention : Reuss Voigt Hill
#
# Bulk Modulus (GPa) = 32.66576 33.13792 32.90184
# Shear Modulus (GPa) = 7.14530 17.62007 12.38269
#
# Velocity S-wave (km/s) = 2.01507 3.16435 2.65270
# Velocity P-wave (km/s) = 4.89666 5.67295 5.29904
#
# Compressibility (1/GPa) = 0.03061309
#
# Stress axis : x y z
#
# Youngs Moduli (GPa) = 18.98316 57.92216 22.04696
#
# Poissons Ratio (x) = 0.20732 0.81519
# Poissons Ratio (y) = 0.06795 0.03945
# Poissons Ratio (z) = 0.70190 0.10364
#
# Static dielectric constant tensor:
#      x y z
#    x 1.578520 0.000000 0.000000 
#    y 0.000000 1.663970 0.000000 
#    z 0.000000 0.000000 1.589300 
# 
# From -- ./inp_files/19401.got.cif
#   From: 2010.05.17/outbox.cif.g08.bks.cpg/sg20_10_cif.got.tgz:19401.got - 2010.06.03 22:52:26.
