data_PCOD9316366
_publ_section_title
;
Structure prediction by ZEFSAII (Michael W. Deem and Ramdas Pophale) SiO2 
 PCOD9316366
Probable space group: C 2 2 21
;
_chemical_formula_sum "Si O2"
_cell_formula_units_Z 40
_cell_length_a 21.605759
_cell_length_b 5.463450
_cell_length_c 15.623726
_cell_angle_alpha 90.000000
_cell_angle_beta 90.000000
_cell_angle_gamma 90.000000
_cell_volume 1844.255615
_symmetry_space_group_name_H-M "C 2 2 21"
_symmetry_group_IT_number 20
_symmetry_cell_setting 'orthorhombic'
loop_
_space_group_symop_operation_xyz
x,y,z
-x,-y,1/2+z
x,-y,-z
-x,y,1/2-z
1/2+x,1/2+y,z
1/2-x,1/2-y,1/2+z
1/2+x,1/2-y,-z
1/2-x,1/2+y,1/2-z
loop_
_atom_site_type_symbol
_atom_site_label
_atom_site_fract_x
_atom_site_fract_y
_atom_site_fract_z
Si Si1 0.574755 0.003579 0.253172
Si Si2 0.441921 0.496498 0.686665
Si Si3 0.227792 0.000090 0.598031
Si Si4 0.151682 0.500000 0.000000
Si Si5 0.667193 0.999940 0.396064
Si Si6 0.927360 0.000000 0.500000
O O1 0.500000 0.004590 0.250000
O O2 0.593928 0.753760 0.206203
O O3 0.601341 0.001158 0.348762
O O4 0.594245 0.254591 0.207240
O O5 0.500000 0.495548 0.750000
O O6 0.463788 0.499038 0.588804
O O7 0.203343 0.255702 0.633894
O O8 0.201987 0.000000 0.500000
O O9 0.300948 0.999717 0.580506
O O10 0.203046 0.745003 0.633991
O O11 0.113113 0.750764 0.000135
O O12 0.663528 0.000000 0.500000
#
# Coordination Sequence:
#
# PCOD9316366 Si02
#       6
#     8   8   8   4   8   4
#     4  10  21  39  57  86 133 155 206 274 292 365
#     4  10  23  43  59  91 125 162 212 258 303 381
#     4   8  17  31  55  91 122 147 210 263 288 373
#     4  10  20  36  64 101 118 155 226 256 300 386
#     4  10  17  33  59  90 116 172 200 239 331 360
#     4  12  22  40  72  85 120 179 200 248 332 360
#
# _framework density 21.688969
#
# number of rings (size 3 to 8) (size 9 to 14) (size 15 to 20)
#    0.600    1.600    0.000    3.600    0.000    0.000 
#   14.400    0.000    0.000   24.000    0.000    0.000 
#    0.000    0.000    0.000    0.000    0.000    0.000 
#
# Total GULP energy -111400.652938 kJ/mol
# GULP energy per Si atom -5570.032647 kJ/mol
# Density = 2.163960 g / cm^3
# Si number density = 21.688969 Si / 1000 Ang^3
#
#
#
# Elastic Constant Matrix: (Units=GPa)
#
#
# Indices 1 2 3 4 5 6 
#
# 1 72.8241 30.9959 36.9194 0.0000 0.0000 0.0000
# 2 30.9959 219.8469 32.9220 0.0000 0.0000 0.0000
# 3 36.9194 32.9220 108.2866 0.0000 0.0000 0.0000
# 4 0.0000 0.0000 0.0000 16.7572 0.0000 0.0000
# 5 0.0000 0.0000 0.0000 0.0000 31.4006 0.0000
# 6 0.0000 0.0000 0.0000 0.0000 0.0000 33.0323
#
#
#
# Elastic Compliance Matrix: (Units=1/GPa)
#
#
# Indices 1 2 3 4 5 6 
#
# 1 0.017131 -0.001614 -0.005350 0.000000 0.000000 0.000000
# 2 -0.001614 0.004918 -0.000945 0.000000 0.000000 0.000000
# 3 -0.005350 -0.000945 0.011346 0.000000 0.000000 0.000000
# 4 0.000000 0.000000 0.000000 0.059676 0.000000 0.000000
# 5 0.000000 0.000000 0.000000 0.000000 0.031847 0.000000
# 6 0.000000 0.000000 0.000000 0.000000 0.000000 0.030273
#
#
# Mechanical properties :
#
#
# Convention : Reuss Voigt Hill
#
# Bulk Modulus (GPa) = 56.89254 66.95912 61.92583
# Shear Modulus (GPa) = 28.26983 36.24604 32.25793
#
# Velocity S-wave (km/s) = 3.61421 4.09243 3.86073
# Velocity P-wave (km/s) = 6.61095 7.29864 6.96329
#
# Compressibility (1/GPa) = 0.01757700
#
# Stress axis : x y z
#
# Youngs Moduli (GPa) = 58.37382 203.34820 88.13682
#
# Poissons Ratio (x) = 0.32823 0.47152
# Poissons Ratio (y) = 0.09422 0.08327
# Poissons Ratio (z) = 0.31230 0.19212
#
# Static dielectric constant tensor:
#      x y z
#    x 1.724630 0.000000 0.000000 
#    y 0.000000 1.853180 0.000000 
#    z 0.000000 0.000000 1.792990 
# 
# From -- ./inp_files/21945.got.cif
#   From: 2010.05.17/outbox.cif.g08.bks.cpg/sg20_11_cif.got.tgz:21945.got - 2010.06.03 22:52:26.
