data_PCOD9316123
_publ_section_title
;
Structure prediction by ZEFSAII (Michael W. Deem and Ramdas Pophale) SiO2 
 PCOD9316123
Probable space group: P 21 21 21
;
_chemical_formula_sum "Si O2"
_cell_formula_units_Z 32
_cell_length_a 9.000000
_cell_length_b 15.000000
_cell_length_c 12.000000
_cell_angle_alpha 90.000000
_cell_angle_beta 90.000000
_cell_angle_gamma 90.000000
_cell_volume 1620.000000
_symmetry_space_group_name_H-M "P 21 21 21"
_symmetry_group_IT_number 19
_symmetry_cell_setting 'orthorhombic'
loop_
_space_group_symop_operation_xyz
x,y,z
1/2-x,-y,1/2+z
1/2+x,1/2-y,-z
-x,1/2+y,1/2-z
loop_
_atom_site_type_symbol
_atom_site_label
_atom_site_fract_x
_atom_site_fract_y
_atom_site_fract_z
Si Si1 0.453632 0.867878 0.720750
Si Si2 0.673232 0.648048 0.399393
Si Si3 0.636854 0.465587 0.079018
Si Si4 0.576132 0.050178 0.998321
Si Si5 0.009587 0.657932 0.022480
Si Si6 0.118293 0.654979 0.505582
Si Si7 0.337746 0.155822 0.534215
Si Si8 0.404518 0.065788 0.764781
O O1 0.278961 0.845668 0.707165
O O2 0.503741 0.840589 0.842788
O O3 0.543097 0.829440 0.615824
O O4 0.469218 0.974746 0.713820
O O5 0.769769 0.586341 0.483310
O O6 0.520220 0.594124 0.401824
O O7 0.648554 0.747617 0.444303
O O8 0.489883 0.405647 0.081901
O O9 0.739945 0.457040 0.187751
O O10 0.617138 0.567825 0.038816
O O11 0.734675 0.096231 0.005676
O O12 0.501419 0.080492 0.878390
O O13 0.572778 0.941967 0.004881
O O14 0.095946 0.749416 0.992485
O O15 0.841631 0.659835 0.974820
O O16 0.389633 0.134738 0.662432
#
# Coordination Sequence:
#
# PCOD9316123 Si02
#       8
#     4   4   4   4   4   4   4   4
#     4  10  20  42  63  94 125 171 214 259 330 383
#     4  10  19  38  65  90 129 164 207 269 327 384
#     4  10  21  41  63  93 126 168 215 265 328 385
#     4  10  21  41  62 100 135 162 220 272 328 385
#     4  11  26  42  66  93 132 179 216 261 326 411
#     4  11  22  35  67 100 126 157 215 289 317 370
#     4  12  23  45  69  89 131 178 219 263 332 393
#     4  10  20  42  69  83 128 183 206 260 334 395
#
# _framework density 19.753086
#
# number of rings (size 3 to 8) (size 9 to 14) (size 15 to 20)
#    0.000    1.500    6.250    1.500    7.000    0.000 
#    2.250    5.000    0.000    0.000    0.000    0.000 
#    0.000    0.000    0.000    0.000    0.000    0.000 
#
# Total GULP energy -178459.202720 kJ/mol
# GULP energy per Si atom -5576.850085 kJ/mol
# Density = 1.970813 g / cm^3
# Si number density = 19.753086 Si / 1000 Ang^3
#
#
#
# Elastic Constant Matrix: (Units=GPa)
#
#
# Indices 1 2 3 4 5 6 
#
# 1 52.4717 24.8936 -9.4208 0.0000 0.0000 0.0000
# 2 24.8936 154.7504 2.6723 0.0000 0.0000 0.0000
# 3 -9.4208 2.6723 23.3336 0.0000 0.0000 0.0000
# 4 0.0000 0.0000 0.0000 24.6709 0.0000 0.0000
# 5 0.0000 0.0000 0.0000 0.0000 16.0392 0.0000
# 6 0.0000 0.0000 0.0000 0.0000 0.0000 36.8549
#
#
#
# Elastic Compliance Matrix: (Units=1/GPa)
#
#
# Indices 1 2 3 4 5 6 
#
# 1 0.022573 -0.003796 0.009549 0.000000 0.000000 0.000000
# 2 -0.003796 0.007113 -0.002347 0.000000 0.000000 0.000000
# 3 0.009549 -0.002347 0.046981 0.000000 0.000000 0.000000
# 4 0.000000 0.000000 0.000000 0.040534 0.000000 0.000000
# 5 0.000000 0.000000 0.000000 0.000000 0.062347 0.000000
# 6 0.000000 0.000000 0.000000 0.000000 0.000000 0.027133
#
#
# Mechanical properties :
#
#
# Convention : Reuss Voigt Hill
#
# Bulk Modulus (GPa) = 11.97929 29.64953 20.81441
# Shear Modulus (GPa) = 21.95901 29.67370 25.81636
#
# Velocity S-wave (km/s) = 3.33780 3.88007 3.61910
# Velocity P-wave (km/s) = 4.57517 5.92587 5.29377
#
# Compressibility (1/GPa) = 0.08347742
#
# Stress axis : x y z
#
# Youngs Moduli (GPa) = 44.30041 140.58378 21.28533
#
# Poissons Ratio (x) = 0.53366 -0.20324
# Poissons Ratio (y) = 0.16817 0.04996
# Poissons Ratio (z) = -0.42300 0.32999
#
# Static dielectric constant tensor:
#      x y z
#    x 1.771440 0.000000 0.000000 
#    y 0.000000 1.689230 0.000000 
#    z 0.000000 0.000000 1.728500 
# 
# From -- ./inp_files/4730.got.cif
#   From: 2010.05.17/outbox.ucp.g08.bks.cvg/sg19_3_cif.got.tgz:4730.got - 2010.06.11 13:13:52.
