data_PCOD9316297
_publ_section_title
;
Structure prediction by ZEFSAII (Michael W. Deem and Ramdas Pophale) SiO2 
 PCOD9316297
Probable space group: C 2 2 21
;
_chemical_formula_sum "Si O2"
_cell_formula_units_Z 24
_cell_length_a 25.351324
_cell_length_b 7.208833
_cell_length_c 5.411424
_cell_angle_alpha 90.000000
_cell_angle_beta 90.000000
_cell_angle_gamma 90.000000
_cell_volume 988.956465
_symmetry_space_group_name_H-M "C 2 2 21"
_symmetry_group_IT_number 20
_symmetry_cell_setting 'orthorhombic'
loop_
_space_group_symop_operation_xyz
x,y,z
-x,-y,1/2+z
x,-y,-z
-x,y,1/2-z
1/2+x,1/2+y,z
1/2-x,1/2-y,1/2+z
1/2+x,1/2-y,-z
1/2-x,1/2+y,1/2-z
loop_
_atom_site_type_symbol
_atom_site_label
_atom_site_fract_x
_atom_site_fract_y
_atom_site_fract_z
Si Si1 0.895724 0.767490 0.754562
Si Si2 0.221294 0.205387 0.392411
Si Si3 0.061570 0.185190 0.750732
O O1 0.834793 0.721074 0.795195
O O2 0.920057 0.709544 0.494824
O O3 0.905399 0.992446 0.750706
O O4 0.926222 0.709412 0.999468
O O5 0.243552 0.304375 0.641202
O O6 0.213188 0.000000 0.500000
O O7 0.000000 0.136472 0.750000
#
# Coordination Sequence:
#
# PCOD9316297 Si02
#       3
#     8   8   8
#     4  10  18  31  49  76 119 154 186 244 308 359
#     4  12  25  41  62  87 123 175 219 259 310 365
#     4  10  17  28  52  81 121 153 182 241 335 378
#
# _framework density 24.268003
#
# number of rings (size 3 to 8) (size 9 to 14) (size 15 to 20)
#    0.000    1.333    3.333    8.000    4.667    0.000 
#    0.000    0.000    0.000    0.000    0.000    0.000 
#    0.000  120.000    0.000    0.000    0.000    0.000 
#
# Total GULP energy -67027.686723 kJ/mol
# GULP energy per Si atom -5585.640560 kJ/mol
# Density = 2.421277 g / cm^3
# Si number density = 24.268003 Si / 1000 Ang^3
#
#
#
# Elastic Constant Matrix: (Units=GPa)
#
#
# Indices 1 2 3 4 5 6 
#
# 1 157.3750 -11.8935 76.1261 0.0000 0.0000 0.0000
# 2 -11.8935 60.8782 6.7622 0.0000 0.0000 0.0000
# 3 76.1261 6.7622 296.9931 0.0000 0.0000 0.0000
# 4 0.0000 0.0000 0.0000 -2.6803 0.0000 0.0000
# 5 0.0000 0.0000 0.0000 0.0000 70.1655 0.0000
# 6 0.0000 0.0000 0.0000 0.0000 0.0000 24.5715
#
#
#
# Elastic Compliance Matrix: (Units=1/GPa)
#
#
# Indices 1 2 3 4 5 6 
#
# 1 0.007418 0.001665 -0.001939 0.000000 0.000000 0.000000
# 2 0.001665 0.016841 -0.000810 0.000000 0.000000 0.000000
# 3 -0.001939 -0.000810 0.003883 0.000000 0.000000 0.000000
# 4 0.000000 0.000000 0.000000 -0.373092 0.000000 0.000000
# 5 0.000000 0.000000 0.000000 0.000000 0.014252 0.000000
# 6 0.000000 0.000000 0.000000 0.000000 0.000000 0.040697
#
#
# Mechanical properties :
#
#
# Convention : Reuss Voigt Hill
#
# Bulk Modulus (GPa) = 38.50215 73.02621 55.76418
# Shear Modulus (GPa) = -17.91007 48.02812 15.05903
#
# Velocity S-wave (km/s) = -2.71958 4.45350 2.49375
# Velocity P-wave (km/s) = 2.45730 7.52342 5.59643
#
# Compressibility (1/GPa) = 0.02597258
#
# Stress axis : x y z
#
# Youngs Moduli (GPa) = 134.80422 59.37732 257.55758
#
# Poissons Ratio (x) = -0.09884 0.49949
# Poissons Ratio (y) = -0.22440 0.20866
# Poissons Ratio (z) = 0.26143 0.04810
#
# Static dielectric constant tensor:
#      x y z
#    x 1.859770 0.000000 0.000000 
#    y 0.000000 1.931790 0.000000 
#    z 0.000000 0.000000 1.668610 
# 
# From -- ./inp_files/306.got.cif
#   From: 2010.05.17/outbox.cif.g08.bks.cpg/sg20_1_cif.got.tgz:306.got - 2010.06.03 22:52:26.
