data_PCOD9316542
_publ_section_title
;
Structure prediction by ZEFSAII (Michael W. Deem and Ramdas Pophale) SiO2 
 PCOD9316542
Probable space group: C 2 2 21
;
_chemical_formula_sum "Si O2"
_cell_formula_units_Z 48
_cell_length_a 25.808228
_cell_length_b 10.919820
_cell_length_c 7.600447
_cell_angle_alpha 90.000000
_cell_angle_beta 90.000000
_cell_angle_gamma 90.000000
_cell_volume 2141.967127
_symmetry_space_group_name_H-M "C 2 2 21"
_symmetry_group_IT_number 20
_symmetry_cell_setting 'orthorhombic'
loop_
_space_group_symop_operation_xyz
x,y,z
-x,-y,1/2+z
x,-y,-z
-x,y,1/2-z
1/2+x,1/2+y,z
1/2-x,1/2-y,1/2+z
1/2+x,1/2-y,-z
1/2-x,1/2+y,1/2-z
loop_
_atom_site_type_symbol
_atom_site_label
_atom_site_fract_x
_atom_site_fract_y
_atom_site_fract_z
Si Si1 0.608168 0.790261 0.834734
Si Si2 0.403392 0.328676 0.723916
Si Si3 0.500000 0.173067 0.750000
Si Si4 0.000000 0.809213 0.250000
Si Si5 0.935457 0.500000 0.500000
Si Si6 0.037774 0.000000 0.000000
Si Si7 0.209533 0.116137 0.239791
Si Si8 0.787816 0.162827 0.680481
O O1 0.553779 0.760862 0.744662
O O2 0.657994 0.724016 0.756594
O O3 0.606219 0.739267 0.035966
O O4 0.603377 0.935482 0.861570
O O5 0.450455 0.253983 0.808497
O O6 0.426575 0.458047 0.660951
O O7 0.348203 0.352455 0.809737
O O8 0.474851 0.090950 0.598033
O O9 0.995412 0.892049 0.422788
O O10 0.247057 0.225548 0.302180
O O11 0.222484 0.970963 0.270293
O O12 0.208158 0.131973 0.027247
#
# Coordination Sequence:
#
# PCOD9316542 Si02
#       8
#     8   8   4   4   4   4   8   8
#     4   9  19  35  56  81 111 151 190 231 282 342
#     4   9  18  34  56  80 110 147 189 233 282 336
#     4  10  20  34  56  86 114 152 190 228 282 344
#     4  10  18  32  54  82 112 144 182 226 280 340
#     4  10  20  36  56  82 118 152 190 232 284 348
#     4  10  18  32  56  82 110 144 182 230 284 340
#     4  10  21  40  61  86 116 151 195 243 291 344
#     4  10  22  40  62  85 114 151 196 244 292 342
#
# _framework density 22.409306999999998
#
# number of rings (size 3 to 8) (size 9 to 14) (size 15 to 20)
#    0.000    2.333    0.000    4.000    0.000    4.667 
#    0.000   11.667    0.000    0.000    0.000    0.000 
#    0.000    0.000    0.000    0.000    0.000    0.000 
#
# Total GULP energy -133733.994619 kJ/mol
# GULP energy per Si atom -5572.249776 kJ/mol
# Density = 2.235830 g / cm^3
# Si number density = 22.409307 Si / 1000 Ang^3
#
#
#
# Elastic Constant Matrix: (Units=GPa)
#
#
# Indices 1 2 3 4 5 6 
#
# 1 152.9360 107.6093 19.1654 0.0000 0.0000 0.0000
# 2 107.6093 157.2051 14.8811 0.0000 0.0000 0.0000
# 3 19.1654 14.8811 28.7282 0.0000 0.0000 0.0000
# 4 0.0000 0.0000 0.0000 28.3826 0.0000 0.0000
# 5 0.0000 0.0000 0.0000 0.0000 -140.6136 0.0000
# 6 0.0000 0.0000 0.0000 0.0000 0.0000 12.3840
#
#
#
# Elastic Compliance Matrix: (Units=1/GPa)
#
#
# Indices 1 2 3 4 5 6 
#
# 1 0.013102 -0.008561 -0.004306 0.000000 0.000000 0.000000
# 2 -0.008561 0.012283 -0.000651 0.000000 0.000000 0.000000
# 3 -0.004306 -0.000651 0.038019 0.000000 0.000000 0.000000
# 4 0.000000 0.000000 0.000000 0.035233 0.000000 0.000000
# 5 0.000000 0.000000 0.000000 0.000000 -0.007112 0.000000
# 6 0.000000 0.000000 0.000000 0.000000 0.000000 0.080749
#
#
# Mechanical properties :
#
#
# Convention : Reuss Voigt Hill
#
# Bulk Modulus (GPa) = 27.49722 69.13122 48.31422
# Shear Modulus (GPa) = 23.64810 -6.82183 8.41313
#
# Velocity S-wave (km/s) = 3.25203 -1.74666 1.93970
# Velocity P-wave (km/s) = 5.13790 5.18156 5.15978
#
# Compressibility (1/GPa) = 0.03636731
#
# Stress axis : x y z
#
# Youngs Moduli (GPa) = 76.32464 81.41467 26.30251
#
# Poissons Ratio (x) = 0.69698 0.11326
# Poissons Ratio (y) = 0.65340 0.01713
# Poissons Ratio (z) = 0.32867 0.05302
#
# Static dielectric constant tensor:
#      x y z
#    x 1.855020 0.000000 0.000000 
#    y 0.000000 2.060650 0.000000 
#    z 0.000000 0.000000 1.886480 
# 
# From -- ./inp_files/7497.got.cif
#   From: 2010.05.17/outbox.cif.g08.bks.cpg/sg20_4_cif.got.tgz:7497.got - 2010.06.03 22:52:26.
