data_PCOD9316540
_publ_section_title
;
Structure prediction by ZEFSAII (Michael W. Deem and Ramdas Pophale) SiO2 
 PCOD9316540
Probable space group: C 2 2 21
;
_chemical_formula_sum "Si O2"
_cell_formula_units_Z 64
_cell_length_a 13.110640
_cell_length_b 27.651409
_cell_length_c 7.548240
_cell_angle_alpha 90.000000
_cell_angle_beta 90.000000
_cell_angle_gamma 90.000000
_cell_volume 2736.445851
_symmetry_space_group_name_H-M "C 2 2 21"
_symmetry_group_IT_number 20
_symmetry_cell_setting 'orthorhombic'
loop_
_space_group_symop_operation_xyz
x,y,z
-x,-y,1/2+z
x,-y,-z
-x,y,1/2-z
1/2+x,1/2+y,z
1/2-x,1/2-y,1/2+z
1/2+x,1/2-y,-z
1/2-x,1/2+y,1/2-z
loop_
_atom_site_type_symbol
_atom_site_label
_atom_site_fract_x
_atom_site_fract_y
_atom_site_fract_z
Si Si1 0.398268 0.735464 0.559156
Si Si2 0.971749 0.584204 0.953264
Si Si3 0.197920 0.765665 0.667067
Si Si4 0.557233 0.808961 0.442171
Si Si5 0.138226 0.130652 0.426436
Si Si6 0.246970 0.552211 0.483242
Si Si7 0.694232 0.945842 0.928333
Si Si8 0.911329 0.872666 0.499288
O O1 0.318592 0.765057 0.675143
O O2 0.354883 0.733962 0.357281
O O3 0.499141 0.767009 0.546877
O O4 0.407600 0.679046 0.597388
O O5 0.945325 0.637937 0.024203
O O6 0.000000 0.589657 0.750000
O O7 0.867416 0.554101 0.941658
O O8 0.073253 0.563842 0.046151
O O9 0.167951 0.713259 0.589257
O O10 0.162305 0.812087 0.553709
O O11 0.500000 0.811460 0.250000
O O12 0.231591 0.097510 0.496330
O O13 0.117084 0.129375 0.211495
O O14 0.030697 0.113585 0.508266
O O15 0.296366 0.500000 0.500000
O O16 0.222741 0.557450 0.276648
O O17 0.323557 0.591218 0.564662
O O18 0.716425 0.000000 0.000000
#
# Coordination Sequence:
#
# PCOD9316540 Si02
#       8
#     8   8   8   8   8   8   8   8
#     4  10  18  32  54  80 111 146 183 221 265 324
#     4  11  22  38  59  85 118 151 187 235 288 345
#     4  10  18  32  54  80 111 146 183 221 265 324
#     4   9  18  32  54  81 110 145 179 213 266 327
#     4   9  18  35  59  84 113 151 193 232 277 340
#     4  11  23  39  60  85 112 147 192 243 292 341
#     4  11  23  39  60  85 112 147 192 243 292 341
#     4   9  18  35  59  84 113 151 193 232 277 340
#
# _framework density 23.388000999999999
#
# number of rings (size 3 to 8) (size 9 to 14) (size 15 to 20)
#    0.000    2.000    1.250    3.000    0.000    0.500 
#    0.000    3.125    0.000    5.250    0.000    0.000 
#    0.000    0.000    0.000    0.000    0.000    0.000 
#
# Total GULP energy -178611.312181 kJ/mol
# GULP energy per Si atom -5581.603506 kJ/mol
# Density = 2.333477 g / cm^3
# Si number density = 23.388001 Si / 1000 Ang^3
#
#
#
# Elastic Constant Matrix: (Units=GPa)
#
#
# Indices 1 2 3 4 5 6 
#
# 1 88.1740 19.1068 -6.7228 0.0000 0.0000 0.0000
# 2 19.1068 110.0540 -0.8279 0.0000 0.0000 0.0000
# 3 -6.7228 -0.8279 37.9120 0.0000 0.0000 0.0000
# 4 0.0000 0.0000 0.0000 6.6148 0.0000 0.0000
# 5 0.0000 0.0000 0.0000 0.0000 26.2625 0.0000
# 6 0.0000 0.0000 0.0000 0.0000 0.0000 31.8653
#
#
#
# Elastic Compliance Matrix: (Units=1/GPa)
#
#
# Indices 1 2 3 4 5 6 
#
# 1 0.011945 -0.002058 0.002073 0.000000 0.000000 0.000000
# 2 -0.002058 0.009443 -0.000159 0.000000 0.000000 0.000000
# 3 0.002073 -0.000159 0.026741 0.000000 0.000000 0.000000
# 4 0.000000 0.000000 0.000000 0.151177 0.000000 0.000000
# 5 0.000000 0.000000 0.000000 0.000000 0.038077 0.000000
# 6 0.000000 0.000000 0.000000 0.000000 0.000000 0.031382
#
#
# Mechanical properties :
#
#
# Convention : Reuss Voigt Hill
#
# Bulk Modulus (GPa) = 20.90240 28.80579 24.85410
# Shear Modulus (GPa) = 17.54387 27.92079 22.73233
#
# Velocity S-wave (km/s) = 2.74181 3.45890 3.12102
# Velocity P-wave (km/s) = 4.35660 5.31932 4.86185
#
# Compressibility (1/GPa) = 0.04784139
#
# Stress axis : x y z
#
# Youngs Moduli (GPa) = 83.71497 105.90309 37.39572
#
# Poissons Ratio (x) = 0.21798 -0.07753
# Poissons Ratio (y) = 0.17231 0.00594
# Poissons Ratio (z) = -0.17356 0.01681
#
# Static dielectric constant tensor:
#      x y z
#    x 1.950360 0.000000 0.000000 
#    y 0.000000 1.704590 0.000000 
#    z 0.000000 0.000000 1.939710 
# 
# From -- ./inp_files/7660.got.cif
#   From: 2010.05.17/outbox.cif.g08.bks.cpg/sg20_4_cif.got.tgz:7660.got - 2010.06.03 22:52:26.
