data_PCOD9316852
_publ_section_title
;
Structure prediction by ZEFSAII (Michael W. Deem and Ramdas Pophale) SiO2 
 PCOD9316852
Probable space group: C 2 2 21
;
_chemical_formula_sum "Si O2"
_cell_formula_units_Z 44
_cell_length_a 14.942078
_cell_length_b 7.308616
_cell_length_c 16.741215
_cell_angle_alpha 90.000000
_cell_angle_beta 90.000000
_cell_angle_gamma 90.000000
_cell_volume 1828.239624
_symmetry_space_group_name_H-M "C 2 2 21"
_symmetry_group_IT_number 20
_symmetry_cell_setting 'orthorhombic'
loop_
_space_group_symop_operation_xyz
x,y,z
-x,-y,1/2+z
x,-y,-z
-x,y,1/2-z
1/2+x,1/2+y,z
1/2-x,1/2-y,1/2+z
1/2+x,1/2-y,-z
1/2-x,1/2+y,1/2-z
loop_
_atom_site_type_symbol
_atom_site_label
_atom_site_fract_x
_atom_site_fract_y
_atom_site_fract_z
Si Si1 0.000000 0.135927 0.250000
Si Si2 0.360141 0.191593 0.231618
Si Si3 0.674714 0.613093 0.310121
Si Si4 0.773850 0.301965 0.528075
Si Si5 0.392161 0.155779 0.062076
Si Si6 0.940797 0.152618 0.616542
O O1 0.090512 0.228128 0.279259
O O2 0.035788 0.023863 0.170747
O O3 0.355376 0.402644 0.200550
O O4 0.389080 0.087871 0.152859
O O5 0.419274 0.199677 0.311940
O O6 0.260971 0.136900 0.255600
O O7 0.706627 0.659510 0.398300
O O8 0.811034 0.500000 0.500000
O O9 0.707604 0.223541 0.460838
O O10 0.852262 0.170766 0.561633
O O11 0.472962 0.301059 0.063584
O O12 0.415725 0.000000 0.000000
#
# Coordination Sequence:
#
# PCOD9316852 Si02
#       6
#     4   8   8   8   8   8
#     4  10  18  40  64  86 120 160 212 252 306 362
#     4  10  21  40  68  87 118 169 207 254 309 377
#     4  10  21  39  65  87 121 162 212 246 314 373
#     4  11  22  41  62  91 126 164 201 260 319 368
#     4  12  24  39  61  96 128 159 211 261 313 373
#     4  10  20  41  65  84 120 172 204 249 314 377
#
# _framework density 24.066866999999998
#
# number of rings (size 3 to 8) (size 9 to 14) (size 15 to 20)
#    0.000    1.455    5.455    0.545    7.636    0.000 
#    3.273    0.909    0.000    0.000    0.000    0.000 
#    0.000    0.000    0.000    0.000    0.000    0.000 
#
# Total GULP energy -122827.258062 kJ/mol
# GULP energy per Si atom -5583.057185 kJ/mol
# Density = 2.401209 g / cm^3
# Si number density = 24.066867 Si / 1000 Ang^3
#
#
#
# Elastic Constant Matrix: (Units=GPa)
#
#
# Indices 1 2 3 4 5 6 
#
# 1 129.6073 5.9084 39.3023 0.0000 0.0000 0.0000
# 2 5.9084 54.9074 18.1166 0.0000 0.0000 0.0000
# 3 39.3023 18.1166 94.7797 0.0000 0.0000 0.0000
# 4 0.0000 0.0000 0.0000 24.6091 0.0000 0.0000
# 5 0.0000 0.0000 0.0000 0.0000 47.7959 0.0000
# 6 0.0000 0.0000 0.0000 0.0000 0.0000 21.3149
#
#
#
# Elastic Compliance Matrix: (Units=1/GPa)
#
#
# Indices 1 2 3 4 5 6 
#
# 1 0.008829 0.000275 -0.003714 0.000000 0.000000 0.000000
# 2 0.000275 0.019447 -0.003831 0.000000 0.000000 0.000000
# 3 -0.003714 -0.003831 0.012823 0.000000 0.000000 0.000000
# 4 0.000000 0.000000 0.000000 0.040635 0.000000 0.000000
# 5 0.000000 0.000000 0.000000 0.000000 0.020922 0.000000
# 6 0.000000 0.000000 0.000000 0.000000 0.000000 0.046916
#
#
# Mechanical properties :
#
#
# Convention : Reuss Voigt Hill
#
# Bulk Modulus (GPa) = 37.65115 45.10544 41.37830
# Shear Modulus (GPa) = 28.90747 33.14178 31.02463
#
# Velocity S-wave (km/s) = 3.46949 3.71492 3.59430
# Velocity P-wave (km/s) = 5.63278 6.09780 5.86990
#
# Compressibility (1/GPa) = 0.02655961
#
# Stress axis : x y z
#
# Youngs Moduli (GPa) = 113.25978 51.42187 77.98405
#
# Poissons Ratio (x) = -0.01416 0.28962
# Poissons Ratio (y) = -0.03118 0.29878
# Poissons Ratio (z) = 0.42063 0.19701
#
# Static dielectric constant tensor:
#      x y z
#    x 1.955150 0.000000 0.000000 
#    y 0.000000 2.019010 0.000000 
#    z 0.000000 0.000000 1.912740 
# 
# From -- ./inp_files/24742.got.cif
#   From: 2010.05.17/outbox.cif.g08.bks.cpg/sg20_13_cif.got.tgz:24742.got - 2010.06.03 22:52:26.
