data_PCOD9316957
_publ_section_title
;
Structure prediction by ZEFSAII (Michael W. Deem and Ramdas Pophale) SiO2 
 PCOD9316957
Probable space group: C 2 2 21
;
_chemical_formula_sum "Si O2"
_cell_formula_units_Z 60
_cell_length_a 21.522686
_cell_length_b 31.318999
_cell_length_c 5.035576
_cell_angle_alpha 90.000000
_cell_angle_beta 90.000000
_cell_angle_gamma 90.000000
_cell_volume 3394.325585
_symmetry_space_group_name_H-M "C 2 2 21"
_symmetry_group_IT_number 20
_symmetry_cell_setting 'orthorhombic'
loop_
_space_group_symop_operation_xyz
x,y,z
-x,-y,1/2+z
x,-y,-z
-x,y,1/2-z
1/2+x,1/2+y,z
1/2-x,1/2-y,1/2+z
1/2+x,1/2-y,-z
1/2-x,1/2+y,1/2-z
loop_
_atom_site_type_symbol
_atom_site_label
_atom_site_fract_x
_atom_site_fract_y
_atom_site_fract_z
Si Si1 0.955640 0.706514 0.002032
Si Si2 0.271568 0.393343 0.543956
Si Si3 0.233052 0.950461 0.473436
Si Si4 0.666964 0.746641 0.351857
Si Si5 0.788426 0.801010 0.352508
Si Si6 0.462899 0.000000 0.500000
Si Si7 0.624877 0.072245 0.004663
Si Si8 0.127302 0.376446 0.510970
O O1 0.000000 0.717176 0.250000
O O2 0.902780 0.740877 0.926237
O O3 0.913784 0.664878 0.062206
O O4 0.000000 0.698686 0.750000
O O5 0.274500 0.429415 0.315675
O O6 0.301192 0.349538 0.437172
O O7 0.200256 0.377433 0.588796
O O8 0.294213 0.417130 0.809808
O O9 0.307113 0.948372 0.526768
O O10 0.212910 0.000000 0.500000
O O11 0.715939 0.786162 0.379969
O O12 0.691877 0.710558 0.554186
O O13 0.674430 0.729689 0.053729
O O14 0.420362 0.037389 0.612961
O O15 0.500000 0.016639 0.250000
O O16 0.602424 0.087189 0.291988
O O17 0.626483 0.111377 0.798743
#
# Coordination Sequence:
#
# PCOD9316957 Si02
#       8
#     8   8   8   8   8   4   8   8
#     4  12  24  37  53  74 104 135 170 208 261 319
#     4  10  19  32  53  76  96 126 171 212 257 300
#     4  10  19  32  50  70  97 128 161 203 254 314
#     4  10  21  35  53  78 101 132 168 213 270 297
#     4  10  19  35  57  75 102 127 170 224 255 304
#     4  12  24  34  46  58  76 106 160 210 258 310
#     4  10  21  35  47  61  85 118 158 211 261 301
#     4  10  21  35  50  67  92 120 165 209 254 307
#
# _framework density 17.676559999999998
#
# number of rings (size 3 to 8) (size 9 to 14) (size 15 to 20)
#    0.000    1.600    2.000    3.600    0.000    3.200 
#    0.000    0.000    0.000    0.000    0.000    0.000 
#    0.000    0.000    0.000    0.000    0.000  168.000 
#
# Total GULP energy -167252.952212 kJ/mol
# GULP energy per Si atom -5575.098407 kJ/mol
# Density = 1.763633 g / cm^3
# Si number density = 17.676560 Si / 1000 Ang^3
#
#
#
# Elastic Constant Matrix: (Units=GPa)
#
#
# Indices 1 2 3 4 5 6 
#
# 1 27.3842 -3.7684 -6.0727 0.0000 0.0000 0.0000
# 2 -3.7684 48.5228 -23.7898 0.0000 0.0000 0.0000
# 3 -6.0727 -23.7898 45.8505 0.0000 0.0000 0.0000
# 4 0.0000 0.0000 0.0000 13.7544 0.0000 0.0000
# 5 0.0000 0.0000 0.0000 0.0000 11.1828 0.0000
# 6 0.0000 0.0000 0.0000 0.0000 0.0000 12.9659
#
#
#
# Elastic Compliance Matrix: (Units=1/GPa)
#
#
# Indices 1 2 3 4 5 6 
#
# 1 0.039594 0.007572 0.009173 0.000000 0.000000 0.000000
# 2 0.007572 0.029088 0.016096 0.000000 0.000000 0.000000
# 3 0.009173 0.016096 0.031376 0.000000 0.000000 0.000000
# 4 0.000000 0.000000 0.000000 0.072704 0.000000 0.000000
# 5 0.000000 0.000000 0.000000 0.000000 0.089423 0.000000
# 6 0.000000 0.000000 0.000000 0.000000 0.000000 0.077125
#
#
# Mechanical properties :
#
#
# Convention : Reuss Voigt Hill
#
# Bulk Modulus (GPa) = 6.03356 6.05507 6.04432
# Shear Modulus (GPa) = 15.20332 17.93985 16.57158
#
# Velocity S-wave (km/s) = 2.93590 3.18920 3.06517
# Velocity P-wave (km/s) = 3.86179 4.12241 3.99422
#
# Compressibility (1/GPa) = 0.16573952
#
# Stress axis : x y z
#
# Youngs Moduli (GPa) = 25.25658 34.37811 31.87131
#
# Poissons Ratio (x) = -0.26032 -0.29235
# Poissons Ratio (y) = -0.19125 -0.51299
# Poissons Ratio (z) = -0.23168 -0.55333
#
# Static dielectric constant tensor:
#      x y z
#    x 1.592650 0.000000 0.000000 
#    y 0.000000 1.643630 0.000000 
#    z 0.000000 0.000000 1.636300 
# 
# From -- ./inp_files/3442.got.cif
#   From: 2010.05.17/outbox.cif.g08.bks.cpg/sg20_2_cif.got.tgz:3442.got - 2010.06.03 22:52:26.
