data_PCOD9316760
_publ_section_title
;
Structure prediction by ZEFSAII (Michael W. Deem and Ramdas Pophale) SiO2 
 PCOD9316760
Probable space group: C 2 2 21
;
_chemical_formula_sum "Si O2"
_cell_formula_units_Z 64
_cell_length_a 26.277548
_cell_length_b 9.387009
_cell_length_c 11.688092
_cell_angle_alpha 90.000000
_cell_angle_beta 90.000000
_cell_angle_gamma 90.000000
_cell_volume 2883.073363
_symmetry_space_group_name_H-M "C 2 2 21"
_symmetry_group_IT_number 20
_symmetry_cell_setting 'orthorhombic'
loop_
_space_group_symop_operation_xyz
x,y,z
-x,-y,1/2+z
x,-y,-z
-x,y,1/2-z
1/2+x,1/2+y,z
1/2-x,1/2-y,1/2+z
1/2+x,1/2-y,-z
1/2-x,1/2+y,1/2-z
loop_
_atom_site_type_symbol
_atom_site_label
_atom_site_fract_x
_atom_site_fract_y
_atom_site_fract_z
Si Si1 0.613321 0.835413 0.210458
Si Si2 0.394752 0.569319 0.874383
Si Si3 0.715217 0.542429 0.725604
Si Si4 0.222145 0.209600 0.137804
Si Si5 0.463418 0.168076 0.495479
Si Si6 0.537579 0.324540 0.647655
Si Si7 0.395014 0.170688 0.278856
Si Si8 0.202357 0.629264 0.077837
O O1 0.669074 0.774285 0.185815
O O2 0.580266 0.812444 0.093743
O O3 0.589016 0.756414 0.319025
O O4 0.609391 0.001832 0.240270
O O5 0.343466 0.527979 0.806950
O O6 0.446591 0.488176 0.841833
O O7 0.399812 0.733846 0.834740
O O8 0.386308 0.500000 0.000000
O O9 0.735119 0.701421 0.705923
O O10 0.723948 0.458175 0.842693
O O11 0.751957 0.450271 0.642039
O O12 0.225178 0.255486 0.007282
O O13 0.509817 0.269427 0.534192
O O14 0.439983 0.198797 0.370847
O O15 0.477944 0.000000 0.500000
O O16 0.500000 0.285198 0.750000
O O17 0.342780 0.197248 0.349101
O O18 0.178520 0.500000 0.000000
#
# Coordination Sequence:
#
# PCOD9316760 Si02
#       8
#     8   8   8   8   8   8   8   8
#     4  10  18  39  68  98 127 163 212 287 343 395
#     4  12  27  43  58  89 139 180 215 264 346 416
#     4  11  23  38  61  92 133 179 213 267 340 402
#     4  11  20  38  64  93 132 170 221 272 333 408
#     4   9  19  38  72 102 120 159 233 292 338 395
#     4  10  23  43  65  91 129 171 210 275 349 402
#     4  11  20  39  70  99 121 168 236 283 330 413
#     4  10  18  36  67  93 126 169 224 284 330 389
#
# _framework density 22.198533999999999
#
# number of rings (size 3 to 8) (size 9 to 14) (size 15 to 20)
#    0.000    1.500    5.000    2.250    0.000    2.000 
#    0.000   10.000    0.000    0.000    0.000    0.000 
#    0.000    0.000    0.000    0.000    0.000    0.000 
#
# Total GULP energy -178518.991682 kJ/mol
# GULP energy per Si atom -5578.718490 kJ/mol
# Density = 2.214801 g / cm^3
# Si number density = 22.198534 Si / 1000 Ang^3
#
#
#
# Elastic Constant Matrix: (Units=GPa)
#
#
# Indices 1 2 3 4 5 6 
#
# 1 74.7204 8.6157 1.0555 0.0000 0.0000 0.0000
# 2 8.6157 73.9234 32.2059 0.0000 0.0000 0.0000
# 3 1.0555 32.2059 42.1165 0.0000 0.0000 0.0000
# 4 0.0000 0.0000 0.0000 38.3069 0.0000 0.0000
# 5 0.0000 0.0000 0.0000 0.0000 33.3832 0.0000
# 6 0.0000 0.0000 0.0000 0.0000 0.0000 30.8152
#
#
#
# Elastic Compliance Matrix: (Units=1/GPa)
#
#
# Indices 1 2 3 4 5 6 
#
# 1 0.013613 -0.002156 0.001308 0.000000 0.000000 0.000000
# 2 -0.002156 0.020627 -0.015719 0.000000 0.000000 0.000000
# 3 0.001308 -0.015719 0.035731 0.000000 0.000000 0.000000
# 4 0.000000 0.000000 0.000000 0.026105 0.000000 0.000000
# 5 0.000000 0.000000 0.000000 0.000000 0.029955 0.000000
# 6 0.000000 0.000000 0.000000 0.000000 0.000000 0.032452
#
#
# Mechanical properties :
#
#
# Convention : Reuss Voigt Hill
#
# Bulk Modulus (GPa) = 27.14731 30.50160 28.82446
# Shear Modulus (GPa) = 24.52207 30.42661 27.47434
#
# Velocity S-wave (km/s) = 3.32726 3.70626 3.52186
# Velocity P-wave (km/s) = 5.19777 5.66439 5.43609
#
# Compressibility (1/GPa) = 0.03683606
#
# Stress axis : x y z
#
# Youngs Moduli (GPa) = 73.45708 48.47966 27.98673
#
# Poissons Ratio (x) = 0.10454 -0.03660
# Poissons Ratio (y) = 0.15840 0.43993
# Poissons Ratio (z) = -0.09607 0.76207
#
# Static dielectric constant tensor:
#      x y z
#    x 1.822840 0.000000 0.000000 
#    y 0.000000 1.910690 0.000000 
#    z 0.000000 0.000000 1.878610 
# 
# From -- ./inp_files/17231.got.cif
#   From: 2010.05.17/outbox.cif.g08.bks.cpg/sg20_9_cif.got.tgz:17231.got - 2010.06.03 22:52:26.
