data_PCOD9316618
_publ_section_title
;
Structure prediction by ZEFSAII (Michael W. Deem and Ramdas Pophale) SiO2 
 PCOD9316618
Probable space group: C 2 2 21
;
_chemical_formula_sum "Si O2"
_cell_formula_units_Z 60
_cell_length_a 5.037901
_cell_length_b 18.449673
_cell_length_c 31.972464
_cell_angle_alpha 90.000000
_cell_angle_beta 90.000000
_cell_angle_gamma 90.000000
_cell_volume 2971.764628
_symmetry_space_group_name_H-M "C 2 2 21"
_symmetry_group_IT_number 20
_symmetry_cell_setting 'orthorhombic'
loop_
_space_group_symop_operation_xyz
x,y,z
-x,-y,1/2+z
x,-y,-z
-x,y,1/2-z
1/2+x,1/2+y,z
1/2-x,1/2-y,1/2+z
1/2+x,1/2-y,-z
1/2-x,1/2+y,1/2-z
loop_
_atom_site_type_symbol
_atom_site_label
_atom_site_fract_x
_atom_site_fract_y
_atom_site_fract_z
Si Si1 0.670810 0.084784 0.508757
Si Si2 0.000000 0.930651 0.250000
Si Si3 0.340724 0.178631 0.706177
Si Si4 0.329372 0.372836 0.060366
Si Si5 0.750144 0.160296 0.280821
Si Si6 0.714872 0.270998 0.973883
Si Si7 0.890262 0.559239 0.644170
Si Si8 0.867219 0.982819 0.676485
O O1 0.372715 0.099589 0.524346
O O2 0.734803 0.142837 0.471702
O O3 0.875099 0.108853 0.545303
O O4 0.707873 0.000000 0.500000
O O5 0.099623 0.874768 0.284419
O O6 0.190347 0.982054 0.222873
O O7 0.500000 0.178192 0.750000
O O8 0.246975 0.259740 0.699056
O O9 0.471128 0.133239 0.669128
O O10 0.285706 0.285650 0.062659
O O11 0.241367 0.413878 0.101740
O O12 0.500000 0.149868 0.250000
O O13 0.000000 0.156914 0.250000
O O14 0.801390 0.100537 0.315928
O O15 0.416178 0.255760 0.989237
O O16 0.669707 0.505818 0.665867
O O17 0.163821 0.515374 0.643145
#
# Coordination Sequence:
#
# PCOD9316618 Si02
#       8
#     8   4   8   8   8   8   8   8
#     4  10  19  35  62  89 114 142 187 226 269 330
#     4  10  18  34  52  80  98 138 190 244 258 334
#     4  10  20  35  54  78 107 139 194 235 272 326
#     4  10  20  37  55  84 119 147 183 225 279 333
#     4  11  22  35  54  79 104 135 181 253 294 319
#     4   8  16  31  55  81 107 140 177 216 258 321
#     4  11  23  37  57  79 113 153 185 233 282 336
#     4  11  22  35  56  79 108 144 192 230 293 328
#
# _framework density 20.190021999999999
#
# number of rings (size 3 to 8) (size 9 to 14) (size 15 to 20)
#    0.000    1.867    2.667    2.000    1.867    0.000 
#    0.000    2.667    0.000    0.000    0.000    0.000 
#    0.000    0.000    0.000    0.000    0.000    0.000 
#
# Total GULP energy -167045.279433 kJ/mol
# GULP energy per Si atom -5568.175981 kJ/mol
# Density = 2.014407 g / cm^3
# Si number density = 20.190022 Si / 1000 Ang^3
#
#
#
# Elastic Constant Matrix: (Units=GPa)
#
#
# Indices 1 2 3 4 5 6 
#
# 1 79.1017 4.0861 -7.7532 0.0000 0.0000 0.0000
# 2 4.0861 125.4386 0.0933 0.0000 0.0000 0.0000
# 3 -7.7532 0.0933 7.9682 0.0000 0.0000 0.0000
# 4 0.0000 0.0000 0.0000 -6.1570 0.0000 0.0000
# 5 0.0000 0.0000 0.0000 0.0000 17.1609 0.0000
# 6 0.0000 0.0000 0.0000 0.0000 0.0000 26.7408
#
#
#
# Elastic Compliance Matrix: (Units=1/GPa)
#
#
# Indices 1 2 3 4 5 6 
#
# 1 0.014002 -0.000466 0.013630 0.000000 0.000000 0.000000
# 2 -0.000466 0.007988 -0.000547 0.000000 0.000000 0.000000
# 3 0.013630 -0.000547 0.138767 0.000000 0.000000 0.000000
# 4 0.000000 0.000000 0.000000 -0.162416 0.000000 0.000000
# 5 0.000000 0.000000 0.000000 0.000000 0.058272 0.000000
# 6 0.000000 0.000000 0.000000 0.000000 0.000000 0.037396
#
#
# Mechanical properties :
#
#
# Convention : Reuss Voigt Hill
#
# Bulk Modulus (GPa) = 5.37665 22.81788 14.09727
# Shear Modulus (GPa) = 38.23403 21.95441 30.09422
#
# Velocity S-wave (km/s) = 4.35640 3.30114 3.86495
# Velocity P-wave (km/s) = 5.28896 5.08489 5.18793
#
# Compressibility (1/GPa) = 0.18598934
#
# Stress axis : x y z
#
# Youngs Moduli (GPa) = 71.41856 125.19368 7.20630
#
# Poissons Ratio (x) = 0.05837 -0.09822
# Poissons Ratio (y) = 0.03330 0.00394
# Poissons Ratio (z) = -0.97341 0.06851
#
# Static dielectric constant tensor:
#      x y z
#    x 1.769870 0.000000 0.000000 
#    y 0.000000 1.761760 0.000000 
#    z 0.000000 0.000000 1.239660 
# 
# From -- ./inp_files/30818.got.cif
#   From: 2010.05.17/outbox.cif.g08.bks.cpg/sg20_16_cif.got.tgz:30818.got - 2010.06.03 22:52:26.
