data_PCOD9316280
_publ_section_title
;
Structure prediction by ZEFSAII (Michael W. Deem and Ramdas Pophale) SiO2 
 PCOD9316280
Probable space group: C 2 2 21
;
_chemical_formula_sum "Si O2"
_cell_formula_units_Z 28
_cell_length_a 11.304355
_cell_length_b 17.305329
_cell_length_c 5.008513
_cell_angle_alpha 90.000000
_cell_angle_beta 90.000000
_cell_angle_gamma 90.000000
_cell_volume 979.793273
_symmetry_space_group_name_H-M "C 2 2 21"
_symmetry_group_IT_number 20
_symmetry_cell_setting 'orthorhombic'
loop_
_space_group_symop_operation_xyz
x,y,z
-x,-y,1/2+z
x,-y,-z
-x,y,1/2-z
1/2+x,1/2+y,z
1/2-x,1/2-y,1/2+z
1/2+x,1/2-y,-z
1/2-x,1/2+y,1/2-z
loop_
_atom_site_type_symbol
_atom_site_label
_atom_site_fract_x
_atom_site_fract_y
_atom_site_fract_z
Si Si1 0.641829 0.828475 0.590358
Si Si2 0.174444 0.427156 0.060532
Si Si3 0.619964 0.666305 0.360809
Si Si4 0.883140 0.500000 0.000000
O O1 0.606297 0.859395 0.883095
O O2 0.591322 0.748955 0.491476
O O3 0.782975 0.816029 0.629782
O O4 0.627879 0.902185 0.383493
O O5 0.306552 0.387107 0.061652
O O6 0.197547 0.484656 0.771349
O O7 0.025435 0.500000 0.000000
O O8 0.500000 0.631498 0.250000
#
# Coordination Sequence:
#
# PCOD9316280 Si02
#       4
#     8   8   8   4
#     4   9  20  35  60  91 130 174 231 280 341 413
#     4   8  18  34  58  90 127 179 222 280 352 411
#     4  10  20  39  62  97 137 182 227 286 348 413
#     4  10  16  38  64  86 126 176 226 296 346 396
#
# _framework density 28.577455
#
# number of rings (size 3 to 8) (size 9 to 14) (size 15 to 20)
#    1.714    1.143    0.000    1.714    0.000    0.000 
#    2.571    5.714    0.000    3.429    0.000    0.000 
#    0.000    0.000    0.000    0.000    0.000    0.000 
#
# Total GULP energy -78093.433082 kJ/mol
# GULP energy per Si atom -5578.102363 kJ/mol
# Density = 2.851241 g / cm^3
# Si number density = 28.577455 Si / 1000 Ang^3
#
#
#
# Elastic Constant Matrix: (Units=GPa)
#
#
# Indices 1 2 3 4 5 6 
#
# 1 130.2447 39.2150 66.3573 0.0000 0.0000 0.0000
# 2 39.2150 214.1760 85.9984 0.0000 0.0000 0.0000
# 3 66.3573 85.9984 260.5568 0.0000 0.0000 0.0000
# 4 0.0000 0.0000 0.0000 82.5758 0.0000 0.0000
# 5 0.0000 0.0000 0.0000 0.0000 49.5158 0.0000
# 6 0.0000 0.0000 0.0000 0.0000 0.0000 103.7763
#
#
#
# Elastic Compliance Matrix: (Units=1/GPa)
#
#
# Indices 1 2 3 4 5 6 
#
# 1 0.008950 -0.000834 -0.002004 0.000000 0.000000 0.000000
# 2 -0.000834 0.005460 -0.001590 0.000000 0.000000 0.000000
# 3 -0.002004 -0.001590 0.004873 0.000000 0.000000 0.000000
# 4 0.000000 0.000000 0.000000 0.012110 0.000000 0.000000
# 5 0.000000 0.000000 0.000000 0.000000 0.020196 0.000000
# 6 0.000000 0.000000 0.000000 0.000000 0.000000 0.009636
#
#
# Mechanical properties :
#
#
# Convention : Reuss Voigt Hill
#
# Bulk Modulus (GPa) = 95.90052 109.79099 102.84575
# Shear Modulus (GPa) = 67.97506 74.73401 71.35454
#
# Velocity S-wave (km/s) = 4.88241 5.11939 5.00230
# Velocity P-wave (km/s) = 8.08794 8.57009 8.33250
#
# Compressibility (1/GPa) = 0.01042747
#
# Stress axis : x y z
#
# Youngs Moduli (GPa) = 111.73178 183.14704 205.21152
#
# Poissons Ratio (x) = 0.15275 0.41126
# Poissons Ratio (y) = 0.09319 0.32623
# Poissons Ratio (z) = 0.22392 0.29115
#
# Static dielectric constant tensor:
#      x y z
#    x 2.156490 0.000000 0.000000 
#    y 0.000000 2.579210 0.000000 
#    z 0.000000 0.000000 2.608760 
# 
# From -- ./inp_files/7775.got.cif
#   From: 2010.05.17/outbox.cif.g08.bks.cpg/sg20_4_cif.got.tgz:7775.got - 2010.06.03 22:52:26.
