data_PCOD9316944
_publ_section_title
;
Structure prediction by ZEFSAII (Michael W. Deem and Ramdas Pophale) SiO2 
 PCOD9316944
Probable space group: C 2 2 21
;
_chemical_formula_sum "Si O2"
_cell_formula_units_Z 52
_cell_length_a 35.393257
_cell_length_b 20.579258
_cell_length_c 5.189687
_cell_angle_alpha 90.000000
_cell_angle_beta 90.000000
_cell_angle_gamma 90.000000
_cell_volume 3779.996581
_symmetry_space_group_name_H-M "C 2 2 21"
_symmetry_group_IT_number 20
_symmetry_cell_setting 'orthorhombic'
loop_
_space_group_symop_operation_xyz
x,y,z
-x,-y,1/2+z
x,-y,-z
-x,y,1/2-z
1/2+x,1/2+y,z
1/2-x,1/2-y,1/2+z
1/2+x,1/2-y,-z
1/2-x,1/2+y,1/2-z
loop_
_atom_site_type_symbol
_atom_site_label
_atom_site_fract_x
_atom_site_fract_y
_atom_site_fract_z
Si Si1 0.784929 0.000000 0.500000
Si Si2 0.477046 0.579019 0.999696
Si Si3 0.610308 0.422374 0.455681
Si Si4 0.712617 0.188787 0.702604
Si Si5 0.709865 0.963252 0.256399
Si Si6 0.799779 0.230266 0.695730
Si Si7 0.654527 0.612236 0.046624
O O1 0.755331 0.024084 0.716095
O O2 0.811710 0.059744 0.427805
O O3 0.500000 0.600579 0.250000
O O4 0.433223 0.597757 0.991059
O O5 0.477043 0.500000 0.000000
O O6 0.500000 0.600708 0.750000
O O7 0.613687 0.500000 0.500000
O O8 0.624352 0.412047 0.164628
O O9 0.635488 0.385628 0.671361
O O10 0.703413 0.112770 0.701504
O O11 0.758077 0.197791 0.689346
O O12 0.696112 0.234410 0.473193
O O13 0.700363 0.214691 0.979250
O O14 0.692673 0.000000 0.500000
O O15 0.697357 0.000000 0.000000
O O16 0.828516 0.176461 0.587780
#
# Coordination Sequence:
#
# PCOD9316944 Si02
#       7
#     4   8   8   8   8   8   8
#     4  10  22  28  44  60  80 108 128 176 226 266
#     4   9  17  30  45  58  78 102 130 163 205 252
#     4  11  21  30  44  64  81 105 134 171 214 263
#     4  10  19  32  44  59  75 104 142 163 207 264
#     4  10  20  30  46  62  78  96 134 174 224 253
#     4  10  20  31  44  56  79 109 135 169 202 259
#     4  12  21  32  42  62  86 107 135 172 223 262
#
# _framework density 13.756626000000001
#
# number of rings (size 3 to 8) (size 9 to 14) (size 15 to 20)
#    0.462    1.231    3.077    2.769    2.154    3.692 
#    0.000    0.000    0.000    0.000    0.000    0.000 
#    0.000    0.000    0.000    0.000    0.000    0.000 
#
# Total GULP energy -144777.461885 kJ/mol
# GULP energy per Si atom -5568.363919 kJ/mol
# Density = 1.372532 g / cm^3
# Si number density = 13.756626 Si / 1000 Ang^3
#
#
#
# Elastic Constant Matrix: (Units=GPa)
#
#
# Indices 1 2 3 4 5 6 
#
# 1 30.6561 -6.0590 -2.7322 0.0000 0.0000 0.0000
# 2 -6.0590 56.3873 -5.4288 0.0000 0.0000 0.0000
# 3 -2.7322 -5.4288 60.6966 0.0000 0.0000 0.0000
# 4 0.0000 0.0000 0.0000 17.1728 0.0000 0.0000
# 5 0.0000 0.0000 0.0000 0.0000 4.4217 0.0000
# 6 0.0000 0.0000 0.0000 0.0000 0.0000 4.2927
#
#
#
# Elastic Compliance Matrix: (Units=1/GPa)
#
#
# Indices 1 2 3 4 5 6 
#
# 1 0.033532 0.003781 0.001848 0.000000 0.000000 0.000000
# 2 0.003781 0.018315 0.001808 0.000000 0.000000 0.000000
# 3 0.001848 0.001808 0.016720 0.000000 0.000000 0.000000
# 4 0.000000 0.000000 0.000000 0.058232 0.000000 0.000000
# 5 0.000000 0.000000 0.000000 0.000000 0.226156 0.000000
# 6 0.000000 0.000000 0.000000 0.000000 0.000000 0.232953
#
#
# Mechanical properties :
#
#
# Convention : Reuss Voigt Hill
#
# Bulk Modulus (GPa) = 11.98452 13.25553 12.62003
# Shear Modulus (GPa) = 8.34937 15.97478 12.16208
#
# Velocity S-wave (km/s) = 2.46628 3.41140 2.97659
# Velocity P-wave (km/s) = 4.10375 5.01732 4.58335
#
# Compressibility (1/GPa) = 0.08344096
#
# Stress axis : x y z
#
# Youngs Moduli (GPa) = 29.82236 54.60039 59.80752
#
# Poissons Ratio (x) = -0.20645 -0.11050
# Poissons Ratio (y) = -0.11276 -0.10815
# Poissons Ratio (z) = -0.05510 -0.09873
#
# Static dielectric constant tensor:
#      x y z
#    x 1.445230 0.000000 0.000000 
#    y 0.000000 1.471870 0.000000 
#    z 0.000000 0.000000 1.470890 
# 
# From -- ./inp_files/4760.got.cif
#   From: 2010.05.17/outbox.cif.g08.bks.cpg/sg20_3_cif.got.tgz:4760.got - 2010.06.03 22:52:26.
