data_PCOD9316865
_publ_section_title
;
Structure prediction by ZEFSAII (Michael W. Deem and Ramdas Pophale) SiO2 
 PCOD9316865
Probable space group: C 2 2 21
;
_chemical_formula_sum "Si O2"
_cell_formula_units_Z 44
_cell_length_a 24.022717
_cell_length_b 10.519195
_cell_length_c 9.802738
_cell_angle_alpha 90.000000
_cell_angle_beta 90.000000
_cell_angle_gamma 90.000000
_cell_volume 2477.148408
_symmetry_space_group_name_H-M "C 2 2 21"
_symmetry_group_IT_number 20
_symmetry_cell_setting 'orthorhombic'
loop_
_space_group_symop_operation_xyz
x,y,z
-x,-y,1/2+z
x,-y,-z
-x,y,1/2-z
1/2+x,1/2+y,z
1/2-x,1/2-y,1/2+z
1/2+x,1/2-y,-z
1/2-x,1/2+y,1/2-z
loop_
_atom_site_type_symbol
_atom_site_label
_atom_site_fract_x
_atom_site_fract_y
_atom_site_fract_z
Si Si1 0.910005 0.638126 0.933358
Si Si2 0.905239 0.954188 0.653240
Si Si3 0.741376 0.361658 0.468104
Si Si4 0.614110 0.614567 0.604220
Si Si5 0.500000 0.267211 0.750000
Si Si6 0.685270 0.257951 0.735204
O O1 0.964146 0.678167 0.848577
O O2 0.857212 0.656027 0.831487
O O3 0.911747 0.500000 0.000000
O O4 0.903624 0.750235 0.045023
O O5 0.957704 0.860129 0.669386
O O6 0.853415 0.875708 0.717775
O O7 0.896407 0.000000 0.500000
O O8 0.911074 0.075687 0.751738
O O9 0.765495 0.500000 0.500000
O O10 0.681365 0.382023 0.395612
O O11 0.726462 0.296079 0.611968
O O12 0.781247 0.288179 0.366120
O O13 0.598223 0.500000 0.500000
#
# Coordination Sequence:
#
# PCOD9316865 Si02
#       6
#     8   8   8   8   4   8
#     4  10  22  43  63  88 129 165 199 256 316 374
#     4  11  23  39  64  96 120 154 215 267 296 364
#     4  10  20  36  59  86 123 167 200 249 302 368
#     4  10  18  42  64  83 124 162 201 252 308 356
#     4  10  22  42  64  90 124 156 208 266 310 360
#     4  10  22  38  59  90 125 163 207 253 303 362
#
# _framework density 17.762359
#
# number of rings (size 3 to 8) (size 9 to 14) (size 15 to 20)
#    0.000    1.818    7.273    0.000    5.091    2.909 
#    3.273    1.818    0.000    0.000    0.000    0.000 
#    0.000    0.000    0.000    0.000    0.000    0.000 
#
# Total GULP energy -122715.100836 kJ/mol
# GULP energy per Si atom -5577.959129 kJ/mol
# Density = 1.772193 g / cm^3
# Si number density = 17.762359 Si / 1000 Ang^3
#
#
#
# Elastic Constant Matrix: (Units=GPa)
#
#
# Indices 1 2 3 4 5 6 
#
# 1 68.3429 50.3748 59.9092 0.0000 0.0000 0.0000
# 2 50.3748 125.7151 62.7755 0.0000 0.0000 0.0000
# 3 59.9092 62.7755 138.3582 0.0000 0.0000 0.0000
# 4 0.0000 0.0000 0.0000 37.1581 0.0000 0.0000
# 5 0.0000 0.0000 0.0000 0.0000 16.1333 0.0000
# 6 0.0000 0.0000 0.0000 0.0000 0.0000 -1.7446
#
#
#
# Elastic Compliance Matrix: (Units=1/GPa)
#
#
# Indices 1 2 3 4 5 6 
#
# 1 0.027122 -0.006470 -0.008809 0.000000 0.000000 0.000000
# 2 -0.006470 0.011828 -0.002565 0.000000 0.000000 0.000000
# 3 -0.008809 -0.002565 0.012206 0.000000 0.000000 0.000000
# 4 0.000000 0.000000 0.000000 0.026912 0.000000 0.000000
# 5 0.000000 0.000000 0.000000 0.000000 0.061983 0.000000
# 6 0.000000 0.000000 0.000000 0.000000 0.000000 -0.573200
#
#
# Mechanical properties :
#
#
# Convention : Reuss Voigt Hill
#
# Bulk Modulus (GPa) = 64.64507 75.39280 70.01894
# Shear Modulus (GPa) = -12.74515 20.93315 4.09400
#
# Velocity S-wave (km/s) = -2.68159 3.43667 1.51983
# Velocity P-wave (km/s) = 5.18512 7.63446 6.52574
#
# Compressibility (1/GPa) = 0.01546908
#
# Stress axis : x y z
#
# Youngs Moduli (GPa) = 36.86994 84.54672 81.92936
#
# Poissons Ratio (x) = 0.54698 0.72169
# Poissons Ratio (y) = 0.23853 0.21016
# Poissons Ratio (z) = 0.32478 0.21688
#
# Static dielectric constant tensor:
#      x y z
#    x 1.614370 0.000000 0.000000 
#    y 0.000000 1.600840 0.000000 
#    z 0.000000 0.000000 1.624220 
# 
# From -- ./inp_files/10592.got.cif
#   From: 2010.05.17/outbox.cif.g08.bks.cpg/sg20_6_cif.got.tgz:10592.got - 2010.06.03 22:52:26.
