data_PCOD9316258
_publ_section_title
;
Structure prediction by ZEFSAII (Michael W. Deem and Ramdas Pophale) SiO2 
 PCOD9316258
Probable space group: C 2 2 21
;
_chemical_formula_sum "Si O2"
_cell_formula_units_Z 48
_cell_length_a 16.345488
_cell_length_b 7.358427
_cell_length_c 18.603602
_cell_angle_alpha 90.000000
_cell_angle_beta 90.000000
_cell_angle_gamma 90.000000
_cell_volume 2237.586930
_symmetry_space_group_name_H-M "C 2 2 21"
_symmetry_group_IT_number 20
_symmetry_cell_setting 'orthorhombic'
loop_
_space_group_symop_operation_xyz
x,y,z
-x,-y,1/2+z
x,-y,-z
-x,y,1/2-z
1/2+x,1/2+y,z
1/2-x,1/2-y,1/2+z
1/2+x,1/2-y,-z
1/2-x,1/2+y,1/2-z
loop_
_atom_site_type_symbol
_atom_site_label
_atom_site_fract_x
_atom_site_fract_y
_atom_site_fract_z
Si Si1 0.775430 0.180193 0.773266
Si Si2 0.995812 0.879311 0.667949
Si Si3 0.062663 0.706996 0.191169
Si Si4 0.826618 0.261475 0.564892
Si Si5 0.829633 0.825778 0.596779
Si Si6 0.326311 0.312500 0.843361
O O1 0.851918 0.275207 0.734440
O O2 0.738342 0.265684 0.845638
O O3 0.704656 0.160564 0.712829
O O4 0.813321 0.988079 0.793759
O O5 0.917464 0.793879 0.631806
O O6 0.000000 0.819250 0.750000
O O7 0.080519 0.817286 0.632589
O O8 0.980881 0.098075 0.672148
O O9 0.099691 0.650959 0.112514
O O10 0.000000 0.620063 0.250000
O O11 0.828204 0.275100 0.479404
O O12 0.739144 0.326373 0.593714
O O13 0.826442 0.043416 0.582470
#
# Coordination Sequence:
#
# PCOD9316258 Si02
#       6
#     8   8   8   8   8   8
#     4  11  19  32  59  84 111 144 180 235 276 339
#     4  10  16  34  59  83 106 143 192 236 263 339
#     4   9  16  32  55  82 105 133 193 237 261 318
#     4   9  21  37  56  81 113 152 185 235 286 344
#     4  10  20  38  58  78 115 152 188 230 294 326
#     4  11  20  34  60  86 111 142 191 226 284 330
#
# _framework density 21.451682000000002
#
# number of rings (size 3 to 8) (size 9 to 14) (size 15 to 20)
#    0.000    2.000    5.000    2.000    0.000    0.667 
#    3.000    1.667   22.000    0.000    0.000    0.000 
#    0.000    0.000    0.000    0.000    0.000    0.000 
#
# Total GULP energy -133826.346654 kJ/mol
# GULP energy per Si atom -5576.097777 kJ/mol
# Density = 2.140286 g / cm^3
# Si number density = 21.451682 Si / 1000 Ang^3
#
#
#
# Elastic Constant Matrix: (Units=GPa)
#
#
# Indices 1 2 3 4 5 6 
#
# 1 126.2956 -1.7140 38.0510 0.0000 0.0000 0.0000
# 2 -1.7140 37.0068 -2.3849 0.0000 0.0000 0.0000
# 3 38.0510 -2.3849 133.2442 0.0000 0.0000 0.0000
# 4 0.0000 0.0000 0.0000 16.9286 0.0000 0.0000
# 5 0.0000 0.0000 0.0000 0.0000 32.1980 0.0000
# 6 0.0000 0.0000 0.0000 0.0000 0.0000 16.4192
#
#
#
# Elastic Compliance Matrix: (Units=1/GPa)
#
#
# Indices 1 2 3 4 5 6 
#
# 1 0.008665 0.000242 -0.002470 0.000000 0.000000 0.000000
# 2 0.000242 0.027060 0.000415 0.000000 0.000000 0.000000
# 3 -0.002470 0.000415 0.008218 0.000000 0.000000 0.000000
# 4 0.000000 0.000000 0.000000 0.059072 0.000000 0.000000
# 5 0.000000 0.000000 0.000000 0.000000 0.031058 0.000000
# 6 0.000000 0.000000 0.000000 0.000000 0.000000 0.060904
#
#
# Mechanical properties :
#
#
# Convention : Reuss Voigt Hill
#
# Bulk Modulus (GPa) = 24.80313 40.49455 32.64884
# Shear Modulus (GPa) = 23.58018 30.61545 27.09781
#
# Velocity S-wave (km/s) = 3.31905 3.78190 3.55801
# Velocity P-wave (km/s) = 5.12597 6.16348 5.66851
#
# Compressibility (1/GPa) = 0.04031749
#
# Stress axis : x y z
#
# Youngs Moduli (GPa) = 115.40040 36.95488 121.68563
#
# Poissons Ratio (x) = -0.00895 0.30060
# Poissons Ratio (y) = -0.02794 -0.05052
# Poissons Ratio (z) = 0.28507 -0.01534
#
# Static dielectric constant tensor:
#      x y z
#    x 1.788170 0.000000 0.000000 
#    y 0.000000 1.909610 0.000000 
#    z 0.000000 0.000000 1.789670 
# 
# From -- ./inp_files/27447.got.cif
#   From: 2010.05.17/outbox.cif.g08.bks.cpg/sg20_14_cif.got.tgz:27447.got - 2010.06.03 22:52:26.
