data_PCOD9316823
_publ_section_title
;
Structure prediction by ZEFSAII (Michael W. Deem and Ramdas Pophale) SiO2 
 PCOD9316823
Probable space group: C 2 2 21
;
_chemical_formula_sum "Si O2"
_cell_formula_units_Z 48
_cell_length_a 32.381246
_cell_length_b 8.310673
_cell_length_c 7.460562
_cell_angle_alpha 90.000000
_cell_angle_beta 90.000000
_cell_angle_gamma 90.000000
_cell_volume 2007.711443
_symmetry_space_group_name_H-M "C 2 2 21"
_symmetry_group_IT_number 20
_symmetry_cell_setting 'orthorhombic'
loop_
_space_group_symop_operation_xyz
x,y,z
-x,-y,1/2+z
x,-y,-z
-x,y,1/2-z
1/2+x,1/2+y,z
1/2-x,1/2-y,1/2+z
1/2+x,1/2-y,-z
1/2-x,1/2+y,1/2-z
loop_
_atom_site_type_symbol
_atom_site_label
_atom_site_fract_x
_atom_site_fract_y
_atom_site_fract_z
Si Si1 0.620034 0.144600 0.133753
Si Si2 0.356790 0.500000 0.000000
Si Si3 0.933696 0.108429 0.777395
Si Si4 0.598192 0.000000 0.500000
Si Si5 0.793572 0.604974 0.274856
Si Si6 0.037967 0.233091 0.362749
Si Si7 0.206751 0.253152 0.376184
O O1 0.581514 0.269528 0.125161
O O2 0.668631 0.185004 0.112634
O O3 0.621985 0.079652 0.338231
O O4 0.610860 0.000000 0.000000
O O5 0.389158 0.592082 0.874964
O O6 0.329945 0.378472 0.879999
O O7 0.947934 0.925769 0.752611
O O8 0.965972 0.176151 0.927173
O O9 0.571136 0.870422 0.393475
O O10 0.796798 0.410385 0.251713
O O11 0.749288 0.658068 0.348916
O O12 0.793730 0.677441 0.076135
O O13 0.000000 0.298727 0.250000
#
# Coordination Sequence:
#
# PCOD9316823 Si02
#       7
#     8   4   8   4   8   8   8
#     4  11  24  44  68 102 141 190 246 298 360 450
#     4  10  18  38  68  90 133 194 235 298 374 444
#     4   9  21  41  69 103 135 193 242 295 380 442
#     4  10  22  46  70 104 149 190 235 286 382 424
#     4  11  25  39  64  96 134 188 236 312 366 434
#     4   9  19  41  72 105 138 187 233 294 362 450
#     4  11  23  40  61  95 135 181 246 298 381 422
#
# _framework density 23.907817999999999
#
# number of rings (size 3 to 8) (size 9 to 14) (size 15 to 20)
#    0.000    2.000    1.667    2.000    8.167    0.000 
#    7.500    4.167    0.000    0.000    0.000    0.000 
#    0.000    0.000    0.000    0.000    0.000    0.000 
#
# Total GULP energy -133889.685297 kJ/mol
# GULP energy per Si atom -5578.736887 kJ/mol
# Density = 2.385340 g / cm^3
# Si number density = 23.907818 Si / 1000 Ang^3
#
#
#
# Elastic Constant Matrix: (Units=GPa)
#
#
# Indices 1 2 3 4 5 6 
#
# 1 64.1373 -1.3128 29.3353 0.0000 0.0000 0.0000
# 2 -1.3128 60.2631 11.0198 0.0000 0.0000 0.0000
# 3 29.3353 11.0198 75.9202 0.0000 0.0000 0.0000
# 4 0.0000 0.0000 0.0000 41.7886 0.0000 0.0000
# 5 0.0000 0.0000 0.0000 0.0000 6.8527 0.0000
# 6 0.0000 0.0000 0.0000 0.0000 0.0000 -14.3555
#
#
#
# Elastic Compliance Matrix: (Units=1/GPa)
#
#
# Indices 1 2 3 4 5 6 
#
# 1 0.019130 0.001817 -0.007656 0.000000 0.000000 0.000000
# 2 0.001817 0.017219 -0.003201 0.000000 0.000000 0.000000
# 3 -0.007656 -0.003201 0.016594 0.000000 0.000000 0.000000
# 4 0.000000 0.000000 0.000000 0.023930 0.000000 0.000000
# 5 0.000000 0.000000 0.000000 0.000000 0.145927 0.000000
# 6 0.000000 0.000000 0.000000 0.000000 0.000000 -0.069660
#
#
# Mechanical properties :
#
#
# Convention : Reuss Voigt Hill
#
# Bulk Modulus (GPa) = 28.68348 30.93390 29.80869
# Shear Modulus (GPa) = 27.34601 17.60906 22.47754
#
# Velocity S-wave (km/s) = 3.38570 2.71687 3.06955
# Velocity P-wave (km/s) = 5.22566 4.77585 5.00581
#
# Compressibility (1/GPa) = 0.03486327
#
# Stress axis : x y z
#
# Youngs Moduli (GPa) = 52.27327 58.07581 60.26108
#
# Poissons Ratio (x) = -0.10550 0.46133
# Poissons Ratio (y) = -0.09496 0.19291
# Poissons Ratio (z) = 0.40018 0.18592
#
# Static dielectric constant tensor:
#      x y z
#    x 1.942790 0.000000 0.000000 
#    y 0.000000 2.158320 0.000000 
#    z 0.000000 0.000000 1.999790 
# 
# From -- ./inp_files/11491.got.cif
#   From: 2010.05.17/outbox.cif.g08.bks.cpg/sg20_6_cif.got.tgz:11491.got - 2010.06.03 22:52:26.
