data_PCOD9316329
_publ_section_title
;
Structure prediction by ZEFSAII (Michael W. Deem and Ramdas Pophale) SiO2 
 PCOD9316329
Probable space group: C 2 2 21
;
_chemical_formula_sum "Si O2"
_cell_formula_units_Z 48
_cell_length_a 12.376972
_cell_length_b 15.026688
_cell_length_c 10.149270
_cell_angle_alpha 90.000000
_cell_angle_beta 90.000000
_cell_angle_gamma 90.000000
_cell_volume 1887.610932
_symmetry_space_group_name_H-M "C 2 2 21"
_symmetry_group_IT_number 20
_symmetry_cell_setting 'orthorhombic'
loop_
_space_group_symop_operation_xyz
x,y,z
-x,-y,1/2+z
x,-y,-z
-x,y,1/2-z
1/2+x,1/2+y,z
1/2-x,1/2-y,1/2+z
1/2+x,1/2-y,-z
1/2-x,1/2+y,1/2-z
loop_
_atom_site_type_symbol
_atom_site_label
_atom_site_fract_x
_atom_site_fract_y
_atom_site_fract_z
Si Si1 0.855676 0.000000 0.500000
Si Si2 0.330630 0.615863 0.911935
Si Si3 0.614214 0.675963 0.869182
Si Si4 0.682721 0.719372 0.339098
Si Si5 0.587955 0.192989 0.912658
Si Si6 0.000000 0.549835 0.750000
Si Si7 0.270550 0.042785 0.261401
O O1 0.918560 0.915841 0.441184
O O2 0.782620 0.030160 0.379592
O O3 0.390222 0.661322 0.787275
O O4 0.205370 0.647284 0.921658
O O5 0.307628 0.513721 0.862551
O O6 0.373891 0.663627 0.044512
O O7 0.745729 0.695978 0.885362
O O8 0.565702 0.756251 0.952966
O O9 0.609486 0.743662 0.214046
O O10 0.768782 0.646841 0.288569
O O11 0.502137 0.117524 0.874503
O O12 0.108907 0.494558 0.761371
#
# Coordination Sequence:
#
# PCOD9316329 Si02
#       7
#     4   8   8   8   8   4   8
#     4  10  18  34  56  84 110 152 204 264 294 354
#     4   8  17  29  52  80 109 139 198 259 291 342
#     4   9  17  31  53  80 108 147 205 251 295 351
#     4  10  17  31  57  80 108 152 208 248 293 360
#     4   9  17  33  54  77 111 157 197 240 294 371
#     4  10  22  38  52  90 132 160 190 246 324 380
#     4  10  19  34  53  84 119 157 195 249 309 368
#
# _framework density 25.42897
#
# number of rings (size 3 to 8) (size 9 to 14) (size 15 to 20)
#    0.000    2.667    1.667    1.500    0.000    0.000 
#    9.000    0.000    0.000    1.000    4.333    1.167 
#    0.000    0.000    0.000    0.000    0.000    0.000 
#
# Total GULP energy -133966.100015 kJ/mol
# GULP energy per Si atom -5581.920834 kJ/mol
# Density = 2.537109 g / cm^3
# Si number density = 25.428970 Si / 1000 Ang^3
#
#
#
# Elastic Constant Matrix: (Units=GPa)
#
#
# Indices 1 2 3 4 5 6 
#
# 1 51.5231 0.7594 -12.9057 0.0000 0.0000 0.0000
# 2 0.7594 84.6343 6.3004 0.0000 0.0000 0.0000
# 3 -12.9057 6.3004 88.9059 0.0000 0.0000 0.0000
# 4 0.0000 0.0000 0.0000 35.8301 0.0000 0.0000
# 5 0.0000 0.0000 0.0000 0.0000 11.1524 0.0000
# 6 0.0000 0.0000 0.0000 0.0000 0.0000 29.2024
#
#
#
# Elastic Compliance Matrix: (Units=1/GPa)
#
#
# Indices 1 2 3 4 5 6 
#
# 1 0.020155 -0.000401 0.002954 0.000000 0.000000 0.000000
# 2 -0.000401 0.011886 -0.000900 0.000000 0.000000 0.000000
# 3 0.002954 -0.000900 0.011740 0.000000 0.000000 0.000000
# 4 0.000000 0.000000 0.000000 0.027909 0.000000 0.000000
# 5 0.000000 0.000000 0.000000 0.000000 0.089667 0.000000
# 6 0.000000 0.000000 0.000000 0.000000 0.000000 0.034244
#
#
# Mechanical properties :
#
#
# Convention : Reuss Voigt Hill
#
# Bulk Modulus (GPa) = 21.23733 23.70795 22.47264
# Shear Modulus (GPa) = 24.03950 30.63094 27.33522
#
# Velocity S-wave (km/s) = 3.07800 3.47446 3.28222
# Velocity P-wave (km/s) = 4.58278 5.04373 4.81877
#
# Compressibility (1/GPa) = 0.04708690
#
# Stress axis : x y z
#
# Youngs Moduli (GPa) = 49.61641 84.13141 85.17541
#
# Poissons Ratio (x) = 0.03372 -0.25161
# Poissons Ratio (y) = 0.01988 0.07670
# Poissons Ratio (z) = -0.14657 0.07576
#
# Static dielectric constant tensor:
#      x y z
#    x 2.058120 0.000000 0.000000 
#    y 0.000000 2.037220 0.000000 
#    z 0.000000 0.000000 2.054650 
# 
# From -- ./inp_files/15066.got.cif
#   From: 2010.05.17/outbox.cif.g08.bks.cpg/sg20_8_cif.got.tgz:15066.got - 2010.06.03 22:52:26.
