data_PCOD9316559
_publ_section_title
;
Structure prediction by ZEFSAII (Michael W. Deem and Ramdas Pophale) SiO2 
 PCOD9316559
Probable space group: C 2 2 21
;
_chemical_formula_sum "Si O2"
_cell_formula_units_Z 40
_cell_length_a 22.352415
_cell_length_b 7.577831
_cell_length_c 12.040437
_cell_angle_alpha 90.000000
_cell_angle_beta 90.000000
_cell_angle_gamma 90.000000
_cell_volume 2039.443213
_symmetry_space_group_name_H-M "C 2 2 21"
_symmetry_group_IT_number 20
_symmetry_cell_setting 'orthorhombic'
loop_
_space_group_symop_operation_xyz
x,y,z
-x,-y,1/2+z
x,-y,-z
-x,y,1/2-z
1/2+x,1/2+y,z
1/2-x,1/2-y,1/2+z
1/2+x,1/2-y,-z
1/2-x,1/2+y,1/2-z
loop_
_atom_site_type_symbol
_atom_site_label
_atom_site_fract_x
_atom_site_fract_y
_atom_site_fract_z
Si Si1 0.246892 0.761622 0.737009
Si Si2 0.871525 0.637103 0.664730
Si Si3 0.677174 0.572366 0.622828
Si Si4 0.569558 0.514005 0.233106
Si Si5 0.138994 0.747654 0.088995
O O1 0.188532 0.643510 0.762158
O O2 0.288734 0.753088 0.847404
O O3 0.294380 0.725828 0.638619
O O4 0.213418 0.941251 0.704351
O O5 0.917304 0.777114 0.717603
O O6 0.886931 0.432791 0.644683
O O7 0.857563 0.713300 0.541704
O O8 0.683772 0.500000 0.500000
O O9 0.609289 0.560557 0.664465
O O10 0.500000 0.482250 0.250000
O O11 0.597439 0.407731 0.128741
#
# Coordination Sequence:
#
# PCOD9316559 Si02
#       5
#     8   8   8   8   8
#     4  10  18  32  56  84 118 146 184 238 292 350
#     4  10  20  36  59  86 117 153 192 239 295 353
#     4  10  20  35  56  81 115 153 185 237 296 345
#     4  10  23  39  58  83 115 159 201 249 288 345
#     4  10  20  36  59  86 117 153 192 239 295 353
#
# _framework density 19.613197
#
# number of rings (size 3 to 8) (size 9 to 14) (size 15 to 20)
#    0.000    2.000    2.000    1.800    0.000    2.400 
#    0.000    3.000    0.000    0.000    0.000    0.000 
#    0.000    0.000    0.000    0.000    0.000    0.000 
#
# Total GULP energy -111379.631175 kJ/mol
# GULP energy per Si atom -5568.981559 kJ/mol
# Density = 1.956856 g / cm^3
# Si number density = 19.613197 Si / 1000 Ang^3
#
#
#
# Elastic Constant Matrix: (Units=GPa)
#
#
# Indices 1 2 3 4 5 6 
#
# 1 132.2657 29.6926 6.7412 0.0000 0.0000 0.0000
# 2 29.6926 80.3862 14.4552 0.0000 0.0000 0.0000
# 3 6.7412 14.4552 55.0606 0.0000 0.0000 0.0000
# 4 0.0000 0.0000 0.0000 24.0354 0.0000 0.0000
# 5 0.0000 0.0000 0.0000 0.0000 3.3798 0.0000
# 6 0.0000 0.0000 0.0000 0.0000 0.0000 25.3320
#
#
#
# Elastic Compliance Matrix: (Units=1/GPa)
#
#
# Indices 1 2 3 4 5 6 
#
# 1 0.008247 -0.003006 -0.000220 0.000000 0.000000 0.000000
# 2 -0.003006 0.014152 -0.003347 0.000000 0.000000 0.000000
# 3 -0.000220 -0.003347 0.019068 0.000000 0.000000 0.000000
# 4 0.000000 0.000000 0.000000 0.041605 0.000000 0.000000
# 5 0.000000 0.000000 0.000000 0.000000 0.295879 0.000000
# 6 0.000000 0.000000 0.000000 0.000000 0.000000 0.039476
#
#
# Mechanical properties :
#
#
# Convention : Reuss Voigt Hill
#
# Bulk Modulus (GPa) = 35.31293 41.05448 38.18371
# Shear Modulus (GPa) = 11.33749 25.00434 18.17092
#
# Velocity S-wave (km/s) = 2.40688 3.57441 3.04709
# Velocity P-wave (km/s) = 5.07621 6.16545 5.64715
#
# Compressibility (1/GPa) = 0.02831824
#
# Stress axis : x y z
#
# Youngs Moduli (GPa) = 121.26061 70.65939 52.44506
#
# Poissons Ratio (x) = 0.21244 0.01156
# Poissons Ratio (y) = 0.36457 0.17555
# Poissons Ratio (z) = 0.02672 0.23652
#
# Static dielectric constant tensor:
#      x y z
#    x 1.665340 0.000000 0.000000 
#    y 0.000000 1.946640 0.000000 
#    z 0.000000 0.000000 1.702420 
# 
# From -- ./inp_files/12899.got.cif
#   From: 2010.05.17/outbox.cif.g08.bks.cpg/sg20_7_cif.got.tgz:12899.got - 2010.06.03 22:52:26.
