data_PCOD9316347
_publ_section_title
;
Structure prediction by ZEFSAII (Michael W. Deem and Ramdas Pophale) SiO2 
 PCOD9316347
Probable space group: C 2 2 21
;
_chemical_formula_sum "Si O2"
_cell_formula_units_Z 64
_cell_length_a 7.876788
_cell_length_b 22.242633
_cell_length_c 19.198098
_cell_angle_alpha 90.000000
_cell_angle_beta 90.000000
_cell_angle_gamma 90.000000
_cell_volume 3363.516459
_symmetry_space_group_name_H-M "C 2 2 21"
_symmetry_group_IT_number 20
_symmetry_cell_setting 'orthorhombic'
loop_
_space_group_symop_operation_xyz
x,y,z
-x,-y,1/2+z
x,-y,-z
-x,y,1/2-z
1/2+x,1/2+y,z
1/2-x,1/2-y,1/2+z
1/2+x,1/2-y,-z
1/2-x,1/2+y,1/2-z
loop_
_atom_site_type_symbol
_atom_site_label
_atom_site_fract_x
_atom_site_fract_y
_atom_site_fract_z
Si Si1 0.367658 0.888161 0.855698
Si Si2 0.126625 0.710251 0.999282
Si Si3 0.768645 0.679915 0.924805
Si Si4 0.806903 0.763675 0.276047
Si Si5 0.319607 0.429383 0.507858
Si Si6 0.091912 0.855797 0.584327
Si Si7 0.275603 0.880841 0.707182
Si Si8 0.299520 0.264422 0.632241
O O1 0.307838 0.916846 0.927177
O O2 0.256068 0.900751 0.786512
O O3 0.553308 0.904323 0.828769
O O4 0.344423 0.816055 0.865938
O O5 0.235598 0.718062 0.928747
O O6 0.943881 0.692342 0.968151
O O7 0.135196 0.775230 0.036961
O O8 0.232096 0.667310 0.050799
O O9 0.755501 0.699399 0.843706
O O10 0.734449 0.610112 0.941004
O O11 0.797510 0.692075 0.292089
O O12 0.691815 0.767303 0.206551
O O13 0.000000 0.777966 0.250000
O O14 0.333939 0.500000 0.500000
O O15 0.492997 0.397874 0.531806
O O16 0.126474 0.892796 0.654339
O O17 0.969015 0.801106 0.609346
#
# Coordination Sequence:
#
# PCOD9316347 Si02
#       8
#     8   8   8   8   8   8   8   8
#     4   9  18  33  58  85 115 158 191 252 301 369
#     4  12  21  36  60  97 128 154 203 254 335 377
#     4  12  24  37  61  90 130 168 196 261 315 380
#     4  11  22  33  59  93 136 167 192 244 320 395
#     4  11  25  43  60  82 119 169 226 260 305 361
#     4  11  22  33  61  89 124 158 200 264 309 373
#     4  10  17  32  56  96 123 146 193 247 325 376
#     4  10  20  33  53  88 129 161 190 233 311 385
#
# _framework density 19.027704
#
# number of rings (size 3 to 8) (size 9 to 14) (size 15 to 20)
#    0.000    1.250    7.500    0.750    3.500    7.000 
#    0.000    2.500    2.750    3.000    0.000    0.000 
#    0.000    0.000    0.000    0.000    0.000    0.000 
#
# Total GULP energy -178336.891894 kJ/mol
# GULP energy per Si atom -5573.027872 kJ/mol
# Density = 1.898440 g / cm^3
# Si number density = 19.027704 Si / 1000 Ang^3
#
#
#
# Elastic Constant Matrix: (Units=GPa)
#
#
# Indices 1 2 3 4 5 6 
#
# 1 72.9278 15.4414 24.4399 0.0000 0.0000 0.0000
# 2 15.4414 83.8648 39.0690 0.0000 0.0000 0.0000
# 3 24.4399 39.0690 149.3155 0.0000 0.0000 0.0000
# 4 0.0000 0.0000 0.0000 14.9310 0.0000 0.0000
# 5 0.0000 0.0000 0.0000 0.0000 31.6437 0.0000
# 6 0.0000 0.0000 0.0000 0.0000 0.0000 8.7975
#
#
#
# Elastic Compliance Matrix: (Units=1/GPa)
#
#
# Indices 1 2 3 4 5 6 
#
# 1 0.014746 -0.001811 -0.001940 0.000000 0.000000 0.000000
# 2 -0.001811 0.013802 -0.003315 0.000000 0.000000 0.000000
# 3 -0.001940 -0.003315 0.007882 0.000000 0.000000 0.000000
# 4 0.000000 0.000000 0.000000 0.066975 0.000000 0.000000
# 5 0.000000 0.000000 0.000000 0.000000 0.031602 0.000000
# 6 0.000000 0.000000 0.000000 0.000000 0.000000 0.113669
#
#
# Mechanical properties :
#
#
# Convention : Reuss Voigt Hill
#
# Bulk Modulus (GPa) = 44.84745 51.55654 48.20200
# Shear Modulus (GPa) = 18.50211 26.21828 22.36019
#
# Velocity S-wave (km/s) = 3.12168 3.71604 3.43175
# Velocity P-wave (km/s) = 6.05094 6.75028 6.41015
#
# Compressibility (1/GPa) = 0.02229781
#
# Stress axis : x y z
#
# Youngs Moduli (GPa) = 67.81619 72.45487 126.87089
#
# Poissons Ratio (x) = 0.13125 0.24608
# Poissons Ratio (y) = 0.12285 0.42055
# Poissons Ratio (z) = 0.13154 0.24017
#
# Static dielectric constant tensor:
#      x y z
#    x 1.771260 0.000000 0.000000 
#    y 0.000000 1.632010 0.000000 
#    z 0.000000 0.000000 1.745050 
# 
# From -- ./inp_files/23987.got.cif
#   From: 2010.05.17/outbox.cif.g08.bks.cpg/sg20_12_cif.got.tgz:23987.got - 2010.06.03 22:52:26.
