data_PCOD9316163
_publ_section_title
;
Structure prediction by ZEFSAII (Michael W. Deem and Ramdas Pophale) SiO2 
 PCOD9316163
Probable space group: P 21 21 21
;
_chemical_formula_sum "Si O2"
_cell_formula_units_Z 24
_cell_length_a 9.000000
_cell_length_b 15.000000
_cell_length_c 9.000000
_cell_angle_alpha 90.000000
_cell_angle_beta 90.000000
_cell_angle_gamma 90.000000
_cell_volume 1215.000000
_symmetry_space_group_name_H-M "P 21 21 21"
_symmetry_group_IT_number 19
_symmetry_cell_setting 'orthorhombic'
loop_
_space_group_symop_operation_xyz
x,y,z
1/2-x,-y,1/2+z
1/2+x,1/2-y,-z
-x,1/2+y,1/2-z
loop_
_atom_site_type_symbol
_atom_site_label
_atom_site_fract_x
_atom_site_fract_y
_atom_site_fract_z
Si Si1 0.126987 0.306047 0.114790
Si Si2 0.352216 0.526738 0.400698
Si Si3 0.453012 0.516639 0.058920
Si Si4 0.134442 0.160996 0.851627
Si Si5 0.398003 0.179888 0.628206
Si Si6 0.382767 0.322171 0.364156
O O1 0.258781 0.327594 0.232819
O O2 0.003055 0.281382 0.238952
O O3 0.090760 0.394106 0.012050
O O4 0.160184 0.227052 0.993911
O O5 0.387402 0.544050 0.224176
O O6 0.179642 0.518204 0.451422
O O7 0.408758 0.423939 0.422271
O O8 0.562979 0.432535 0.091004
O O9 0.528114 0.599670 0.969961
O O10 0.268266 0.142986 0.736079
O O11 0.020890 0.208477 0.736545
O O12 0.355856 0.255780 0.504161
#
# Coordination Sequence:
#
# PCOD9316163 Si02
#       6
#     4   4   4   4   4   4
#     4  12  24  43  70 101 131 186 230 278 338 411
#     4  11  22  44  73  96 132 183 237 269 324 420
#     4  11  24  45  70 102 138 181 230 281 340 403
#     4  11  26  42  67 102 143 170 225 287 348 397
#     4  12  26  42  68 102 140 176 225 289 348 396
#     4  11  24  44  68 101 132 184 227 278 338 409
#
# _framework density 19.753086
#
# number of rings (size 3 to 8) (size 9 to 14) (size 15 to 20)
#    0.000    0.667    5.000    3.000    2.333    5.333 
#    0.000    0.000    0.000    0.000    0.000    0.000 
#    0.000    0.000    0.000    0.000    0.000    0.000 
#
# Total GULP energy -133724.921640 kJ/mol
# GULP energy per Si atom -5571.871735 kJ/mol
# Density = 1.970813 g / cm^3
# Si number density = 19.753086 Si / 1000 Ang^3
#
#
#
# Elastic Constant Matrix: (Units=GPa)
#
#
# Indices 1 2 3 4 5 6 
#
# 1 41.8242 0.5506 40.7716 0.0000 0.0000 0.0000
# 2 0.5506 117.6362 73.9317 0.0000 0.0000 0.0000
# 3 40.7716 73.9317 197.8204 0.0000 0.0000 0.0000
# 4 0.0000 0.0000 0.0000 48.3535 0.0000 0.0000
# 5 0.0000 0.0000 0.0000 0.0000 57.9041 0.0000
# 6 0.0000 0.0000 0.0000 0.0000 0.0000 22.9261
#
#
#
# Elastic Compliance Matrix: (Units=1/GPa)
#
#
# Indices 1 2 3 4 5 6 
#
# 1 0.032233 0.005260 -0.008609 0.000000 0.000000 0.000000
# 2 0.005260 0.011969 -0.005557 0.000000 0.000000 0.000000
# 3 -0.008609 -0.005557 0.008906 0.000000 0.000000 0.000000
# 4 0.000000 0.000000 0.000000 0.020681 0.000000 0.000000
# 5 0.000000 0.000000 0.000000 0.000000 0.017270 0.000000
# 6 0.000000 0.000000 0.000000 0.000000 0.000000 0.043618
#
#
# Mechanical properties :
#
#
# Convention : Reuss Voigt Hill
#
# Bulk Modulus (GPa) = 28.33276 65.30986 46.82131
# Shear Modulus (GPa) = 30.44049 41.97186 36.20618
#
# Velocity S-wave (km/s) = 3.92988 4.61458 4.28593
# Velocity P-wave (km/s) = 5.91325 7.84394 6.94600
#
# Compressibility (1/GPa) = 0.03529483
#
# Stress axis : x y z
#
# Youngs Moduli (GPa) = 31.02440 83.55134 112.27994
#
# Poissons Ratio (x) = -0.43945 0.96662
# Poissons Ratio (y) = -0.16318 0.62395
# Poissons Ratio (z) = 0.26709 0.46430
#
# Static dielectric constant tensor:
#      x y z
#    x 1.875940 0.000000 0.000000 
#    y 0.000000 1.698180 0.000000 
#    z 0.000000 0.000000 1.649130 
# 
# From -- ./inp_files/2831.got.cif
#   From: 2010.05.17/outbox.ucp.g08.bks.cvg/sg19_2_cif.got.tgz:2831.got - 2010.06.11 13:13:52.
