data_PCOD9316398
_publ_section_title
;
Structure prediction by ZEFSAII (Michael W. Deem and Ramdas Pophale) SiO2 
 PCOD9316398
Probable space group: C 2 2 21
;
_chemical_formula_sum "Si O2"
_cell_formula_units_Z 60
_cell_length_a 11.623502
_cell_length_b 13.407115
_cell_length_c 20.206108
_cell_angle_alpha 90.000000
_cell_angle_beta 90.000000
_cell_angle_gamma 90.000000
_cell_volume 3148.871942
_symmetry_space_group_name_H-M "C 2 2 21"
_symmetry_group_IT_number 20
_symmetry_cell_setting 'orthorhombic'
loop_
_space_group_symop_operation_xyz
x,y,z
-x,-y,1/2+z
x,-y,-z
-x,y,1/2-z
1/2+x,1/2+y,z
1/2-x,1/2-y,1/2+z
1/2+x,1/2-y,-z
1/2-x,1/2+y,1/2-z
loop_
_atom_site_type_symbol
_atom_site_label
_atom_site_fract_x
_atom_site_fract_y
_atom_site_fract_z
Si Si1 0.679665 0.029756 0.654556
Si Si2 0.790002 0.269433 0.078605
Si Si3 0.500000 0.052495 0.250000
Si Si4 0.046937 0.113956 0.484341
Si Si5 0.626500 0.420933 0.252384
Si Si6 0.640547 0.701753 0.620743
Si Si7 0.088013 0.717738 0.169616
Si Si8 0.216935 0.138276 0.059857
O O1 0.673334 0.143023 0.628317
O O2 0.778166 0.022053 0.710965
O O3 0.560857 0.005973 0.690958
O O4 0.721022 0.955122 0.595837
O O5 0.876718 0.178400 0.066411
O O6 0.671758 0.223530 0.107244
O O7 0.771281 0.328227 0.009940
O O8 0.596705 0.122094 0.215641
O O9 0.074939 0.164329 0.555125
O O10 0.916023 0.116868 0.457510
O O11 0.078866 0.000000 0.500000
O O12 0.500000 0.469928 0.250000
O O13 0.657571 0.387181 0.326689
O O14 0.611113 0.317209 0.211848
O O15 0.545871 0.777034 0.650345
O O16 0.754910 0.764245 0.604718
#
# Coordination Sequence:
#
# PCOD9316398 Si02
#       8
#     8   8   4   8   8   8   8   8
#     4  11  23  38  61  92 122 160 203 249 301 366
#     4  10  23  40  61  90 125 160 199 260 308 355
#     4  12  22  38  64  90 120 162 208 248 296 374
#     4  11  24  38  61  88 120 158 202 255 303 355
#     4   9  19  35  61  83 116 162 198 237 299 352
#     4  10  19  38  62  85 118 158 200 248 301 359
#     4  10  17  38  60  84 118 160 201 241 293 364
#     4  11  21  38  66  90 120 161 206 246 304 370
#
# _framework density 19.054442000000002
#
# number of rings (size 3 to 8) (size 9 to 14) (size 15 to 20)
#    0.000    1.600    4.667    1.200    3.733    2.133 
#    0.000    1.333    0.000    0.000    0.000    0.000 
#    0.000    0.000    0.000    0.000    0.000    0.000 
#
# Total GULP energy -167125.034176 kJ/mol
# GULP energy per Si atom -5570.834473 kJ/mol
# Density = 1.901107 g / cm^3
# Si number density = 19.054442 Si / 1000 Ang^3
#
#
#
# Elastic Constant Matrix: (Units=GPa)
#
#
# Indices 1 2 3 4 5 6 
#
# 1 72.5418 42.6402 33.2826 0.0000 0.0000 0.0000
# 2 42.6402 77.0486 29.8806 0.0000 0.0000 0.0000
# 3 33.2826 29.8806 83.7044 0.0000 0.0000 0.0000
# 4 0.0000 0.0000 0.0000 25.8351 0.0000 0.0000
# 5 0.0000 0.0000 0.0000 0.0000 29.6009 0.0000
# 6 0.0000 0.0000 0.0000 0.0000 0.0000 19.4024
#
#
#
# Elastic Compliance Matrix: (Units=1/GPa)
#
#
# Indices 1 2 3 4 5 6 
#
# 1 0.022195 -0.010284 -0.005154 0.000000 0.000000 0.000000
# 2 -0.010284 0.019830 -0.002989 0.000000 0.000000 0.000000
# 3 -0.005154 -0.002989 0.015063 0.000000 0.000000 0.000000
# 4 0.000000 0.000000 0.000000 0.038707 0.000000 0.000000
# 5 0.000000 0.000000 0.000000 0.000000 0.033783 0.000000
# 6 0.000000 0.000000 0.000000 0.000000 0.000000 0.051540
#
#
# Mechanical properties :
#
#
# Convention : Reuss Voigt Hill
#
# Bulk Modulus (GPa) = 49.42545 49.43350 49.42948
# Shear Modulus (GPa) = 22.25017 23.46712 22.85865
#
# Velocity S-wave (km/s) = 3.42089 3.51320 3.46735
# Velocity P-wave (km/s) = 6.44971 6.51586 6.48287
#
# Compressibility (1/GPa) = 0.02023249
#
# Stress axis : x y z
#
# Youngs Moduli (GPa) = 45.05528 50.42924 66.38660
#
# Poissons Ratio (x) = 0.51863 0.34215
# Poissons Ratio (y) = 0.46337 0.19846
# Poissons Ratio (z) = 0.23221 0.15076
#
# Static dielectric constant tensor:
#      x y z
#    x 1.679720 0.000000 0.000000 
#    y 0.000000 1.686900 0.000000 
#    z 0.000000 0.000000 1.712990 
# 
# From -- ./inp_files/27288.got.cif
#   From: 2010.05.17/outbox.cif.g08.bks.cpg/sg20_14_cif.got.tgz:27288.got - 2010.06.03 22:52:26.
