data_PCOD9316240
_publ_section_title
;
Structure prediction by ZEFSAII (Michael W. Deem and Ramdas Pophale) SiO2 
 PCOD9316240
Probable space group: C 2 2 21
;
_chemical_formula_sum "Si O2"
_cell_formula_units_Z 44
_cell_length_a 17.024241
_cell_length_b 5.104245
_cell_length_c 24.770297
_cell_angle_alpha 90.000000
_cell_angle_beta 90.000000
_cell_angle_gamma 90.000000
_cell_volume 2152.437177
_symmetry_space_group_name_H-M "C 2 2 21"
_symmetry_group_IT_number 20
_symmetry_cell_setting 'orthorhombic'
loop_
_space_group_symop_operation_xyz
x,y,z
-x,-y,1/2+z
x,-y,-z
-x,y,1/2-z
1/2+x,1/2+y,z
1/2-x,1/2-y,1/2+z
1/2+x,1/2-y,-z
1/2-x,1/2+y,1/2-z
loop_
_atom_site_type_symbol
_atom_site_label
_atom_site_fract_x
_atom_site_fract_y
_atom_site_fract_z
Si Si1 0.370781 0.706223 0.338142
Si Si2 0.320495 0.106555 0.554798
Si Si3 0.196071 0.500000 0.500000
Si Si4 0.583115 0.794968 0.776445
Si Si5 0.315441 0.789722 0.830072
Si Si6 0.180505 0.802159 0.599753
O O1 0.376607 0.764040 0.401698
O O2 0.395570 0.418564 0.321175
O O3 0.278230 0.747314 0.325396
O O4 0.416724 0.919916 0.303300
O O5 0.252683 0.310926 0.535516
O O6 0.357817 0.000000 0.500000
O O7 0.271005 0.874804 0.583911
O O8 0.150277 0.684889 0.542562
O O9 0.500000 0.735626 0.750000
O O10 0.645943 0.777163 0.728234
O O11 0.348443 0.565896 0.870771
O O12 0.326968 0.071945 0.857104
#
# Coordination Sequence:
#
# PCOD9316240 Si02
#       6
#     8   8   4   8   8   8
#     4  11  21  39  62  89 117 155 199 244 297 352
#     4   9  19  31  58  92 128 144 186 248 310 348
#     4  10  16  32  52  92 132 138 182 244 310 352
#     4  12  26  41  58  85 120 164 202 245 297 350
#     4  11  21  37  59  88 118 151 198 245 293 344
#     4  10  18  31  54  88 123 150 178 238 304 342
#
# _framework density 20.441941
#
# number of rings (size 3 to 8) (size 9 to 14) (size 15 to 20)
#    0.000    1.455    3.636    4.909    2.545    0.000 
#    0.000    0.000    0.000    0.000   14.182    0.000 
#    0.000    0.000    0.000    0.000    0.000    0.000 
#
# Total GULP energy -122796.512614 kJ/mol
# GULP energy per Si atom -5581.659664 kJ/mol
# Density = 2.039541 g / cm^3
# Si number density = 20.441941 Si / 1000 Ang^3
#
#
#
# Elastic Constant Matrix: (Units=GPa)
#
#
# Indices 1 2 3 4 5 6 
#
# 1 17.9345 -7.6897 0.1412 0.0000 0.0000 0.0000
# 2 -7.6897 109.6499 21.1779 0.0000 0.0000 0.0000
# 3 0.1412 21.1779 84.3863 0.0000 0.0000 0.0000
# 4 0.0000 0.0000 0.0000 46.3880 0.0000 0.0000
# 5 0.0000 0.0000 0.0000 0.0000 -2.4497 0.0000
# 6 0.0000 0.0000 0.0000 0.0000 0.0000 0.4783
#
#
#
# Elastic Compliance Matrix: (Units=1/GPa)
#
#
# Indices 1 2 3 4 5 6 
#
# 1 0.057596 0.004265 -0.001167 0.000000 0.000000 0.000000
# 2 0.004265 0.009900 -0.002492 0.000000 0.000000 0.000000
# 3 -0.001167 -0.002492 0.012478 0.000000 0.000000 0.000000
# 4 0.000000 0.000000 0.000000 0.021557 0.000000 0.000000
# 5 0.000000 0.000000 0.000000 0.000000 -0.408214 0.000000
# 6 0.000000 0.000000 0.000000 0.000000 0.000000 2.090883
#
#
# Mechanical properties :
#
#
# Convention : Reuss Voigt Hill
#
# Bulk Modulus (GPa) = 12.31734 26.58105 19.44919
# Shear Modulus (GPa) = 2.76235 22.10607 12.43421
#
# Velocity S-wave (km/s) = 1.16372 3.29204 2.46899
# Velocity P-wave (km/s) = 2.80076 5.24228 4.20272
#
# Compressibility (1/GPa) = 0.08118636
#
# Stress axis : x y z
#
# Youngs Moduli (GPa) = 17.36226 101.00745 80.14389
#
# Poissons Ratio (x) = -0.43075 0.09349
# Poissons Ratio (y) = -0.07404 0.19970
# Poissons Ratio (z) = 0.02025 0.25168
#
# Static dielectric constant tensor:
#      x y z
#    x 1.690900 0.000000 0.000000 
#    y 0.000000 1.762700 0.000000 
#    z 0.000000 0.000000 1.777800 
# 
# From -- ./inp_files/29398.got.cif
#   From: 2010.05.17/outbox.cif.g08.bks.cpg/sg20_15_cif.got.tgz:29398.got - 2010.06.03 22:52:26.
