data_PCOD9316711
_publ_section_title
;
Structure prediction by ZEFSAII (Michael W. Deem and Ramdas Pophale) SiO2 
 PCOD9316711
Probable space group: C 2 2 21
;
_chemical_formula_sum "Si O2"
_cell_formula_units_Z 52
_cell_length_a 8.499779
_cell_length_b 16.039456
_cell_length_c 20.868212
_cell_angle_alpha 90.000000
_cell_angle_beta 90.000000
_cell_angle_gamma 90.000000
_cell_volume 2845.001558
_symmetry_space_group_name_H-M "C 2 2 21"
_symmetry_group_IT_number 20
_symmetry_cell_setting 'orthorhombic'
loop_
_space_group_symop_operation_xyz
x,y,z
-x,-y,1/2+z
x,-y,-z
-x,y,1/2-z
1/2+x,1/2+y,z
1/2-x,1/2-y,1/2+z
1/2+x,1/2-y,-z
1/2-x,1/2+y,1/2-z
loop_
_atom_site_type_symbol
_atom_site_label
_atom_site_fract_x
_atom_site_fract_y
_atom_site_fract_z
Si Si1 0.875515 0.000000 0.500000
Si Si2 0.731195 0.593079 0.663016
Si Si3 0.660528 0.672919 0.960961
Si Si4 0.500000 0.855413 0.250000
Si Si5 0.000000 0.203367 0.750000
Si Si6 0.782551 0.759008 0.833969
Si Si7 0.781738 0.829660 0.030968
Si Si8 0.856599 0.074621 0.090973
O O1 0.783185 0.079039 0.526648
O O2 0.985236 0.039840 0.443798
O O3 0.869638 0.590849 0.714282
O O4 0.588920 0.643144 0.698365
O O5 0.782715 0.642788 0.599214
O O6 0.694017 0.502713 0.634506
O O7 0.721051 0.707287 0.894397
O O8 0.471042 0.671783 0.961880
O O9 0.719187 0.739134 0.012874
O O10 0.584636 0.794440 0.299715
O O11 0.866513 0.259250 0.714962
O O12 0.852035 0.844971 0.862521
O O13 0.754935 0.893685 0.971269
#
# Coordination Sequence:
#
# PCOD9316711 Si02
#       8
#     4   8   8   4   4   8   8   8
#     4  10  18  36  56  94 106 148 186 234 298 352
#     4  11  20  39  58  84 115 156 191 241 279 345
#     4  10  20  36  60  87 114 147 187 241 294 343
#     4  10  26  36  58  82 118 162 198 230 282 346
#     4  10  20  38  60  76 116 164 196 224 286 344
#     4  10  21  39  57  85 115 156 195 235 284 352
#     4  10  20  35  63  85 114 145 188 239 301 342
#     4  10  19  35  62  85 113 142 192 245 294 337
#
# _framework density 18.277670000000001
#
# number of rings (size 3 to 8) (size 9 to 14) (size 15 to 20)
#    0.000    1.846    4.615    0.000    6.462    1.231 
#    0.000    3.077    0.000    0.000    0.000    0.000 
#    0.000    0.000    0.000    0.000    0.000    0.000 
#
# Total GULP energy -144825.401560 kJ/mol
# GULP energy per Si atom -5570.207752 kJ/mol
# Density = 1.823607 g / cm^3
# Si number density = 18.277670 Si / 1000 Ang^3
#
#
#
# Elastic Constant Matrix: (Units=GPa)
#
#
# Indices 1 2 3 4 5 6 
#
# 1 26.0227 -2.6393 10.2343 0.0000 0.0000 0.0000
# 2 -2.6393 94.8183 48.6600 0.0000 0.0000 0.0000
# 3 10.2343 48.6600 96.7060 0.0000 0.0000 0.0000
# 4 0.0000 0.0000 0.0000 33.7794 0.0000 0.0000
# 5 0.0000 0.0000 0.0000 0.0000 22.2585 0.0000
# 6 0.0000 0.0000 0.0000 0.0000 0.0000 16.5234
#
#
#
# Elastic Compliance Matrix: (Units=1/GPa)
#
#
# Indices 1 2 3 4 5 6 
#
# 1 0.041533 0.004600 -0.006710 0.000000 0.000000 0.000000
# 2 0.004600 0.014727 -0.007897 0.000000 0.000000 0.000000
# 3 -0.006710 -0.007897 0.015024 0.000000 0.000000 0.000000
# 4 0.000000 0.000000 0.000000 0.029604 0.000000 0.000000
# 5 0.000000 0.000000 0.000000 0.000000 0.044927 0.000000
# 6 0.000000 0.000000 0.000000 0.000000 0.000000 0.060520
#
#
# Mechanical properties :
#
#
# Convention : Reuss Voigt Hill
#
# Bulk Modulus (GPa) = 19.50453 36.67301 28.08877
# Shear Modulus (GPa) = 20.53887 25.26505 22.90196
#
# Velocity S-wave (km/s) = 3.35582 3.72195 3.54362
# Velocity P-wave (km/s) = 5.07048 6.21116 5.66958
#
# Compressibility (1/GPa) = 0.05127015
#
# Stress axis : x y z
#
# Youngs Moduli (GPa) = 24.07700 67.90123 66.55858
#
# Poissons Ratio (x) = -0.31231 0.44660
# Poissons Ratio (y) = -0.11074 0.52562
# Poissons Ratio (z) = 0.16155 0.53623
#
# Static dielectric constant tensor:
#      x y z
#    x 1.638970 0.000000 0.000000 
#    y 0.000000 1.628110 0.000000 
#    z 0.000000 0.000000 1.614660 
# 
# From -- ./inp_files/25246.got.cif
#   From: 2010.05.17/outbox.cif.g08.bks.cpg/sg20_13_cif.got.tgz:25246.got - 2010.06.03 22:52:26.
