data_PCOD9316109
_publ_section_title
;
Structure prediction by ZEFSAII (Michael W. Deem and Ramdas Pophale) SiO2 
 PCOD9316109
Probable space group: P 21 21 21
;
_chemical_formula_sum "Si O2"
_cell_formula_units_Z 20
_cell_length_a 13.144194
_cell_length_b 11.057188
_cell_length_c 4.535564
_cell_angle_alpha 90.000000
_cell_angle_beta 90.000000
_cell_angle_gamma 90.000000
_cell_volume 659.189003
_symmetry_space_group_name_H-M "P 21 21 21"
_symmetry_group_IT_number 19
_symmetry_cell_setting 'orthorhombic'
loop_
_space_group_symop_operation_xyz
x,y,z
1/2-x,-y,1/2+z
1/2+x,1/2-y,-z
-x,1/2+y,1/2-z
loop_
_atom_site_type_symbol
_atom_site_label
_atom_site_fract_x
_atom_site_fract_y
_atom_site_fract_z
Si Si1 0.484919 0.853977 0.009512
Si Si2 0.728870 0.077360 0.264803
Si Si3 0.028600 0.388535 0.113396
Si Si4 0.345791 0.249993 0.103930
Si Si5 0.795811 0.569578 0.577945
O O1 0.587517 0.839789 0.202404
O O2 0.394474 0.887651 0.239660
O O3 0.505314 0.971538 0.800643
O O4 0.213598 0.960630 0.160548
O O5 0.622094 0.107446 0.116614
O O6 0.724888 0.042657 0.604082
O O7 0.809380 0.179563 0.186937
O O8 0.033841 0.273292 0.336765
O O9 0.927972 0.354670 0.930763
O O10 0.241406 0.176997 0.142424
#
# Coordination Sequence:
#
# PCOD9316109 Si02
#       5
#     4   4   4   4   4
#     4  12  30  56  91 134 180 240 304 375 458 542
#     4  12  29  52  82 124 174 228 289 362 441 528
#     4  12  29  53  91 125 182 232 303 363 459 527
#     4  12  29  50  88 126 175 236 299 367 446 540
#     4  12  31  55  90 129 183 238 305 375 454 541
#
# _framework density 30.340312000000001
#
# number of rings (size 3 to 8) (size 9 to 14) (size 15 to 20)
#    0.000    0.000    4.000    2.400   14.000    3.200 
#    0.000    0.000    0.000    0.000    0.000    0.000 
#    0.000    0.000    0.000    0.000    0.000    0.000 
#
# Total GULP energy -111890.877708 kJ/mol
# GULP energy per Si atom -5594.543885 kJ/mol
# Density = 3.027126 g / cm^3
# Si number density = 30.340312 Si / 1000 Ang^3
#
#
#
# Elastic Constant Matrix: (Units=GPa)
#
#
# Indices 1 2 3 4 5 6 
#
# 1 185.0831 60.9290 64.0131 0.0000 0.0000 0.0000
# 2 60.9290 213.9833 47.4878 0.0000 0.0000 0.0000
# 3 64.0131 47.4878 106.6282 0.0000 0.0000 0.0000
# 4 0.0000 0.0000 0.0000 71.9270 0.0000 0.0000
# 5 0.0000 0.0000 0.0000 0.0000 48.4580 0.0000
# 6 0.0000 0.0000 0.0000 0.0000 0.0000 64.6477
#
#
#
# Elastic Compliance Matrix: (Units=1/GPa)
#
#
# Indices 1 2 3 4 5 6 
#
# 1 0.007082 -0.001191 -0.003721 0.000000 0.000000 0.000000
# 2 -0.001191 0.005386 -0.001684 0.000000 0.000000 0.000000
# 3 -0.003721 -0.001684 0.012362 0.000000 0.000000 0.000000
# 4 0.000000 0.000000 0.000000 0.013903 0.000000 0.000000
# 5 0.000000 0.000000 0.000000 0.000000 0.020636 0.000000
# 6 0.000000 0.000000 0.000000 0.000000 0.000000 0.015468
#
#
# Mechanical properties :
#
#
# Convention : Reuss Voigt Hill
#
# Bulk Modulus (GPa) = 85.92105 94.50604 90.21355
# Shear Modulus (GPa) = 54.40131 59.22418 56.81274
#
# Velocity S-wave (km/s) = 4.23902 4.42293 4.33195
# Velocity P-wave (km/s) = 7.23461 7.56964 7.40402
#
# Compressibility (1/GPa) = 0.01163859
#
# Stress axis : x y z
#
# Youngs Moduli (GPa) = 141.20292 185.66713 80.89057
#
# Poissons Ratio (x) = 0.22107 0.30102
# Poissons Ratio (y) = 0.16812 0.13621
# Poissons Ratio (z) = 0.52546 0.31264
#
# Static dielectric constant tensor:
#      x y z
#    x 2.349130 0.000000 0.000000 
#    y 0.000000 2.455880 0.000000 
#    z 0.000000 0.000000 2.342500 
# 
# From -- ./inp_files/857.got.cif
#   From: 2010.05.17/outbox.cif.g08.bks.cpg/sg19_1_cif.got.tgz:857.got - 2010.06.03 22:46:19.
