data_PCOD9316178
_publ_section_title
;
Structure prediction by ZEFSAII (Michael W. Deem and Ramdas Pophale) SiO2 
 PCOD9316178
Probable space group: P 21 21 21
;
_chemical_formula_sum "Si O2"
_cell_formula_units_Z 28
_cell_length_a 6.000000
_cell_length_b 9.000000
_cell_length_c 24.000000
_cell_angle_alpha 90.000000
_cell_angle_beta 90.000000
_cell_angle_gamma 90.000000
_cell_volume 1296.000000
_symmetry_space_group_name_H-M "P 21 21 21"
_symmetry_group_IT_number 19
_symmetry_cell_setting 'orthorhombic'
loop_
_space_group_symop_operation_xyz
x,y,z
1/2-x,-y,1/2+z
1/2+x,1/2-y,-z
-x,1/2+y,1/2-z
loop_
_atom_site_type_symbol
_atom_site_label
_atom_site_fract_x
_atom_site_fract_y
_atom_site_fract_z
Si Si1 0.602627 0.070659 0.543404
Si Si2 0.965431 0.903935 0.369482
Si Si3 0.898299 0.880202 0.822299
Si Si4 0.939351 0.075511 0.164585
Si Si5 0.568137 0.466833 0.286492
Si Si6 0.186712 0.888913 0.932978
Si Si7 0.312964 0.681719 0.515061
O O1 0.420852 0.071395 0.493130
O O2 0.674942 0.237878 0.557481
O O3 0.540701 0.991473 0.601739
O O4 0.805364 0.975491 0.517226
O O5 0.056174 0.756616 0.338082
O O6 0.803247 0.841422 0.418367
O O7 0.833260 0.027024 0.332393
O O8 0.156498 0.986199 0.405328
O O9 0.902606 0.711200 0.797507
O O10 0.002657 0.864865 0.884390
O O11 0.037300 0.980133 0.777791
O O12 0.184445 0.031186 0.192886
O O13 0.685553 0.019627 0.187335
O O14 0.563829 0.749923 0.501859
#
# Coordination Sequence:
#
# PCOD9316178 Si02
#       7
#     4   4   4   4   4   4   4
#     4  12  26  48  79 114 169 207 270 333 419 507
#     4  12  28  48  80 115 164 210 279 333 414 494
#     4  12  29  53  85 115 168 214 293 342 430 486
#     4  12  30  49  86 118 164 215 279 338 426 489
#     4  12  31  55  82 121 158 222 277 356 404 504
#     4  12  28  49  77 120 162 220 263 347 415 511
#     4  12  26  44  73 113 157 208 253 319 396 483
#
# _framework density 21.604938000000001
#
# number of rings (size 3 to 8) (size 9 to 14) (size 15 to 20)
#    0.000    0.000    4.286    3.429   10.000    0.000 
#    0.000    0.000    0.000    0.000    0.000    0.000 
#    0.000    0.000    0.000    0.000    0.000    0.000 
#
# Total GULP energy -156293.957372 kJ/mol
# GULP energy per Si atom -5581.927049 kJ/mol
# Density = 2.155576 g / cm^3
# Si number density = 21.604938 Si / 1000 Ang^3
#
#
#
# Elastic Constant Matrix: (Units=GPa)
#
#
# Indices 1 2 3 4 5 6 
#
# 1 124.1816 48.6901 21.6122 0.0000 0.0000 0.0000
# 2 48.6901 165.7627 10.4889 0.0000 0.0000 0.0000
# 3 21.6122 10.4889 91.3577 0.0000 0.0000 0.0000
# 4 0.0000 0.0000 0.0000 48.2255 0.0000 0.0000
# 5 0.0000 0.0000 0.0000 0.0000 50.1158 0.0000
# 6 0.0000 0.0000 0.0000 0.0000 0.0000 46.6876
#
#
#
# Elastic Compliance Matrix: (Units=1/GPa)
#
#
# Indices 1 2 3 4 5 6 
#
# 1 0.009426 -0.002647 -0.001926 0.000000 0.000000 0.000000
# 2 -0.002647 0.006820 -0.000157 0.000000 0.000000 0.000000
# 3 -0.001926 -0.000157 0.011420 0.000000 0.000000 0.000000
# 4 0.000000 0.000000 0.000000 0.020736 0.000000 0.000000
# 5 0.000000 0.000000 0.000000 0.000000 0.019954 0.000000
# 6 0.000000 0.000000 0.000000 0.000000 0.000000 0.021419
#
#
# Mechanical properties :
#
#
# Convention : Reuss Voigt Hill
#
# Bulk Modulus (GPa) = 54.92630 60.32048 57.62339
# Shear Modulus (GPa) = 47.48251 49.03984 48.26117
#
# Velocity S-wave (km/s) = 4.69312 4.76946 4.73144
# Velocity P-wave (km/s) = 7.40576 7.63614 7.52183
#
# Compressibility (1/GPa) = 0.01820622
#
# Stress axis : x y z
#
# Youngs Moduli (GPa) = 106.09321 146.62551 87.56866
#
# Poissons Ratio (x) = 0.38808 0.16865
# Poissons Ratio (y) = 0.28080 0.01374
# Poissons Ratio (z) = 0.20433 0.02300
#
# Static dielectric constant tensor:
#      x y z
#    x 1.844110 0.000000 0.000000 
#    y 0.000000 1.836350 0.000000 
#    z 0.000000 0.000000 1.800550 
# 
# From -- ./inp_files/7268.got.cif
#   From: 2010.05.17/outbox.ucp.g08.bks.cvg/sg19_4_cif.got.tgz:7268.got - 2010.06.11 13:13:52.
