data_PCOD9316011
_publ_section_title
;
Structure prediction by ZEFSAII (Michael W. Deem and Ramdas Pophale) SiO2 
 PCOD9316011
Probable space group: P 21 21 21
;
_chemical_formula_sum "Si O2"
_cell_formula_units_Z 32
_cell_length_a 5.303383
_cell_length_b 7.756811
_cell_length_c 27.962268
_cell_angle_alpha 90.000000
_cell_angle_beta 90.000000
_cell_angle_gamma 90.000000
_cell_volume 1150.293314
_symmetry_space_group_name_H-M "P 21 21 21"
_symmetry_group_IT_number 19
_symmetry_cell_setting 'orthorhombic'
loop_
_space_group_symop_operation_xyz
x,y,z
1/2-x,-y,1/2+z
1/2+x,1/2-y,-z
-x,1/2+y,1/2-z
loop_
_atom_site_type_symbol
_atom_site_label
_atom_site_fract_x
_atom_site_fract_y
_atom_site_fract_z
Si Si1 0.337394 0.291105 0.063277
Si Si2 0.999999 0.500000 0.005801
Si Si3 0.162605 0.791105 0.936723
Si Si4 1.000000 0.999999 0.738181
Si Si5 0.500000 0.999999 0.802122
Si Si6 0.500000 0.000000 0.595830
Si Si7 0.158706 0.275053 0.846931
Si Si8 0.841295 0.724945 0.846931
O O1 0.087748 0.168663 0.068045
O O2 0.467698 0.306276 0.114901
O O3 0.496812 0.166721 0.028420
O O4 0.238054 0.466945 0.040019
O O5 0.003187 0.666721 0.971580
O O6 0.761944 0.533055 0.040019
O O7 0.032302 0.806277 0.885098
O O8 0.412251 0.668663 0.931955
O O9 0.745598 0.028473 0.768840
O O10 0.956436 0.837875 0.702817
O O11 0.254402 0.971525 0.768840
O O12 0.043564 0.162122 0.702817
O O13 0.601880 0.845662 0.835169
O O14 0.398119 0.154335 0.835170
O O15 0.730735 0.944905 0.628442
O O16 0.269261 0.055094 0.628441
#
# Coordination Sequence:
#
# PCOD9316011 Si02
#       8
#     4   4   4   4   4   4   4   4
#     4  12  27  55  85 127 171 242 283 380 428 540
#     4  12  27  55  88 123 176 222 313 350 444 512
#     4  12  27  55  85 127 171 242 283 380 428 540
#     4  12  27  56  90 128 180 229 295 374 445 528
#     4  12  33  53  90 137 170 233 304 370 433 549
#     4  12  23  52  86 118 170 238 278 360 452 513
#     4  12  28  55  87 124 177 231 291 360 461 519
#     4  12  28  55  87 124 177 231 291 360 461 519
#
# _framework density 27.818995000000001
#
# number of rings (size 3 to 8) (size 9 to 14) (size 15 to 20)
#    0.000    0.000    5.000    3.000    3.500    5.000 
#    4.500    0.000    0.000    0.000    0.000    0.000 
#    0.000    0.000    0.000    0.000    0.000    0.000 
#
# Total GULP energy -179707.265655 kJ/mol
# GULP energy per Si atom -5615.852052 kJ/mol
# Density = 2.775568 g / cm^3
# Si number density = 27.818995 Si / 1000 Ang^3
#
#
#
# Elastic Constant Matrix: (Units=GPa)
#
#
# Indices 1 2 3 4 5 6 
#
# 1 191.7992 45.3141 82.7492 0.0000 0.0000 0.0000
# 2 45.3141 138.6041 56.0936 0.0000 0.0000 0.0000
# 3 82.7492 56.0936 174.5053 0.0000 0.0000 0.0000
# 4 0.0000 0.0000 0.0000 27.6018 0.0000 0.0000
# 5 0.0000 0.0000 0.0000 0.0000 71.6657 0.0000
# 6 0.0000 0.0000 0.0000 0.0000 0.0000 62.2175
#
#
#
# Elastic Compliance Matrix: (Units=1/GPa)
#
#
# Indices 1 2 3 4 5 6 
#
# 1 0.006682 -0.001037 -0.002835 0.000000 0.000000 0.000000
# 2 -0.001037 0.008455 -0.002226 0.000000 0.000000 0.000000
# 3 -0.002835 -0.002226 0.007790 0.000000 0.000000 0.000000
# 4 0.000000 0.000000 0.000000 0.036230 0.000000 0.000000
# 5 0.000000 0.000000 0.000000 0.000000 0.013954 0.000000
# 6 0.000000 0.000000 0.000000 0.000000 0.000000 0.016073
#
#
# Mechanical properties :
#
#
# Convention : Reuss Voigt Hill
#
# Bulk Modulus (GPa) = 93.19088 97.02471 95.10780
# Shear Modulus (GPa) = 47.63883 53.68044 50.65964
#
# Velocity S-wave (km/s) = 4.14267 4.39752 4.27200
# Velocity P-wave (km/s) = 7.51359 7.79340 7.65478
#
# Compressibility (1/GPa) = 0.01073066
#
# Stress axis : x y z
#
# Youngs Moduli (GPa) = 149.65523 118.27736 128.36303
#
# Poissons Ratio (x) = 0.12267 0.36393
# Poissons Ratio (y) = 0.15522 0.28572
# Poissons Ratio (z) = 0.42430 0.26327
#
# Static dielectric constant tensor:
#      x y z
#    x 2.168020 0.000000 0.000000 
#    y 0.000000 2.293560 0.000000 
#    z 0.000000 0.000000 2.162640 
# 
# From -- ./inp_files/7555.got.cif
#   From: 2010.05.17/outbox.cif.g08.bks.cpg/sg19_4_cif.got.tgz:7555.got - 2010.06.03 22:46:19.
