data_PCOD9316233
_publ_section_title
;
Structure prediction by ZEFSAII (Michael W. Deem and Ramdas Pophale) SiO2 
 PCOD9316233
Probable space group: C 2 2 21
;
_chemical_formula_sum "Si O2"
_cell_formula_units_Z 44
_cell_length_a 23.748346
_cell_length_b 10.228249
_cell_length_c 7.598453
_cell_angle_alpha 90.000000
_cell_angle_beta 90.000000
_cell_angle_gamma 90.000000
_cell_volume 1845.694599
_symmetry_space_group_name_H-M "C 2 2 21"
_symmetry_group_IT_number 20
_symmetry_cell_setting 'orthorhombic'
loop_
_space_group_symop_operation_xyz
x,y,z
-x,-y,1/2+z
x,-y,-z
-x,y,1/2-z
1/2+x,1/2+y,z
1/2-x,1/2-y,1/2+z
1/2+x,1/2-y,-z
1/2-x,1/2+y,1/2-z
loop_
_atom_site_type_symbol
_atom_site_label
_atom_site_fract_x
_atom_site_fract_y
_atom_site_fract_z
Si Si1 0.830027 0.628854 0.733608
Si Si2 0.678400 0.351932 0.034768
Si Si3 0.954632 0.150953 0.024500
Si Si4 0.431005 0.255854 0.587711
Si Si5 0.331836 0.273522 0.078033
Si Si6 0.251771 0.500000 0.000000
O O1 0.690861 0.712031 0.776715
O O2 0.893816 0.629726 0.651218
O O3 0.829004 0.652231 0.942087
O O4 0.790574 0.514625 0.664468
O O5 0.693967 0.254573 0.876298
O O6 0.696872 0.500000 0.000000
O O7 0.610650 0.343271 0.026318
O O8 0.938413 0.169634 0.228198
O O9 0.897791 0.186710 0.922028
O O10 0.008012 0.247261 0.998797
O O11 0.970834 0.000000 0.000000
O O12 0.294750 0.381793 0.979417
#
# Coordination Sequence:
#
# PCOD9316233 Si02
#       6
#     8   8   8   8   8   4
#     4   9  24  42  57  90 128 174 224 270 338 395
#     4  10  19  37  61  93 130 167 215 265 338 399
#     4  10  16  31  55  92 132 160 206 264 346 404
#     4   8  19  33  54  87 130 168 202 265 331 403
#     4  11  22  38  63  96 128 171 218 278 345 397
#     4  12  24  44  66  88 132 180 224 284 326 418
#
# _framework density 23.839264
#
# number of rings (size 3 to 8) (size 9 to 14) (size 15 to 20)
#    1.091    1.091    0.909    2.727    2.545    2.182 
#    0.000    0.909    0.000    0.000   18.909    0.000 
#    0.000    0.000    0.000    0.000    0.000    0.000 
#
# Total GULP energy -122554.957834 kJ/mol
# GULP energy per Si atom -5570.679902 kJ/mol
# Density = 2.378500 g / cm^3
# Si number density = 23.839264 Si / 1000 Ang^3
#
#
#
# Elastic Constant Matrix: (Units=GPa)
#
#
# Indices 1 2 3 4 5 6 
#
# 1 154.9024 30.3563 26.3228 0.0000 0.0000 0.0000
# 2 30.3563 53.8933 25.7042 0.0000 0.0000 0.0000
# 3 26.3228 25.7042 116.8584 0.0000 0.0000 0.0000
# 4 0.0000 0.0000 0.0000 20.7349 0.0000 0.0000
# 5 0.0000 0.0000 0.0000 0.0000 32.7763 0.0000
# 6 0.0000 0.0000 0.0000 0.0000 0.0000 19.9141
#
#
#
# Elastic Compliance Matrix: (Units=1/GPa)
#
#
# Indices 1 2 3 4 5 6 
#
# 1 0.007328 -0.003732 -0.000830 0.000000 0.000000 0.000000
# 2 -0.003732 0.022630 -0.004137 0.000000 0.000000 0.000000
# 3 -0.000830 -0.004137 0.009654 0.000000 0.000000 0.000000
# 4 0.000000 0.000000 0.000000 0.048228 0.000000 0.000000
# 5 0.000000 0.000000 0.000000 0.000000 0.030510 0.000000
# 6 0.000000 0.000000 0.000000 0.000000 0.000000 0.050216
#
#
# Mechanical properties :
#
#
# Convention : Reuss Voigt Hill
#
# Bulk Modulus (GPa) = 45.01452 54.49120 49.75286
# Shear Modulus (GPa) = 25.85732 30.90311 28.38022
#
# Velocity S-wave (km/s) = 3.29698 3.60434 3.45408
# Velocity P-wave (km/s) = 5.78074 6.34264 6.06820
#
# Compressibility (1/GPa) = 0.02221505
#
# Stress axis : x y z
#
# Youngs Moduli (GPa) = 136.46256 44.18833 103.58079
#
# Poissons Ratio (x) = 0.16490 0.08595
# Poissons Ratio (y) = 0.50926 0.42853
# Poissons Ratio (z) = 0.11324 0.18282
#
# Static dielectric constant tensor:
#      x y z
#    x 2.004740 0.000000 0.000000 
#    y 0.000000 1.964350 0.000000 
#    z 0.000000 0.000000 1.963680 
# 
# From -- ./inp_files/16237.got.cif
#   From: 2010.05.17/outbox.cif.g08.bks.cpg/sg20_9_cif.got.tgz:16237.got - 2010.06.03 22:52:26.
