data_PCOD9316028
_publ_section_title
;
Structure prediction by ZEFSAII (Michael W. Deem and Ramdas Pophale) SiO2 
 PCOD9316028
Probable space group: P 21 21 21
;
_chemical_formula_sum "Si O2"
_cell_formula_units_Z 28
_cell_length_a 8.014168
_cell_length_b 4.781257
_cell_length_c 25.590685
_cell_angle_alpha 90.000000
_cell_angle_beta 90.000000
_cell_angle_gamma 90.000000
_cell_volume 980.578669
_symmetry_space_group_name_H-M "P 21 21 21"
_symmetry_group_IT_number 19
_symmetry_cell_setting 'orthorhombic'
loop_
_space_group_symop_operation_xyz
x,y,z
1/2-x,-y,1/2+z
1/2+x,1/2-y,-z
-x,1/2+y,1/2-z
loop_
_atom_site_type_symbol
_atom_site_label
_atom_site_fract_x
_atom_site_fract_y
_atom_site_fract_z
Si Si1 0.509271 0.422251 0.286272
Si Si2 0.019560 0.372950 0.444288
Si Si3 0.533242 0.488269 0.714864
Si Si4 0.335245 0.820158 0.087297
Si Si5 0.140407 0.958307 0.956797
Si Si6 0.256243 0.328060 0.860968
Si Si7 0.223354 0.664673 0.652112
O O1 0.548701 0.121731 0.262409
O O2 0.368144 0.464278 0.330712
O O3 0.665363 0.609576 0.305044
O O4 0.177509 0.184973 0.462268
O O5 0.091513 0.516200 0.391248
O O6 0.844820 0.213327 0.433580
O O7 0.951523 0.574857 0.491032
O O8 0.520199 0.173476 0.734809
O O9 0.692956 0.608816 0.684675
O O10 0.397153 0.550367 0.671254
O O11 0.505183 0.780248 0.056547
O O12 0.369873 0.618952 0.136776
O O13 0.294910 0.137531 0.101587
O O14 0.166652 0.168148 0.908747
#
# Coordination Sequence:
#
# PCOD9316028 Si02
#       7
#     4   4   4   4   4   4   4
#     4  12  26  46  76 118 158 213 278 345 426 511
#     4  12  28  51  83 121 168 228 286 350 433 514
#     4  12  26  46  76 118 158 213 278 345 426 511
#     4  12  26  51  78 115 164 213 279 346 422 498
#     4  12  28  51  83 121 168 228 286 350 433 514
#     4  12  28  50  82 114 174 222 282 364 426 510
#     4  12  24  47  74 107 154 211 263 342 420 494
#
# _framework density 28.554569999999998
#
# number of rings (size 3 to 8) (size 9 to 14) (size 15 to 20)
#    0.000    0.000    4.286    5.143    4.000    2.286 
#    0.000    0.000    0.000    0.000    0.000    0.000 
#    0.000    0.000    0.000    0.000    0.000    0.000 
#
# Total GULP energy -156748.559692 kJ/mol
# GULP energy per Si atom -5598.162846 kJ/mol
# Density = 2.848958 g / cm^3
# Si number density = 28.554570 Si / 1000 Ang^3
#
#
#
# Elastic Constant Matrix: (Units=GPa)
#
#
# Indices 1 2 3 4 5 6 
#
# 1 154.0478 13.9878 31.9697 0.0000 0.0000 0.0000
# 2 13.9878 120.5037 20.1005 0.0000 0.0000 0.0000
# 3 31.9697 20.1005 126.0271 0.0000 0.0000 0.0000
# 4 0.0000 0.0000 0.0000 40.1080 0.0000 0.0000
# 5 0.0000 0.0000 0.0000 0.0000 74.8353 0.0000
# 6 0.0000 0.0000 0.0000 0.0000 0.0000 40.2317
#
#
#
# Elastic Compliance Matrix: (Units=1/GPa)
#
#
# Indices 1 2 3 4 5 6 
#
# 1 0.006884 -0.000522 -0.001663 0.000000 0.000000 0.000000
# 2 -0.000522 0.008565 -0.001234 0.000000 0.000000 0.000000
# 3 -0.001663 -0.001234 0.008553 0.000000 0.000000 0.000000
# 4 0.000000 0.000000 0.000000 0.024933 0.000000 0.000000
# 5 0.000000 0.000000 0.000000 0.000000 0.013363 0.000000
# 6 0.000000 0.000000 0.000000 0.000000 0.000000 0.024856
#
#
# Mechanical properties :
#
#
# Convention : Reuss Voigt Hill
#
# Bulk Modulus (GPa) = 58.25679 59.18827 58.72253
# Shear Modulus (GPa) = 50.14423 53.33638 51.74030
#
# Velocity S-wave (km/s) = 4.19511 4.32658 4.26135
# Velocity P-wave (km/s) = 6.62657 6.76256 6.69491
#
# Compressibility (1/GPa) = 0.01716538
#
# Stress axis : x y z
#
# Youngs Moduli (GPa) = 145.26431 116.75643 116.91188
#
# Poissons Ratio (x) = 0.06091 0.19443
# Poissons Ratio (y) = 0.07578 0.14423
# Poissons Ratio (z) = 0.24159 0.14404
#
# Static dielectric constant tensor:
#      x y z
#    x 2.246860 0.000000 0.000000 
#    y 0.000000 2.172360 0.000000 
#    z 0.000000 0.000000 2.500600 
# 
# From -- ./inp_files/7328.got.cif
#   From: 2010.05.17/outbox.cif.g08.bks.cpg/sg19_4_cif.got.tgz:7328.got - 2010.06.03 22:46:19.
