data_PCOD9316236
_publ_section_title
;
Structure prediction by ZEFSAII (Michael W. Deem and Ramdas Pophale) SiO2 
 PCOD9316236
Probable space group: C 2 2 21
;
_chemical_formula_sum "Si O2"
_cell_formula_units_Z 40
_cell_length_a 15.981216
_cell_length_b 9.125449
_cell_length_c 13.591437
_cell_angle_alpha 90.000000
_cell_angle_beta 90.000000
_cell_angle_gamma 90.000000
_cell_volume 1982.117702
_symmetry_space_group_name_H-M "C 2 2 21"
_symmetry_group_IT_number 20
_symmetry_cell_setting 'orthorhombic'
loop_
_space_group_symop_operation_xyz
x,y,z
-x,-y,1/2+z
x,-y,-z
-x,y,1/2-z
1/2+x,1/2+y,z
1/2-x,1/2-y,1/2+z
1/2+x,1/2-y,-z
1/2-x,1/2+y,1/2-z
loop_
_atom_site_type_symbol
_atom_site_label
_atom_site_fract_x
_atom_site_fract_y
_atom_site_fract_z
Si Si1 0.069102 0.955858 0.833592
Si Si2 0.948781 0.233329 0.522508
Si Si3 0.709353 0.392710 0.278143
Si Si4 0.374463 0.666514 0.976759
Si Si5 0.287085 0.855545 0.616110
O O1 0.000000 0.925577 0.750000
O O2 0.049443 0.106382 0.892800
O O3 0.155070 0.983911 0.777311
O O4 0.077416 0.835170 0.917975
O O5 0.875779 0.338042 0.561470
O O6 0.046619 0.272884 0.507274
O O7 0.652960 0.324645 0.364291
O O8 0.725350 0.268158 0.199153
O O9 0.780233 0.484521 0.334361
O O10 0.405316 0.500000 0.000000
O O11 0.290974 0.673923 0.042658
#
# Coordination Sequence:
#
# PCOD9316236 Si02
#       5
#     8   8   8   8   8
#     4  10  16  31  58  93 116 145 207 255 291 349
#     4  10  19  33  58  94 118 156 199 260 296 351
#     4  10  21  37  61  91 121 160 197 252 308 365
#     4  10  18  38  60  89 123 158 204 258 302 353
#     4  10  23  36  61  95 124 157 204 256 307 357
#
# _framework density 20.180436
#
# number of rings (size 3 to 8) (size 9 to 14) (size 15 to 20)
#    0.000    2.000    4.000    1.200    2.800    0.000 
#    0.000    0.000    0.000   14.400    0.000    0.000 
#    0.000    0.000    0.000    0.000    0.000    0.000 
#
# Total GULP energy -111495.127505 kJ/mol
# GULP energy per Si atom -5574.756375 kJ/mol
# Density = 2.013450 g / cm^3
# Si number density = 20.180436 Si / 1000 Ang^3
#
#
#
# Elastic Constant Matrix: (Units=GPa)
#
#
# Indices 1 2 3 4 5 6 
#
# 1 100.0311 25.9682 29.2268 0.0000 0.0000 0.0000
# 2 25.9682 35.0050 18.1013 0.0000 0.0000 0.0000
# 3 29.2268 18.1013 117.0183 0.0000 0.0000 0.0000
# 4 0.0000 0.0000 0.0000 23.6688 0.0000 0.0000
# 5 0.0000 0.0000 0.0000 0.0000 33.2257 0.0000
# 6 0.0000 0.0000 0.0000 0.0000 0.0000 27.7038
#
#
#
# Elastic Compliance Matrix: (Units=1/GPa)
#
#
# Indices 1 2 3 4 5 6 
#
# 1 0.012747 -0.008489 -0.001871 0.000000 0.000000 0.000000
# 2 -0.008489 0.036705 -0.003557 0.000000 0.000000 0.000000
# 3 -0.001871 -0.003557 0.009563 0.000000 0.000000 0.000000
# 4 0.000000 0.000000 0.000000 0.042250 0.000000 0.000000
# 5 0.000000 0.000000 0.000000 0.000000 0.030097 0.000000
# 6 0.000000 0.000000 0.000000 0.000000 0.000000 0.036096
#
#
# Mechanical properties :
#
#
# Convention : Reuss Voigt Hill
#
# Bulk Modulus (GPa) = 32.07134 44.29411 38.18273
# Shear Modulus (GPa) = 24.30892 28.83688 26.57290
#
# Velocity S-wave (km/s) = 3.47447 3.78425 3.63266
# Velocity P-wave (km/s) = 5.65886 6.41021 6.04622
#
# Compressibility (1/GPa) = 0.03118049
#
# Stress axis : x y z
#
# Youngs Moduli (GPa) = 78.44843 27.24460 104.56772
#
# Poissons Ratio (x) = 0.23128 0.19561
# Poissons Ratio (y) = 0.66596 0.37200
# Poissons Ratio (z) = 0.14675 0.09692
#
# Static dielectric constant tensor:
#      x y z
#    x 1.770430 0.000000 0.000000 
#    y 0.000000 1.730680 0.000000 
#    z 0.000000 0.000000 1.729260 
# 
# From -- ./inp_files/14865.got.cif
#   From: 2010.05.17/outbox.cif.g08.bks.cpg/sg20_8_cif.got.tgz:14865.got - 2010.06.03 22:52:26.
