data_PCOD9316970
_publ_section_title
;
Structure prediction by ZEFSAII (Michael W. Deem and Ramdas Pophale) SiO2 
 PCOD9316970
Probable space group: C 2 2 21
;
_chemical_formula_sum "Si O2"
_cell_formula_units_Z 44
_cell_length_a 19.189372
_cell_length_b 5.244875
_cell_length_c 19.382352
_cell_angle_alpha 90.000000
_cell_angle_beta 90.000000
_cell_angle_gamma 90.000000
_cell_volume 1950.753437
_symmetry_space_group_name_H-M "C 2 2 21"
_symmetry_group_IT_number 20
_symmetry_cell_setting 'orthorhombic'
loop_
_space_group_symop_operation_xyz
x,y,z
-x,-y,1/2+z
x,-y,-z
-x,y,1/2-z
1/2+x,1/2+y,z
1/2-x,1/2-y,1/2+z
1/2+x,1/2-y,-z
1/2-x,1/2+y,1/2-z
loop_
_atom_site_type_symbol
_atom_site_label
_atom_site_fract_x
_atom_site_fract_y
_atom_site_fract_z
Si Si1 0.296842 0.500000 0.000000
Si Si2 0.138283 0.644015 0.135633
Si Si3 0.223081 0.143897 0.099407
Si Si4 0.984213 0.276851 0.916933
Si Si5 0.425716 0.720679 0.073802
Si Si6 0.708846 0.240734 0.267700
O O1 0.252150 0.728852 0.969361
O O2 0.348359 0.369440 0.944407
O O3 0.167387 0.359483 0.123786
O O4 0.063798 0.667687 0.099846
O O5 0.143247 0.700949 0.217743
O O6 0.187875 0.867234 0.103827
O O7 0.287400 0.160506 0.153055
O O8 0.937127 0.509632 0.891787
O O9 0.962449 0.006775 0.886078
O O10 0.965160 0.249279 0.998812
O O11 0.734628 0.534102 0.262691
#
# Coordination Sequence:
#
# PCOD9316970 Si02
#       6
#     4   8   8   8   8   8
#     4  10  22  36  52  78 110 148 182 208 260 330
#     4  10  19  32  53  79 104 130 172 221 269 316
#     4  10  21  32  51  79 110 136 164 214 269 325
#     4   9  17  32  50  70  93 131 172 208 249 294
#     4   9  20  33  48  66 100 140 170 206 250 296
#     4   8  16  32  48  71 104 137 163 200 267 326
#
# _framework density 22.555389999999999
#
# number of rings (size 3 to 8) (size 9 to 14) (size 15 to 20)
#    0.000    2.909    0.000    1.091    0.000   10.909 
#    0.000    0.000    0.000    4.364    0.000   10.182 
#    0.000    0.000    0.000    0.000    0.000    0.000 
#
# Total GULP energy -122648.207703 kJ/mol
# GULP energy per Si atom -5574.918532 kJ/mol
# Density = 2.250405 g / cm^3
# Si number density = 22.555390 Si / 1000 Ang^3
#
#
#
# Elastic Constant Matrix: (Units=GPa)
#
#
# Indices 1 2 3 4 5 6 
#
# 1 33.3264 20.9042 4.2092 0.0000 0.0000 0.0000
# 2 20.9042 146.8721 6.0857 0.0000 0.0000 0.0000
# 3 4.2092 6.0857 30.0512 0.0000 0.0000 0.0000
# 4 0.0000 0.0000 0.0000 18.4682 0.0000 0.0000
# 5 0.0000 0.0000 0.0000 0.0000 -14.6315 0.0000
# 6 0.0000 0.0000 0.0000 0.0000 0.0000 23.6985
#
#
#
# Elastic Compliance Matrix: (Units=1/GPa)
#
#
# Indices 1 2 3 4 5 6 
#
# 1 0.033360 -0.004593 -0.003743 0.000000 0.000000 0.000000
# 2 -0.004593 0.007499 -0.000875 0.000000 0.000000 0.000000
# 3 -0.003743 -0.000875 0.033978 0.000000 0.000000 0.000000
# 4 0.000000 0.000000 0.000000 0.054147 0.000000 0.000000
# 5 0.000000 0.000000 0.000000 0.000000 -0.068346 0.000000
# 6 0.000000 0.000000 0.000000 0.000000 0.000000 0.042197
#
#
# Mechanical properties :
#
#
# Convention : Reuss Voigt Hill
#
# Bulk Modulus (GPa) = 17.72577 30.29422 24.01000
# Shear Modulus (GPa) = 35.69863 17.44374 26.57119
#
# Velocity S-wave (km/s) = 3.98264 2.78398 3.43598
# Velocity P-wave (km/s) = 5.38743 4.87793 5.13900
#
# Compressibility (1/GPa) = 0.05641502
#
# Stress axis : x y z
#
# Youngs Moduli (GPa) = 29.97606 133.35759 29.43077
#
# Poissons Ratio (x) = 0.61252 0.11015
# Poissons Ratio (y) = 0.13768 0.02576
# Poissons Ratio (z) = 0.11219 0.11672
#
# Static dielectric constant tensor:
#      x y z
#    x 1.810090 0.000000 0.000000 
#    y 0.000000 1.882690 0.000000 
#    z 0.000000 0.000000 1.841170 
# 
# From -- ./inp_files/29405.got.cif
#   From: 2010.05.17/outbox.cif.g08.bks.cpg/sg20_15_cif.got.tgz:29405.got - 2010.06.03 22:52:26.
