data_PCOD9316986
_publ_section_title
;
Structure prediction by ZEFSAII (Michael W. Deem and Ramdas Pophale) SiO2 
 PCOD9316986
Probable space group: C 2 2 21
;
_chemical_formula_sum "Si O2"
_cell_formula_units_Z 36
_cell_length_a 24.923916
_cell_length_b 5.301240
_cell_length_c 14.290748
_cell_angle_alpha 90.000000
_cell_angle_beta 90.000000
_cell_angle_gamma 90.000000
_cell_volume 1888.203099
_symmetry_space_group_name_H-M "C 2 2 21"
_symmetry_group_IT_number 20
_symmetry_cell_setting 'orthorhombic'
loop_
_space_group_symop_operation_xyz
x,y,z
-x,-y,1/2+z
x,-y,-z
-x,y,1/2-z
1/2+x,1/2+y,z
1/2-x,1/2-y,1/2+z
1/2+x,1/2-y,-z
1/2-x,1/2+y,1/2-z
loop_
_atom_site_type_symbol
_atom_site_label
_atom_site_fract_x
_atom_site_fract_y
_atom_site_fract_z
Si Si1 0.592800 0.000000 0.500000
Si Si2 0.811942 0.189027 0.066973
Si Si3 0.939907 0.473117 0.788067
Si Si4 0.872884 0.027950 0.251519
Si Si5 0.736699 0.484848 0.190840
O O1 0.635215 0.225382 0.511433
O O2 0.561559 0.018590 0.402086
O O3 0.775536 0.416529 0.104816
O O4 0.836375 0.057743 0.158671
O O5 0.780433 0.000000 0.000000
O O6 0.907657 0.224291 0.755961
O O7 0.000000 0.465872 0.750000
O O8 0.909610 0.722639 0.749822
O O9 0.826496 0.016703 0.330111
O O10 0.756840 0.736168 0.243150
#
# Coordination Sequence:
#
# PCOD9316986 Si02
#       5
#     4   8   8   8   8
#     4  10  20  36  56  86 116 142 198 256 276 344
#     4  10  19  32  57  87 114 142 186 236 290 342
#     4  11  22  37  61  84 110 154 200 244 293 326
#     4  10  20  37  54  85 115 146 185 239 282 344
#     4  10  20  33  54  83 118 150 172 223 292 353
#
# _framework density 19.065747999999999
#
# number of rings (size 3 to 8) (size 9 to 14) (size 15 to 20)
#    0.000    1.778    2.222    4.667    3.111    0.000 
#    0.000    0.000    2.444    0.000    0.000    0.000 
#    0.000    0.000    0.000    0.000    0.000    0.000 
#
# Total GULP energy -100347.655549 kJ/mol
# GULP energy per Si atom -5574.869753 kJ/mol
# Density = 1.902235 g / cm^3
# Si number density = 19.065748 Si / 1000 Ang^3
#
#
#
# Elastic Constant Matrix: (Units=GPa)
#
#
# Indices 1 2 3 4 5 6 
#
# 1 155.9665 61.8006 49.8448 0.0000 0.0000 0.0000
# 2 61.8006 149.7926 16.8800 0.0000 0.0000 0.0000
# 3 49.8448 16.8800 50.2292 0.0000 0.0000 0.0000
# 4 0.0000 0.0000 0.0000 23.2023 0.0000 0.0000
# 5 0.0000 0.0000 0.0000 0.0000 15.1459 0.0000
# 6 0.0000 0.0000 0.0000 0.0000 0.0000 20.4253
#
#
#
# Elastic Compliance Matrix: (Units=1/GPa)
#
#
# Indices 1 2 3 4 5 6 
#
# 1 0.010820 -0.003382 -0.009601 0.000000 0.000000 0.000000
# 2 -0.003382 0.007996 0.000669 0.000000 0.000000 0.000000
# 3 -0.009601 0.000669 0.029211 0.000000 0.000000 0.000000
# 4 0.000000 0.000000 0.000000 0.043099 0.000000 0.000000
# 5 0.000000 0.000000 0.000000 0.000000 0.066024 0.000000
# 6 0.000000 0.000000 0.000000 0.000000 0.000000 0.048959
#
#
# Mechanical properties :
#
#
# Convention : Reuss Voigt Hill
#
# Bulk Modulus (GPa) = 42.73555 68.11545 55.42550
# Shear Modulus (GPa) = 20.96117 26.91891 23.94004
#
# Velocity S-wave (km/s) = 3.31934 3.76160 3.54737
# Velocity P-wave (km/s) = 6.09542 7.39394 6.77586
#
# Compressibility (1/GPa) = 0.02339972
#
# Stress axis : x y z
#
# Youngs Moduli (GPa) = 92.42137 125.06433 34.23372
#
# Poissons Ratio (x) = 0.42299 0.32866
# Poissons Ratio (y) = 0.31259 -0.02291
# Poissons Ratio (z) = 0.88730 -0.08369
#
# Static dielectric constant tensor:
#      x y z
#    x 1.658750 0.000000 0.000000 
#    y 0.000000 1.716040 0.000000 
#    z 0.000000 0.000000 1.779760 
# 
# From -- ./inp_files/17591.got.cif
#   From: 2010.05.17/outbox.cif.g08.bks.cpg/sg20_9_cif.got.tgz:17591.got - 2010.06.03 22:52:26.
