data_PCOD9316844
_publ_section_title
;
Structure prediction by ZEFSAII (Michael W. Deem and Ramdas Pophale) SiO2 
 PCOD9316844
Probable space group: C 2 2 21
;
_chemical_formula_sum "Si O2"
_cell_formula_units_Z 48
_cell_length_a 29.459752
_cell_length_b 9.551240
_cell_length_c 7.890380
_cell_angle_alpha 90.000000
_cell_angle_beta 90.000000
_cell_angle_gamma 90.000000
_cell_volume 2220.172729
_symmetry_space_group_name_H-M "C 2 2 21"
_symmetry_group_IT_number 20
_symmetry_cell_setting 'orthorhombic'
loop_
_space_group_symop_operation_xyz
x,y,z
-x,-y,1/2+z
x,-y,-z
-x,y,1/2-z
1/2+x,1/2+y,z
1/2-x,1/2-y,1/2+z
1/2+x,1/2-y,-z
1/2-x,1/2+y,1/2-z
loop_
_atom_site_type_symbol
_atom_site_label
_atom_site_fract_x
_atom_site_fract_y
_atom_site_fract_z
Si Si1 0.019417 0.295567 0.058297
Si Si2 0.052134 0.000000 0.000000
Si Si3 0.947546 0.500000 0.000000
Si Si4 0.106921 0.625493 0.791084
Si Si5 0.799191 0.576612 0.831211
Si Si6 0.384749 0.442018 0.810189
Si Si7 0.217798 0.090128 0.328647
O O1 0.021451 0.135059 0.014051
O O2 0.071483 0.350838 0.056159
O O3 0.000000 0.311627 0.250000
O O4 0.982604 0.377518 0.953165
O O5 0.083569 0.991478 0.167139
O O6 0.916505 0.521537 0.838381
O O7 0.159725 0.586617 0.805801
O O8 0.105630 0.776215 0.695949
O O9 0.782662 0.739767 0.853771
O O10 0.758605 0.472425 0.780731
O O11 0.818105 0.500000 0.000000
O O12 0.331807 0.451581 0.758443
O O13 0.390599 0.500000 0.000000
O O14 0.221606 0.000000 0.500000
#
# Coordination Sequence:
#
# PCOD9316844 Si02
#       7
#     8   4   4   8   8   8   8
#     4   9  20  40  60  89 127 159 214 267 314 383
#     4  10  20  42  65  94 124 172 205 266 320 374
#     4  10  18  40  59  84 124 164 199 272 316 368
#     4   9  19  39  62  84 126 163 208 263 313 381
#     4  11  21  38  66  88 124 170 211 256 321 385
#     4   9  20  40  65  94 130 164 214 260 310 385
#     4  10  22  40  59  95 129 165 209 264 313 378
#
# _framework density 21.619938000000001
#
# number of rings (size 3 to 8) (size 9 to 14) (size 15 to 20)
#    0.000    2.333    0.833    1.000    1.167    0.000 
#   27.000    0.000    0.000    0.000    0.000    0.000 
#    0.000    0.000    0.000    0.000    0.000    0.000 
#
# Total GULP energy -133845.265335 kJ/mol
# GULP energy per Si atom -5576.886056 kJ/mol
# Density = 2.157073 g / cm^3
# Si number density = 21.619938 Si / 1000 Ang^3
#
#
#
# Elastic Constant Matrix: (Units=GPa)
#
#
# Indices 1 2 3 4 5 6 
#
# 1 111.4172 46.0498 20.5991 0.0000 0.0000 0.0000
# 2 46.0498 103.4073 20.6479 0.0000 0.0000 0.0000
# 3 20.5991 20.6479 38.3815 0.0000 0.0000 0.0000
# 4 0.0000 0.0000 0.0000 31.5044 0.0000 0.0000
# 5 0.0000 0.0000 0.0000 0.0000 -19.7553 0.0000
# 6 0.0000 0.0000 0.0000 0.0000 0.0000 41.7067
#
#
#
# Elastic Compliance Matrix: (Units=1/GPa)
#
#
# Indices 1 2 3 4 5 6 
#
# 1 0.011479 -0.004349 -0.003821 0.000000 0.000000 0.000000
# 2 -0.004349 0.012482 -0.004381 0.000000 0.000000 0.000000
# 3 -0.003821 -0.004381 0.030462 0.000000 0.000000 0.000000
# 4 0.000000 0.000000 0.000000 0.031742 0.000000 0.000000
# 5 0.000000 0.000000 0.000000 0.000000 -0.050619 0.000000
# 6 0.000000 0.000000 0.000000 0.000000 0.000000 0.023977
#
#
# Mechanical properties :
#
#
# Convention : Reuss Voigt Hill
#
# Bulk Modulus (GPa) = 34.10527 47.53327 40.81927
# Shear Modulus (GPa) = 52.96741 21.75180 37.35961
#
# Velocity S-wave (km/s) = 4.95505 3.17535 4.16145
# Velocity P-wave (km/s) = 6.96749 5.95629 6.48164
#
# Compressibility (1/GPa) = 0.02932098
#
# Stress axis : x y z
#
# Youngs Moduli (GPa) = 87.11396 80.11578 32.82802
#
# Poissons Ratio (x) = 0.34842 0.12544
# Poissons Ratio (y) = 0.37886 0.14381
# Poissons Ratio (z) = 0.33288 0.35097
#
# Static dielectric constant tensor:
#      x y z
#    x 1.842150 0.000000 0.000000 
#    y 0.000000 1.767960 0.000000 
#    z 0.000000 0.000000 1.853290 
# 
# From -- ./inp_files/11482.got.cif
#   From: 2010.05.17/outbox.cif.g08.bks.cpg/sg20_6_cif.got.tgz:11482.got - 2010.06.03 22:52:26.
