data_PCOD9316740
_publ_section_title
;
Structure prediction by ZEFSAII (Michael W. Deem and Ramdas Pophale) SiO2 
 PCOD9316740
Probable space group: C 2 2 21
;
_chemical_formula_sum "Si O2"
_cell_formula_units_Z 44
_cell_length_a 30.246784
_cell_length_b 8.452806
_cell_length_c 7.942996
_cell_angle_alpha 90.000000
_cell_angle_beta 90.000000
_cell_angle_gamma 90.000000
_cell_volume 2030.787354
_symmetry_space_group_name_H-M "C 2 2 21"
_symmetry_group_IT_number 20
_symmetry_cell_setting 'orthorhombic'
loop_
_space_group_symop_operation_xyz
x,y,z
-x,-y,1/2+z
x,-y,-z
-x,y,1/2-z
1/2+x,1/2+y,z
1/2-x,1/2-y,1/2+z
1/2+x,1/2-y,-z
1/2-x,1/2+y,1/2-z
loop_
_atom_site_type_symbol
_atom_site_label
_atom_site_fract_x
_atom_site_fract_y
_atom_site_fract_z
Si Si1 0.245356 0.000000 0.000000
Si Si2 0.113026 0.410350 0.246728
Si Si3 0.842882 0.000000 0.000000
Si Si4 0.310134 0.000000 0.500000
Si Si5 0.957744 0.500000 0.500000
Si Si6 0.731698 0.691761 0.322641
Si Si7 0.500000 0.762571 0.750000
Si Si8 0.094040 0.243506 0.602192
O O1 0.225687 0.125092 0.134260
O O2 0.267299 0.876527 0.131281
O O3 0.157287 0.408813 0.132232
O O4 0.072949 0.393867 0.117914
O O5 0.102228 0.296134 0.405376
O O6 0.108469 0.594103 0.306755
O O7 0.873429 0.096310 0.871570
O O8 0.809836 0.874784 0.921517
O O9 0.277249 0.115699 0.396069
O O10 0.986712 0.379497 0.601643
O O11 0.545743 0.691181 0.673733
#
# Coordination Sequence:
#
# PCOD9316740 Si02
#       8
#     4   8   4   4   4   8   4   8
#     4  12  28  52  71 115 141 219 243 317 366 452
#     4   9  20  36  63  97 132 175 232 300 363 445
#     4  11  26  45  62 103 136 198 243 315 368 451
#     4  10  22  40  64 106 141 197 236 306 360 452
#     4   9  16  33  59  94 122 152 224 282 368 441
#     4  11  27  45  74 101 154 192 254 299 374 442
#     4  10  18  36  62  92 128 174 226 304 382 458
#     4  10  22  38  63  92 133 180 235 307 372 452
#
# _framework density 21.666473
#
# number of rings (size 3 to 8) (size 9 to 14) (size 15 to 20)
#    0.000    1.818    0.000    4.364   10.182    0.000 
#    0.000    1.818    0.000    0.000    0.000    0.000 
#    0.000    0.000    0.000    0.000    0.000    0.000 
#
# Total GULP energy -122471.444312 kJ/mol
# GULP energy per Si atom -5566.883832 kJ/mol
# Density = 2.161716 g / cm^3
# Si number density = 21.666473 Si / 1000 Ang^3
#
#
#
# Elastic Constant Matrix: (Units=GPa)
#
#
# Indices 1 2 3 4 5 6 
#
# 1 106.9580 26.7807 25.8462 0.0000 0.0000 0.0000
# 2 26.7807 94.0664 15.0050 0.0000 0.0000 0.0000
# 3 25.8462 15.0050 79.2038 0.0000 0.0000 0.0000
# 4 0.0000 0.0000 0.0000 28.5465 0.0000 0.0000
# 5 0.0000 0.0000 0.0000 0.0000 38.3730 0.0000
# 6 0.0000 0.0000 0.0000 0.0000 0.0000 75.7005
#
#
#
# Elastic Compliance Matrix: (Units=1/GPa)
#
#
# Indices 1 2 3 4 5 6 
#
# 1 0.010721 -0.002572 -0.003011 0.000000 0.000000 0.000000
# 2 -0.002572 0.011579 -0.001354 0.000000 0.000000 0.000000
# 3 -0.003011 -0.001354 0.013865 0.000000 0.000000 0.000000
# 4 0.000000 0.000000 0.000000 0.035031 0.000000 0.000000
# 5 0.000000 0.000000 0.000000 0.000000 0.026060 0.000000
# 6 0.000000 0.000000 0.000000 0.000000 0.000000 0.013210
#
#
# Mechanical properties :
#
#
# Convention : Reuss Voigt Hill
#
# Bulk Modulus (GPa) = 44.86345 46.16578 45.51461
# Shear Modulus (GPa) = 37.94469 42.69710 40.32090
#
# Velocity S-wave (km/s) = 4.18940 4.44402 4.31859
# Velocity P-wave (km/s) = 6.64476 6.90552 6.77639
#
# Compressibility (1/GPa) = 0.02228986
#
# Stress axis : x y z
#
# Youngs Moduli (GPa) = 93.27378 86.36283 72.12452
#
# Poissons Ratio (x) = 0.22212 0.21719
# Poissons Ratio (y) = 0.23990 0.09768
# Poissons Ratio (z) = 0.28088 0.11696
#
# Static dielectric constant tensor:
#      x y z
#    x 1.807850 0.000000 0.000000 
#    y 0.000000 1.828690 0.000000 
#    z 0.000000 0.000000 1.427550 
# 
# From -- ./inp_files/6434.got.cif
#   From: 2010.05.17/outbox.cif.g08.bks.cpg/sg20_4_cif.got.tgz:6434.got - 2010.06.03 22:52:26.
