data_PCOD9316010
_publ_section_title
;
Structure prediction by ZEFSAII (Michael W. Deem and Ramdas Pophale) SiO2 
 PCOD9316010
Probable space group: P 21 21 21
;
_chemical_formula_sum "Si O2"
_cell_formula_units_Z 24
_cell_length_a 18.962142
_cell_length_b 5.660129
_cell_length_c 9.026941
_cell_angle_alpha 90.000000
_cell_angle_beta 90.000000
_cell_angle_gamma 90.000000
_cell_volume 968.845057
_symmetry_space_group_name_H-M "P 21 21 21"
_symmetry_group_IT_number 19
_symmetry_cell_setting 'orthorhombic'
loop_
_space_group_symop_operation_xyz
x,y,z
1/2-x,-y,1/2+z
1/2+x,1/2-y,-z
-x,1/2+y,1/2-z
loop_
_atom_site_type_symbol
_atom_site_label
_atom_site_fract_x
_atom_site_fract_y
_atom_site_fract_z
Si Si1 0.667872 0.876013 0.035280
Si Si2 0.780298 0.226865 0.008858
Si Si3 0.059417 0.237841 0.893796
Si Si4 0.688153 0.493048 0.780586
Si Si5 0.402024 0.123685 0.183901
Si Si6 0.533783 0.442676 0.798890
O O1 0.634345 0.757678 0.179559
O O2 0.611886 0.089138 0.019012
O O3 0.671736 0.707140 0.894357
O O4 0.747093 0.978311 0.055673
O O5 0.733586 0.307913 0.870668
O O6 0.859878 0.274069 0.956305
O O7 0.768891 0.404087 0.144154
O O8 0.985067 0.339671 0.840609
O O9 0.100037 0.143704 0.747598
O O10 0.039569 0.048090 0.021283
O O11 0.611936 0.402459 0.733361
O O12 0.507459 0.699744 0.742337
#
# Coordination Sequence:
#
# PCOD9316010 Si02
#       6
#     4   4   4   4   4   4
#     4  12  23  49  73 106 153 201 258 332 395 477
#     4  12  27  47  72 113 147 211 257 326 410 484
#     4  12  25  47  78 109 154 205 266 327 398 473
#     4  12  26  47  74 104 156 197 260 328 399 481
#     4  12  26  47  78 111 151 205 266 325 400 481
#     4  12  27  49  77 115 157 205 265 334 398 472
#
# _framework density 24.771763
#
# number of rings (size 3 to 8) (size 9 to 14) (size 15 to 20)
#    0.000    0.000    5.000    5.000    0.000    1.333 
#    9.000    0.000    0.000    0.000    0.000    0.000 
#    0.000    0.000    0.000    0.000    0.000    0.000 
#
# Total GULP energy -134182.958213 kJ/mol
# GULP energy per Si atom -5590.956592 kJ/mol
# Density = 2.471538 g / cm^3
# Si number density = 24.771763 Si / 1000 Ang^3
#
#
#
# Elastic Constant Matrix: (Units=GPa)
#
#
# Indices 1 2 3 4 5 6 
#
# 1 101.1945 12.2951 -8.6995 0.0000 0.0000 0.0000
# 2 12.2951 58.7107 -1.2696 0.0000 0.0000 0.0000
# 3 -8.6995 -1.2696 69.7818 0.0000 0.0000 0.0000
# 4 0.0000 0.0000 0.0000 36.6217 0.0000 0.0000
# 5 0.0000 0.0000 0.0000 0.0000 42.5378 0.0000
# 6 0.0000 0.0000 0.0000 0.0000 0.0000 48.9749
#
#
#
# Elastic Compliance Matrix: (Units=1/GPa)
#
#
# Indices 1 2 3 4 5 6 
#
# 1 0.010246 -0.002119 0.001239 0.000000 0.000000 0.000000
# 2 -0.002119 0.017478 0.000054 0.000000 0.000000 0.000000
# 3 0.001239 0.000054 0.014486 0.000000 0.000000 0.000000
# 4 0.000000 0.000000 0.000000 0.027306 0.000000 0.000000
# 5 0.000000 0.000000 0.000000 0.000000 0.023509 0.000000
# 6 0.000000 0.000000 0.000000 0.000000 0.000000 0.020419
#
#
# Mechanical properties :
#
#
# Convention : Reuss Voigt Hill
#
# Bulk Modulus (GPa) = 24.65685 26.03767 25.34726
# Shear Modulus (GPa) = 38.87596 40.78425 39.83011
#
# Velocity S-wave (km/s) = 3.96582 4.06199 4.01419
# Velocity P-wave (km/s) = 5.56287 5.70382 5.63378
#
# Compressibility (1/GPa) = 0.04055668
#
# Stress axis : x y z
#
# Youngs Moduli (GPa) = 97.59998 57.21615 69.03311
#
# Poissons Ratio (x) = 0.12124 -0.08552
# Poissons Ratio (y) = 0.20680 -0.00372
# Poissons Ratio (z) = -0.12090 -0.00308
#
# Static dielectric constant tensor:
#      x y z
#    x 1.980990 0.000000 0.000000 
#    y 0.000000 2.068210 0.000000 
#    z 0.000000 0.000000 1.975280 
# 
# From -- ./inp_files/405.got.cif
#   From: 2010.05.17/outbox.cif.g08.bks.cpg/sg19_1_cif.got.tgz:405.got - 2010.06.03 22:46:19.
