data_PCOD9316910
_publ_section_title
;
Structure prediction by ZEFSAII (Michael W. Deem and Ramdas Pophale) SiO2 
 PCOD9316910
Probable space group: C 2 2 21
;
_chemical_formula_sum "Si O2"
_cell_formula_units_Z 48
_cell_length_a 13.892334
_cell_length_b 15.010737
_cell_length_c 9.098419
_cell_angle_alpha 90.000000
_cell_angle_beta 90.000000
_cell_angle_gamma 90.000000
_cell_volume 1897.331273
_symmetry_space_group_name_H-M "C 2 2 21"
_symmetry_group_IT_number 20
_symmetry_cell_setting 'orthorhombic'
loop_
_space_group_symop_operation_xyz
x,y,z
-x,-y,1/2+z
x,-y,-z
-x,y,1/2-z
1/2+x,1/2+y,z
1/2-x,1/2-y,1/2+z
1/2+x,1/2-y,-z
1/2-x,1/2+y,1/2-z
loop_
_atom_site_type_symbol
_atom_site_label
_atom_site_fract_x
_atom_site_fract_y
_atom_site_fract_z
Si Si1 0.229442 0.712241 0.401696
Si Si2 0.083811 0.228922 0.849701
Si Si3 0.546415 0.215094 0.598090
Si Si4 0.625367 0.395286 0.694498
Si Si5 0.779280 0.413673 0.441963
Si Si6 0.683607 0.550162 0.859272
O O1 0.152702 0.726480 0.269040
O O2 0.153685 0.689598 0.536582
O O3 0.305794 0.654859 0.309969
O O4 0.284924 0.804918 0.441030
O O5 0.142361 0.144705 0.909092
O O6 0.000000 0.187019 0.750000
O O7 0.028834 0.292108 0.964451
O O8 0.500000 0.176545 0.750000
O O9 0.553569 0.321888 0.629174
O O10 0.689066 0.419274 0.553510
O O11 0.603872 0.485183 0.784901
O O12 0.841169 0.500000 0.500000
O O13 0.757427 0.434307 0.272466
O O14 0.725352 0.500000 0.000000
#
# Coordination Sequence:
#
# PCOD9316910 Si02
#       6
#     8   8   8   8   8   8
#     4   9  19  35  55  77 111 151 194 244 290 346
#     4   9  19  35  52  76 114 156 190 228 284 357
#     4  10  20  33  51  77 110 149 192 232 287 352
#     4  10  20  34  52  77 112 153 194 237 287 349
#     4   8  17  33  50  72 107 146 186 233 286 345
#     4  10  19  30  48  75 111 149 189 230 277 345
#
# _framework density 25.298691999999999
#
# number of rings (size 3 to 8) (size 9 to 14) (size 15 to 20)
#    0.000    2.667    0.000    2.000    0.000   10.000 
#    0.000    6.667    0.000    0.000    0.000    0.000 
#    0.000  221.333    0.000    0.000    0.000    0.000 
#
# Total GULP energy -133631.186418 kJ/mol
# GULP energy per Si atom -5567.966101 kJ/mol
# Density = 2.524111 g / cm^3
# Si number density = 25.298692 Si / 1000 Ang^3
#
#
#
# Elastic Constant Matrix: (Units=GPa)
#
#
# Indices 1 2 3 4 5 6 
#
# 1 70.3012 -0.3264 20.7246 0.0000 0.0000 0.0000
# 2 -0.3264 77.4896 18.0294 0.0000 0.0000 0.0000
# 3 20.7246 18.0294 158.1697 0.0000 0.0000 0.0000
# 4 0.0000 0.0000 0.0000 29.8445 0.0000 0.0000
# 5 0.0000 0.0000 0.0000 0.0000 15.2495 0.0000
# 6 0.0000 0.0000 0.0000 0.0000 0.0000 14.6975
#
#
#
# Elastic Compliance Matrix: (Units=1/GPa)
#
#
# Indices 1 2 3 4 5 6 
#
# 1 0.014817 0.000528 -0.002002 0.000000 0.000000 0.000000
# 2 0.000528 0.013275 -0.001582 0.000000 0.000000 0.000000
# 3 -0.002002 -0.001582 0.006765 0.000000 0.000000 0.000000
# 4 0.000000 0.000000 0.000000 0.033507 0.000000 0.000000
# 5 0.000000 0.000000 0.000000 0.000000 0.065576 0.000000
# 6 0.000000 0.000000 0.000000 0.000000 0.000000 0.068039
#
#
# Mechanical properties :
#
#
# Convention : Reuss Voigt Hill
#
# Bulk Modulus (GPa) = 34.78805 42.53507 38.66156
# Shear Modulus (GPa) = 22.97025 29.79381 26.38203
#
# Velocity S-wave (km/s) = 3.01651 3.43546 3.23278
# Velocity P-wave (km/s) = 5.09050 5.70843 5.40830
#
# Compressibility (1/GPa) = 0.02874550
#
# Stress axis : x y z
#
# Youngs Moduli (GPa) = 67.48984 75.32748 147.82026
#
# Poissons Ratio (x) = -0.03978 0.29588
# Poissons Ratio (y) = -0.03564 0.23392
# Poissons Ratio (z) = 0.13509 0.11920
#
# Static dielectric constant tensor:
#      x y z
#    x 2.125020 0.000000 0.000000 
#    y 0.000000 2.266380 0.000000 
#    z 0.000000 0.000000 2.217410 
# 
# From -- ./inp_files/9468.got.cif
#   From: 2010.05.17/outbox.cif.g08.bks.cpg/sg20_5_cif.got.tgz:9468.got - 2010.06.03 22:52:26.
