data_PCOD9316310
_publ_section_title
;
Structure prediction by ZEFSAII (Michael W. Deem and Ramdas Pophale) SiO2 
 PCOD9316310
Probable space group: C 2 2 21
;
_chemical_formula_sum "Si O2"
_cell_formula_units_Z 52
_cell_length_a 11.770824
_cell_length_b 31.866586
_cell_length_c 5.668213
_cell_angle_alpha 90.000000
_cell_angle_beta 90.000000
_cell_angle_gamma 90.000000
_cell_volume 2126.123883
_symmetry_space_group_name_H-M "C 2 2 21"
_symmetry_group_IT_number 20
_symmetry_cell_setting 'orthorhombic'
loop_
_space_group_symop_operation_xyz
x,y,z
-x,-y,1/2+z
x,-y,-z
-x,y,1/2-z
1/2+x,1/2+y,z
1/2-x,1/2-y,1/2+z
1/2+x,1/2-y,-z
1/2-x,1/2+y,1/2-z
loop_
_atom_site_type_symbol
_atom_site_label
_atom_site_fract_x
_atom_site_fract_y
_atom_site_fract_z
Si Si1 0.644181 0.229161 0.365070
Si Si2 0.098317 0.313214 0.136338
Si Si3 0.112277 0.400424 0.648386
Si Si4 0.275878 0.986429 0.739126
Si Si5 0.354470 0.329344 0.122072
Si Si6 0.823503 0.161281 0.380606
Si Si7 0.000000 0.542951 0.750000
O O1 0.603018 0.216012 0.627548
O O2 0.634222 0.279002 0.362790
O O3 0.771336 0.208761 0.368131
O O4 0.595250 0.210994 0.115465
O O5 0.217432 0.337152 0.119751
O O6 0.000000 0.342440 0.250000
O O7 0.186078 0.437703 0.773691
O O8 0.209331 0.366686 0.600053
O O9 0.000000 0.376974 0.750000
O O10 0.044829 0.427945 0.457654
O O11 0.209950 0.000000 0.500000
O O12 0.392068 0.013077 0.722182
O O13 0.228607 0.000000 0.000000
O O14 0.392412 0.344940 0.378566
O O15 0.386416 0.345716 0.865360
#
# Coordination Sequence:
#
# PCOD9316310 Si02
#       7
#     8   8   8   8   8   8   4
#     4  10  19  36  49  59  84 127 149 164 229 323
#     4  10  18  28  48  69  85  99 141 192 223 255
#     4  11  21  29  44  62  90 108 142 196 246 276
#     4  10  17  30  45  56  72 116 156 164 201 301
#     4  10  20  36  49  58  84 126 151 164 231 321
#     4  10  21  29  44  66  78 101 147 195 223 254
#     4  10  18  32  44  54  82 124 154 158 228 314
#
# _framework density 24.457654000000002
#
# number of rings (size 3 to 8) (size 9 to 14) (size 15 to 20)
#    0.000    1.846    2.308    5.538    2.154    4.923 
#    1.385    0.000    0.000    0.000    0.000    0.000 
#    0.000    0.000    0.000    0.000    0.000    0.000 
#
# Total GULP energy -144855.420175 kJ/mol
# GULP energy per Si atom -5571.362314 kJ/mol
# Density = 2.440199 g / cm^3
# Si number density = 24.457654 Si / 1000 Ang^3
#
#
#
# Elastic Constant Matrix: (Units=GPa)
#
#
# Indices 1 2 3 4 5 6 
#
# 1 51.6822 4.2883 46.2401 0.0000 0.0000 0.0000
# 2 4.2883 88.7340 20.4624 0.0000 0.0000 0.0000
# 3 46.2401 20.4624 261.0611 0.0000 0.0000 0.0000
# 4 0.0000 0.0000 0.0000 27.9758 0.0000 0.0000
# 5 0.0000 0.0000 0.0000 0.0000 39.7995 0.0000
# 6 0.0000 0.0000 0.0000 0.0000 0.0000 23.2511
#
#
#
# Elastic Compliance Matrix: (Units=1/GPa)
#
#
# Indices 1 2 3 4 5 6 
#
# 1 0.022995 -0.000175 -0.004059 0.000000 0.000000 0.000000
# 2 -0.000175 0.011478 -0.000869 0.000000 0.000000 0.000000
# 3 -0.004059 -0.000869 0.004618 0.000000 0.000000 0.000000
# 4 0.000000 0.000000 0.000000 0.035745 0.000000 0.000000
# 5 0.000000 0.000000 0.000000 0.000000 0.025126 0.000000
# 6 0.000000 0.000000 0.000000 0.000000 0.000000 0.043009
#
#
# Mechanical properties :
#
#
# Convention : Reuss Voigt Hill
#
# Bulk Modulus (GPa) = 34.61992 60.38432 47.50212
# Shear Modulus (GPa) = 30.71137 40.23770 35.47454
#
# Velocity S-wave (km/s) = 3.54742 4.06051 3.81261
# Velocity P-wave (km/s) = 5.56460 6.83568 6.23263
#
# Compressibility (1/GPa) = 0.02888510
#
# Stress axis : x y z
#
# Youngs Moduli (GPa) = 43.48688 87.11998 216.56243
#
# Poissons Ratio (x) = 0.01526 0.87909
# Poissons Ratio (y) = 0.00762 0.18812
# Poissons Ratio (z) = 0.17653 0.07568
#
# Static dielectric constant tensor:
#      x y z
#    x 2.475290 0.000000 0.000000 
#    y 0.000000 2.015710 0.000000 
#    z 0.000000 0.000000 2.249800 
# 
# From -- ./inp_files/2888.got.cif
#   From: 2010.05.17/outbox.cif.g08.bks.cpg/sg20_2_cif.got.tgz:2888.got - 2010.06.03 22:52:26.
