data_PCOD9316953
_publ_section_title
;
Structure prediction by ZEFSAII (Michael W. Deem and Ramdas Pophale) SiO2 
 PCOD9316953
Probable space group: C 2 2 21
;
_chemical_formula_sum "Si O2"
_cell_formula_units_Z 40
_cell_length_a 6.951383
_cell_length_b 19.570287
_cell_length_c 13.280902
_cell_angle_alpha 90.000000
_cell_angle_beta 90.000000
_cell_angle_gamma 90.000000
_cell_volume 1806.741350
_symmetry_space_group_name_H-M "C 2 2 21"
_symmetry_group_IT_number 20
_symmetry_cell_setting 'orthorhombic'
loop_
_space_group_symop_operation_xyz
x,y,z
-x,-y,1/2+z
x,-y,-z
-x,y,1/2-z
1/2+x,1/2+y,z
1/2-x,1/2-y,1/2+z
1/2+x,1/2-y,-z
1/2-x,1/2+y,1/2-z
loop_
_atom_site_type_symbol
_atom_site_label
_atom_site_fract_x
_atom_site_fract_y
_atom_site_fract_z
Si Si1 0.163314 0.077532 0.031146
Si Si2 0.272720 0.641538 0.277560
Si Si3 0.719321 0.667099 0.434661
Si Si4 0.742487 0.682386 0.867693
Si Si5 0.281962 0.705703 0.853031
O O1 0.264100 0.084209 0.139774
O O2 0.958516 0.116121 0.046147
O O3 0.270429 0.120883 0.944827
O O4 0.137119 0.000000 0.000000
O O5 0.500000 0.638156 0.250000
O O6 0.174872 0.641818 0.167345
O O7 0.244136 0.713952 0.332874
O O8 0.667418 0.745547 0.403580
O O9 0.811149 0.677430 0.544653
O O10 0.511097 0.695913 0.866560
O O11 0.785739 0.670358 0.750150
#
# Coordination Sequence:
#
# PCOD9316953 Si02
#       5
#     8   8   8   8   8
#     4  10  19  32  49  76 107 132 167 218 269 310
#     4   9  17  30  48  73 104 133 167 213 259 302
#     4   9  17  31  48  70 100 135 171 209 252 308
#     4   9  17  30  50  73  98 134 174 211 252 312
#     4   9  16  29  49  74  98 131 177 214 249 303
#
# _framework density 22.139306999999999
#
# number of rings (size 3 to 8) (size 9 to 14) (size 15 to 20)
#    0.000    2.800    2.000    0.000    0.000    0.000 
#   21.600    0.000    0.000    1.200    0.000    0.000 
#    6.000    0.000    0.000    0.000    0.000    0.000 
#
# Total GULP energy -111520.048686 kJ/mol
# GULP energy per Si atom -5576.002434 kJ/mol
# Density = 2.208892 g / cm^3
# Si number density = 22.139307 Si / 1000 Ang^3
#
#
#
# Elastic Constant Matrix: (Units=GPa)
#
#
# Indices 1 2 3 4 5 6 
#
# 1 81.6315 27.4725 9.4623 0.0000 0.0000 0.0000
# 2 27.4725 123.7564 97.1909 0.0000 0.0000 0.0000
# 3 9.4623 97.1909 254.3663 0.0000 0.0000 0.0000
# 4 0.0000 0.0000 0.0000 24.1254 0.0000 0.0000
# 5 0.0000 0.0000 0.0000 0.0000 4.3279 0.0000
# 6 0.0000 0.0000 0.0000 0.0000 0.0000 19.8827
#
#
#
# Elastic Compliance Matrix: (Units=1/GPa)
#
#
# Indices 1 2 3 4 5 6 
#
# 1 0.013385 -0.003687 0.000911 0.000000 0.000000 0.000000
# 2 -0.003687 0.012560 -0.004662 0.000000 0.000000 0.000000
# 3 0.000911 -0.004662 0.005679 0.000000 0.000000 0.000000
# 4 0.000000 0.000000 0.000000 0.041450 0.000000 0.000000
# 5 0.000000 0.000000 0.000000 0.000000 0.231060 0.000000
# 6 0.000000 0.000000 0.000000 0.000000 0.000000 0.050295
#
#
# Mechanical properties :
#
#
# Convention : Reuss Voigt Hill
#
# Bulk Modulus (GPa) = 59.70721 80.88949 70.29835
# Shear Modulus (GPa) = 13.33732 31.37575 22.35653
#
# Velocity S-wave (km/s) = 2.45710 3.76865 3.18120
# Velocity P-wave (km/s) = 5.92260 7.45338 6.73165
#
# Compressibility (1/GPa) = 0.01674840
#
# Stress axis : x y z
#
# Youngs Moduli (GPa) = 74.70878 79.61827 176.09589
#
# Poissons Ratio (x) = 0.29352 -0.16037
# Poissons Ratio (y) = 0.27542 0.82094
# Poissons Ratio (z) = -0.06804 0.37117
#
# Static dielectric constant tensor:
#      x y z
#    x 1.895880 0.000000 0.000000 
#    y 0.000000 1.714480 0.000000 
#    z 0.000000 0.000000 1.939390 
# 
# From -- ./inp_files/12908.got.cif
#   From: 2010.05.17/outbox.cif.g08.bks.cpg/sg20_7_cif.got.tgz:12908.got - 2010.06.03 22:52:26.
