data_PCOD9316765
_publ_section_title
;
Structure prediction by ZEFSAII (Michael W. Deem and Ramdas Pophale) SiO2 
 PCOD9316765
Probable space group: C 2 2 21
;
_chemical_formula_sum "Si O2"
_cell_formula_units_Z 48
_cell_length_a 8.599481
_cell_length_b 22.775832
_cell_length_c 12.372919
_cell_angle_alpha 90.000000
_cell_angle_beta 90.000000
_cell_angle_gamma 90.000000
_cell_volume 2423.364055
_symmetry_space_group_name_H-M "C 2 2 21"
_symmetry_group_IT_number 20
_symmetry_cell_setting 'orthorhombic'
loop_
_space_group_symop_operation_xyz
x,y,z
-x,-y,1/2+z
x,-y,-z
-x,y,1/2-z
1/2+x,1/2+y,z
1/2-x,1/2-y,1/2+z
1/2+x,1/2-y,-z
1/2-x,1/2+y,1/2-z
loop_
_atom_site_type_symbol
_atom_site_label
_atom_site_fract_x
_atom_site_fract_y
_atom_site_fract_z
Si Si1 0.335771 0.375162 0.500345
Si Si2 0.675426 0.654050 0.428475
Si Si3 0.312100 0.419575 0.731828
Si Si4 0.182850 0.942905 0.219294
Si Si5 0.840278 0.659067 0.651897
Si Si6 0.676398 0.784669 0.358661
O O1 0.519176 0.374738 0.524097
O O2 0.265686 0.391411 0.616978
O O3 0.298796 0.420722 0.404108
O O4 0.285237 0.312605 0.450329
O O5 0.752182 0.614119 0.336023
O O6 0.780434 0.663837 0.531650
O O7 0.637420 0.717349 0.377508
O O8 0.500000 0.412999 0.750000
O O9 0.279816 0.488643 0.730287
O O10 0.290552 0.903411 0.297122
O O11 0.000000 0.934009 0.250000
O O12 0.761215 0.704437 0.737194
O O13 0.021000 0.675729 0.642663
#
# Coordination Sequence:
#
# PCOD9316765 Si02
#       6
#     8   8   8   8   8   8
#     4  10  20  37  60  87 114 156 197 245 299 351
#     4  11  21  36  61  89 116 154 200 245 298 353
#     4   9  21  33  60  90 115 147 196 260 294 337
#     4  10  18  37  60  87 113 146 204 248 290 352
#     4  10  22  38  58  84 118 157 193 238 303 347
#     4  10  23  36  60  83 124 155 190 246 296 365
#
# _framework density 19.807176999999999
#
# number of rings (size 3 to 8) (size 9 to 14) (size 15 to 20)
#    0.000    2.000    1.667    1.500    9.333    0.667 
#    0.000    0.833   25.667    0.000    0.000    0.000 
#    0.000    0.000    0.000    0.000    0.000    0.000 
#
# Total GULP energy -133829.703324 kJ/mol
# GULP energy per Si atom -5576.237638 kJ/mol
# Density = 1.976209 g / cm^3
# Si number density = 19.807177 Si / 1000 Ang^3
#
#
#
# Elastic Constant Matrix: (Units=GPa)
#
#
# Indices 1 2 3 4 5 6 
#
# 1 8.1634 7.5167 19.0737 0.0000 0.0000 0.0000
# 2 7.5167 89.0367 56.9271 0.0000 0.0000 0.0000
# 3 19.0737 56.9271 155.6287 0.0000 0.0000 0.0000
# 4 0.0000 0.0000 0.0000 17.3968 0.0000 0.0000
# 5 0.0000 0.0000 0.0000 0.0000 12.1433 0.0000
# 6 0.0000 0.0000 0.0000 0.0000 0.0000 -4.9200
#
#
#
# Elastic Compliance Matrix: (Units=1/GPa)
#
#
# Indices 1 2 3 4 5 6 
#
# 1 0.171779 -0.001359 -0.020556 0.000000 0.000000 0.000000
# 2 -0.001359 0.014671 -0.005200 0.000000 0.000000 0.000000
# 3 -0.020556 -0.005200 0.010847 0.000000 0.000000 0.000000
# 4 0.000000 0.000000 0.000000 0.057482 0.000000 0.000000
# 5 0.000000 0.000000 0.000000 0.000000 0.082350 0.000000
# 6 0.000000 0.000000 0.000000 0.000000 0.000000 -0.203250
#
#
# Mechanical properties :
#
#
# Convention : Reuss Voigt Hill
#
# Bulk Modulus (GPa) = 6.98977 46.65155 26.82066
# Shear Modulus (GPa) = 21.20479 16.21144 18.70812
#
# Velocity S-wave (km/s) = 3.27549 2.86398 3.07663
# Velocity P-wave (km/s) = 4.22394 5.87712 5.11772
#
# Compressibility (1/GPa) = 0.14306632
#
# Stress axis : x y z
#
# Youngs Moduli (GPa) = 5.82145 68.16337 92.19267
#
# Poissons Ratio (x) = 0.09266 1.89509
# Poissons Ratio (y) = 0.00791 0.47938
# Poissons Ratio (z) = 0.11966 0.35443
#
# Static dielectric constant tensor:
#      x y z
#    x 1.711450 0.000000 0.000000 
#    y 0.000000 1.698000 0.000000 
#    z 0.000000 0.000000 1.766620 
# 
# From -- ./inp_files/13084.got.cif
#   From: 2010.05.17/outbox.cif.g08.bks.cpg/sg20_7_cif.got.tgz:13084.got - 2010.06.03 22:52:26.
