data_PCOD9316628
_publ_section_title
;
Structure prediction by ZEFSAII (Michael W. Deem and Ramdas Pophale) SiO2 
 PCOD9316628
Probable space group: C 2 2 21
;
_chemical_formula_sum "Si O2"
_cell_formula_units_Z 52
_cell_length_a 9.893865
_cell_length_b 13.982166
_cell_length_c 19.743664
_cell_angle_alpha 90.000000
_cell_angle_beta 90.000000
_cell_angle_gamma 90.000000
_cell_volume 2731.292333
_symmetry_space_group_name_H-M "C 2 2 21"
_symmetry_group_IT_number 20
_symmetry_cell_setting 'orthorhombic'
loop_
_space_group_symop_operation_xyz
x,y,z
-x,-y,1/2+z
x,-y,-z
-x,y,1/2-z
1/2+x,1/2+y,z
1/2-x,1/2-y,1/2+z
1/2+x,1/2-y,-z
1/2-x,1/2+y,1/2-z
loop_
_atom_site_type_symbol
_atom_site_label
_atom_site_fract_x
_atom_site_fract_y
_atom_site_fract_z
Si Si1 0.223133 0.136534 0.037337
Si Si2 0.823966 0.947726 0.389621
Si Si3 0.482069 0.693721 0.827976
Si Si4 0.529024 0.940511 0.328399
Si Si5 0.782908 0.340795 0.404038
Si Si6 0.276359 0.000000 0.500000
Si Si7 0.478155 0.876801 0.590555
O O1 0.186774 0.245541 0.053206
O O2 0.385416 0.127760 0.045936
O O3 0.166739 0.060311 0.092207
O O4 0.181026 0.102780 0.963160
O O5 0.682788 0.924017 0.351907
O O6 0.943988 0.905341 0.345232
O O7 0.500000 0.718657 0.750000
O O8 0.324508 0.688287 0.847022
O O9 0.546923 0.773681 0.877367
O O10 0.500000 0.921495 0.250000
O O11 0.421014 0.881994 0.373368
O O12 0.503483 0.051286 0.347090
O O13 0.710526 0.424817 0.448330
O O14 0.366309 0.927780 0.545043
#
# Coordination Sequence:
#
# PCOD9316628 Si02
#       7
#     8   8   8   8   8   4   8
#     4   9  18  35  54  78 102 135 176 216 270 311
#     4  10  20  34  56  75 102 139 177 217 257 316
#     4  11  22  36  51  78 113 149 177 209 264 326
#     4  10  19  35  55  78 102 137 177 214 256 313
#     4  10  21  35  55  78 108 134 170 226 266 310
#     4  10  18  34  56  86 104 128 178 232 278 300
#     4   9  18  33  57  79 106 138 176 222 264 319
#
# _framework density 19.038606000000001
#
# number of rings (size 3 to 8) (size 9 to 14) (size 15 to 20)
#    0.000    2.154    0.000    5.077    0.000    2.462 
#    0.000    3.846    0.000    0.000    0.000    0.000 
#    0.000    0.000    0.000    0.000    0.000    0.000 
#
# Total GULP energy -145021.874677 kJ/mol
# GULP energy per Si atom -5577.764411 kJ/mol
# Density = 1.899527 g / cm^3
# Si number density = 19.038606 Si / 1000 Ang^3
#
#
#
# Elastic Constant Matrix: (Units=GPa)
#
#
# Indices 1 2 3 4 5 6 
#
# 1 25.4959 9.4940 2.4520 0.0000 0.0000 0.0000
# 2 9.4940 96.6848 10.8758 0.0000 0.0000 0.0000
# 3 2.4520 10.8758 61.6645 0.0000 0.0000 0.0000
# 4 0.0000 0.0000 0.0000 15.9165 0.0000 0.0000
# 5 0.0000 0.0000 0.0000 0.0000 18.3484 0.0000
# 6 0.0000 0.0000 0.0000 0.0000 0.0000 15.6343
#
#
#
# Elastic Compliance Matrix: (Units=1/GPa)
#
#
# Indices 1 2 3 4 5 6 
#
# 1 0.040763 -0.003898 -0.000933 0.000000 0.000000 0.000000
# 2 -0.003898 0.010925 -0.001772 0.000000 0.000000 0.000000
# 3 -0.000933 -0.001772 0.016566 0.000000 0.000000 0.000000
# 4 0.000000 0.000000 0.000000 0.062828 0.000000 0.000000
# 5 0.000000 0.000000 0.000000 0.000000 0.054501 0.000000
# 6 0.000000 0.000000 0.000000 0.000000 0.000000 0.063962
#
#
# Mechanical properties :
#
#
# Convention : Reuss Voigt Hill
#
# Bulk Modulus (GPa) = 18.16585 25.49878 21.83231
# Shear Modulus (GPa) = 17.78722 20.71473 19.25097
#
# Velocity S-wave (km/s) = 3.05990 3.30212 3.18332
# Velocity P-wave (km/s) = 4.69535 5.28781 5.00036
#
# Compressibility (1/GPa) = 0.05504836
#
# Stress axis : x y z
#
# Youngs Moduli (GPa) = 24.53197 91.53370 60.36316
#
# Poissons Ratio (x) = 0.35678 0.05635
# Poissons Ratio (y) = 0.09562 0.10695
# Poissons Ratio (z) = 0.02290 0.16218
#
# Static dielectric constant tensor:
#      x y z
#    x 1.651190 0.000000 0.000000 
#    y 0.000000 1.672080 0.000000 
#    z 0.000000 0.000000 1.662040 
# 
# From -- ./inp_files/24375.got.cif
#   From: 2010.05.17/outbox.cif.g08.bks.cpg/sg20_13_cif.got.tgz:24375.got - 2010.06.03 22:52:26.
