data_PCOD9316251
_publ_section_title
;
Structure prediction by ZEFSAII (Michael W. Deem and Ramdas Pophale) SiO2 
 PCOD9316251
Probable space group: C 2 2 21
;
_chemical_formula_sum "Si O2"
_cell_formula_units_Z 32
_cell_length_a 16.235922
_cell_length_b 7.342223
_cell_length_c 10.209306
_cell_angle_alpha 90.000000
_cell_angle_beta 90.000000
_cell_angle_gamma 90.000000
_cell_volume 1217.028499
_symmetry_space_group_name_H-M "C 2 2 21"
_symmetry_group_IT_number 20
_symmetry_cell_setting 'orthorhombic'
loop_
_space_group_symop_operation_xyz
x,y,z
-x,-y,1/2+z
x,-y,-z
-x,y,1/2-z
1/2+x,1/2+y,z
1/2-x,1/2-y,1/2+z
1/2+x,1/2-y,-z
1/2-x,1/2+y,1/2-z
loop_
_atom_site_type_symbol
_atom_site_label
_atom_site_fract_x
_atom_site_fract_y
_atom_site_fract_z
Si Si1 0.511817 0.709380 0.891765
Si Si2 0.322303 0.273320 0.087319
Si Si3 0.429103 0.289822 0.654550
Si Si4 0.268705 0.671922 0.179932
O O1 0.500000 0.796760 0.750000
O O2 0.418494 0.708472 0.947888
O O3 0.548797 0.506831 0.863304
O O4 0.566374 0.788490 0.008328
O O5 0.291732 0.471215 0.132730
O O6 0.308653 0.165876 0.223010
O O7 0.272817 0.215666 0.956131
O O8 0.500000 0.218222 0.750000
O O9 0.342880 0.270147 0.724847
#
# Coordination Sequence:
#
# PCOD9316251 Si02
#       4
#     8   8   8   8
#     4  10  18  31  59  88 111 147 211 248 287 348
#     4  11  23  39  57  94 127 158 198 254 304 366
#     4  10  16  33  59  84 110 152 203 253 286 338
#     4  11  23  38  59  92 128 157 199 253 308 360
#
# _framework density 26.293551000000001
#
# number of rings (size 3 to 8) (size 9 to 14) (size 15 to 20)
#    0.000    1.500    7.500    1.500    3.500    1.000 
#    0.000    0.000    0.000    1.500    0.000    0.000 
#    0.000    0.000    0.000    0.000    0.000    0.000 
#
# Total GULP energy -89441.120191 kJ/mol
# GULP energy per Si atom -5590.070012 kJ/mol
# Density = 2.623371 g / cm^3
# Si number density = 26.293551 Si / 1000 Ang^3
#
#
#
# Elastic Constant Matrix: (Units=GPa)
#
#
# Indices 1 2 3 4 5 6 
#
# 1 101.9920 1.5241 25.7425 0.0000 0.0000 0.0000
# 2 1.5241 72.7432 20.7042 0.0000 0.0000 0.0000
# 3 25.7425 20.7042 250.6745 0.0000 0.0000 0.0000
# 4 0.0000 0.0000 0.0000 11.1819 0.0000 0.0000
# 5 0.0000 0.0000 0.0000 0.0000 50.1230 0.0000
# 6 0.0000 0.0000 0.0000 0.0000 0.0000 13.3848
#
#
#
# Elastic Compliance Matrix: (Units=1/GPa)
#
#
# Indices 1 2 3 4 5 6 
#
# 1 0.010066 0.000085 -0.001041 0.000000 0.000000 0.000000
# 2 0.000085 0.014079 -0.001172 0.000000 0.000000 0.000000
# 3 -0.001041 -0.001172 0.004193 0.000000 0.000000 0.000000
# 4 0.000000 0.000000 0.000000 0.089430 0.000000 0.000000
# 5 0.000000 0.000000 0.000000 0.000000 0.019951 0.000000
# 6 0.000000 0.000000 0.000000 0.000000 0.000000 0.074712
#
#
# Mechanical properties :
#
#
# Convention : Reuss Voigt Hill
#
# Bulk Modulus (GPa) = 41.52203 57.92791 49.72497
# Shear Modulus (GPa) = 22.25071 40.10055 31.17563
#
# Velocity S-wave (km/s) = 2.91218 3.90950 3.44710
# Velocity P-wave (km/s) = 5.20900 6.51598 5.89880
#
# Compressibility (1/GPa) = 0.02408360
#
# Stress axis : x y z
#
# Youngs Moduli (GPa) = 99.34331 71.02952 238.49954
#
# Poissons Ratio (x) = -0.00606 0.24822
# Poissons Ratio (y) = -0.00848 0.27942
# Poissons Ratio (z) = 0.10339 0.08322
#
# Static dielectric constant tensor:
#      x y z
#    x 2.060870 0.000000 0.000000 
#    y 0.000000 2.186480 0.000000 
#    z 0.000000 0.000000 2.218130 
# 
# From -- ./inp_files/7833.got.cif
#   From: 2010.05.17/outbox.cif.g08.bks.cpg/sg20_4_cif.got.tgz:7833.got - 2010.06.03 22:52:26.
