data_PCOD9316022
_publ_section_title
;
Structure prediction by ZEFSAII (Michael W. Deem and Ramdas Pophale) SiO2 
 PCOD9316022
Probable space group: P 21 21 21
;
_chemical_formula_sum "Si O2"
_cell_formula_units_Z 28
_cell_length_a 15.044139
_cell_length_b 4.856570
_cell_length_c 14.818103
_cell_angle_alpha 90.000000
_cell_angle_beta 90.000000
_cell_angle_gamma 90.000000
_cell_volume 1082.653787
_symmetry_space_group_name_H-M "P 21 21 21"
_symmetry_group_IT_number 19
_symmetry_cell_setting 'orthorhombic'
loop_
_space_group_symop_operation_xyz
x,y,z
1/2-x,-y,1/2+z
1/2+x,1/2-y,-z
-x,1/2+y,1/2-z
loop_
_atom_site_type_symbol
_atom_site_label
_atom_site_fract_x
_atom_site_fract_y
_atom_site_fract_z
Si Si1 0.441852 0.547655 0.250592
Si Si2 0.895084 0.870687 0.944890
Si Si3 0.720648 0.153857 0.761605
Si Si4 0.212433 0.375462 0.024377
Si Si5 0.460645 0.935784 0.790623
Si Si6 0.502687 0.122459 0.989261
Si Si7 0.706021 0.357416 0.161913
O O1 0.476931 0.249516 0.271700
O O2 0.384660 0.549280 0.159771
O O3 0.388971 0.708660 0.327079
O O4 0.797285 0.918648 0.987080
O O5 0.937639 0.569892 0.951467
O O6 0.971128 0.069719 0.986388
O O7 0.717598 0.201987 0.869489
O O8 0.629185 0.273359 0.723825
O O9 0.790660 0.347403 0.708647
O O10 0.732648 0.846204 0.722744
O O11 0.107925 0.451368 0.010287
O O12 0.229118 0.155950 0.943727
O O13 0.531891 0.691645 0.777303
O O14 0.472052 0.065481 0.887687
#
# Coordination Sequence:
#
# PCOD9316022 Si02
#       7
#     4   4   4   4   4   4   4
#     4  12  25  47  74 107 151 198 256 325 389 457
#     4  12  27  48  76 115 156 203 265 327 384 477
#     4  12  27  48  78 115 155 202 265 329 393 474
#     4  12  28  52  84 114 166 216 265 328 412 472
#     4  12  24  46  72 108 153 194 252 323 394 461
#     4  12  28  49  77 117 156 208 267 328 394 482
#     4  12  27  48  75 112 151 205 260 320 390 477
#
# _framework density 25.862378
#
# number of rings (size 3 to 8) (size 9 to 14) (size 15 to 20)
#    0.000    0.000    2.857    6.857    2.000    3.429 
#    0.000    0.000    0.000    0.000    0.000    0.000 
#    0.000    0.000    0.000    0.000    0.000    0.000 
#
# Total GULP energy -156741.027754 kJ/mol
# GULP energy per Si atom -5597.893848 kJ/mol
# Density = 2.580351 g / cm^3
# Si number density = 25.862378 Si / 1000 Ang^3
#
#
#
# Elastic Constant Matrix: (Units=GPa)
#
#
# Indices 1 2 3 4 5 6 
#
# 1 147.9568 12.4415 22.9138 0.0000 0.0000 0.0000
# 2 12.4415 87.6411 -11.2651 0.0000 0.0000 0.0000
# 3 22.9138 -11.2651 100.6563 0.0000 0.0000 0.0000
# 4 0.0000 0.0000 0.0000 21.6573 0.0000 0.0000
# 5 0.0000 0.0000 0.0000 0.0000 31.5180 0.0000
# 6 0.0000 0.0000 0.0000 0.0000 0.0000 -90.2879
#
#
#
# Elastic Compliance Matrix: (Units=1/GPa)
#
#
# Indices 1 2 3 4 5 6 
#
# 1 0.007136 -0.001240 -0.001763 0.000000 0.000000 0.000000
# 2 -0.001240 0.011792 0.001602 0.000000 0.000000 0.000000
# 3 -0.001763 0.001602 0.010515 0.000000 0.000000 0.000000
# 4 0.000000 0.000000 0.000000 0.046174 0.000000 0.000000
# 5 0.000000 0.000000 0.000000 0.000000 0.031728 0.000000
# 6 0.000000 0.000000 0.000000 0.000000 0.000000 -0.011076
#
#
# Mechanical properties :
#
#
# Convention : Reuss Voigt Hill
#
# Bulk Modulus (GPa) = 37.53522 42.71496 40.12509
# Shear Modulus (GPa) = 46.31685 13.38842 29.85263
#
# Velocity S-wave (km/s) = 4.23649 2.27772 3.40117
# Velocity P-wave (km/s) = 6.20286 4.84453 5.56529
#
# Compressibility (1/GPa) = 0.02664165
#
# Stress axis : x y z
#
# Youngs Moduli (GPa) = 140.13376 84.80283 95.09805
#
# Poissons Ratio (x) = 0.10513 0.16768
# Poissons Ratio (y) = 0.17372 -0.15234
# Poissons Ratio (z) = 0.24709 -0.13585
#
# Static dielectric constant tensor:
#      x y z
#    x 2.220100 0.000000 0.000000 
#    y 0.000000 1.972390 0.000000 
#    z 0.000000 0.000000 2.283160 
# 
# From -- ./inp_files/6239.got.cif
#   From: 2010.05.17/outbox.cif.g08.bks.cpg/sg19_4_cif.got.tgz:6239.got - 2010.06.03 22:46:19.
