data_PCOD9316799
_publ_section_title
;
Structure prediction by ZEFSAII (Michael W. Deem and Ramdas Pophale) SiO2 
 PCOD9316799
Probable space group: C 2 2 21
;
_chemical_formula_sum "Si O2"
_cell_formula_units_Z 36
_cell_length_a 20.723341
_cell_length_b 8.380336
_cell_length_c 10.358323
_cell_angle_alpha 90.000000
_cell_angle_beta 90.000000
_cell_angle_gamma 90.000000
_cell_volume 1798.915046
_symmetry_space_group_name_H-M "C 2 2 21"
_symmetry_group_IT_number 20
_symmetry_cell_setting 'orthorhombic'
loop_
_space_group_symop_operation_xyz
x,y,z
-x,-y,1/2+z
x,-y,-z
-x,y,1/2-z
1/2+x,1/2+y,z
1/2-x,1/2-y,1/2+z
1/2+x,1/2-y,-z
1/2-x,1/2+y,1/2-z
loop_
_atom_site_type_symbol
_atom_site_label
_atom_site_fract_x
_atom_site_fract_y
_atom_site_fract_z
Si Si1 0.043495 0.833586 0.467985
Si Si2 0.893287 0.590534 0.861173
Si Si3 0.242853 0.544876 0.356867
Si Si4 0.500000 0.113458 0.250000
Si Si5 0.315572 0.598283 0.871409
O O1 0.072714 0.754717 0.598311
O O2 0.000854 0.718828 0.379584
O O3 0.108115 0.870320 0.384865
O O4 0.010520 0.000000 0.500000
O O5 0.818581 0.572009 0.826495
O O6 0.937270 0.497464 0.760405
O O7 0.896453 0.500000 0.000000
O O8 0.265481 0.500000 0.500000
O O9 0.295606 0.507744 0.249978
O O10 0.217009 0.726704 0.360555
O O11 0.296066 0.500000 0.000000
#
# Coordination Sequence:
#
# PCOD9316799 Si02
#       5
#     8   8   8   4   8
#     4  10  21  38  62  89 117 160 203 255 315 363
#     4   9  18  37  61  83 117 161 201 247 310 369
#     4  11  20  38  62  91 126 165 209 249 307 375
#     4  10  18  38  64  82 112 160 212 244 292 376
#     4  11  22  37  62  93 126 165 204 254 310 371
#
# _framework density 20.012062
#
# number of rings (size 3 to 8) (size 9 to 14) (size 15 to 20)
#    0.000    1.778    6.667    1.333    3.111    0.889 
#    0.000    4.444    0.000    0.000    0.000    0.000 
#    0.000    0.000    0.000    0.000    0.000    0.000 
#
# Total GULP energy -100377.923121 kJ/mol
# GULP energy per Si atom -5576.551285 kJ/mol
# Density = 1.996651 g / cm^3
# Si number density = 20.012062 Si / 1000 Ang^3
#
#
#
# Elastic Constant Matrix: (Units=GPa)
#
#
# Indices 1 2 3 4 5 6 
#
# 1 50.1123 11.1703 48.4571 0.0000 0.0000 0.0000
# 2 11.1703 87.0332 26.0180 0.0000 0.0000 0.0000
# 3 48.4571 26.0180 88.9874 0.0000 0.0000 0.0000
# 4 0.0000 0.0000 0.0000 40.3273 0.0000 0.0000
# 5 0.0000 0.0000 0.0000 0.0000 32.7506 0.0000
# 6 0.0000 0.0000 0.0000 0.0000 0.0000 -532.4917
#
#
#
# Elastic Compliance Matrix: (Units=1/GPa)
#
#
# Indices 1 2 3 4 5 6 
#
# 1 0.042351 0.001598 -0.023529 0.000000 0.000000 0.000000
# 2 0.001598 0.012651 -0.004569 0.000000 0.000000 0.000000
# 3 -0.023529 -0.004569 0.025386 0.000000 0.000000 0.000000
# 4 0.000000 0.000000 0.000000 0.024797 0.000000 0.000000
# 5 0.000000 0.000000 0.000000 0.000000 0.030534 0.000000
# 6 0.000000 0.000000 0.000000 0.000000 0.000000 -0.001878
#
#
# Mechanical properties :
#
#
# Convention : Reuss Voigt Hill
#
# Bulk Modulus (GPa) = 36.51268 44.15817 40.33543
# Shear Modulus (GPa) = 25.51431 -82.51693 -28.50131
#
# Velocity S-wave (km/s) = 3.57451 -6.42831 -3.77796
# Velocity P-wave (km/s) = 5.94316 5.74315 1.08105
#
# Compressibility (1/GPa) = 0.02738775
#
# Stress axis : x y z
#
# Youngs Moduli (GPa) = 23.61242 79.04739 39.39212
#
# Poissons Ratio (x) = -0.12634 0.92685
# Poissons Ratio (y) = -0.03774 0.17999
# Poissons Ratio (z) = 0.55557 0.36117
#
# Static dielectric constant tensor:
#      x y z
#    x 1.709040 0.000000 0.000000 
#    y 0.000000 1.828620 0.000000 
#    z 0.000000 0.000000 1.688890 
# 
# From -- ./inp_files/9848.got.cif
#   From: 2010.05.17/outbox.cif.g08.bks.cpg/sg20_5_cif.got.tgz:9848.got - 2010.06.03 22:52:26.
