data_PCOD9316969
_publ_section_title
;
Structure prediction by ZEFSAII (Michael W. Deem and Ramdas Pophale) SiO2 
 PCOD9316969
Probable space group: C 2 2 21
;
_chemical_formula_sum "Si O2"
_cell_formula_units_Z 40
_cell_length_a 8.672751
_cell_length_b 27.698675
_cell_length_c 9.347621
_cell_angle_alpha 90.000000
_cell_angle_beta 90.000000
_cell_angle_gamma 90.000000
_cell_volume 2245.520208
_symmetry_space_group_name_H-M "C 2 2 21"
_symmetry_group_IT_number 20
_symmetry_cell_setting 'orthorhombic'
loop_
_space_group_symop_operation_xyz
x,y,z
-x,-y,1/2+z
x,-y,-z
-x,y,1/2-z
1/2+x,1/2+y,z
1/2-x,1/2-y,1/2+z
1/2+x,1/2-y,-z
1/2-x,1/2+y,1/2-z
loop_
_atom_site_type_symbol
_atom_site_label
_atom_site_fract_x
_atom_site_fract_y
_atom_site_fract_z
Si Si1 0.899455 0.360267 0.979100
Si Si2 0.290552 0.200603 0.456386
Si Si3 0.177005 0.710433 0.718391
Si Si4 0.919524 0.453782 0.598343
Si Si5 0.827510 0.117237 0.218559
O O1 0.769873 0.365057 0.857201
O O2 0.038291 0.322929 0.938082
O O3 0.978146 0.412905 0.982117
O O4 0.835935 0.338956 0.127349
O O5 0.267804 0.250983 0.376442
O O6 0.255814 0.204956 0.623967
O O7 0.174384 0.162831 0.386198
O O8 0.000000 0.726834 0.750000
O O9 0.898359 0.500000 0.500000
O O10 0.764958 0.425912 0.643518
O O11 0.000000 0.466095 0.750000
O O12 0.000000 0.102560 0.250000
#
# Coordination Sequence:
#
# PCOD9316969 Si02
#       5
#     8   8   8   8   8
#     4   9  20  38  56  79 110 142 182 224 268 323
#     4  10  19  32  53  77 106 147 184 222 267 318
#     4  10  20  33  52  79 109 144 184 228 269 316
#     4   9  19  36  62  85 106 140 178 222 273 326
#     4  10  20  37  55  78 112 145 179 224 270 317
#
# _framework density 17.813244000000001
#
# number of rings (size 3 to 8) (size 9 to 14) (size 15 to 20)
#    0.000    2.400    0.000    3.600    0.000    7.200 
#    0.000    9.000    0.000    0.000    0.000    0.000 
#    0.000    0.000    0.000    0.000    0.000    0.000 
#
# Total GULP energy -111555.238131 kJ/mol
# GULP energy per Si atom -5577.761907 kJ/mol
# Density = 1.777270 g / cm^3
# Si number density = 17.813244 Si / 1000 Ang^3
#
#
#
# Elastic Constant Matrix: (Units=GPa)
#
#
# Indices 1 2 3 4 5 6 
#
# 1 46.7407 49.8959 44.9790 0.0000 0.0000 0.0000
# 2 49.8959 104.7375 90.0690 0.0000 0.0000 0.0000
# 3 44.9790 90.0690 138.6815 0.0000 0.0000 0.0000
# 4 0.0000 0.0000 0.0000 44.3090 0.0000 0.0000
# 5 0.0000 0.0000 0.0000 0.0000 16.7586 0.0000
# 6 0.0000 0.0000 0.0000 0.0000 0.0000 4.1938
#
#
#
# Elastic Compliance Matrix: (Units=1/GPa)
#
#
# Indices 1 2 3 4 5 6 
#
# 1 0.043667 -0.019532 -0.001477 0.000000 0.000000 0.000000
# 2 -0.019532 0.030363 -0.013385 0.000000 0.000000 0.000000
# 3 -0.001477 -0.013385 0.016383 0.000000 0.000000 0.000000
# 4 0.000000 0.000000 0.000000 0.022569 0.000000 0.000000
# 5 0.000000 0.000000 0.000000 0.000000 0.059671 0.000000
# 6 0.000000 0.000000 0.000000 0.000000 0.000000 0.238446
#
#
# Mechanical properties :
#
#
# Convention : Reuss Voigt Hill
#
# Bulk Modulus (GPa) = 46.24417 73.33861 59.79139
# Shear Modulus (GPa) = 10.26496 20.06666 15.16581
#
# Velocity S-wave (km/s) = 2.40313 3.35998 2.92100
# Velocity P-wave (km/s) = 5.80663 7.50419 6.70932
#
# Compressibility (1/GPa) = 0.02162435
#
# Stress axis : x y z
#
# Youngs Moduli (GPa) = 22.90078 32.93514 61.04004
#
# Poissons Ratio (x) = 0.64329 0.09016
# Poissons Ratio (y) = 0.44730 0.81700
# Poissons Ratio (z) = 0.03383 0.44082
#
# Static dielectric constant tensor:
#      x y z
#    x 1.633260 0.000000 0.000000 
#    y 0.000000 1.587030 0.000000 
#    z 0.000000 0.000000 1.620280 
# 
# From -- ./inp_files/6092.got.cif
#   From: 2010.05.17/outbox.cif.g08.bks.cpg/sg20_4_cif.got.tgz:6092.got - 2010.06.03 22:52:26.
