data_PCOD9316893
_publ_section_title
;
Structure prediction by ZEFSAII (Michael W. Deem and Ramdas Pophale) SiO2 
 PCOD9316893
Probable space group: C 2 2 21
;
_chemical_formula_sum "Si O2"
_cell_formula_units_Z 64
_cell_length_a 15.455910
_cell_length_b 28.446738
_cell_length_c 5.730081
_cell_angle_alpha 90.000000
_cell_angle_beta 90.000000
_cell_angle_gamma 90.000000
_cell_volume 2519.345987
_symmetry_space_group_name_H-M "C 2 2 21"
_symmetry_group_IT_number 20
_symmetry_cell_setting 'orthorhombic'
loop_
_space_group_symop_operation_xyz
x,y,z
-x,-y,1/2+z
x,-y,-z
-x,y,1/2-z
1/2+x,1/2+y,z
1/2-x,1/2-y,1/2+z
1/2+x,1/2-y,-z
1/2-x,1/2+y,1/2-z
loop_
_atom_site_type_symbol
_atom_site_label
_atom_site_fract_x
_atom_site_fract_y
_atom_site_fract_z
Si Si1 0.676020 0.229833 0.127434
Si Si2 0.643948 0.216832 0.621238
Si Si3 0.544050 0.430580 0.999120
Si Si4 0.725955 0.552503 0.197469
Si Si5 0.336337 0.885523 0.119476
Si Si6 0.210931 0.139677 0.498216
Si Si7 0.126018 0.482774 0.245884
Si Si8 0.517728 0.675463 0.498063
O O1 0.623392 0.236173 0.365162
O O2 0.752372 0.268802 0.120951
O O3 0.724640 0.178058 0.125289
O O4 0.623497 0.231356 0.886322
O O5 0.614405 0.162735 0.594888
O O6 0.500000 0.445617 0.750000
O O7 0.642894 0.447492 0.970858
O O8 0.500000 0.444344 0.250000
O O9 0.537552 0.373642 0.995668
O O10 0.698453 0.586299 0.408068
O O11 0.774701 0.503715 0.248886
O O12 0.804085 0.585218 0.100108
O O13 0.250383 0.867555 0.248359
O O14 0.379139 0.926587 0.268797
O O15 0.117736 0.161798 0.490579
O O16 0.092727 0.500000 0.500000
O O17 0.090071 0.500000 0.000000
O O18 0.500000 0.696095 0.750000
O O19 0.500000 0.699319 0.250000
#
# Coordination Sequence:
#
# PCOD9316893 Si02
#       8
#     8   8   8   8   8   8   8   8
#     4   9  18  28  42  65  81  97 119 149 190 246
#     4   9  17  29  43  61  84  97 118 148 190 248
#     4  10  19  29  42  57  71  92 124 159 198 237
#     4  11  19  30  45  60  75 100 130 168 197 238
#     4  10  19  30  46  58  78 101 125 155 205 237
#     4  11  18  28  47  60  78 101 126 159 205 239
#     4  10  21  31  43  60  77  94 130 164 191 234
#     4  10  19  28  39  60  72  94 128 158 190 239
#
# _framework density 25.403417000000001
#
# number of rings (size 3 to 8) (size 9 to 14) (size 15 to 20)
#    0.000    2.000    5.000    1.500    0.000    0.000 
#    0.000    0.000    0.000   14.250    0.000    0.000 
#    0.000    0.000    0.000    0.000    0.000    0.000 
#
# Total GULP energy -178343.742139 kJ/mol
# GULP energy per Si atom -5573.241942 kJ/mol
# Density = 2.534560 g / cm^3
# Si number density = 25.403417 Si / 1000 Ang^3
#
#
#
# Elastic Constant Matrix: (Units=GPa)
#
#
# Indices 1 2 3 4 5 6 
#
# 1 71.3301 20.1484 27.5148 0.0000 0.0000 0.0000
# 2 20.1484 155.2623 27.5058 0.0000 0.0000 0.0000
# 3 27.5148 27.5058 221.3369 0.0000 0.0000 0.0000
# 4 0.0000 0.0000 0.0000 21.8979 0.0000 0.0000
# 5 0.0000 0.0000 0.0000 0.0000 -285.7458 0.0000
# 6 0.0000 0.0000 0.0000 0.0000 0.0000 70.1081
#
#
#
# Elastic Compliance Matrix: (Units=1/GPa)
#
#
# Indices 1 2 3 4 5 6 
#
# 1 0.015136 -0.001668 -0.001674 0.000000 0.000000 0.000000
# 2 -0.001668 0.006769 -0.000634 0.000000 0.000000 0.000000
# 3 -0.001674 -0.000634 0.004805 0.000000 0.000000 0.000000
# 4 0.000000 0.000000 0.000000 0.045667 0.000000 0.000000
# 5 0.000000 0.000000 0.000000 0.000000 -0.003500 0.000000
# 6 0.000000 0.000000 0.000000 0.000000 0.000000 0.014264
#
#
# Mechanical properties :
#
#
# Convention : Reuss Voigt Hill
#
# Bulk Modulus (GPa) = 53.30848 66.47415 59.89132
# Shear Modulus (GPa) = 51.36318 -13.89729 18.73294
#
# Velocity S-wave (km/s) = 4.50143 -2.34148 2.71849
# Velocity P-wave (km/s) = 6.93163 4.34905 5.78626
#
# Compressibility (1/GPa) = 0.01875874
#
# Stress axis : x y z
#
# Youngs Moduli (GPa) = 66.06661 147.72302 208.11974
#
# Poissons Ratio (x) = 0.24634 0.34847
# Poissons Ratio (y) = 0.11017 0.13194
# Poissons Ratio (z) = 0.11062 0.09365
#
# Static dielectric constant tensor:
#      x y z
#    x 1.978310 0.000000 0.000000 
#    y 0.000000 2.234150 0.000000 
#    z 0.000000 0.000000 2.099190 
# 
# From -- ./inp_files/3925.got.cif
#   From: 2010.05.17/outbox.cif.g08.bks.cpg/sg20_2_cif.got.tgz:3925.got - 2010.06.03 22:52:26.
