data_PCOD9316302
_publ_section_title
;
Structure prediction by ZEFSAII (Michael W. Deem and Ramdas Pophale) SiO2 
 PCOD9316302
Probable space group: C 2 2 21
;
_chemical_formula_sum "Si O2"
_cell_formula_units_Z 64
_cell_length_a 5.101136
_cell_length_b 28.622569
_cell_length_c 27.479528
_cell_angle_alpha 90.000000
_cell_angle_beta 90.000000
_cell_angle_gamma 90.000000
_cell_volume 4012.220403
_symmetry_space_group_name_H-M "C 2 2 21"
_symmetry_group_IT_number 20
_symmetry_cell_setting 'orthorhombic'
loop_
_space_group_symop_operation_xyz
x,y,z
-x,-y,1/2+z
x,-y,-z
-x,y,1/2-z
1/2+x,1/2+y,z
1/2-x,1/2-y,1/2+z
1/2+x,1/2-y,-z
1/2-x,1/2+y,1/2-z
loop_
_atom_site_type_symbol
_atom_site_label
_atom_site_fract_x
_atom_site_fract_y
_atom_site_fract_z
Si Si1 0.922622 0.088296 0.464788
Si Si2 0.952460 0.802970 0.963709
Si Si3 0.032045 0.370099 0.192491
Si Si4 0.034485 0.173576 0.857723
Si Si5 0.567429 0.409874 0.424237
Si Si6 0.951404 0.248920 0.933463
Si Si7 0.930932 0.552745 0.882888
Si Si8 0.085235 0.530155 0.051238
O O1 0.979369 0.142837 0.456145
O O2 0.134252 0.053870 0.440708
O O3 0.978858 0.081060 0.521774
O O4 0.632604 0.070379 0.453856
O O5 0.666068 0.788565 0.945018
O O6 0.164576 0.771184 0.936046
O O7 0.970361 0.786830 0.020386
O O8 0.303267 0.345613 0.176839
O O9 0.001742 0.421847 0.167988
O O10 0.000000 0.372819 0.250000
O O11 0.805185 0.338205 0.168614
O O12 0.012474 0.140291 0.904806
O O13 0.003201 0.224073 0.881870
O O14 0.878150 0.416064 0.418028
O O15 0.379981 0.442579 0.391335
O O16 0.014083 0.502295 0.902626
O O17 0.082545 0.500000 0.000000
#
# Coordination Sequence:
#
# PCOD9316302 Si02
#       8
#     8   8   8   8   8   8   8   8
#     4  12  20  31  44  65 101 131 172 207 236 277
#     4  10  21  31  46  68 100 134 172 205 235 274
#     4  10  21  35  53  75 102 127 159 209 260 308
#     4  10  19  32  53  72  98 131 168 197 249 300
#     4  10  17  29  44  66  93 129 165 198 234 277
#     4  10  19  33  48  69  95 133 174 199 233 298
#     4  10  20  31  45  67  95 130 164 200 242 297
#     4  12  21  29  46  67  96 133 177 209 237 283
#
# _framework density 15.951269
#
# number of rings (size 3 to 8) (size 9 to 14) (size 15 to 20)
#    0.000    1.500    3.750    3.000    0.000    0.000 
#    0.000    0.000    0.000    0.000    0.000    0.000 
#    0.000   20.000    0.000    0.000    0.000    0.000 
#
# Total GULP energy -178242.852206 kJ/mol
# GULP energy per Si atom -5570.089131 kJ/mol
# Density = 1.591496 g / cm^3
# Si number density = 15.951269 Si / 1000 Ang^3
#
#
#
# Elastic Constant Matrix: (Units=GPa)
#
#
# Indices 1 2 3 4 5 6 
#
# 1 46.7579 -12.4239 -9.4314 0.0000 0.0000 0.0000
# 2 -12.4239 49.8609 7.8830 0.0000 0.0000 0.0000
# 3 -9.4314 7.8830 42.4359 0.0000 0.0000 0.0000
# 4 0.0000 0.0000 0.0000 8.0502 0.0000 0.0000
# 5 0.0000 0.0000 0.0000 0.0000 9.8579 0.0000
# 6 0.0000 0.0000 0.0000 0.0000 0.0000 8.4128
#
#
#
# Elastic Compliance Matrix: (Units=1/GPa)
#
#
# Indices 1 2 3 4 5 6 
#
# 1 0.023636 0.005212 0.004285 0.000000 0.000000 0.000000
# 2 0.005212 0.021812 -0.002893 0.000000 0.000000 0.000000
# 3 0.004285 -0.002893 0.025055 0.000000 0.000000 0.000000
# 4 0.000000 0.000000 0.000000 0.124221 0.000000 0.000000
# 5 0.000000 0.000000 0.000000 0.000000 0.101442 0.000000
# 6 0.000000 0.000000 0.000000 0.000000 0.000000 0.118867
#
#
# Mechanical properties :
#
#
# Convention : Reuss Voigt Hill
#
# Bulk Modulus (GPa) = 11.94608 12.34555 12.14582
# Shear Modulus (GPa) = 11.63525 15.46597 13.55061
#
# Velocity S-wave (km/s) = 2.70372 3.11718 2.91778
# Velocity P-wave (km/s) = 4.15357 4.55105 4.35685
#
# Compressibility (1/GPa) = 0.08370946
#
# Stress axis : x y z
#
# Youngs Moduli (GPa) = 42.30848 45.84650 39.91256
#
# Poissons Ratio (x) = -0.23895 -0.17102
# Poissons Ratio (y) = -0.22051 0.11549
# Poissons Ratio (z) = -0.18129 0.13265
#
# Static dielectric constant tensor:
#      x y z
#    x 1.555870 0.000000 0.000000 
#    y 0.000000 1.564820 0.000000 
#    z 0.000000 0.000000 1.516370 
# 
# From -- ./inp_files/28535.got.cif
#   From: 2010.05.17/outbox.cif.g08.bks.cpg/sg20_15_cif.got.tgz:28535.got - 2010.06.03 22:52:26.
