data_PCOD9316025
_publ_section_title
;
Structure prediction by ZEFSAII (Michael W. Deem and Ramdas Pophale) SiO2 
 PCOD9316025
Probable space group: P 21 21 21
;
_chemical_formula_sum "Si O2"
_cell_formula_units_Z 28
_cell_length_a 11.524309
_cell_length_b 6.887781
_cell_length_c 16.248729
_cell_angle_alpha 90.000000
_cell_angle_beta 90.000000
_cell_angle_gamma 90.000000
_cell_volume 1289.774006
_symmetry_space_group_name_H-M "P 21 21 21"
_symmetry_group_IT_number 19
_symmetry_cell_setting 'orthorhombic'
loop_
_space_group_symop_operation_xyz
x,y,z
1/2-x,-y,1/2+z
1/2+x,1/2-y,-z
-x,1/2+y,1/2-z
loop_
_atom_site_type_symbol
_atom_site_label
_atom_site_fract_x
_atom_site_fract_y
_atom_site_fract_z
Si Si1 0.228185 0.925858 0.069314
Si Si2 0.327365 0.731891 0.909924
Si Si3 0.683644 0.834019 0.778584
Si Si4 0.577620 0.686427 0.361717
Si Si5 0.026166 0.939430 0.331122
Si Si6 0.483158 0.384886 0.969116
Si Si7 0.877244 0.076165 0.697145
O O1 0.212780 0.748383 0.132024
O O2 0.298405 0.094312 0.115900
O O3 0.103955 0.002771 0.040452
O O4 0.300519 0.854891 0.991283
O O5 0.382726 0.526537 0.935392
O O6 0.208236 0.698564 0.860903
O O7 0.418305 0.856218 0.857258
O O8 0.614113 0.669436 0.729414
O O9 0.596276 0.015233 0.788411
O O10 0.798015 0.900000 0.731245
O O11 0.540143 0.821845 0.437534
O O12 0.583521 0.800845 0.276062
O O13 0.485725 0.512092 0.351167
O O14 0.011737 0.803455 0.410588
#
# Coordination Sequence:
#
# PCOD9316025 Si02
#       7
#     4   4   4   4   4   4   4
#     4  12  27  46  79 107 152 197 248 306 372 452
#     4  12  27  48  76 114 150 200 251 313 373 446
#     4  12  24  46  77 107 149 193 248 306 375 445
#     4  12  29  49  76 110 156 200 252 309 387 451
#     4  12  24  48  74 114 148 191 253 311 373 440
#     4  12  27  49  77 113 150 197 251 311 373 448
#     4  12  28  48  77 109 157 198 251 312 381 456
#
# _framework density 21.709230000000002
#
# number of rings (size 3 to 8) (size 9 to 14) (size 15 to 20)
#    0.000    0.000    4.286    5.143   10.000    0.000 
#    0.000    0.000    0.000    0.000    0.000    0.000 
#    0.000    0.000    0.000    0.000    0.000    0.000 
#
# Total GULP energy -156961.999541 kJ/mol
# GULP energy per Si atom -5605.785698 kJ/mol
# Density = 2.165982 g / cm^3
# Si number density = 21.709230 Si / 1000 Ang^3
#
#
#
# Elastic Constant Matrix: (Units=GPa)
#
#
# Indices 1 2 3 4 5 6 
#
# 1 51.1762 -13.3597 8.0141 0.0000 0.0000 0.0000
# 2 -13.3597 49.3940 19.4276 0.0000 0.0000 0.0000
# 3 8.0141 19.4276 76.9652 0.0000 0.0000 0.0000
# 4 0.0000 0.0000 0.0000 60.5791 0.0000 0.0000
# 5 0.0000 0.0000 0.0000 0.0000 34.4345 0.0000
# 6 0.0000 0.0000 0.0000 0.0000 0.0000 27.6641
#
#
#
# Elastic Compliance Matrix: (Units=1/GPa)
#
#
# Indices 1 2 3 4 5 6 
#
# 1 0.022211 0.007679 -0.004251 0.000000 0.000000 0.000000
# 2 0.007679 0.025132 -0.007144 0.000000 0.000000 0.000000
# 3 -0.004251 -0.007144 0.015239 0.000000 0.000000 0.000000
# 4 0.000000 0.000000 0.000000 0.016507 0.000000 0.000000
# 5 0.000000 0.000000 0.000000 0.000000 0.029041 0.000000
# 6 0.000000 0.000000 0.000000 0.000000 0.000000 0.036148
#
#
# Mechanical properties :
#
#
# Convention : Reuss Voigt Hill
#
# Bulk Modulus (GPa) = 18.13196 22.85550 20.49373
# Shear Modulus (GPa) = 29.39586 35.43240 32.41413
#
# Velocity S-wave (km/s) = 3.68376 4.04435 3.86826
# Velocity P-wave (km/s) = 5.14430 5.68858 5.42327
#
# Compressibility (1/GPa) = 0.05515125
#
# Stress axis : x y z
#
# Youngs Moduli (GPa) = 45.02306 39.78965 65.62228
#
# Poissons Ratio (x) = -0.30556 0.27897
# Poissons Ratio (y) = -0.34575 0.46877
# Poissons Ratio (z) = 0.19140 0.28424
#
# Static dielectric constant tensor:
#      x y z
#    x 1.753070 0.000000 0.000000 
#    y 0.000000 1.771940 0.000000 
#    z 0.000000 0.000000 1.751010 
# 
# From -- ./inp_files/1082.got.cif
#   From: 2010.05.17/outbox.cif.g08.bks.cpg/sg19_1_cif.got.tgz:1082.got - 2010.06.03 22:46:19.
