data_PCOD9316796
_publ_section_title
;
Structure prediction by ZEFSAII (Michael W. Deem and Ramdas Pophale) SiO2 
 PCOD9316796
Probable space group: C 2 2 21
;
_chemical_formula_sum "Si O2"
_cell_formula_units_Z 52
_cell_length_a 8.489232
_cell_length_b 30.451532
_cell_length_c 11.553564
_cell_angle_alpha 90.000000
_cell_angle_beta 90.000000
_cell_angle_gamma 90.000000
_cell_volume 2986.713215
_symmetry_space_group_name_H-M "C 2 2 21"
_symmetry_group_IT_number 20
_symmetry_cell_setting 'orthorhombic'
loop_
_space_group_symop_operation_xyz
x,y,z
-x,-y,1/2+z
x,-y,-z
-x,y,1/2-z
1/2+x,1/2+y,z
1/2-x,1/2-y,1/2+z
1/2+x,1/2-y,-z
1/2-x,1/2+y,1/2-z
loop_
_atom_site_type_symbol
_atom_site_label
_atom_site_fract_x
_atom_site_fract_y
_atom_site_fract_z
Si Si1 0.541306 0.880278 0.884890
Si Si2 0.253666 0.190916 0.509733
Si Si3 0.945095 0.119014 0.879664
Si Si4 0.000000 0.919804 0.750000
Si Si5 0.215482 0.049057 0.456132
Si Si6 0.954849 0.232558 0.382217
Si Si7 0.694230 0.641182 0.074719
O O1 0.500000 0.880118 0.750000
O O2 0.663836 0.841967 0.918705
O O3 0.624811 0.925424 0.921879
O O4 0.374854 0.870875 0.945200
O O5 0.177404 0.159394 0.607246
O O6 0.377458 0.225073 0.560261
O O7 0.110983 0.216623 0.449005
O O8 0.000000 0.111329 0.750000
O O9 0.865133 0.077348 0.941507
O O10 0.092114 0.131995 0.960669
O O11 0.899228 0.946994 0.843862
O O12 0.882303 0.888687 0.676452
O O13 0.239325 0.000000 0.500000
O O14 0.833306 0.191675 0.389984
O O15 0.000000 0.240813 0.250000
#
# Coordination Sequence:
#
# PCOD9316796 Si02
#       7
#     8   8   8   4   8   8   8
#     4  11  20  38  61  85 119 158 194 248 304 355
#     4  10  23  35  53  87 115 156 205 241 298 346
#     4   9  21  40  59  80 119 158 193 239 301 358
#     4  10  18  38  62  88 112 156 194 242 296 350
#     4  10  22  38  62  92 119 146 201 246 296 362
#     4  11  21  36  56  84 118 153 204 253 283 347
#     4  10  19  36  63  85 114 159 201 233 297 352
#
# _framework density 17.410440999999999
#
# number of rings (size 3 to 8) (size 9 to 14) (size 15 to 20)
#    0.000    1.846    2.308    2.769    1.077    3.692 
#    0.000    8.462    0.000    0.000    0.000    0.000 
#    0.000    0.000    0.000    0.000    0.000    0.000 
#
# Total GULP energy -145151.386341 kJ/mol
# GULP energy per Si atom -5582.745629 kJ/mol
# Density = 1.737081 g / cm^3
# Si number density = 17.410441 Si / 1000 Ang^3
#
#
#
# Elastic Constant Matrix: (Units=GPa)
#
#
# Indices 1 2 3 4 5 6 
#
# 1 108.2323 59.3491 36.4284 0.0000 0.0000 0.0000
# 2 59.3491 140.6603 58.7795 0.0000 0.0000 0.0000
# 3 36.4284 58.7795 117.7533 0.0000 0.0000 0.0000
# 4 0.0000 0.0000 0.0000 9.6244 0.0000 0.0000
# 5 0.0000 0.0000 0.0000 0.0000 22.1855 0.0000
# 6 0.0000 0.0000 0.0000 0.0000 0.0000 19.1939
#
#
#
# Elastic Compliance Matrix: (Units=1/GPa)
#
#
# Indices 1 2 3 4 5 6 
#
# 1 0.012234 -0.004524 -0.001526 0.000000 0.000000 0.000000
# 2 -0.004524 0.010656 -0.003920 0.000000 0.000000 0.000000
# 3 -0.001526 -0.003920 0.010921 0.000000 0.000000 0.000000
# 4 0.000000 0.000000 0.000000 0.103902 0.000000 0.000000
# 5 0.000000 0.000000 0.000000 0.000000 0.045075 0.000000
# 6 0.000000 0.000000 0.000000 0.000000 0.000000 0.052100
#
#
# Mechanical properties :
#
#
# Convention : Reuss Voigt Hill
#
# Bulk Modulus (GPa) = 72.09344 75.08442 73.58893
# Shear Modulus (GPa) = 19.27142 24.34003 21.80573
#
# Velocity S-wave (km/s) = 3.33060 3.74306 3.54284
# Velocity P-wave (km/s) = 7.50257 7.86768 7.68729
#
# Compressibility (1/GPa) = 0.01387089
#
# Stress axis : x y z
#
# Youngs Moduli (GPa) = 81.74024 93.84272 91.56525
#
# Poissons Ratio (x) = 0.42454 0.13977
# Poissons Ratio (y) = 0.36979 0.35891
# Poissons Ratio (z) = 0.12477 0.36784
#
# Static dielectric constant tensor:
#      x y z
#    x 1.599610 0.000000 0.000000 
#    y 0.000000 1.573760 0.000000 
#    z 0.000000 0.000000 1.574070 
# 
# From -- ./inp_files/13238.got.cif
#   From: 2010.05.17/outbox.cif.g08.bks.cpg/sg20_7_cif.got.tgz:13238.got - 2010.06.03 22:52:26.
