data_PCOD9316001
_publ_section_title
;
Structure prediction by ZEFSAII (Michael W. Deem and Ramdas Pophale) SiO2 
 PCOD9316001
Probable space group: P 21 21 21
;
_chemical_formula_sum "Si O2"
_cell_formula_units_Z 24
_cell_length_a 7.427839
_cell_length_b 16.677879
_cell_length_c 7.110803
_cell_angle_alpha 90.000000
_cell_angle_beta 90.000000
_cell_angle_gamma 90.000000
_cell_volume 880.890543
_symmetry_space_group_name_H-M "P 21 21 21"
_symmetry_group_IT_number 19
_symmetry_cell_setting 'orthorhombic'
loop_
_space_group_symop_operation_xyz
x,y,z
1/2-x,-y,1/2+z
1/2+x,1/2-y,-z
-x,1/2+y,1/2-z
loop_
_atom_site_type_symbol
_atom_site_label
_atom_site_fract_x
_atom_site_fract_y
_atom_site_fract_z
Si Si1 0.324942 0.773981 0.960922
Si Si2 0.976363 0.512184 0.706505
Si Si3 0.149530 0.892637 0.462493
Si Si4 0.498232 0.709480 0.273574
Si Si5 0.339708 0.360507 0.668378
Si Si6 0.871868 0.961898 0.190440
O O1 0.401576 0.785425 0.173426
O O2 0.482212 0.805400 0.827201
O O3 0.140484 0.813284 0.893293
O O4 0.322496 0.655286 0.315193
O O5 0.156898 0.548407 0.797260
O O6 0.055285 0.469797 0.520167
O O7 0.830164 0.573824 0.628570
O O8 0.887172 0.452930 0.859492
O O9 0.992764 0.903118 0.311080
O O10 0.127005 0.803118 0.548434
O O11 0.766340 0.819257 0.011445
O O12 0.402310 0.450054 0.710119
#
# Coordination Sequence:
#
# PCOD9316001 Si02
#       6
#     4   4   4   4   4   4
#     4   8  16  28  53  82 106 152 204 262 298 350
#     4  12  23  39  57  86 126 168 207 245 315 374
#     4  12  24  37  58  92 128 162 206 259 314 381
#     4   9  16  32  50  81 116 146 204 257 297 362
#     4   9  16  31  52  82 116 145 204 257 299 359
#     4  12  23  37  60  89 128 165 205 256 315 382
#
# _framework density 27.245159000000001
#
# number of rings (size 3 to 8) (size 9 to 14) (size 15 to 20)
#    1.000    0.667    5.000    1.000    0.000    0.000 
#    0.000    0.000    0.000    0.000    0.000   42.000 
#    0.000    0.000    0.000    0.000    0.000    0.000 
#
# Total GULP energy -133742.135112 kJ/mol
# GULP energy per Si atom -5572.588963 kJ/mol
# Density = 2.718315 g / cm^3
# Si number density = 27.245159 Si / 1000 Ang^3
#
#
#
# Elastic Constant Matrix: (Units=GPa)
#
#
# Indices 1 2 3 4 5 6 
#
# 1 174.9546 50.8679 48.5905 0.0000 0.0000 0.0000
# 2 50.8679 81.8408 52.2899 0.0000 0.0000 0.0000
# 3 48.5905 52.2899 143.1755 0.0000 0.0000 0.0000
# 4 0.0000 0.0000 0.0000 9.7816 0.0000 0.0000
# 5 0.0000 0.0000 0.0000 0.0000 42.0343 0.0000
# 6 0.0000 0.0000 0.0000 0.0000 0.0000 36.1797
#
#
#
# Elastic Compliance Matrix: (Units=1/GPa)
#
#
# Indices 1 2 3 4 5 6 
#
# 1 0.007093 -0.003744 -0.001040 0.000000 0.000000 0.000000
# 2 -0.003744 0.017915 -0.005272 0.000000 0.000000 0.000000
# 3 -0.001040 -0.005272 0.009263 0.000000 0.000000 0.000000
# 4 0.000000 0.000000 0.000000 0.102232 0.000000 0.000000
# 5 0.000000 0.000000 0.000000 0.000000 0.023790 0.000000
# 6 0.000000 0.000000 0.000000 0.000000 0.000000 0.027640
#
#
# Mechanical properties :
#
#
# Convention : Reuss Voigt Hill
#
# Bulk Modulus (GPa) = 70.63016 78.16306 74.39661
# Shear Modulus (GPa) = 23.50018 34.14731 28.82375
#
# Velocity S-wave (km/s) = 2.94010 3.54409 3.25613
# Velocity P-wave (km/s) = 6.12420 6.74526 6.44221
#
# Compressibility (1/GPa) = 0.01415826
#
# Stress axis : x y z
#
# Youngs Moduli (GPa) = 140.97932 55.82065 107.96023
#
# Poissons Ratio (x) = 0.20902 0.11225
# Poissons Ratio (y) = 0.52789 0.56915
# Poissons Ratio (z) = 0.14658 0.29428
#
# Static dielectric constant tensor:
#      x y z
#    x 2.103070 0.000000 0.000000 
#    y 0.000000 2.242440 0.000000 
#    z 0.000000 0.000000 2.159590 
# 
# From -- ./inp_files/2919.got.cif
#   From: 2010.05.17/outbox.cif.g08.bks.cpg/sg19_2_cif.got.tgz:2919.got - 2010.06.03 22:46:19.
