data_PCOD9316417
_publ_section_title
;
Structure prediction by ZEFSAII (Michael W. Deem and Ramdas Pophale) SiO2 
 PCOD9316417
Probable space group: C 2 2 21
;
_chemical_formula_sum "Si O2"
_cell_formula_units_Z 36
_cell_length_a 18.743256
_cell_length_b 17.421043
_cell_length_c 5.458041
_cell_angle_alpha 90.000000
_cell_angle_beta 90.000000
_cell_angle_gamma 90.000000
_cell_volume 1782.198129
_symmetry_space_group_name_H-M "C 2 2 21"
_symmetry_group_IT_number 20
_symmetry_cell_setting 'orthorhombic'
loop_
_space_group_symop_operation_xyz
x,y,z
-x,-y,1/2+z
x,-y,-z
-x,y,1/2-z
1/2+x,1/2+y,z
1/2-x,1/2-y,1/2+z
1/2+x,1/2-y,-z
1/2-x,1/2+y,1/2-z
loop_
_atom_site_type_symbol
_atom_site_label
_atom_site_fract_x
_atom_site_fract_y
_atom_site_fract_z
Si Si1 0.741161 0.353804 0.096958
Si Si2 0.382786 0.771180 0.605565
Si Si3 0.500000 0.046897 0.750000
Si Si4 0.593174 0.810655 0.388047
Si Si5 0.217549 0.582783 0.090439
O O1 0.680986 0.289468 0.082292
O O2 0.819945 0.315367 0.105783
O O3 0.732896 0.392750 0.362003
O O4 0.745007 0.408312 0.856268
O O5 0.427164 0.767004 0.358660
O O6 0.347097 0.856524 0.603843
O O7 0.424082 0.769540 0.859228
O O8 0.438678 0.104235 0.853696
O O9 0.480413 0.000000 0.500000
O O10 0.191768 0.500000 0.000000
#
# Coordination Sequence:
#
# PCOD9316417 Si02
#       5
#     8   8   4   8   8
#     4  10  19  33  51  73  98 134 180 230 280 320
#     4  10  19  34  54  73  95 134 184 234 280 317
#     4  12  26  40  50  72 112 156 194 222 252 306
#     4  10  20  33  51  69  93 134 182 227 258 300
#     4  10  18  27  43  71 102 129 161 205 261 332
#
# _framework density 20.199774000000001
#
# number of rings (size 3 to 8) (size 9 to 14) (size 15 to 20)
#    0.000    1.778    0.000    8.667    0.000   10.667 
#    0.000    0.000    0.000    0.000    0.000    0.000 
#    0.000    0.000    0.000  144.000    0.000    2.222 
#
# Total GULP energy -100347.535515 kJ/mol
# GULP energy per Si atom -5574.863084 kJ/mol
# Density = 2.015380 g / cm^3
# Si number density = 20.199774 Si / 1000 Ang^3
#
#
#
# Elastic Constant Matrix: (Units=GPa)
#
#
# Indices 1 2 3 4 5 6 
#
# 1 71.6544 26.6584 39.7695 0.0000 0.0000 0.0000
# 2 26.6584 35.6073 18.3604 0.0000 0.0000 0.0000
# 3 39.7695 18.3604 234.6223 0.0000 0.0000 0.0000
# 4 0.0000 0.0000 0.0000 36.1631 0.0000 0.0000
# 5 0.0000 0.0000 0.0000 0.0000 22.9620 0.0000
# 6 0.0000 0.0000 0.0000 0.0000 0.0000 22.6671
#
#
#
# Elastic Compliance Matrix: (Units=1/GPa)
#
#
# Indices 1 2 3 4 5 6 
#
# 1 0.020539 -0.014153 -0.002374 0.000000 0.000000 0.000000
# 2 -0.014153 0.039017 -0.000654 0.000000 0.000000 0.000000
# 3 -0.002374 -0.000654 0.004716 0.000000 0.000000 0.000000
# 4 0.000000 0.000000 0.000000 0.027652 0.000000 0.000000
# 5 0.000000 0.000000 0.000000 0.000000 0.043550 0.000000
# 6 0.000000 0.000000 0.000000 0.000000 0.000000 0.044117
#
#
# Mechanical properties :
#
#
# Convention : Reuss Voigt Hill
#
# Bulk Modulus (GPa) = 33.43383 56.82894 45.13138
# Shear Modulus (GPa) = 22.32901 33.49815 27.91358
#
# Velocity S-wave (km/s) = 3.32838 4.07669 3.72139
# Velocity P-wave (km/s) = 5.59985 7.09604 6.39187
#
# Compressibility (1/GPa) = 0.02990982
#
# Stress axis : x y z
#
# Youngs Moduli (GPa) = 48.68804 25.62953 212.05484
#
# Poissons Ratio (x) = 0.36273 0.50340
# Poissons Ratio (y) = 0.68908 0.13875
# Poissons Ratio (z) = 0.11558 0.01677
#
# Static dielectric constant tensor:
#      x y z
#    x 1.724750 0.000000 0.000000 
#    y 0.000000 1.751150 0.000000 
#    z 0.000000 0.000000 1.897640 
# 
# From -- ./inp_files/3046.got.cif
#   From: 2010.05.17/outbox.cif.g08.bks.cpg/sg20_2_cif.got.tgz:3046.got - 2010.06.03 22:52:26.
