data_PCOD9316873
_publ_section_title
;
Structure prediction by ZEFSAII (Michael W. Deem and Ramdas Pophale) SiO2 
 PCOD9316873
Probable space group: C 2 2 21
;
_chemical_formula_sum "Si O2"
_cell_formula_units_Z 48
_cell_length_a 9.480034
_cell_length_b 10.348158
_cell_length_c 20.585349
_cell_angle_alpha 90.000000
_cell_angle_beta 90.000000
_cell_angle_gamma 90.000000
_cell_volume 2019.441051
_symmetry_space_group_name_H-M "C 2 2 21"
_symmetry_group_IT_number 20
_symmetry_cell_setting 'orthorhombic'
loop_
_space_group_symop_operation_xyz
x,y,z
-x,-y,1/2+z
x,-y,-z
-x,y,1/2-z
1/2+x,1/2+y,z
1/2-x,1/2-y,1/2+z
1/2+x,1/2-y,-z
1/2-x,1/2+y,1/2-z
loop_
_atom_site_type_symbol
_atom_site_label
_atom_site_fract_x
_atom_site_fract_y
_atom_site_fract_z
Si Si1 0.000000 0.100567 0.250000
Si Si2 0.057837 0.517368 0.642462
Si Si3 0.191070 0.758866 0.581717
Si Si4 0.720993 0.689165 0.149119
Si Si5 0.949668 0.500000 0.500000
Si Si6 0.262569 0.481884 0.162197
Si Si7 0.096435 0.219759 0.015242
O O1 0.091365 0.182531 0.198982
O O2 0.118221 0.014910 0.285588
O O3 0.125388 0.659437 0.634157
O O4 0.164121 0.414133 0.671021
O O5 0.034354 0.474883 0.566347
O O6 0.905744 0.515666 0.676335
O O7 0.221205 0.898921 0.611558
O O8 0.327080 0.685925 0.551385
O O9 0.071156 0.777735 0.526045
O O10 0.784533 0.832329 0.143566
O O11 0.864992 0.627558 0.517763
O O12 0.339770 0.347480 0.578197
#
# Coordination Sequence:
#
# PCOD9316873 Si02
#       7
#     4   8   8   8   4   8   8
#     4  12  30  50  70 106 142 196 264 310 352 428
#     4  11  24  44  73 107 149 187 230 294 374 436
#     4  11  23  45  76 114 153 190 228 301 372 452
#     4  12  26  48  76 106 144 193 249 305 364 430
#     4  10  18  42  70 112 152 186 222 290 370 450
#     4  12  25  50  74 102 148 191 250 309 365 431
#     4  11  20  41  73 111 148 188 231 290 370 445
#
# _framework density 23.768951999999999
#
# number of rings (size 3 to 8) (size 9 to 14) (size 15 to 20)
#    0.000    0.667    6.667    2.000    0.000    6.000 
#    0.000    3.333    0.000    1.000    0.000    0.000 
#    0.000    0.000    0.000    0.000    0.000    0.000 
#
# Total GULP energy -134027.878992 kJ/mol
# GULP energy per Si atom -5584.494958 kJ/mol
# Density = 2.371485 g / cm^3
# Si number density = 23.768952 Si / 1000 Ang^3
#
#
#
# Elastic Constant Matrix: (Units=GPa)
#
#
# Indices 1 2 3 4 5 6 
#
# 1 126.3843 76.1630 26.9412 0.0000 0.0000 0.0000
# 2 76.1630 121.1900 31.8238 0.0000 0.0000 0.0000
# 3 26.9412 31.8238 51.8672 0.0000 0.0000 0.0000
# 4 0.0000 0.0000 0.0000 17.9304 0.0000 0.0000
# 5 0.0000 0.0000 0.0000 0.0000 46.3360 0.0000
# 6 0.0000 0.0000 0.0000 0.0000 0.0000 38.4483
#
#
#
# Elastic Compliance Matrix: (Units=1/GPa)
#
#
# Indices 1 2 3 4 5 6 
#
# 1 0.012918 -0.007577 -0.002061 0.000000 0.000000 0.000000
# 2 -0.007577 0.014281 -0.004826 0.000000 0.000000 0.000000
# 3 -0.002061 -0.004826 0.023312 0.000000 0.000000 0.000000
# 4 0.000000 0.000000 0.000000 0.055771 0.000000 0.000000
# 5 0.000000 0.000000 0.000000 0.000000 0.021582 0.000000
# 6 0.000000 0.000000 0.000000 0.000000 0.000000 0.026009
#
#
# Mechanical properties :
#
#
# Convention : Reuss Voigt Hill
#
# Bulk Modulus (GPa) = 46.33562 63.25527 54.79545
# Shear Modulus (GPa) = 26.31648 31.51050 28.91349
#
# Velocity S-wave (km/s) = 3.33104 3.64497 3.49153
# Velocity P-wave (km/s) = 5.85926 6.66219 6.27358
#
# Compressibility (1/GPa) = 0.02158167
#
# Stress axis : x y z
#
# Youngs Moduli (GPa) = 77.41155 70.02363 42.89685
#
# Poissons Ratio (x) = 0.53059 0.08840
# Poissons Ratio (y) = 0.58657 0.20704
# Poissons Ratio (z) = 0.15953 0.33796
#
# Static dielectric constant tensor:
#      x y z
#    x 1.926130 0.000000 0.000000 
#    y 0.000000 1.903260 0.000000 
#    z 0.000000 0.000000 2.033180 
# 
# From -- ./inp_files/31000.got.cif
#   From: 2010.05.17/outbox.cif.g08.bks.cpg/sg20_16_cif.got.tgz:31000.got - 2010.06.03 22:52:26.
