data_PCOD9316385
_publ_section_title
;
Structure prediction by ZEFSAII (Michael W. Deem and Ramdas Pophale) SiO2 
 PCOD9316385
Probable space group: C 2 2 21
;
_chemical_formula_sum "Si O2"
_cell_formula_units_Z 56
_cell_length_a 6.764552
_cell_length_b 18.171446
_cell_length_c 21.503596
_cell_angle_alpha 90.000000
_cell_angle_beta 90.000000
_cell_angle_gamma 90.000000
_cell_volume 2643.258391
_symmetry_space_group_name_H-M "C 2 2 21"
_symmetry_group_IT_number 20
_symmetry_cell_setting 'orthorhombic'
loop_
_space_group_symop_operation_xyz
x,y,z
-x,-y,1/2+z
x,-y,-z
-x,y,1/2-z
1/2+x,1/2+y,z
1/2-x,1/2-y,1/2+z
1/2+x,1/2-y,-z
1/2-x,1/2+y,1/2-z
loop_
_atom_site_type_symbol
_atom_site_label
_atom_site_fract_x
_atom_site_fract_y
_atom_site_fract_z
Si Si1 0.543808 0.905921 0.431892
Si Si2 0.398171 0.146180 0.068489
Si Si3 0.000000 0.800640 0.750000
Si Si4 0.264950 0.561084 0.209183
Si Si5 0.223598 0.000000 0.500000
Si Si6 0.863817 0.883597 0.915438
Si Si7 0.381528 0.245403 0.618001
Si Si8 0.676327 0.979895 0.661283
O O1 0.637154 0.877786 0.497058
O O2 0.375435 0.965670 0.449938
O O3 0.439618 0.835271 0.402486
O O4 0.678096 0.947565 0.381236
O O5 0.631883 0.136909 0.078538
O O6 0.327252 0.226386 0.090805
O O7 0.290322 0.089153 0.115215
O O8 0.817805 0.854776 0.769531
O O9 0.919817 0.755371 0.691482
O O10 0.384992 0.563410 0.144734
O O11 0.297078 0.518097 0.274045
O O12 0.046589 0.538047 0.186648
O O13 0.094078 0.934371 0.526030
O O14 0.976037 0.807343 0.911974
#
# Coordination Sequence:
#
# PCOD9316385 Si02
#       8
#     8   8   4   8   4   8   8   8
#     4  11  21  36  60  90 120 155 202 257 299 366
#     4  10  20  39  61  81 120 162 200 243 302 366
#     4  10  20  38  54  94 120 146 212 260 294 378
#     4   9  17  31  61  82 111 155 200 239 304 358
#     4  10  18  40  56  80 122 152 204 244 292 366
#     4   9  20  39  60  87 115 159 202 249 298 368
#     4  11  24  38  62  91 121 157 200 261 307 357
#     4  10  17  35  60  86 108 160 201 242 297 359
#
# _framework density 21.185972
#
# number of rings (size 3 to 8) (size 9 to 14) (size 15 to 20)
#    0.000    2.000    5.714    0.000    4.000    1.143 
#    2.571    0.000    3.143    0.000    0.000    0.000 
#    0.000    0.000    0.000    0.000    0.000    0.000 
#
# Total GULP energy -156001.219097 kJ/mol
# GULP energy per Si atom -5571.472111 kJ/mol
# Density = 2.113775 g / cm^3
# Si number density = 21.185972 Si / 1000 Ang^3
#
#
#
# Elastic Constant Matrix: (Units=GPa)
#
#
# Indices 1 2 3 4 5 6 
#
# 1 52.6056 2.6199 11.8754 0.0000 0.0000 0.0000
# 2 2.6199 89.5582 27.5627 0.0000 0.0000 0.0000
# 3 11.8754 27.5627 117.4528 0.0000 0.0000 0.0000
# 4 0.0000 0.0000 0.0000 21.4493 0.0000 0.0000
# 5 0.0000 0.0000 0.0000 0.0000 27.2045 0.0000
# 6 0.0000 0.0000 0.0000 0.0000 0.0000 22.1953
#
#
#
# Elastic Compliance Matrix: (Units=1/GPa)
#
#
# Indices 1 2 3 4 5 6 
#
# 1 0.019454 0.000039 -0.001976 0.000000 0.000000 0.000000
# 2 0.000039 0.012035 -0.002828 0.000000 0.000000 0.000000
# 3 -0.001976 -0.002828 0.009378 0.000000 0.000000 0.000000
# 4 0.000000 0.000000 0.000000 0.046622 0.000000 0.000000
# 5 0.000000 0.000000 0.000000 0.000000 0.036759 0.000000
# 6 0.000000 0.000000 0.000000 0.000000 0.000000 0.045055
#
#
# Mechanical properties :
#
#
# Convention : Reuss Voigt Hill
#
# Bulk Modulus (GPa) = 31.91236 38.19250 35.05243
# Shear Modulus (GPa) = 26.41632 28.67372 27.54502
#
# Velocity S-wave (km/s) = 3.53495 3.68289 3.60968
# Velocity P-wave (km/s) = 5.63532 6.01259 5.82701
#
# Compressibility (1/GPa) = 0.03133582
#
# Stress axis : x y z
#
# Youngs Moduli (GPa) = 51.40452 83.08949 106.63752
#
# Poissons Ratio (x) = -0.00325 0.21072
# Poissons Ratio (y) = -0.00201 0.30160
# Poissons Ratio (z) = 0.10158 0.23500
#
# Static dielectric constant tensor:
#      x y z
#    x 2.174320 0.000000 0.000000 
#    y 0.000000 1.710030 0.000000 
#    z 0.000000 0.000000 1.830960 
# 
# From -- ./inp_files/26852.got.cif
#   From: 2010.05.17/outbox.cif.g08.bks.cpg/sg20_14_cif.got.tgz:26852.got - 2010.06.03 22:52:26.
