data_PCOD9316142
_publ_section_title
;
Structure prediction by ZEFSAII (Michael W. Deem and Ramdas Pophale) SiO2 
 PCOD9316142
Probable space group: P 21 21 21
;
_chemical_formula_sum "Si O2"
_cell_formula_units_Z 32
_cell_length_a 15.000000
_cell_length_b 9.000000
_cell_length_c 12.000000
_cell_angle_alpha 90.000000
_cell_angle_beta 90.000000
_cell_angle_gamma 90.000000
_cell_volume 1620.000000
_symmetry_space_group_name_H-M "P 21 21 21"
_symmetry_group_IT_number 19
_symmetry_cell_setting 'orthorhombic'
loop_
_space_group_symop_operation_xyz
x,y,z
1/2-x,-y,1/2+z
1/2+x,1/2-y,-z
-x,1/2+y,1/2-z
loop_
_atom_site_type_symbol
_atom_site_label
_atom_site_fract_x
_atom_site_fract_y
_atom_site_fract_z
Si Si1 0.307254 0.639141 0.163645
Si Si2 0.747378 0.805636 0.593849
Si Si3 0.920720 0.005077 0.172098
Si Si4 0.319842 0.982578 0.914947
Si Si5 0.617821 0.431582 0.824615
Si Si6 0.836394 0.306613 0.492397
Si Si7 0.542922 0.252520 0.494813
Si Si8 0.687564 0.112563 0.867719
O O1 0.296367 0.706667 0.286896
O O2 0.401383 0.674696 0.105813
O O3 0.280008 0.465532 0.169387
O O4 0.226905 0.704086 0.085607
O O5 0.660676 0.907974 0.614984
O O6 0.714420 0.645270 0.550082
O O7 0.809811 0.882347 0.501463
O O8 0.011930 0.097142 0.171384
O O9 0.889273 0.971541 0.298101
O O10 0.939428 0.853228 0.103249
O O11 0.357666 0.005588 0.791850
O O12 0.400711 0.904075 0.983063
O O13 0.673511 0.281889 0.832729
O O14 0.640369 0.546973 0.921024
O O15 0.765115 0.369191 0.582922
O O16 0.934958 0.240608 0.522199
#
# Coordination Sequence:
#
# PCOD9316142 Si02
#       8
#     4   4   4   4   4   4   4   4
#     4  10  22  38  64  88 124 168 207 250 319 379
#     4  11  22  38  61  91 125 162 202 259 310 371
#     4  10  23  36  61  93 122 156 212 256 306 370
#     4  11  22  36  64  89 124 156 206 252 314 366
#     4  11  22  37  62  93 120 158 206 263 306 352
#     4  10  22  39  61  89 123 161 202 263 306 368
#     4  10  21  40  60  88 124 163 200 255 317 368
#     4  11  22  38  61  89 126 160 199 260 318 368
#
# _framework density 19.753086
#
# number of rings (size 3 to 8) (size 9 to 14) (size 15 to 20)
#    0.000    1.500    5.000    0.000    5.250    0.000 
#    0.000    0.000   11.000    0.000    0.000    0.000 
#    0.000    0.000    0.000    0.000    0.000    0.000 
#
# Total GULP energy -178479.369428 kJ/mol
# GULP energy per Si atom -5577.480295 kJ/mol
# Density = 1.970813 g / cm^3
# Si number density = 19.753086 Si / 1000 Ang^3
#
#
#
# Elastic Constant Matrix: (Units=GPa)
#
#
# Indices 1 2 3 4 5 6 
#
# 1 96.8807 5.3357 21.1415 0.0000 0.0000 0.0000
# 2 5.3357 70.3118 3.6274 0.0000 0.0000 0.0000
# 3 21.1415 3.6274 57.6436 0.0000 0.0000 0.0000
# 4 0.0000 0.0000 0.0000 24.8259 0.0000 0.0000
# 5 0.0000 0.0000 0.0000 0.0000 27.4864 0.0000
# 6 0.0000 0.0000 0.0000 0.0000 0.0000 18.4202
#
#
#
# Elastic Compliance Matrix: (Units=1/GPa)
#
#
# Indices 1 2 3 4 5 6 
#
# 1 0.011249 -0.000643 -0.004085 0.000000 0.000000 0.000000
# 2 -0.000643 0.014305 -0.000664 0.000000 0.000000 0.000000
# 3 -0.004085 -0.000664 0.018888 0.000000 0.000000 0.000000
# 4 0.000000 0.000000 0.000000 0.040281 0.000000 0.000000
# 5 0.000000 0.000000 0.000000 0.000000 0.036382 0.000000
# 6 0.000000 0.000000 0.000000 0.000000 0.000000 0.054288
#
#
# Mechanical properties :
#
#
# Convention : Reuss Voigt Hill
#
# Bulk Modulus (GPa) = 29.71119 31.67171 30.69145
# Shear Modulus (GPa) = 25.32966 27.12858 26.22912
#
# Velocity S-wave (km/s) = 3.58483 3.70994 3.64792
# Velocity P-wave (km/s) = 5.67526 5.86687 5.77186
#
# Compressibility (1/GPa) = 0.03365735
#
# Stress axis : x y z
#
# Youngs Moduli (GPa) = 88.89794 69.90351 52.94342
#
# Poissons Ratio (x) = 0.04494 0.21628
# Poissons Ratio (y) = 0.05715 0.03518
# Poissons Ratio (z) = 0.36317 0.04645
#
# Static dielectric constant tensor:
#      x y z
#    x 1.680530 0.000000 0.000000 
#    y 0.000000 1.742560 0.000000 
#    z 0.000000 0.000000 1.713030 
# 
# From -- ./inp_files/5282.got.cif
#   From: 2010.05.17/outbox.ucp.g08.bks.cvg/sg19_3_cif.got.tgz:5282.got - 2010.06.11 13:13:52.
