data_PCOD9316092
_publ_section_title
;
Structure prediction by ZEFSAII (Michael W. Deem and Ramdas Pophale) SiO2 
 PCOD9316092
Probable space group: P 21 21 21
;
_chemical_formula_sum "Si O2"
_cell_formula_units_Z 20
_cell_length_a 16.871941
_cell_length_b 8.056778
_cell_length_c 5.097013
_cell_angle_alpha 90.000000
_cell_angle_beta 90.000000
_cell_angle_gamma 90.000000
_cell_volume 692.854730
_symmetry_space_group_name_H-M "P 21 21 21"
_symmetry_group_IT_number 19
_symmetry_cell_setting 'orthorhombic'
loop_
_space_group_symop_operation_xyz
x,y,z
1/2-x,-y,1/2+z
1/2+x,1/2-y,-z
-x,1/2+y,1/2-z
loop_
_atom_site_type_symbol
_atom_site_label
_atom_site_fract_x
_atom_site_fract_y
_atom_site_fract_z
Si Si1 0.232550 0.963095 0.479884
Si Si2 0.011934 0.399044 0.453070
Si Si3 0.392741 0.831456 0.322293
Si Si4 0.692897 0.000662 0.023744
Si Si5 0.106500 0.709705 0.325301
O O1 0.173929 0.807013 0.472599
O O2 0.192520 0.088960 0.725157
O O3 0.203767 0.069110 0.220196
O O4 0.081650 0.532166 0.431447
O O5 0.941377 0.511197 0.571509
O O6 0.971328 0.322523 0.194407
O O7 0.048357 0.242218 0.601495
O O8 0.363760 0.660627 0.457984
O O9 0.640549 0.836558 0.963353
O O10 0.752355 0.007920 0.777627
#
# Coordination Sequence:
#
# PCOD9316092 Si02
#       5
#     4   4   4   4   4
#     4  12  30  50  84 118 158 210 274 336 396 478
#     4  12  29  50  78 121 162 220 256 346 403 490
#     4  12  28  50  82 115 167 206 276 324 412 474
#     4  12  27  48  82 121 156 206 270 334 393 472
#     4  12  28  50  82 115 167 206 276 324 412 474
#
# _framework density 28.86608
#
# number of rings (size 3 to 8) (size 9 to 14) (size 15 to 20)
#    0.000    0.000    4.000    3.600    8.400    0.000 
#    0.000    0.000    0.000    0.000    0.000    0.000 
#    0.000    0.000    0.000    0.000    0.000    0.000 
#
# Total GULP energy -112044.174336 kJ/mol
# GULP energy per Si atom -5602.208717 kJ/mol
# Density = 2.880038 g / cm^3
# Si number density = 28.866080 Si / 1000 Ang^3
#
#
#
# Elastic Constant Matrix: (Units=GPa)
#
#
# Indices 1 2 3 4 5 6 
#
# 1 174.3586 45.2603 31.3768 0.0000 0.0000 0.0000
# 2 45.2603 159.8923 44.6307 0.0000 0.0000 0.0000
# 3 31.3768 44.6307 176.3697 0.0000 0.0000 0.0000
# 4 0.0000 0.0000 0.0000 66.0770 0.0000 0.0000
# 5 0.0000 0.0000 0.0000 0.0000 46.3335 0.0000
# 6 0.0000 0.0000 0.0000 0.0000 0.0000 83.2441
#
#
#
# Elastic Compliance Matrix: (Units=1/GPa)
#
#
# Indices 1 2 3 4 5 6 
#
# 1 0.006273 -0.001576 -0.000717 0.000000 0.000000 0.000000
# 2 -0.001576 0.007125 -0.001523 0.000000 0.000000 0.000000
# 3 -0.000717 -0.001523 0.006183 0.000000 0.000000 0.000000
# 4 0.000000 0.000000 0.000000 0.015134 0.000000 0.000000
# 5 0.000000 0.000000 0.000000 0.000000 0.021583 0.000000
# 6 0.000000 0.000000 0.000000 0.000000 0.000000 0.012013
#
#
# Mechanical properties :
#
#
# Convention : Reuss Voigt Hill
#
# Bulk Modulus (GPa) = 83.68099 83.68403 83.68251
# Shear Modulus (GPa) = 62.55817 65.08777 63.82297
#
# Velocity S-wave (km/s) = 4.66036 4.75364 4.70723
# Velocity P-wave (km/s) = 7.61649 7.69304 7.65486
#
# Compressibility (1/GPa) = 0.01195015
#
# Stress axis : x y z
#
# Youngs Moduli (GPa) = 159.40361 140.34603 161.73731
#
# Poissons Ratio (x) = 0.22112 0.11602
# Poissons Ratio (y) = 0.25115 0.24629
# Poissons Ratio (z) = 0.11435 0.21371
#
# Static dielectric constant tensor:
#      x y z
#    x 2.341920 0.000000 0.000000 
#    y 0.000000 2.097470 0.000000 
#    z 0.000000 0.000000 2.500280 
# 
# From -- ./inp_files/1688.got.cif
#   From: 2010.05.17/outbox.cif.g08.bks.cpg/sg19_1_cif.got.tgz:1688.got - 2010.06.03 22:46:19.
