data_PCOD9316363
_publ_section_title
;
Structure prediction by ZEFSAII (Michael W. Deem and Ramdas Pophale) SiO2 
 PCOD9316363
Probable space group: C 2 2 21
;
_chemical_formula_sum "Si O2"
_cell_formula_units_Z 48
_cell_length_a 28.630557
_cell_length_b 8.436051
_cell_length_c 8.409128
_cell_angle_alpha 90.000000
_cell_angle_beta 90.000000
_cell_angle_gamma 90.000000
_cell_volume 2031.046923
_symmetry_space_group_name_H-M "C 2 2 21"
_symmetry_group_IT_number 20
_symmetry_cell_setting 'orthorhombic'
loop_
_space_group_symop_operation_xyz
x,y,z
-x,-y,1/2+z
x,-y,-z
-x,y,1/2-z
1/2+x,1/2+y,z
1/2-x,1/2-y,1/2+z
1/2+x,1/2-y,-z
1/2-x,1/2+y,1/2-z
loop_
_atom_site_type_symbol
_atom_site_label
_atom_site_fract_x
_atom_site_fract_y
_atom_site_fract_z
Si Si1 0.783919 0.294273 0.131403
Si Si2 0.637339 0.710693 0.631507
Si Si3 0.805598 0.590126 0.336009
Si Si4 0.443367 0.675870 0.419500
Si Si5 0.541550 0.314693 0.542108
Si Si6 0.153272 0.094305 0.151547
O O1 0.786828 0.473769 0.194867
O O2 0.731959 0.227319 0.126168
O O3 0.807178 0.196749 0.273434
O O4 0.818030 0.241192 0.985252
O O5 0.647005 0.835403 0.769909
O O6 0.588437 0.744583 0.543634
O O7 0.637179 0.535434 0.713023
O O8 0.811281 0.500000 0.500000
O O9 0.442394 0.500000 0.500000
O O10 0.452878 0.687402 0.231330
O O11 0.489672 0.754148 0.497879
O O12 0.388289 0.707776 0.412273
O O13 0.539262 0.500000 0.500000
O O14 0.169969 0.000000 0.000000
#
# Coordination Sequence:
#
# PCOD9316363 Si02
#       6
#     8   8   8   8   8   8
#     4  12  24  43  66  93 129 178 233 284 342 404
#     4  12  23  41  65  95 135 178 223 281 345 407
#     4  12  27  44  65  93 132 180 234 288 343 409
#     4   9  18  30  56  96 135 170 212 267 329 392
#     4  10  17  33  57  93 135 172 212 266 332 397
#     4  11  21  37  62  97 134 173 219 278 340 398
#
# _framework density 23.633132
#
# number of rings (size 3 to 8) (size 9 to 14) (size 15 to 20)
#    0.000    1.000    3.333    5.000    0.000    1.333 
#    0.000    0.000    0.000    0.000    0.000   35.000 
#    0.000    0.000    0.000    0.000    0.000    0.000 
#
# Total GULP energy -133890.806024 kJ/mol
# GULP energy per Si atom -5578.783584 kJ/mol
# Density = 2.357934 g / cm^3
# Si number density = 23.633132 Si / 1000 Ang^3
#
#
#
# Elastic Constant Matrix: (Units=GPa)
#
#
# Indices 1 2 3 4 5 6 
#
# 1 130.9653 36.2097 58.1375 0.0000 0.0000 0.0000
# 2 36.2097 49.5508 22.4102 0.0000 0.0000 0.0000
# 3 58.1375 22.4102 109.1996 0.0000 0.0000 0.0000
# 4 0.0000 0.0000 0.0000 36.7917 0.0000 0.0000
# 5 0.0000 0.0000 0.0000 0.0000 -6.2583 0.0000
# 6 0.0000 0.0000 0.0000 0.0000 0.0000 8.7032
#
#
#
# Elastic Compliance Matrix: (Units=1/GPa)
#
#
# Indices 1 2 3 4 5 6 
#
# 1 0.011507 -0.006215 -0.004851 0.000000 0.000000 0.000000
# 2 -0.006215 0.025603 -0.001945 0.000000 0.000000 0.000000
# 3 -0.004851 -0.001945 0.012139 0.000000 0.000000 0.000000
# 4 0.000000 0.000000 0.000000 0.027180 0.000000 0.000000
# 5 0.000000 0.000000 0.000000 0.000000 -0.159788 0.000000
# 6 0.000000 0.000000 0.000000 0.000000 0.000000 0.114900
#
#
# Mechanical properties :
#
#
# Convention : Reuss Voigt Hill
#
# Bulk Modulus (GPa) = 43.05392 58.13670 50.59531
# Shear Modulus (GPa) = 76.56126 19.37788 47.96957
#
# Velocity S-wave (km/s) = 5.69790 2.86658 4.51017
# Velocity P-wave (km/s) = 7.84508 5.96736 6.96974
#
# Compressibility (1/GPa) = 0.02322669
#
# Stress axis : x y z
#
# Youngs Moduli (GPa) = 86.90021 39.05801 82.37615
#
# Poissons Ratio (x) = 0.24275 0.39961
# Poissons Ratio (y) = 0.54010 0.16025
# Poissons Ratio (z) = 0.42156 0.07598
#
# Static dielectric constant tensor:
#      x y z
#    x 1.949320 0.000000 0.000000 
#    y 0.000000 1.953000 0.000000 
#    z 0.000000 0.000000 1.937070 
# 
# From -- ./inp_files/11450.got.cif
#   From: 2010.05.17/outbox.cif.g08.bks.cpg/sg20_6_cif.got.tgz:11450.got - 2010.06.03 22:52:26.
