data_PCOD9316151
_publ_section_title
;
Structure prediction by ZEFSAII (Michael W. Deem and Ramdas Pophale) SiO2 
 PCOD9316151
Probable space group: P 21 21 21
;
_chemical_formula_sum "Si O2"
_cell_formula_units_Z 28
_cell_length_a 18.000000
_cell_length_b 12.000000
_cell_length_c 6.000000
_cell_angle_alpha 90.000000
_cell_angle_beta 90.000000
_cell_angle_gamma 90.000000
_cell_volume 1296.000000
_symmetry_space_group_name_H-M "P 21 21 21"
_symmetry_group_IT_number 19
_symmetry_cell_setting 'orthorhombic'
loop_
_space_group_symop_operation_xyz
x,y,z
1/2-x,-y,1/2+z
1/2+x,1/2-y,-z
-x,1/2+y,1/2-z
loop_
_atom_site_type_symbol
_atom_site_label
_atom_site_fract_x
_atom_site_fract_y
_atom_site_fract_z
Si Si1 0.978592 0.623155 0.064955
Si Si2 0.817939 0.403278 0.517997
Si Si3 0.780108 0.871342 0.704964
Si Si4 0.743269 0.647785 0.515215
Si Si5 0.596123 0.136675 0.551590
Si Si6 0.466318 0.988588 0.426912
Si Si7 0.862591 0.036851 0.409489
O O1 0.944864 0.745989 0.072035
O O2 0.963732 0.573576 0.323019
O O3 0.067300 0.613310 0.038005
O O4 0.951505 0.569699 0.819930
O O5 0.788337 0.531742 0.517838
O O6 0.798234 0.358487 0.265129
O O7 0.905696 0.415036 0.543083
O O8 0.790882 0.351383 0.759380
O O9 0.786392 0.764327 0.544158
O O10 0.694494 0.897382 0.753109
O O11 0.814594 0.984966 0.607918
O O12 0.826063 0.844830 0.927604
O O13 0.545710 0.049522 0.411673
O O14 0.606787 0.072236 0.782368
#
# Coordination Sequence:
#
# PCOD9316151 Si02
#       7
#     4   4   4   4   4   4   4
#     4  11  26  45  74 105 141 194 235 296 366 423
#     4  10  22  44  63 108 135 180 236 287 347 430
#     4  12  24  46  72 104 141 196 235 299 363 424
#     4  10  24  39  71  98 142 180 230 290 355 419
#     4  11  26  45  73 102 143 192 237 298 364 427
#     4  11  24  46  69 101 144 181 242 296 347 432
#     4  11  26  47  70 108 144 183 249 298 350 443
#
# _framework density 21.604938000000001
#
# number of rings (size 3 to 8) (size 9 to 14) (size 15 to 20)
#    0.000    1.143    2.857    1.714    8.000    1.143 
#    5.143    0.000    0.000    0.000    0.000    0.000 
#    0.000    0.000    0.000    0.000    0.000    0.000 
#
# Total GULP energy -155954.793981 kJ/mol
# GULP energy per Si atom -5569.814071 kJ/mol
# Density = 2.155576 g / cm^3
# Si number density = 21.604938 Si / 1000 Ang^3
#
#
#
# Elastic Constant Matrix: (Units=GPa)
#
#
# Indices 1 2 3 4 5 6 
#
# 1 63.1276 17.7854 13.3836 0.0000 0.0000 0.0000
# 2 17.7854 89.4940 15.9877 0.0000 0.0000 0.0000
# 3 13.3836 15.9877 114.8611 0.0000 0.0000 0.0000
# 4 0.0000 0.0000 0.0000 30.3781 0.0000 0.0000
# 5 0.0000 0.0000 0.0000 0.0000 37.9063 0.0000
# 6 0.0000 0.0000 0.0000 0.0000 0.0000 25.9240
#
#
#
# Elastic Compliance Matrix: (Units=1/GPa)
#
#
# Indices 1 2 3 4 5 6 
#
# 1 0.017047 -0.003110 -0.001553 0.000000 0.000000 0.000000
# 2 -0.003110 0.012026 -0.001312 0.000000 0.000000 0.000000
# 3 -0.001553 -0.001312 0.009070 0.000000 0.000000 0.000000
# 4 0.000000 0.000000 0.000000 0.032919 0.000000 0.000000
# 5 0.000000 0.000000 0.000000 0.000000 0.026381 0.000000
# 6 0.000000 0.000000 0.000000 0.000000 0.000000 0.038574
#
#
# Mechanical properties :
#
#
# Convention : Reuss Voigt Hill
#
# Bulk Modulus (GPa) = 38.17909 40.19957 39.18933
# Shear Modulus (GPa) = 31.90867 33.53007 32.71937
#
# Velocity S-wave (km/s) = 3.84724 3.94377 3.89580
# Velocity P-wave (km/s) = 6.11921 6.27573 6.19797
#
# Compressibility (1/GPa) = 0.02619235
#
# Stress axis : x y z
#
# Youngs Moduli (GPa) = 58.66305 83.15087 110.25693
#
# Poissons Ratio (x) = 0.25862 0.17127
# Poissons Ratio (y) = 0.18245 0.14461
# Poissons Ratio (z) = 0.09112 0.10906
#
# Static dielectric constant tensor:
#      x y z
#    x 1.836280 0.000000 0.000000 
#    y 0.000000 1.782510 0.000000 
#    z 0.000000 0.000000 1.841590 
# 
# From -- ./inp_files/1733.got.cif
#   From: 2010.05.17/outbox.ucp.g08.bks.cvg/sg19_1_cif.got.tgz:1733.got - 2010.06.11 13:13:52.
