data_PCOD9316933
_publ_section_title
;
Structure prediction by ZEFSAII (Michael W. Deem and Ramdas Pophale) SiO2 
 PCOD9316933
Probable space group: C 2 2 21
;
_chemical_formula_sum "Si O2"
_cell_formula_units_Z 32
_cell_length_a 19.240399
_cell_length_b 7.079699
_cell_length_c 8.250721
_cell_angle_alpha 90.000000
_cell_angle_beta 90.000000
_cell_angle_gamma 90.000000
_cell_volume 1123.882139
_symmetry_space_group_name_H-M "C 2 2 21"
_symmetry_group_IT_number 20
_symmetry_cell_setting 'orthorhombic'
loop_
_space_group_symop_operation_xyz
x,y,z
-x,-y,1/2+z
x,-y,-z
-x,y,1/2-z
1/2+x,1/2+y,z
1/2-x,1/2-y,1/2+z
1/2+x,1/2-y,-z
1/2-x,1/2+y,1/2-z
loop_
_atom_site_type_symbol
_atom_site_label
_atom_site_fract_x
_atom_site_fract_y
_atom_site_fract_z
Si Si1 0.606596 0.731437 0.186965
Si Si2 0.475792 0.729833 0.995747
Si Si3 0.762127 0.771572 0.510779
Si Si4 0.639978 0.697356 0.722373
O O1 0.555045 0.778605 0.037993
O O2 0.568518 0.794488 0.348683
O O3 0.684393 0.792285 0.152011
O O4 0.616795 0.504900 0.206702
O O5 0.474305 0.500000 0.000000
O O6 0.432154 0.787153 0.838332
O O7 0.687991 0.689696 0.560559
O O8 0.806536 0.716131 0.352035
O O9 0.754401 0.000000 0.500000
#
# Coordination Sequence:
#
# PCOD9316933 Si02
#       4
#     8   8   8   8
#     4   9  18  31  50  78 109 141 189 241 287 340
#     4   9  16  29  50  78 107 138 183 242 292 332
#     4  10  20  33  50  79 115 154 193 232 292 362
#     4  10  19  31  50  77 114 154 190 240 293 341
#
# _framework density 28.472738
#
# number of rings (size 3 to 8) (size 9 to 14) (size 15 to 20)
#    0.000    2.500    0.000    3.750    0.000    5.000 
#    0.000    0.000    0.000    0.000    0.000   68.250 
#    0.000    0.000    0.000    0.000    0.000    0.000 
#
# Total GULP energy -89525.892182 kJ/mol
# GULP energy per Si atom -5595.368261 kJ/mol
# Density = 2.840793 g / cm^3
# Si number density = 28.472738 Si / 1000 Ang^3
#
#
#
# Elastic Constant Matrix: (Units=GPa)
#
#
# Indices 1 2 3 4 5 6 
#
# 1 253.2252 13.2235 64.7682 0.0000 0.0000 0.0000
# 2 13.2235 166.3187 15.1150 0.0000 0.0000 0.0000
# 3 64.7682 15.1150 104.3793 0.0000 0.0000 0.0000
# 4 0.0000 0.0000 0.0000 -9.8296 0.0000 0.0000
# 5 0.0000 0.0000 0.0000 0.0000 81.8355 0.0000
# 6 0.0000 0.0000 0.0000 0.0000 0.0000 -2.7538
#
#
#
# Elastic Compliance Matrix: (Units=1/GPa)
#
#
# Indices 1 2 3 4 5 6 
#
# 1 0.004696 -0.000110 -0.002898 0.000000 0.000000 0.000000
# 2 -0.000110 0.006095 -0.000814 0.000000 0.000000 0.000000
# 3 -0.002898 -0.000814 0.011497 0.000000 0.000000 0.000000
# 4 0.000000 0.000000 0.000000 -0.101733 0.000000 0.000000
# 5 0.000000 0.000000 0.000000 0.000000 0.012220 0.000000
# 6 0.000000 0.000000 0.000000 0.000000 0.000000 -0.363134
#
#
# Mechanical properties :
#
#
# Convention : Reuss Voigt Hill
#
# Bulk Modulus (GPa) = 68.29128 78.90407 73.59768
# Shear Modulus (GPa) = -11.96649 42.57151 15.30251
#
# Velocity S-wave (km/s) = -2.05229 3.87093 2.32080
# Velocity P-wave (km/s) = 4.29197 6.91022 5.75205
#
# Compressibility (1/GPa) = 0.01464316
#
# Stress axis : x y z
#
# Youngs Moduli (GPa) = 212.94603 164.06055 86.98226
#
# Poissons Ratio (x) = 0.01805 0.25207
# Poissons Ratio (y) = 0.02342 0.07084
# Poissons Ratio (z) = 0.61712 0.13361
#
# Static dielectric constant tensor:
#      x y z
#    x 2.079110 0.000000 0.000000 
#    y 0.000000 2.166120 0.000000 
#    z 0.000000 0.000000 2.354040 
# 
# From -- ./inp_files/6970.got.cif
#   From: 2010.05.17/outbox.cif.g08.bks.cpg/sg20_4_cif.got.tgz:6970.got - 2010.06.03 22:52:26.
