data_PCOD9316600
_publ_section_title
;
Structure prediction by ZEFSAII (Michael W. Deem and Ramdas Pophale) SiO2 
 PCOD9316600
Probable space group: C 2 2 21
;
_chemical_formula_sum "Si O2"
_cell_formula_units_Z 64
_cell_length_a 20.129558
_cell_length_b 10.222312
_cell_length_c 18.152710
_cell_angle_alpha 90.000000
_cell_angle_beta 90.000000
_cell_angle_gamma 90.000000
_cell_volume 3735.294433
_symmetry_space_group_name_H-M "C 2 2 21"
_symmetry_group_IT_number 20
_symmetry_cell_setting 'orthorhombic'
loop_
_space_group_symop_operation_xyz
x,y,z
-x,-y,1/2+z
x,-y,-z
-x,y,1/2-z
1/2+x,1/2+y,z
1/2-x,1/2-y,1/2+z
1/2+x,1/2-y,-z
1/2-x,1/2+y,1/2-z
loop_
_atom_site_type_symbol
_atom_site_label
_atom_site_fract_x
_atom_site_fract_y
_atom_site_fract_z
Si Si1 0.562589 0.285757 0.201944
Si Si2 0.615744 0.124501 0.947942
Si Si3 0.601207 0.373126 0.045577
Si Si4 0.435283 0.976805 0.295652
Si Si5 0.295112 0.011512 0.784464
Si Si6 0.225317 0.137613 0.538889
Si Si7 0.695737 0.296310 0.298976
Si Si8 0.239483 0.614217 0.556946
O O1 0.500000 0.327319 0.250000
O O2 0.567171 0.357788 0.124219
O O3 0.555671 0.130554 0.185076
O O4 0.628816 0.304464 0.250678
O O5 0.695932 0.136947 0.939194
O O6 0.580633 0.102016 0.869944
O O7 0.591095 0.249578 0.992654
O O8 0.604737 0.000000 0.000000
O O9 0.680384 0.379486 0.062202
O O10 0.581741 0.500000 0.000000
O O11 0.500000 0.933878 0.250000
O O12 0.369404 0.973189 0.245857
O O13 0.279677 0.855192 0.789621
O O14 0.246092 0.094730 0.732508
O O15 0.288791 0.075891 0.864462
O O16 0.187300 0.172715 0.614257
O O17 0.216263 0.250051 0.478058
O O18 0.209869 0.000000 0.500000
O O19 0.222607 0.500000 0.500000
#
# Coordination Sequence:
#
# PCOD9316600 Si02
#       8
#     8   8   8   8   8   8   8   8
#     4  10  21  39  59  82 116 155 192 228 283 352
#     4  10  18  33  57  81 110 142 192 234 274 334
#     4  10  20  33  57  84 110 148 188 232 280 343
#     4  10  21  38  58  86 116 151 193 236 284 337
#     4  11  22  35  59  86 117 147 189 239 290 341
#     4  10  21  33  55  85 114 148 189 238 286 334
#     4  11  22  36  58  88 114 147 189 238 292 336
#     4  10  19  35  53  83 117 144 188 238 286 333
#
# _framework density 17.133856999999999
#
# number of rings (size 3 to 8) (size 9 to 14) (size 15 to 20)
#    0.000    1.750    5.000    0.000    1.750    0.000 
#    0.000    3.125    0.000    0.000    0.000    0.000 
#    0.000    0.000    0.000    0.000    0.000    0.000 
#
# Total GULP energy -178518.825662 kJ/mol
# GULP energy per Si atom -5578.713302 kJ/mol
# Density = 1.709486 g / cm^3
# Si number density = 17.133857 Si / 1000 Ang^3
#
#
#
# Elastic Constant Matrix: (Units=GPa)
#
#
# Indices 1 2 3 4 5 6 
#
# 1 46.3450 32.2614 36.9964 0.0000 0.0000 0.0000
# 2 32.2614 126.3752 66.1506 0.0000 0.0000 0.0000
# 3 36.9964 66.1506 153.2106 0.0000 0.0000 0.0000
# 4 0.0000 0.0000 0.0000 28.1253 0.0000 0.0000
# 5 0.0000 0.0000 0.0000 0.0000 25.2327 0.0000
# 6 0.0000 0.0000 0.0000 0.0000 0.0000 46.9267
#
#
#
# Elastic Compliance Matrix: (Units=1/GPa)
#
#
# Indices 1 2 3 4 5 6 
#
# 1 0.028819 -0.004799 -0.004887 0.000000 0.000000 0.000000
# 2 -0.004799 0.011023 -0.003600 0.000000 0.000000 0.000000
# 3 -0.004887 -0.003600 0.009262 0.000000 0.000000 0.000000
# 4 0.000000 0.000000 0.000000 0.035555 0.000000 0.000000
# 5 0.000000 0.000000 0.000000 0.000000 0.039631 0.000000
# 6 0.000000 0.000000 0.000000 0.000000 0.000000 0.021310
#
#
# Mechanical properties :
#
#
# Convention : Reuss Voigt Hill
#
# Bulk Modulus (GPa) = 44.38393 66.30528 55.34461
# Shear Modulus (GPa) = 27.82688 32.75845 30.29267
#
# Velocity S-wave (km/s) = 4.03437 4.37729 4.20932
# Velocity P-wave (km/s) = 6.90377 8.02059 7.48304
#
# Compressibility (1/GPa) = 0.02253068
#
# Stress axis : x y z
#
# Youngs Moduli (GPa) = 34.69909 90.72265 107.97312
#
# Poissons Ratio (x) = 0.43537 0.52768
# Poissons Ratio (y) = 0.16652 0.38874
# Poissons Ratio (z) = 0.16958 0.32663
#
# Static dielectric constant tensor:
#      x y z
#    x 1.566550 0.000000 0.000000 
#    y 0.000000 1.585760 0.000000 
#    z 0.000000 0.000000 1.559710 
# 
# From -- ./inp_files/25514.got.cif
#   From: 2010.05.17/outbox.cif.g08.bks.cpg/sg20_13_cif.got.tgz:25514.got - 2010.06.03 22:52:26.
