data_PCOD9316693
_publ_section_title
;
Structure prediction by ZEFSAII (Michael W. Deem and Ramdas Pophale) SiO2 
 PCOD9316693
Probable space group: C 2 2 21
;
_chemical_formula_sum "Si O2"
_cell_formula_units_Z 32
_cell_length_a 13.686511
_cell_length_b 7.244533
_cell_length_c 12.652176
_cell_angle_alpha 90.000000
_cell_angle_beta 90.000000
_cell_angle_gamma 90.000000
_cell_volume 1254.493370
_symmetry_space_group_name_H-M "C 2 2 21"
_symmetry_group_IT_number 20
_symmetry_cell_setting 'orthorhombic'
loop_
_space_group_symop_operation_xyz
x,y,z
-x,-y,1/2+z
x,-y,-z
-x,y,1/2-z
1/2+x,1/2+y,z
1/2-x,1/2-y,1/2+z
1/2+x,1/2-y,-z
1/2-x,1/2+y,1/2-z
loop_
_atom_site_type_symbol
_atom_site_label
_atom_site_fract_x
_atom_site_fract_y
_atom_site_fract_z
Si Si1 0.542768 0.473247 0.864470
Si Si2 0.823813 0.646160 0.705815
Si Si3 0.100462 0.662909 0.573140
Si Si4 0.308588 0.237442 0.386859
O O1 0.500000 0.528187 0.750000
O O2 0.458300 0.353013 0.919471
O O3 0.594915 0.650632 0.914496
O O4 0.629786 0.327177 0.843798
O O5 0.892946 0.593174 0.805517
O O6 0.724223 0.696703 0.767428
O O7 0.818451 0.480309 0.624848
O O8 0.062197 0.500000 0.500000
O O9 0.213416 0.709102 0.544870
#
# Coordination Sequence:
#
# PCOD9316693 Si02
#       4
#     8   8   8   8
#     4  10  19  35  59  84 112 153 199 240 291 362
#     4   9  17  33  60  82 109 154 199 235 289 353
#     4   9  20  38  56  86 128 149 193 263 298 342
#     4  10  18  35  62  81 113 154 202 238 292 354
#
# _framework density 25.508303999999999
#
# number of rings (size 3 to 8) (size 9 to 14) (size 15 to 20)
#    1.500    1.000    2.500    0.000    0.000    3.000 
#    4.500    0.000    0.000   16.500    0.000    0.000 
#    0.000    0.000    0.000    0.000    0.000    0.000 
#
# Total GULP energy -89473.273501 kJ/mol
# GULP energy per Si atom -5592.079594 kJ/mol
# Density = 2.545025 g / cm^3
# Si number density = 25.508304 Si / 1000 Ang^3
#
#
#
# Elastic Constant Matrix: (Units=GPa)
#
#
# Indices 1 2 3 4 5 6 
#
# 1 110.2357 13.0975 16.1656 0.0000 0.0000 0.0000
# 2 13.0975 54.2524 3.5082 0.0000 0.0000 0.0000
# 3 16.1656 3.5082 83.6912 0.0000 0.0000 0.0000
# 4 0.0000 0.0000 0.0000 34.5946 0.0000 0.0000
# 5 0.0000 0.0000 0.0000 0.0000 38.1827 0.0000
# 6 0.0000 0.0000 0.0000 0.0000 0.0000 47.4857
#
#
#
# Elastic Compliance Matrix: (Units=1/GPa)
#
#
# Indices 1 2 3 4 5 6 
#
# 1 0.009591 -0.002202 -0.001760 0.000000 0.000000 0.000000
# 2 -0.002202 0.018988 -0.000371 0.000000 0.000000 0.000000
# 3 -0.001760 -0.000371 0.012304 0.000000 0.000000 0.000000
# 4 0.000000 0.000000 0.000000 0.028906 0.000000 0.000000
# 5 0.000000 0.000000 0.000000 0.000000 0.026190 0.000000
# 6 0.000000 0.000000 0.000000 0.000000 0.000000 0.021059
#
#
# Mechanical properties :
#
#
# Convention : Reuss Voigt Hill
#
# Bulk Modulus (GPa) = 31.03857 34.85800 32.94828
# Shear Modulus (GPa) = 36.64532 38.41313 37.52922
#
# Velocity S-wave (km/s) = 3.79437 3.88481 3.83986
# Velocity P-wave (km/s) = 5.60274 5.81527 5.71000
#
# Compressibility (1/GPa) = 0.03221798
#
# Stress axis : x y z
#
# Youngs Moduli (GPa) = 104.26217 52.66520 81.27277
#
# Poissons Ratio (x) = 0.11595 0.14307
# Poissons Ratio (y) = 0.22955 0.03013
# Poissons Ratio (z) = 0.18354 0.01952
#
# Static dielectric constant tensor:
#      x y z
#    x 1.993200 0.000000 0.000000 
#    y 0.000000 1.923360 0.000000 
#    z 0.000000 0.000000 2.108370 
# 
# From -- ./inp_files/14653.got.cif
#   From: 2010.05.17/outbox.cif.g08.bks.cpg/sg20_8_cif.got.tgz:14653.got - 2010.06.03 22:52:26.
