data_PCOD9316504
_publ_section_title
;
Structure prediction by ZEFSAII (Michael W. Deem and Ramdas Pophale) SiO2 
 PCOD9316504
Probable space group: C 2 2 21
;
_chemical_formula_sum "Si O2"
_cell_formula_units_Z 52
_cell_length_a 24.453997
_cell_length_b 9.591170
_cell_length_c 11.303549
_cell_angle_alpha 90.000000
_cell_angle_beta 90.000000
_cell_angle_gamma 90.000000
_cell_volume 2651.161990
_symmetry_space_group_name_H-M "C 2 2 21"
_symmetry_group_IT_number 20
_symmetry_cell_setting 'orthorhombic'
loop_
_space_group_symop_operation_xyz
x,y,z
-x,-y,1/2+z
x,-y,-z
-x,y,1/2-z
1/2+x,1/2+y,z
1/2-x,1/2-y,1/2+z
1/2+x,1/2-y,-z
1/2-x,1/2+y,1/2-z
loop_
_atom_site_type_symbol
_atom_site_label
_atom_site_fract_x
_atom_site_fract_y
_atom_site_fract_z
Si Si1 0.212673 0.445759 0.371290
Si Si2 0.422144 0.454155 0.631420
Si Si3 0.237952 0.267377 0.713577
Si Si4 0.158637 0.272455 0.068159
Si Si5 0.500000 0.234235 0.750000
Si Si6 0.621274 0.736787 0.794872
Si Si7 0.599090 0.041610 0.740647
O O1 0.227356 0.500000 0.500000
O O2 0.235560 0.565560 0.284467
O O3 0.237061 0.300542 0.330853
O O4 0.147850 0.441239 0.353128
O O5 0.436054 0.500000 0.500000
O O6 0.364626 0.371406 0.624538
O O7 0.466615 0.340927 0.668517
O O8 0.413596 0.595256 0.705231
O O9 0.278345 0.218197 0.608460
O O10 0.174489 0.223408 0.710874
O O11 0.124661 0.392741 0.137493
O O12 0.144514 0.262199 0.929353
O O13 0.546726 0.130331 0.702450
O O14 0.589669 0.877676 0.760198
#
# Coordination Sequence:
#
# PCOD9316504 Si02
#       7
#     8   8   8   8   4   8   8
#     4  10  20  36  53  80 117 150 184 227 272 326
#     4   9  19  35  57  79 102 138 182 229 277 321
#     4  10  19  31  55  83 113 151 184 213 267 327
#     4   9  17  32  51  77 112 145 179 220 262 319
#     4  10  20  40  58  74 104 138 180 236 284 328
#     4  10  18  31  52  82 110 140 184 224 260 323
#     4   9  20  34  53  76 104 142 181 225 278 323
#
# _framework density 19.614039999999999
#
# number of rings (size 3 to 8) (size 9 to 14) (size 15 to 20)
#    0.000    2.462    0.000    2.308    0.000    1.846 
#    0.000   10.000    0.000    0.000    0.000    0.000 
#    0.000    0.000    0.000    0.000    0.000    0.000 
#
# Total GULP energy -144855.780363 kJ/mol
# GULP energy per Si atom -5571.376168 kJ/mol
# Density = 1.956940 g / cm^3
# Si number density = 19.614040 Si / 1000 Ang^3
#
#
#
# Elastic Constant Matrix: (Units=GPa)
#
#
# Indices 1 2 3 4 5 6 
#
# 1 90.7504 62.4155 20.9977 0.0000 0.0000 0.0000
# 2 62.4155 145.7355 26.6481 0.0000 0.0000 0.0000
# 3 20.9977 26.6481 43.0501 0.0000 0.0000 0.0000
# 4 0.0000 0.0000 0.0000 21.0608 0.0000 0.0000
# 5 0.0000 0.0000 0.0000 0.0000 7.3789 0.0000
# 6 0.0000 0.0000 0.0000 0.0000 0.0000 31.0559
#
#
#
# Elastic Compliance Matrix: (Units=1/GPa)
#
#
# Indices 1 2 3 4 5 6 
#
# 1 0.016230 -0.006206 -0.004075 0.000000 0.000000 0.000000
# 2 -0.006206 0.010111 -0.003231 0.000000 0.000000 0.000000
# 3 -0.004075 -0.003231 0.027217 0.000000 0.000000 0.000000
# 4 0.000000 0.000000 0.000000 0.047482 0.000000 0.000000
# 5 0.000000 0.000000 0.000000 0.000000 0.135522 0.000000
# 6 0.000000 0.000000 0.000000 0.000000 0.000000 0.032200
#
#
# Mechanical properties :
#
#
# Convention : Reuss Voigt Hill
#
# Bulk Modulus (GPa) = 37.68913 55.51760 46.60337
# Shear Modulus (GPa) = 16.41337 23.19744 19.80540
#
# Velocity S-wave (km/s) = 2.89592 3.44277 3.18111
# Velocity P-wave (km/s) = 5.51714 6.64605 6.10774
#
# Compressibility (1/GPa) = 0.02653285
#
# Stress axis : x y z
#
# Youngs Moduli (GPa) = 61.61274 98.90662 36.74235
#
# Poissons Ratio (x) = 0.61382 0.14972
# Poissons Ratio (y) = 0.38237 0.11873
# Poissons Ratio (z) = 0.25106 0.31961
#
# Static dielectric constant tensor:
#      x y z
#    x 1.724030 0.000000 0.000000 
#    y 0.000000 1.711940 0.000000 
#    z 0.000000 0.000000 1.710580 
# 
# From -- ./inp_files/17018.got.cif
#   From: 2010.05.17/outbox.cif.g08.bks.cpg/sg20_9_cif.got.tgz:17018.got - 2010.06.03 22:52:26.
