data_PCOD9316962
_publ_section_title
;
Structure prediction by ZEFSAII (Michael W. Deem and Ramdas Pophale) SiO2 
 PCOD9316962
Probable space group: C 2 2 21
;
_chemical_formula_sum "Si O2"
_cell_formula_units_Z 48
_cell_length_a 23.841685
_cell_length_b 5.222760
_cell_length_c 16.177341
_cell_angle_alpha 90.000000
_cell_angle_beta 90.000000
_cell_angle_gamma 90.000000
_cell_volume 2014.392775
_symmetry_space_group_name_H-M "C 2 2 21"
_symmetry_group_IT_number 20
_symmetry_cell_setting 'orthorhombic'
loop_
_space_group_symop_operation_xyz
x,y,z
-x,-y,1/2+z
x,-y,-z
-x,y,1/2-z
1/2+x,1/2+y,z
1/2-x,1/2-y,1/2+z
1/2+x,1/2-y,-z
1/2-x,1/2+y,1/2-z
loop_
_atom_site_type_symbol
_atom_site_label
_atom_site_fract_x
_atom_site_fract_y
_atom_site_fract_z
Si Si1 0.705501 0.245291 0.550351
Si Si2 0.144580 0.359045 0.088990
Si Si3 0.379925 0.383466 0.203324
Si Si4 0.435571 0.115884 0.727042
Si Si5 0.584783 0.748170 0.520886
Si Si6 0.796604 0.851408 0.336072
O O1 0.724355 0.500000 0.500000
O O2 0.638364 0.245727 0.541525
O O3 0.731829 0.185943 0.639233
O O4 0.724995 0.000000 0.500000
O O5 0.084139 0.332122 0.133289
O O6 0.178688 0.575983 0.138434
O O7 0.175223 0.084743 0.109595
O O8 0.140431 0.500000 0.000000
O O9 0.404020 0.665653 0.219581
O O10 0.387810 0.283895 0.110455
O O11 0.317557 0.384056 0.242228
O O12 0.415829 0.172382 0.253051
O O13 0.500000 0.138762 0.750000
O O14 0.549912 0.500000 0.500000
O O15 0.551769 0.000000 0.500000
#
# Coordination Sequence:
#
# PCOD9316962 Si02
#       6
#     8   8   8   8   8   8
#     4  10  19  32  51  77 109 145 186 232 274 324
#     4  10  19  32  54  82 113 144 183 233 288 347
#     4  10  21  38  59  81 112 154 192 233 292 352
#     4  10  21  38  60  86 114 147 190 242 293 348
#     4  10  21  38  56  79 112 152 195 238 283 339
#     4  10  19  32  54  81 110 148 188 230 286 336
#
# _framework density 23.828520000000001
#
# number of rings (size 3 to 8) (size 9 to 14) (size 15 to 20)
#    0.000    2.000    0.000    4.500    0.000    0.000 
#    0.000    9.167    0.000    2.000    0.000    0.000 
#    0.000    0.000    0.000    0.000    0.000    0.000 
#
# Total GULP energy -133797.491166 kJ/mol
# GULP energy per Si atom -5574.895465 kJ/mol
# Density = 2.377429 g / cm^3
# Si number density = 23.828520 Si / 1000 Ang^3
#
#
#
# Elastic Constant Matrix: (Units=GPa)
#
#
# Indices 1 2 3 4 5 6 
#
# 1 32.2353 -4.8005 -5.0410 0.0000 0.0000 0.0000
# 2 -4.8005 140.8342 -1.5086 0.0000 0.0000 0.0000
# 3 -5.0410 -1.5086 59.3248 0.0000 0.0000 0.0000
# 4 0.0000 0.0000 0.0000 33.7519 0.0000 0.0000
# 5 0.0000 0.0000 0.0000 0.0000 135.6869 0.0000
# 6 0.0000 0.0000 0.0000 0.0000 0.0000 30.6706
#
#
#
# Elastic Compliance Matrix: (Units=1/GPa)
#
#
# Indices 1 2 3 4 5 6 
#
# 1 0.031611 0.001107 0.002714 0.000000 0.000000 0.000000
# 2 0.001107 0.007141 0.000276 0.000000 0.000000 0.000000
# 3 0.002714 0.000276 0.017094 0.000000 0.000000 0.000000
# 4 0.000000 0.000000 0.000000 0.029628 0.000000 0.000000
# 5 0.000000 0.000000 0.000000 0.000000 0.007370 0.000000
# 6 0.000000 0.000000 0.000000 0.000000 0.000000 0.032605
#
#
# Mechanical properties :
#
#
# Convention : Reuss Voigt Hill
#
# Bulk Modulus (GPa) = 15.61544 23.29935 19.45739
# Shear Modulus (GPa) = 36.07443 56.27151 46.17297
#
# Velocity S-wave (km/s) = 3.89513 4.86482 4.40673
# Velocity P-wave (km/s) = 5.17657 6.43074 5.83744
#
# Compressibility (1/GPa) = 0.06403918
#
# Stress axis : x y z
#
# Youngs Moduli (GPa) = 31.63443 140.03214 58.50006
#
# Poissons Ratio (x) = -0.15496 -0.15878
# Poissons Ratio (y) = -0.03501 -0.01612
# Poissons Ratio (z) = -0.08586 -0.03860
#
# Static dielectric constant tensor:
#      x y z
#    x 1.898680 0.000000 0.000000 
#    y 0.000000 1.916340 0.000000 
#    z 0.000000 0.000000 2.018750 
# 
# From -- ./inp_files/22149.got.cif
#   From: 2010.05.17/outbox.cif.g08.bks.cpg/sg20_12_cif.got.tgz:22149.got - 2010.06.03 22:52:26.
