data_PCOD9316526
_publ_section_title
;
Structure prediction by ZEFSAII (Michael W. Deem and Ramdas Pophale) SiO2 
 PCOD9316526
Probable space group: C 2 2 21
;
_chemical_formula_sum "Si O2"
_cell_formula_units_Z 24
_cell_length_a 7.596648
_cell_length_b 14.371692
_cell_length_c 9.097088
_cell_angle_alpha 90.000000
_cell_angle_beta 90.000000
_cell_angle_gamma 90.000000
_cell_volume 993.189914
_symmetry_space_group_name_H-M "C 2 2 21"
_symmetry_group_IT_number 20
_symmetry_cell_setting 'orthorhombic'
loop_
_space_group_symop_operation_xyz
x,y,z
-x,-y,1/2+z
x,-y,-z
-x,y,1/2-z
1/2+x,1/2+y,z
1/2-x,1/2-y,1/2+z
1/2+x,1/2-y,-z
1/2-x,1/2+y,1/2-z
loop_
_atom_site_type_symbol
_atom_site_label
_atom_site_fract_x
_atom_site_fract_y
_atom_site_fract_z
Si Si1 0.770441 0.656100 0.155286
Si Si2 0.881758 0.792063 0.933049
Si Si3 0.497226 0.000000 0.500000
Si Si4 0.500000 0.122198 0.750000
O O1 0.757890 0.652672 0.333018
O O2 0.570352 0.660102 0.091978
O O3 0.876519 0.570056 0.091056
O O4 0.847919 0.754440 0.095133
O O5 0.885465 0.693474 0.844768
O O6 0.403789 0.939993 0.373033
#
# Coordination Sequence:
#
# PCOD9316526 Si02
#       4
#     8   8   4   4
#     4   9  19  34  53  75 102 130 170 208 249 299
#     4   9  19  37  52  73 101 138 170 201 248 309
#     4  10  18  32  52  78 104 130 166 214 250 290
#     4   8  18  32  50  72 102 132 166 196 248 308
#
# _framework density 24.164566000000001
#
# number of rings (size 3 to 8) (size 9 to 14) (size 15 to 20)
#    0.000    3.333    0.000    0.000    0.000    9.333 
#    0.000   20.000    0.000    0.000    0.000    0.000 
#    0.000    0.000    0.000    0.000    0.000    0.000 
#
# Total GULP energy -66865.261868 kJ/mol
# GULP energy per Si atom -5572.105156 kJ/mol
# Density = 2.410957 g / cm^3
# Si number density = 24.164566 Si / 1000 Ang^3
#
#
#
# Elastic Constant Matrix: (Units=GPa)
#
#
# Indices 1 2 3 4 5 6 
#
# 1 72.4795 18.9324 16.1871 0.0000 0.0000 0.0000
# 2 18.9324 81.6865 1.3227 0.0000 0.0000 0.0000
# 3 16.1871 1.3227 56.2143 0.0000 0.0000 0.0000
# 4 0.0000 0.0000 0.0000 46.7555 0.0000 0.0000
# 5 0.0000 0.0000 0.0000 0.0000 38.0124 0.0000
# 6 0.0000 0.0000 0.0000 0.0000 0.0000 11.9225
#
#
#
# Elastic Compliance Matrix: (Units=1/GPa)
#
#
# Indices 1 2 3 4 5 6 
#
# 1 0.015722 -0.003572 -0.004443 0.000000 0.000000 0.000000
# 2 -0.003572 0.013058 0.000721 0.000000 0.000000 0.000000
# 3 -0.004443 0.000721 0.019052 0.000000 0.000000 0.000000
# 4 0.000000 0.000000 0.000000 0.021388 0.000000 0.000000
# 5 0.000000 0.000000 0.000000 0.000000 0.026307 0.000000
# 6 0.000000 0.000000 0.000000 0.000000 0.000000 0.083875
#
#
# Mechanical properties :
#
#
# Convention : Reuss Voigt Hill
#
# Bulk Modulus (GPa) = 30.08049 31.47386 30.77717
# Shear Modulus (GPa) = 24.38172 30.93396 27.65784
#
# Velocity S-wave (km/s) = 3.17990 3.58178 3.38681
# Velocity P-wave (km/s) = 5.09486 5.49169 5.29699
#
# Compressibility (1/GPa) = 0.03324414
#
# Stress axis : x y z
#
# Youngs Moduli (GPa) = 63.60364 76.58072 52.48923
#
# Poissons Ratio (x) = 0.27355 0.23322
# Poissons Ratio (y) = 0.22719 -0.03786
# Poissons Ratio (z) = 0.28261 -0.05524
#
# Static dielectric constant tensor:
#      x y z
#    x 1.962570 0.000000 0.000000 
#    y 0.000000 1.984520 0.000000 
#    z 0.000000 0.000000 2.147020 
# 
# From -- ./inp_files/5481.got.cif
#   From: 2010.05.17/outbox.cif.g08.bks.cpg/sg20_3_cif.got.tgz:5481.got - 2010.06.03 22:52:26.
