data_PCOD9316835
_publ_section_title
;
Structure prediction by ZEFSAII (Michael W. Deem and Ramdas Pophale) SiO2 
 PCOD9316835
Probable space group: C 2 2 21
;
_chemical_formula_sum "Si O2"
_cell_formula_units_Z 64
_cell_length_a 7.637422
_cell_length_b 29.047801
_cell_length_c 11.592166
_cell_angle_alpha 90.000000
_cell_angle_beta 90.000000
_cell_angle_gamma 90.000000
_cell_volume 2571.725672
_symmetry_space_group_name_H-M "C 2 2 21"
_symmetry_group_IT_number 20
_symmetry_cell_setting 'orthorhombic'
loop_
_space_group_symop_operation_xyz
x,y,z
-x,-y,1/2+z
x,-y,-z
-x,y,1/2-z
1/2+x,1/2+y,z
1/2-x,1/2-y,1/2+z
1/2+x,1/2-y,-z
1/2-x,1/2+y,1/2-z
loop_
_atom_site_type_symbol
_atom_site_label
_atom_site_fract_x
_atom_site_fract_y
_atom_site_fract_z
Si Si1 0.179560 0.396525 0.898205
Si Si2 0.201356 0.579363 0.708217
Si Si3 0.728636 0.815829 0.040665
Si Si4 0.868190 0.275819 0.984575
Si Si5 0.179160 0.836867 0.811874
Si Si6 0.305664 0.317507 0.287787
Si Si7 0.286993 0.016414 0.265898
Si Si8 0.774268 0.420700 0.943667
O O1 0.213083 0.363716 0.787820
O O2 0.252513 0.446803 0.865998
O O3 0.973716 0.403939 0.918228
O O4 0.257322 0.368388 0.005615
O O5 0.302142 0.627219 0.704487
O O6 0.270563 0.536012 0.781433
O O7 0.213804 0.563532 0.574859
O O8 0.000000 0.588080 0.750000
O O9 0.556857 0.798449 0.976483
O O10 0.689917 0.809396 0.174635
O O11 0.876434 0.779275 0.007533
O O12 0.770851 0.295029 0.097955
O O13 0.767751 0.293386 0.871207
O O14 0.159618 0.875736 0.912022
O O15 0.000000 0.824529 0.750000
O O16 0.500000 0.302265 0.250000
O O17 0.500000 0.014279 0.250000
O O18 0.223113 0.040299 0.147971
#
# Coordination Sequence:
#
# PCOD9316835 Si02
#       8
#     8   8   8   8   8   8   8   8
#     4  10  21  41  67 100 136 182 236 291 355 424
#     4  11  20  38  66  99 139 185 229 294 364 422
#     4  12  27  45  75 101 144 186 235 309 359 437
#     4  12  27  48  68 105 138 186 244 294 372 433
#     4  11  24  39  67  96 138 180 236 289 354 426
#     4  12  27  47  68  99 141 189 239 290 365 435
#     4   8  18  33  63 101 133 176 234 288 348 429
#     4  10  18  39  63  98 135 178 236 289 352 432
#
# _framework density 24.886013999999999
#
# number of rings (size 3 to 8) (size 9 to 14) (size 15 to 20)
#    0.000    1.250    2.500    4.125    5.250    0.000 
#    0.000    4.375    0.000    1.500    0.000    0.000 
#    0.000    0.000    0.000    0.000    0.000    0.000 
#
# Total GULP energy -179048.083676 kJ/mol
# GULP energy per Si atom -5595.252615 kJ/mol
# Density = 2.482937 g / cm^3
# Si number density = 24.886014 Si / 1000 Ang^3
#
#
#
# Elastic Constant Matrix: (Units=GPa)
#
#
# Indices 1 2 3 4 5 6 
#
# 1 53.3402 -7.1933 5.5796 0.0000 0.0000 0.0000
# 2 -7.1933 101.0909 21.0834 0.0000 0.0000 0.0000
# 3 5.5796 21.0834 77.6360 0.0000 0.0000 0.0000
# 4 0.0000 0.0000 0.0000 12.4806 0.0000 0.0000
# 5 0.0000 0.0000 0.0000 0.0000 28.1702 0.0000
# 6 0.0000 0.0000 0.0000 0.0000 0.0000 15.6844
#
#
#
# Elastic Compliance Matrix: (Units=1/GPa)
#
#
# Indices 1 2 3 4 5 6 
#
# 1 0.019178 0.001751 -0.001854 0.000000 0.000000 0.000000
# 2 0.001751 0.010646 -0.003017 0.000000 0.000000 0.000000
# 3 -0.001854 -0.003017 0.013833 0.000000 0.000000 0.000000
# 4 0.000000 0.000000 0.000000 0.080124 0.000000 0.000000
# 5 0.000000 0.000000 0.000000 0.000000 0.035498 0.000000
# 6 0.000000 0.000000 0.000000 0.000000 0.000000 0.063758
#
#
# Mechanical properties :
#
#
# Convention : Reuss Voigt Hill
#
# Bulk Modulus (GPa) = 26.72534 30.11183 28.41859
# Shear Modulus (GPa) = 20.68264 25.44020 23.06142
#
# Velocity S-wave (km/s) = 2.88600 3.20076 3.04745
# Velocity P-wave (km/s) = 4.67630 5.07799 4.88128
#
# Compressibility (1/GPa) = 0.03741767
#
# Stress axis : x y z
#
# Youngs Moduli (GPa) = 52.14391 93.93278 72.29001
#
# Poissons Ratio (x) = -0.16450 0.13402
# Poissons Ratio (y) = -0.09132 0.21809
# Poissons Ratio (z) = 0.09667 0.28339
#
# Static dielectric constant tensor:
#      x y z
#    x 1.975010 0.000000 0.000000 
#    y 0.000000 1.991230 0.000000 
#    z 0.000000 0.000000 1.988550 
# 
# From -- ./inp_files/13383.got.cif
#   From: 2010.05.17/outbox.cif.g08.bks.cpg/sg20_7_cif.got.tgz:13383.got - 2010.06.03 22:52:26.
