data_PCOD9316341
_publ_section_title
;
Structure prediction by ZEFSAII (Michael W. Deem and Ramdas Pophale) SiO2 
 PCOD9316341
Probable space group: C 2 2 21
;
_chemical_formula_sum "Si O2"
_cell_formula_units_Z 52
_cell_length_a 29.707878
_cell_length_b 5.150273
_cell_length_c 14.596767
_cell_angle_alpha 90.000000
_cell_angle_beta 90.000000
_cell_angle_gamma 90.000000
_cell_volume 2233.359096
_symmetry_space_group_name_H-M "C 2 2 21"
_symmetry_group_IT_number 20
_symmetry_cell_setting 'orthorhombic'
loop_
_space_group_symop_operation_xyz
x,y,z
-x,-y,1/2+z
x,-y,-z
-x,y,1/2-z
1/2+x,1/2+y,z
1/2-x,1/2-y,1/2+z
1/2+x,1/2-y,-z
1/2-x,1/2+y,1/2-z
loop_
_atom_site_type_symbol
_atom_site_label
_atom_site_fract_x
_atom_site_fract_y
_atom_site_fract_z
Si Si1 0.390014 0.528937 0.850438
Si Si2 0.899492 0.081989 0.631335
Si Si3 0.943648 0.536401 0.858281
Si Si4 0.296487 0.763626 0.167245
Si Si5 0.819161 0.000000 0.500000
Si Si6 0.741359 0.225719 0.868399
Si Si7 0.953972 0.429645 0.364294
O O1 0.392033 0.565755 0.740406
O O2 0.426212 0.319895 0.884076
O O3 0.343014 0.372088 0.864687
O O4 0.407621 0.811561 0.884374
O O5 0.922302 0.345664 0.600393
O O6 0.852095 0.074535 0.581768
O O7 0.933558 0.847193 0.609615
O O8 0.948796 0.546205 0.746972
O O9 0.994837 0.508996 0.890554
O O10 0.289887 0.750194 0.277469
O O11 0.281797 0.057298 0.140064
O O12 0.259746 0.563002 0.130862
O O13 0.787231 0.213123 0.456735
#
# Coordination Sequence:
#
# PCOD9316341 Si02
#       7
#     8   8   8   8   4   8   8
#     4  10  17  32  54  84 107 145 185 239 278 335
#     4  10  21  32  53  76 118 144 188 224 282 343
#     4   9  17  28  54  78 111 139 181 219 276 327
#     4  10  20  39  54  85 110 155 184 254 287 344
#     4  12  24  42  56  92 108 168 184 246 282 390
#     4  10  23  36  59  76 119 147 198 232 304 346
#     4   9  18  33  46  80 112 147 169 227 271 326
#
# _framework density 23.283313
#
# number of rings (size 3 to 8) (size 9 to 14) (size 15 to 20)
#    0.000    2.154    1.538    1.846    0.000    7.385 
#    0.000    0.000    0.000    0.000    0.000   21.538 
#    0.000    0.000    0.000    0.000    0.000    0.000 
#
# Total GULP energy -145189.392754 kJ/mol
# GULP energy per Si atom -5584.207414 kJ/mol
# Density = 2.323032 g / cm^3
# Si number density = 23.283313 Si / 1000 Ang^3
#
#
#
# Elastic Constant Matrix: (Units=GPa)
#
#
# Indices 1 2 3 4 5 6 
#
# 1 57.4671 -13.6546 8.9951 0.0000 0.0000 0.0000
# 2 -13.6546 91.1089 8.6393 0.0000 0.0000 0.0000
# 3 8.9951 8.6393 53.8766 0.0000 0.0000 0.0000
# 4 0.0000 0.0000 0.0000 11.9721 0.0000 0.0000
# 5 0.0000 0.0000 0.0000 0.0000 -2.6502 0.0000
# 6 0.0000 0.0000 0.0000 0.0000 0.0000 17.1990
#
#
#
# Elastic Compliance Matrix: (Units=1/GPa)
#
#
# Indices 1 2 3 4 5 6 
#
# 1 0.018718 0.003149 -0.003630 0.000000 0.000000 0.000000
# 2 0.003149 0.011675 -0.002398 0.000000 0.000000 0.000000
# 3 -0.003630 -0.002398 0.019552 0.000000 0.000000 0.000000
# 4 0.000000 0.000000 0.000000 0.083528 0.000000 0.000000
# 5 0.000000 0.000000 0.000000 0.000000 -0.377332 0.000000
# 6 0.000000 0.000000 0.000000 0.000000 0.000000 0.058143
#
#
# Mechanical properties :
#
#
# Convention : Reuss Voigt Hill
#
# Bulk Modulus (GPa) = 22.63089 23.37911 23.00500
# Shear Modulus (GPa) = -30.26074 18.53572 -5.86251
#
# Velocity S-wave (km/s) = -3.60901 2.82458 -1.58851
# Velocity P-wave (km/s) = 2.76147 4.54979 2.55684
#
# Compressibility (1/GPa) = 0.04418740
#
# Stress axis : x y z
#
# Youngs Moduli (GPa) = 53.42508 85.65106 51.14690
#
# Poissons Ratio (x) = -0.26976 0.18567
# Poissons Ratio (y) = -0.16826 0.12265
# Poissons Ratio (z) = 0.19394 0.20539
#
# Static dielectric constant tensor:
#      x y z
#    x 1.868800 0.000000 0.000000 
#    y 0.000000 1.815290 0.000000 
#    z 0.000000 0.000000 1.955270 
# 
# From -- ./inp_files/25671.got.cif
#   From: 2010.05.17/outbox.cif.g08.bks.cpg/sg20_13_cif.got.tgz:25671.got - 2010.06.03 22:52:26.
