data_PCOD9316300
_publ_section_title
;
Structure prediction by ZEFSAII (Michael W. Deem and Ramdas Pophale) SiO2 
 PCOD9316300
Probable space group: C 2 2 21
;
_chemical_formula_sum "Si O2"
_cell_formula_units_Z 36
_cell_length_a 22.380995
_cell_length_b 13.162908
_cell_length_c 5.426277
_cell_angle_alpha 90.000000
_cell_angle_beta 90.000000
_cell_angle_gamma 90.000000
_cell_volume 1598.575659
_symmetry_space_group_name_H-M "C 2 2 21"
_symmetry_group_IT_number 20
_symmetry_cell_setting 'orthorhombic'
loop_
_space_group_symop_operation_xyz
x,y,z
-x,-y,1/2+z
x,-y,-z
-x,y,1/2-z
1/2+x,1/2+y,z
1/2-x,1/2-y,1/2+z
1/2+x,1/2-y,-z
1/2-x,1/2+y,1/2-z
loop_
_atom_site_type_symbol
_atom_site_label
_atom_site_fract_x
_atom_site_fract_y
_atom_site_fract_z
Si Si1 0.500000 0.408045 0.250000
Si Si2 0.676276 0.800181 0.938059
Si Si3 0.732701 0.881771 0.440095
Si Si4 0.943845 0.239194 0.361344
Si Si5 0.619211 0.459586 0.737713
O O1 0.483493 0.336538 0.474326
O O2 0.442340 0.476798 0.226653
O O3 0.704193 0.861577 0.170171
O O4 0.707830 0.688807 0.952144
O O5 0.605112 0.797277 0.978515
O O6 0.692564 0.840309 0.667637
O O7 0.738404 0.000000 0.500000
O O8 0.899435 0.158945 0.217310
O O9 0.000000 0.301550 0.250000
O O10 0.655482 0.500000 0.500000
O O11 0.642222 0.500000 0.000000
#
# Coordination Sequence:
#
# PCOD9316300 Si02
#       5
#     4   8   8   8   8
#     4  10  18  30  46  76 124 166 210 236 316 406
#     4  10  24  40  69 103 125 169 230 264 335 412
#     4  10  22  47  69  94 129 169 226 291 326 371
#     4  11  21  33  55  87 135 170 200 265 327 401
#     4  10  17  29  43  68 115 168 196 225 288 392
#
# _framework density 22.520047000000002
#
# number of rings (size 3 to 8) (size 9 to 14) (size 15 to 20)
#    0.000    1.778    3.333    1.333    3.111    2.667 
#    0.000    4.444    0.000    2.667    0.000    0.000 
#    0.000    0.000    0.000    0.000    0.000    0.000 
#
# Total GULP energy -100320.255422 kJ/mol
# GULP energy per Si atom -5573.347523 kJ/mol
# Density = 2.246879 g / cm^3
# Si number density = 22.520047 Si / 1000 Ang^3
#
#
#
# Elastic Constant Matrix: (Units=GPa)
#
#
# Indices 1 2 3 4 5 6 
#
# 1 100.0659 -2.7253 -1.2727 0.0000 0.0000 0.0000
# 2 -2.7253 64.3218 -2.6158 0.0000 0.0000 0.0000
# 3 -1.2727 -2.6158 108.1153 0.0000 0.0000 0.0000
# 4 0.0000 0.0000 0.0000 17.4793 0.0000 0.0000
# 5 0.0000 0.0000 0.0000 0.0000 -9.6725 0.0000
# 6 0.0000 0.0000 0.0000 0.0000 0.0000 -64.5153
#
#
#
# Elastic Compliance Matrix: (Units=1/GPa)
#
#
# Indices 1 2 3 4 5 6 
#
# 1 0.010007 0.000429 0.000128 0.000000 0.000000 0.000000
# 2 0.000429 0.015581 0.000382 0.000000 0.000000 0.000000
# 3 0.000128 0.000382 0.009260 0.000000 0.000000 0.000000
# 4 0.000000 0.000000 0.000000 0.057211 0.000000 0.000000
# 5 0.000000 0.000000 0.000000 0.000000 -0.103386 0.000000
# 6 0.000000 0.000000 0.000000 0.000000 0.000000 -0.015500
#
#
# Mechanical properties :
#
#
# Convention : Reuss Voigt Hill
#
# Bulk Modulus (GPa) = 27.22853 28.80840 28.01846
# Shear Modulus (GPa) = -303.67944 7.26609 -148.20668
#
# Velocity S-wave (km/s) = -11.62503 1.79819 -8.12120
# Velocity P-wave (km/s) = 12.96423 4.13901 8.68734
#
# Compressibility (1/GPa) = 0.03672619
#
# Stress axis : x y z
#
# Youngs Moduli (GPa) = 99.93275 64.18257 107.98980
#
# Poissons Ratio (x) = -0.02755 -0.01384
# Poissons Ratio (y) = -0.04289 -0.04125
# Poissons Ratio (z) = -0.01281 -0.02452
#
# Static dielectric constant tensor:
#      x y z
#    x 1.869070 0.000000 0.000000 
#    y 0.000000 1.897850 0.000000 
#    z 0.000000 0.000000 2.283300 
# 
# From -- ./inp_files/1221.got.cif
#   From: 2010.05.17/outbox.cif.g08.bks.cpg/sg20_1_cif.got.tgz:1221.got - 2010.06.03 22:52:26.
