data_PCOD9316722
_publ_section_title
;
Structure prediction by ZEFSAII (Michael W. Deem and Ramdas Pophale) SiO2 
 PCOD9316722
Probable space group: C 2 2 21
;
_chemical_formula_sum "Si O2"
_cell_formula_units_Z 48
_cell_length_a 13.882070
_cell_length_b 4.908574
_cell_length_c 28.794501
_cell_angle_alpha 90.000000
_cell_angle_beta 90.000000
_cell_angle_gamma 90.000000
_cell_volume 1962.090926
_symmetry_space_group_name_H-M "C 2 2 21"
_symmetry_group_IT_number 20
_symmetry_cell_setting 'orthorhombic'
loop_
_space_group_symop_operation_xyz
x,y,z
-x,-y,1/2+z
x,-y,-z
-x,y,1/2-z
1/2+x,1/2+y,z
1/2-x,1/2-y,1/2+z
1/2+x,1/2-y,-z
1/2-x,1/2+y,1/2-z
loop_
_atom_site_type_symbol
_atom_site_label
_atom_site_fract_x
_atom_site_fract_y
_atom_site_fract_z
Si Si1 0.199964 0.378983 0.448707
Si Si2 0.414700 0.670378 0.546243
Si Si3 0.812688 0.472712 0.238153
Si Si4 0.504497 0.825897 0.409115
Si Si5 0.389560 0.094284 0.329748
Si Si6 0.240106 0.105454 0.145624
O O1 0.180302 0.500000 0.500000
O O2 0.303557 0.233251 0.453124
O O3 0.222314 0.588480 0.406760
O O4 0.109719 0.227107 0.425695
O O5 0.432163 0.500000 0.500000
O O6 0.438243 0.437117 0.583837
O O7 0.478073 0.933521 0.554831
O O8 0.722527 0.664945 0.254081
O O9 0.895952 0.547872 0.274532
O O10 0.822117 0.537490 0.183912
O O11 0.477067 0.977424 0.360816
O O12 0.344597 0.389789 0.340343
O O13 0.301467 0.900957 0.345484
#
# Coordination Sequence:
#
# PCOD9316722 Si02
#       6
#     8   8   8   8   8   8
#     4  11  24  40  62  90 121 162 205 246 296 353
#     4  11  24  42  60  83 120 161 202 248 297 349
#     4   8  16  29  57  83 110 147 189 235 294 350
#     4  12  23  41  62  89 121 156 202 248 298 353
#     4  10  18  36  59  86 115 153 192 240 299 351
#     4  10  19  38  57  85 117 151 194 244 292 350
#
# _framework density 24.463699999999999
#
# number of rings (size 3 to 8) (size 9 to 14) (size 15 to 20)
#    0.000    1.667    3.333    1.500    0.000    2.667 
#    0.000    5.000    0.000    0.000    0.000   16.333 
#    0.000    0.000    0.000    0.000    0.000    0.000 
#
# Total GULP energy -133873.420303 kJ/mol
# GULP energy per Si atom -5578.059179 kJ/mol
# Density = 2.440802 g / cm^3
# Si number density = 24.463700 Si / 1000 Ang^3
#
#
#
# Elastic Constant Matrix: (Units=GPa)
#
#
# Indices 1 2 3 4 5 6 
#
# 1 83.6851 4.9694 19.2435 0.0000 0.0000 0.0000
# 2 4.9694 82.4194 -1.9601 0.0000 0.0000 0.0000
# 3 19.2435 -1.9601 109.8995 0.0000 0.0000 0.0000
# 4 0.0000 0.0000 0.0000 26.6380 0.0000 0.0000
# 5 0.0000 0.0000 0.0000 0.0000 9.9515 0.0000
# 6 0.0000 0.0000 0.0000 0.0000 0.0000 0.4986
#
#
#
# Elastic Compliance Matrix: (Units=1/GPa)
#
#
# Indices 1 2 3 4 5 6 
#
# 1 0.012504 -0.000806 -0.002204 0.000000 0.000000 0.000000
# 2 -0.000806 0.012190 0.000359 0.000000 0.000000 0.000000
# 3 -0.002204 0.000359 0.009492 0.000000 0.000000 0.000000
# 4 0.000000 0.000000 0.000000 0.037540 0.000000 0.000000
# 5 0.000000 0.000000 0.000000 0.000000 0.100488 0.000000
# 6 0.000000 0.000000 0.000000 0.000000 0.000000 2.005455
#
#
# Mechanical properties :
#
#
# Convention : Reuss Voigt Hill
#
# Bulk Modulus (GPa) = 34.62279 35.61220 35.11749
# Shear Modulus (GPa) = 2.28040 24.33436 13.30738
#
# Velocity S-wave (km/s) = 0.96653 3.15733 2.33483
# Velocity P-wave (km/s) = 3.92798 5.28019 4.65346
#
# Compressibility (1/GPa) = 0.02888271
#
# Stress axis : x y z
#
# Youngs Moduli (GPa) = 79.97293 82.03304 105.35722
#
# Poissons Ratio (x) = 0.06615 0.23220
# Poissons Ratio (y) = 0.06449 -0.03778
# Poissons Ratio (z) = 0.17625 -0.02942
#
# Static dielectric constant tensor:
#      x y z
#    x 1.986390 0.000000 0.000000 
#    y 0.000000 1.847050 0.000000 
#    z 0.000000 0.000000 2.066210 
# 
# From -- ./inp_files/31263.got.cif
#   From: 2010.05.17/outbox.cif.g08.bks.cpg/sg20_16_cif.got.tgz:31263.got - 2010.06.03 22:52:26.
