data_PCOD9316371
_publ_section_title
;
Structure prediction by ZEFSAII (Michael W. Deem and Ramdas Pophale) SiO2 
 PCOD9316371
Probable space group: C 2 2 21
;
_chemical_formula_sum "Si O2"
_cell_formula_units_Z 44
_cell_length_a 11.031103
_cell_length_b 18.721812
_cell_length_c 11.934309
_cell_angle_alpha 90.000000
_cell_angle_beta 90.000000
_cell_angle_gamma 90.000000
_cell_volume 2464.700186
_symmetry_space_group_name_H-M "C 2 2 21"
_symmetry_group_IT_number 20
_symmetry_cell_setting 'orthorhombic'
loop_
_space_group_symop_operation_xyz
x,y,z
-x,-y,1/2+z
x,-y,-z
-x,y,1/2-z
1/2+x,1/2+y,z
1/2-x,1/2-y,1/2+z
1/2+x,1/2-y,-z
1/2-x,1/2+y,1/2-z
loop_
_atom_site_type_symbol
_atom_site_label
_atom_site_fract_x
_atom_site_fract_y
_atom_site_fract_z
Si Si1 0.366837 0.370452 0.034149
Si Si2 0.000000 0.271187 0.750000
Si Si3 0.356841 0.624558 0.227325
Si Si4 0.859001 0.841629 0.401592
Si Si5 0.353136 0.466004 0.238862
Si Si6 0.206876 0.286235 0.606808
O O1 0.514129 0.365127 0.039663
O O2 0.329370 0.436235 0.113795
O O3 0.312470 0.297971 0.086638
O O4 0.332134 0.372759 0.904883
O O5 0.905751 0.220552 0.682342
O O6 0.923144 0.312004 0.844212
O O7 0.500000 0.626744 0.250000
O O8 0.311039 0.545917 0.263913
O O9 0.298351 0.688252 0.297043
O O10 0.811213 0.907083 0.327462
O O11 0.761158 0.817158 0.492029
O O12 0.500000 0.466267 0.250000
#
# Coordination Sequence:
#
# PCOD9316371 Si02
#       6
#     8   4   8   8   8   8
#     4  10  19  34  52  77 122 149 182 230 288 344
#     4  10  20  38  54  84 118 160 190 232 288 342
#     4  11  21  33  55  90 114 140 190 238 289 349
#     4  10  17  34  53  83 114 149 186 232 290 336
#     4   9  18  33  54  81 118 144 175 236 299 341
#     4  11  21  33  57  83 115 152 190 230 280 345
#
# _framework density 17.852070999999999
#
# number of rings (size 3 to 8) (size 9 to 14) (size 15 to 20)
#    0.000    1.818    6.364    1.636    0.000    0.727 
#    0.000    0.000    0.000    0.000   30.727    0.000 
#    0.000    0.000    0.000    0.000    0.000    0.000 
#
# Total GULP energy -122543.353736 kJ/mol
# GULP energy per Si atom -5570.152443 kJ/mol
# Density = 1.781144 g / cm^3
# Si number density = 17.852071 Si / 1000 Ang^3
#
#
#
# Elastic Constant Matrix: (Units=GPa)
#
#
# Indices 1 2 3 4 5 6 
#
# 1 49.3885 34.8627 33.6119 0.0000 0.0000 0.0000
# 2 34.8627 54.7179 27.2980 0.0000 0.0000 0.0000
# 3 33.6119 27.2980 113.9671 0.0000 0.0000 0.0000
# 4 0.0000 0.0000 0.0000 27.1749 0.0000 0.0000
# 5 0.0000 0.0000 0.0000 0.0000 43.5139 0.0000
# 6 0.0000 0.0000 0.0000 0.0000 0.0000 14.2814
#
#
#
# Elastic Compliance Matrix: (Units=1/GPa)
#
#
# Indices 1 2 3 4 5 6 
#
# 1 0.040726 -0.022664 -0.006582 0.000000 0.000000 0.000000
# 2 -0.022664 0.033368 -0.001308 0.000000 0.000000 0.000000
# 3 -0.006582 -0.001308 0.011029 0.000000 0.000000 0.000000
# 4 0.000000 0.000000 0.000000 0.036799 0.000000 0.000000
# 5 0.000000 0.000000 0.000000 0.000000 0.022981 0.000000
# 6 0.000000 0.000000 0.000000 0.000000 0.000000 0.070021
#
#
# Mechanical properties :
#
#
# Convention : Reuss Voigt Hill
#
# Bulk Modulus (GPa) = 41.64300 45.51318 43.57809
# Shear Modulus (GPa) = 17.60328 25.14743 21.37535
#
# Velocity S-wave (km/s) = 3.14357 3.75728 3.46404
# Velocity P-wave (km/s) = 6.04594 6.66129 6.36106
#
# Compressibility (1/GPa) = 0.02401364
#
# Stress axis : x y z
#
# Youngs Moduli (GPa) = 24.55460 29.96859 90.66849
#
# Poissons Ratio (x) = 0.67920 0.59682
# Poissons Ratio (y) = 0.55650 0.11863
# Poissons Ratio (z) = 0.16163 0.03921
#
# Static dielectric constant tensor:
#      x y z
#    x 1.616050 0.000000 0.000000 
#    y 0.000000 1.630230 0.000000 
#    z 0.000000 0.000000 1.654610 
# 
# From -- ./inp_files/14050.got.cif
#   From: 2010.05.17/outbox.cif.g08.bks.cpg/sg20_8_cif.got.tgz:14050.got - 2010.06.03 22:52:26.
