data_PCOD9316714
_publ_section_title
;
Structure prediction by ZEFSAII (Michael W. Deem and Ramdas Pophale) SiO2 
 PCOD9316714
Probable space group: C 2 2 21
;
_chemical_formula_sum "Si O2"
_cell_formula_units_Z 52
_cell_length_a 26.186068
_cell_length_b 10.729440
_cell_length_c 8.508712
_cell_angle_alpha 90.000000
_cell_angle_beta 90.000000
_cell_angle_gamma 90.000000
_cell_volume 2390.623426
_symmetry_space_group_name_H-M "C 2 2 21"
_symmetry_group_IT_number 20
_symmetry_cell_setting 'orthorhombic'
loop_
_space_group_symop_operation_xyz
x,y,z
-x,-y,1/2+z
x,-y,-z
-x,y,1/2-z
1/2+x,1/2+y,z
1/2-x,1/2-y,1/2+z
1/2+x,1/2-y,-z
1/2-x,1/2+y,1/2-z
loop_
_atom_site_type_symbol
_atom_site_label
_atom_site_fract_x
_atom_site_fract_y
_atom_site_fract_z
Si Si1 0.945841 0.120074 0.294753
Si Si2 0.250425 0.500000 0.500000
Si Si3 0.341484 0.337053 0.578808
Si Si4 0.978260 0.292652 0.586148
Si Si5 0.871232 0.323150 0.700231
Si Si6 0.833176 0.422729 0.236061
Si Si7 0.081875 0.324182 0.466307
O O1 0.888646 0.081743 0.349824
O O2 0.962516 0.197884 0.449290
O O3 0.931589 0.206661 0.145319
O O4 0.000000 0.052441 0.250000
O O5 0.288824 0.409752 0.591815
O O6 0.213807 0.576468 0.616048
O O7 0.352345 0.294793 0.399278
O O8 0.336181 0.202763 0.663832
O O9 0.926078 0.361796 0.626872
O O10 0.000000 0.236222 0.750000
O O11 0.026595 0.367352 0.523585
O O12 0.834181 0.441451 0.685030
O O13 0.883661 0.291359 0.881788
O O14 0.886127 0.418716 0.138381
#
# Coordination Sequence:
#
# PCOD9316714 Si02
#       7
#     8   4   8   8   8   8   8
#     4   8  15  32  58  87 119 160 201 253 314 370
#     4  12  26  42  66  86 120 166 214 254 312 360
#     4  10  24  40  63  88 116 156 207 255 311 378
#     4   8  15  27  50  85 127 163 196 244 310 389
#     4  10  18  36  57  88 122 155 198 253 313 379
#     4  11  22  39  59  85 121 163 203 256 311 369
#     4   9  16  31  54  84 125 161 196 245 316 381
#
# _framework density 21.751647999999999
#
# number of rings (size 3 to 8) (size 9 to 14) (size 15 to 20)
#    0.000    2.462    1.538    0.462    2.154    0.000 
#    0.000   38.462    0.000    9.231    0.000    0.000 
#    0.000    0.000    0.000    0.000    0.000    0.000 
#
# Total GULP energy -144765.551704 kJ/mol
# GULP energy per Si atom -5567.905835 kJ/mol
# Density = 2.170214 g / cm^3
# Si number density = 21.751648 Si / 1000 Ang^3
#
#
#
# Elastic Constant Matrix: (Units=GPa)
#
#
# Indices 1 2 3 4 5 6 
#
# 1 122.2855 23.8599 12.5210 0.0000 0.0000 0.0000
# 2 23.8599 58.9431 22.7658 0.0000 0.0000 0.0000
# 3 12.5210 22.7658 87.6712 0.0000 0.0000 0.0000
# 4 0.0000 0.0000 0.0000 11.9708 0.0000 0.0000
# 5 0.0000 0.0000 0.0000 0.0000 35.7054 0.0000
# 6 0.0000 0.0000 0.0000 0.0000 0.0000 1254.9964
#
#
#
# Elastic Compliance Matrix: (Units=1/GPa)
#
#
# Indices 1 2 3 4 5 6 
#
# 1 0.008890 -0.003455 -0.000373 0.000000 0.000000 0.000000
# 2 -0.003455 0.020199 -0.004752 0.000000 0.000000 0.000000
# 3 -0.000373 -0.004752 0.012693 0.000000 0.000000 0.000000
# 4 0.000000 0.000000 0.000000 0.083537 0.000000 0.000000
# 5 0.000000 0.000000 0.000000 0.000000 0.028007 0.000000
# 6 0.000000 0.000000 0.000000 0.000000 0.000000 0.000797
#
#
# Mechanical properties :
#
#
# Convention : Reuss Voigt Hill
#
# Bulk Modulus (GPa) = 40.61011 43.02147 41.81579
# Shear Modulus (GPa) = 27.85687 274.51806 151.18746
#
# Velocity S-wave (km/s) = 3.58254 11.24632 8.34608
# Velocity P-wave (km/s) = 5.98525 13.72811 10.58971
#
# Compressibility (1/GPa) = 0.02462441
#
# Stress axis : x y z
#
# Youngs Moduli (GPa) = 112.48856 49.50675 78.78127
#
# Poissons Ratio (x) = 0.17103 0.02935
# Poissons Ratio (y) = 0.38861 0.37435
# Poissons Ratio (z) = 0.04191 0.23525
#
# Static dielectric constant tensor:
#      x y z
#    x 1.798100 0.000000 0.000000 
#    y 0.000000 1.783540 0.000000 
#    z 0.000000 0.000000 1.712310 
# 
# From -- ./inp_files/11089.got.cif
#   From: 2010.05.17/outbox.cif.g08.bks.cpg/sg20_6_cif.got.tgz:11089.got - 2010.06.03 22:52:26.
