data_PCOD9316140
_publ_section_title
;
Structure prediction by ZEFSAII (Michael W. Deem and Ramdas Pophale) SiO2 
 PCOD9316140
Probable space group: P 21 21 21
;
_chemical_formula_sum "Si O2"
_cell_formula_units_Z 32
_cell_length_a 12.000000
_cell_length_b 9.000000
_cell_length_c 15.000000
_cell_angle_alpha 90.000000
_cell_angle_beta 90.000000
_cell_angle_gamma 90.000000
_cell_volume 1620.000000
_symmetry_space_group_name_H-M "P 21 21 21"
_symmetry_group_IT_number 19
_symmetry_cell_setting 'orthorhombic'
loop_
_space_group_symop_operation_xyz
x,y,z
1/2-x,-y,1/2+z
1/2+x,1/2-y,-z
-x,1/2+y,1/2-z
loop_
_atom_site_type_symbol
_atom_site_label
_atom_site_fract_x
_atom_site_fract_y
_atom_site_fract_z
Si Si1 0.853416 0.691239 0.191471
Si Si2 0.136212 0.433597 0.458061
Si Si3 0.609564 0.802190 0.231389
Si Si4 0.987315 0.667543 0.364869
Si Si5 0.591638 0.551636 0.559826
Si Si6 0.884515 0.998352 0.556790
Si Si7 0.674971 0.343677 0.022846
Si Si8 0.496361 0.024263 0.365534
O O1 0.887253 0.810801 0.116760
O O2 0.738111 0.746176 0.236525
O O3 0.947629 0.655844 0.264117
O O4 0.843420 0.548324 0.130031
O O5 0.267905 0.435289 0.480440
O O6 0.068513 0.420544 0.549749
O O7 0.092524 0.578188 0.404132
O O8 0.536404 0.659985 0.199909
O O9 0.605465 0.924485 0.152443
O O10 0.562443 0.890319 0.316530
O O11 0.884712 0.625724 0.428758
O O12 0.016650 0.836929 0.383576
O O13 0.500602 0.475290 0.495489
O O14 0.692976 0.635661 0.510945
O O15 0.860539 0.821633 0.554524
O O16 0.615363 0.454705 0.092012
#
# Coordination Sequence:
#
# PCOD9316140 Si02
#       8
#     4   4   4   4   4   4   4   4
#     4  11  23  40  62  95 129 165 212 272 322 382
#     4  10  22  42  63  92 133 164 215 261 327 384
#     4  11  24  40  65  90 131 163 220 268 319 389
#     4  10  22  37  66  88 123 166 212 263 316 385
#     4  11  21  40  63  88 130 163 217 259 324 386
#     4  10  22  40  64  92 122 174 210 267 317 390
#     4  10  21  39  62  91 122 164 214 255 321 385
#     4  11  23  42  63  92 126 171 206 271 320 379
#
# _framework density 19.753086
#
# number of rings (size 3 to 8) (size 9 to 14) (size 15 to 20)
#    0.000    1.500    2.500    2.250    3.500    1.000 
#    0.000    0.000    0.000    0.000    0.000    0.000 
#    0.000    0.000    0.000    0.000    0.000    0.000 
#
# Total GULP energy -178354.838494 kJ/mol
# GULP energy per Si atom -5573.588703 kJ/mol
# Density = 1.970813 g / cm^3
# Si number density = 19.753086 Si / 1000 Ang^3
#
#
#
# Elastic Constant Matrix: (Units=GPa)
#
#
# Indices 1 2 3 4 5 6 
#
# 1 94.9892 1.8064 33.5474 0.0000 0.0000 0.0000
# 2 1.8064 35.4178 24.7471 0.0000 0.0000 0.0000
# 3 33.5474 24.7471 63.1222 0.0000 0.0000 0.0000
# 4 0.0000 0.0000 0.0000 32.9174 0.0000 0.0000
# 5 0.0000 0.0000 0.0000 0.0000 8.9218 0.0000
# 6 0.0000 0.0000 0.0000 0.0000 0.0000 33.0009
#
#
#
# Elastic Compliance Matrix: (Units=1/GPa)
#
#
# Indices 1 2 3 4 5 6 
#
# 1 0.013859 0.006115 -0.009763 0.000000 0.000000 0.000000
# 2 0.006115 0.041585 -0.019553 0.000000 0.000000 0.000000
# 3 -0.009763 -0.019553 0.028697 0.000000 0.000000 0.000000
# 4 0.000000 0.000000 0.000000 0.030379 0.000000 0.000000
# 5 0.000000 0.000000 0.000000 0.000000 0.112084 0.000000
# 6 0.000000 0.000000 0.000000 0.000000 0.000000 0.030302
#
#
# Mechanical properties :
#
#
# Convention : Reuss Voigt Hill
#
# Bulk Modulus (GPa) = 26.49848 34.85899 30.67874
# Shear Modulus (GPa) = 15.82837 23.86324 19.84581
#
# Velocity S-wave (km/s) = 2.83381 3.47951 3.17313
# Velocity P-wave (km/s) = 4.91440 5.81621 5.38422
#
# Compressibility (1/GPa) = 0.03773801
#
# Stress axis : x y z
#
# Youngs Moduli (GPa) = 72.15402 24.04733 34.84705
#
# Poissons Ratio (x) = -0.14704 0.34021
# Poissons Ratio (y) = -0.44120 0.68137
# Poissons Ratio (z) = 0.70444 0.47020
#
# Static dielectric constant tensor:
#      x y z
#    x 1.675480 0.000000 0.000000 
#    y 0.000000 1.803350 0.000000 
#    z 0.000000 0.000000 1.678720 
# 
# From -- ./inp_files/3565.got.cif
#   From: 2010.05.17/outbox.ucp.g08.bks.cvg/sg19_2_cif.got.tgz:3565.got - 2010.06.11 13:13:52.
