data_PCOD9316513
_publ_section_title
;
Structure prediction by ZEFSAII (Michael W. Deem and Ramdas Pophale) SiO2 
 PCOD9316513
Probable space group: C 2 2 21
;
_chemical_formula_sum "Si O2"
_cell_formula_units_Z 40
_cell_length_a 8.368427
_cell_length_b 24.016961
_cell_length_c 10.379569
_cell_angle_alpha 90.000000
_cell_angle_beta 90.000000
_cell_angle_gamma 90.000000
_cell_volume 2086.129215
_symmetry_space_group_name_H-M "C 2 2 21"
_symmetry_group_IT_number 20
_symmetry_cell_setting 'orthorhombic'
loop_
_space_group_symop_operation_xyz
x,y,z
-x,-y,1/2+z
x,-y,-z
-x,y,1/2-z
1/2+x,1/2+y,z
1/2-x,1/2-y,1/2+z
1/2+x,1/2-y,-z
1/2-x,1/2+y,1/2-z
loop_
_atom_site_type_symbol
_atom_site_label
_atom_site_fract_x
_atom_site_fract_y
_atom_site_fract_z
Si Si1 0.897252 0.788099 0.365625
Si Si2 0.556521 0.251112 0.605672
Si Si3 0.824833 0.055041 0.917366
Si Si4 0.179529 0.086360 0.869315
Si Si5 0.010274 0.622264 0.905921
O O1 0.745621 0.750716 0.392260
O O2 0.840047 0.849281 0.323000
O O3 0.000000 0.764184 0.250000
O O4 0.992745 0.792139 0.497828
O O5 0.500000 0.262540 0.750000
O O6 0.503751 0.188061 0.566626
O O7 0.810498 0.049667 0.760847
O O8 0.679333 0.097306 0.950115
O O9 0.011031 0.072669 0.937556
O O10 0.797537 0.000000 0.000000
O O11 0.347411 0.089184 0.946755
O O12 0.000000 0.617726 0.750000
#
# Coordination Sequence:
#
# PCOD9316513 Si02
#       5
#     8   8   8   8   8
#     4  11  20  35  60  84 121 164 194 243 300 361
#     4  10  21  33  56  89 118 157 203 241 292 358
#     4  10  18  31  58  80 103 147 194 233 289 343
#     4   9  19  35  54  80 112 143 189 239 292 347
#     4   8  17  33  52  79 112 143 185 238 286 347
#
# _framework density 19.174268000000001
#
# number of rings (size 3 to 8) (size 9 to 14) (size 15 to 20)
#    0.000    2.400    2.000    2.400    2.800    0.800 
#    0.000    0.000    4.400    8.400    0.000    0.000 
#    0.000    0.000    0.000    0.000    0.000    0.000 
#
# Total GULP energy -111350.796247 kJ/mol
# GULP energy per Si atom -5567.539812 kJ/mol
# Density = 1.913063 g / cm^3
# Si number density = 19.174268 Si / 1000 Ang^3
#
#
#
# Elastic Constant Matrix: (Units=GPa)
#
#
# Indices 1 2 3 4 5 6 
#
# 1 136.3413 22.6846 34.4916 0.0000 0.0000 0.0000
# 2 22.6846 42.4094 25.5750 0.0000 0.0000 0.0000
# 3 34.4916 25.5750 74.2157 0.0000 0.0000 0.0000
# 4 0.0000 0.0000 0.0000 27.9652 0.0000 0.0000
# 5 0.0000 0.0000 0.0000 0.0000 18.8083 0.0000
# 6 0.0000 0.0000 0.0000 0.0000 0.0000 36.1233
#
#
#
# Elastic Compliance Matrix: (Units=1/GPa)
#
#
# Indices 1 2 3 4 5 6 
#
# 1 0.008559 -0.002751 -0.003030 0.000000 0.000000 0.000000
# 2 -0.002751 0.030650 -0.009283 0.000000 0.000000 0.000000
# 3 -0.003030 -0.009283 0.018081 0.000000 0.000000 0.000000
# 4 0.000000 0.000000 0.000000 0.035759 0.000000 0.000000
# 5 0.000000 0.000000 0.000000 0.000000 0.053168 0.000000
# 6 0.000000 0.000000 0.000000 0.000000 0.000000 0.027683
#
#
# Mechanical properties :
#
#
# Convention : Reuss Voigt Hill
#
# Bulk Modulus (GPa) = 36.81680 46.49652 41.65666
# Shear Modulus (GPa) = 23.46525 27.92705 25.69615
#
# Velocity S-wave (km/s) = 3.50206 3.82053 3.66476
# Velocity P-wave (km/s) = 5.96619 6.61544 6.29919
#
# Compressibility (1/GPa) = 0.02716152
#
# Stress axis : x y z
#
# Youngs Moduli (GPa) = 116.84047 32.62690 55.30562
#
# Poissons Ratio (x) = 0.08976 0.16756
# Poissons Ratio (y) = 0.32143 0.51343
# Poissons Ratio (z) = 0.35398 0.30289
#
# Static dielectric constant tensor:
#      x y z
#    x 1.786240 0.000000 0.000000 
#    y 0.000000 1.655820 0.000000 
#    z 0.000000 0.000000 1.608970 
# 
# From -- ./inp_files/6025.got.cif
#   From: 2010.05.17/outbox.cif.g08.bks.cpg/sg20_4_cif.got.tgz:6025.got - 2010.06.03 22:52:26.
