data_PCOD9316498
_publ_section_title
;
Structure prediction by ZEFSAII (Michael W. Deem and Ramdas Pophale) SiO2 
 PCOD9316498
Probable space group: C 2 2 21
;
_chemical_formula_sum "Si O2"
_cell_formula_units_Z 36
_cell_length_a 7.867045
_cell_length_b 11.174466
_cell_length_c 16.271655
_cell_angle_alpha 90.000000
_cell_angle_beta 90.000000
_cell_angle_gamma 90.000000
_cell_volume 1430.441628
_symmetry_space_group_name_H-M "C 2 2 21"
_symmetry_group_IT_number 20
_symmetry_cell_setting 'orthorhombic'
loop_
_space_group_symop_operation_xyz
x,y,z
-x,-y,1/2+z
x,-y,-z
-x,y,1/2-z
1/2+x,1/2+y,z
1/2-x,1/2-y,1/2+z
1/2+x,1/2-y,-z
1/2-x,1/2+y,1/2-z
loop_
_atom_site_type_symbol
_atom_site_label
_atom_site_fract_x
_atom_site_fract_y
_atom_site_fract_z
Si Si1 0.811078 0.179756 0.769160
Si Si2 0.769789 0.500000 0.500000
Si Si3 0.842191 0.326297 0.101613
Si Si4 0.952423 0.527888 0.335012
Si Si5 0.726728 0.754974 0.064440
O O1 0.740185 0.232148 0.682900
O O2 0.681151 0.074698 0.799808
O O3 0.000000 0.133652 0.750000
O O4 0.809337 0.268974 0.847626
O O5 0.870951 0.562023 0.423281
O O6 0.687768 0.616623 0.539070
O O7 0.747264 0.324884 0.015486
O O8 0.880545 0.459812 0.131574
O O9 0.027352 0.271973 0.082219
O O10 0.000000 0.593260 0.250000
#
# Coordination Sequence:
#
# PCOD9316498 Si02
#       5
#     8   4   8   8   8
#     4   9  16  28  48  69  92 125 162 194 235 281
#     4   8  16  30  48  70  96 126 154 192 244 284
#     4   9  17  29  47  71  93 122 162 194 229 280
#     4   8  16  31  50  68  94 127 159 195 236 288
#     4  10  18  31  51  72  97 126 159 201 238 284
#
# _framework density 25.167055000000001
#
# number of rings (size 3 to 8) (size 9 to 14) (size 15 to 20)
#    0.000    3.556    0.000    3.333    0.000    0.000 
#    0.000    5.556    0.000  112.000    0.000    0.000 
#    0.000    0.000    0.000    0.000    0.000    0.000 
#
# Total GULP energy -100204.654100 kJ/mol
# GULP energy per Si atom -5566.925228 kJ/mol
# Density = 2.510977 g / cm^3
# Si number density = 25.167055 Si / 1000 Ang^3
#
#
#
# Elastic Constant Matrix: (Units=GPa)
#
#
# Indices 1 2 3 4 5 6 
#
# 1 81.8476 10.3672 64.8379 0.0000 0.0000 0.0000
# 2 10.3672 44.0244 50.1916 0.0000 0.0000 0.0000
# 3 64.8379 50.1916 270.8770 0.0000 0.0000 0.0000
# 4 0.0000 0.0000 0.0000 46.4040 0.0000 0.0000
# 5 0.0000 0.0000 0.0000 0.0000 61.5270 0.0000
# 6 0.0000 0.0000 0.0000 0.0000 0.0000 10.9091
#
#
#
# Elastic Compliance Matrix: (Units=1/GPa)
#
#
# Indices 1 2 3 4 5 6 
#
# 1 0.015094 0.000716 -0.003746 0.000000 0.000000 0.000000
# 2 0.000716 0.028832 -0.005514 0.000000 0.000000 0.000000
# 3 -0.003746 -0.005514 0.005610 0.000000 0.000000 0.000000
# 4 0.000000 0.000000 0.000000 0.021550 0.000000 0.000000
# 5 0.000000 0.000000 0.000000 0.000000 0.016253 0.000000
# 6 0.000000 0.000000 0.000000 0.000000 0.000000 0.091666
#
#
# Mechanical properties :
#
#
# Convention : Reuss Voigt Hill
#
# Bulk Modulus (GPa) = 30.81717 71.94915 51.38316
# Shear Modulus (GPa) = 24.16513 41.85818 33.01166
#
# Velocity S-wave (km/s) = 3.10205 4.08268 3.62567
# Velocity P-wave (km/s) = 5.01018 7.13267 6.16348
#
# Compressibility (1/GPa) = 0.03244944
#
# Stress axis : x y z
#
# Youngs Moduli (GPa) = 66.24974 34.68333 178.25470
#
# Poissons Ratio (x) = -0.02483 0.66768
# Poissons Ratio (y) = -0.04742 0.98285
# Poissons Ratio (z) = 0.24815 0.19124
#
# Static dielectric constant tensor:
#      x y z
#    x 2.034110 0.000000 0.000000 
#    y 0.000000 2.184050 0.000000 
#    z 0.000000 0.000000 2.100250 
# 
# From -- ./inp_files/18635.got.cif
#   From: 2010.05.17/outbox.cif.g08.bks.cpg/sg20_10_cif.got.tgz:18635.got - 2010.06.03 22:52:26.
