data_PCOD9316928
_publ_section_title
;
Structure prediction by ZEFSAII (Michael W. Deem and Ramdas Pophale) SiO2 
 PCOD9316928
Probable space group: C 2 2 21
;
_chemical_formula_sum "Si O2"
_cell_formula_units_Z 48
_cell_length_a 22.191584
_cell_length_b 5.956913
_cell_length_c 13.289078
_cell_angle_alpha 90.000000
_cell_angle_beta 90.000000
_cell_angle_gamma 90.000000
_cell_volume 1756.727543
_symmetry_space_group_name_H-M "C 2 2 21"
_symmetry_group_IT_number 20
_symmetry_cell_setting 'orthorhombic'
loop_
_space_group_symop_operation_xyz
x,y,z
-x,-y,1/2+z
x,-y,-z
-x,y,1/2-z
1/2+x,1/2+y,z
1/2-x,1/2-y,1/2+z
1/2+x,1/2-y,-z
1/2-x,1/2+y,1/2-z
loop_
_atom_site_type_symbol
_atom_site_label
_atom_site_fract_x
_atom_site_fract_y
_atom_site_fract_z
Si Si1 0.103234 0.122034 0.735596
Si Si2 0.292374 0.962469 0.363457
Si Si3 0.841507 0.745105 0.028061
Si Si4 0.273572 0.524412 0.656089
Si Si5 0.951254 0.264776 0.128279
Si Si6 0.571140 0.981328 0.154812
O O1 0.137150 0.246705 0.643541
O O2 0.160416 0.002046 0.789420
O O3 0.070801 0.254018 0.825514
O O4 0.054226 0.980751 0.675379
O O5 0.275945 0.222570 0.390273
O O6 0.362735 0.937465 0.386281
O O7 0.264565 0.721123 0.395363
O O8 0.275436 0.959725 0.245060
O O9 0.902371 0.731728 0.958727
O O10 0.814287 0.500000 0.000000
O O11 0.818241 0.000000 0.000000
O O12 0.932774 0.402118 0.228498
O O13 0.016726 0.357594 0.100210
#
# Coordination Sequence:
#
# PCOD9316928 Si02
#       6
#     8   8   8   8   8   8
#     4  10  19  34  52  74 105 139 181 215 266 318
#     4   9  17  31  45  73 102 129 160 208 257 304
#     4  10  20  35  49  69 101 136 176 212 257 318
#     4   9  17  29  50  70  99 128 165 208 254 298
#     4  10  20  32  47  74 107 138 170 217 262 317
#     4  10  19  31  49  73 109 134 171 214 270 313
#
# _framework density 27.323532
#
# number of rings (size 3 to 8) (size 9 to 14) (size 15 to 20)
#    0.000    2.333    3.333    0.000    0.000    2.667 
#    0.000    0.000    0.000    0.000    0.000    7.000 
#    0.000    0.000    0.000    1.000    0.000    0.000 
#
# Total GULP energy -133914.831761 kJ/mol
# GULP energy per Si atom -5579.784657 kJ/mol
# Density = 2.726134 g / cm^3
# Si number density = 27.323532 Si / 1000 Ang^3
#
#
#
# Elastic Constant Matrix: (Units=GPa)
#
#
# Indices 1 2 3 4 5 6 
#
# 1 99.2078 100.7943 29.2250 0.0000 0.0000 0.0000
# 2 100.7943 258.0182 52.1004 0.0000 0.0000 0.0000
# 3 29.2250 52.1004 79.8919 0.0000 0.0000 0.0000
# 4 0.0000 0.0000 0.0000 31.9011 0.0000 0.0000
# 5 0.0000 0.0000 0.0000 0.0000 -34.3358 0.0000
# 6 0.0000 0.0000 0.0000 0.0000 0.0000 62.6470
#
#
#
# Elastic Compliance Matrix: (Units=1/GPa)
#
#
# Indices 1 2 3 4 5 6 
#
# 1 0.017036 -0.006215 -0.002179 0.000000 0.000000 0.000000
# 2 -0.006215 0.006731 -0.002116 0.000000 0.000000 0.000000
# 3 -0.002179 -0.002116 0.014694 0.000000 0.000000 0.000000
# 4 0.000000 0.000000 0.000000 0.031347 0.000000 0.000000
# 5 0.000000 0.000000 0.000000 0.000000 -0.029124 0.000000
# 6 0.000000 0.000000 0.000000 0.000000 0.000000 0.015962
#
#
# Mechanical properties :
#
#
# Convention : Reuss Voigt Hill
#
# Bulk Modulus (GPa) = 57.33577 89.03970 73.18774
# Shear Modulus (GPa) = 59.89461 29.04234 44.46848
#
# Velocity S-wave (km/s) = 4.68702 3.26376 4.03858
# Velocity P-wave (km/s) = 7.09369 6.84549 6.97069
#
# Compressibility (1/GPa) = 0.01744112
#
# Stress axis : x y z
#
# Youngs Moduli (GPa) = 58.69801 148.56795 68.05600
#
# Poissons Ratio (x) = 0.92339 0.14828
# Poissons Ratio (y) = 0.36482 0.14400
# Poissons Ratio (z) = 0.12789 0.31435
#
# Static dielectric constant tensor:
#      x y z
#    x 2.167690 0.000000 0.000000 
#    y 0.000000 2.471340 0.000000 
#    z 0.000000 0.000000 2.132150 
# 
# From -- ./inp_files/27977.got.cif
#   From: 2010.05.17/outbox.cif.g08.bks.cpg/sg20_14_cif.got.tgz:27977.got - 2010.06.03 22:52:26.
