data_PCOD9316704
_publ_section_title
;
Structure prediction by ZEFSAII (Michael W. Deem and Ramdas Pophale) SiO2 
 PCOD9316704
Probable space group: C 2 2 21
;
_chemical_formula_sum "Si O2"
_cell_formula_units_Z 48
_cell_length_a 16.185186
_cell_length_b 9.570267
_cell_length_c 17.457106
_cell_angle_alpha 90.000000
_cell_angle_beta 90.000000
_cell_angle_gamma 90.000000
_cell_volume 2704.045518
_symmetry_space_group_name_H-M "C 2 2 21"
_symmetry_group_IT_number 20
_symmetry_cell_setting 'orthorhombic'
loop_
_space_group_symop_operation_xyz
x,y,z
-x,-y,1/2+z
x,-y,-z
-x,y,1/2-z
1/2+x,1/2+y,z
1/2-x,1/2-y,1/2+z
1/2+x,1/2-y,-z
1/2-x,1/2+y,1/2-z
loop_
_atom_site_type_symbol
_atom_site_label
_atom_site_fract_x
_atom_site_fract_y
_atom_site_fract_z
Si Si1 0.134852 0.113477 0.936880
Si Si2 0.852639 0.636220 0.547363
Si Si3 0.214724 0.052982 0.195556
Si Si4 0.205625 0.841182 0.335335
Si Si5 0.520027 0.578829 0.660299
Si Si6 0.455117 0.282834 0.675868
O O1 0.053908 0.147859 0.887325
O O2 0.200780 0.039469 0.880891
O O3 0.164563 0.244390 0.984803
O O4 0.109742 0.000000 0.000000
O O5 0.875023 0.500000 0.500000
O O6 0.770235 0.621868 0.598089
O O7 0.923807 0.685810 0.607048
O O8 0.279877 0.178418 0.187027
O O9 0.127954 0.136960 0.204337
O O10 0.225712 0.945196 0.264633
O O11 0.110887 0.867421 0.357306
O O12 0.500000 0.601293 0.750000
O O13 0.511729 0.411465 0.647093
O O14 0.500000 0.217336 0.750000
#
# Coordination Sequence:
#
# PCOD9316704 Si02
#       6
#     8   8   8   8   8   8
#     4  11  19  41  64  84 124 170 203 262 325 374
#     4  11  25  39  60  97 132 162 211 272 329 362
#     4  10  21  35  64  94 126 161 209 262 313 378
#     4  11  21  38  61 100 122 166 215 258 315 384
#     4  10  18  35  68  93 114 163 231 243 300 400
#     4   9  16  38  64  89 117 167 213 246 312 382
#
# _framework density 17.751180999999999
#
# number of rings (size 3 to 8) (size 9 to 14) (size 15 to 20)
#    0.000    1.667   10.000    0.000    2.333    0.667 
#    0.000    4.167    3.667    0.000    0.000    0.000 
#    0.000    0.000    0.000    0.000    0.000    0.000 
#
# Total GULP energy -133751.316668 kJ/mol
# GULP energy per Si atom -5572.971528 kJ/mol
# Density = 1.771078 g / cm^3
# Si number density = 17.751181 Si / 1000 Ang^3
#
#
#
# Elastic Constant Matrix: (Units=GPa)
#
#
# Indices 1 2 3 4 5 6 
#
# 1 83.8330 54.5227 45.1738 0.0000 0.0000 0.0000
# 2 54.5227 100.6590 67.7480 0.0000 0.0000 0.0000
# 3 45.1738 67.7480 135.3092 0.0000 0.0000 0.0000
# 4 0.0000 0.0000 0.0000 40.2047 0.0000 0.0000
# 5 0.0000 0.0000 0.0000 0.0000 19.5027 0.0000
# 6 0.0000 0.0000 0.0000 0.0000 0.0000 29.0936
#
#
#
# Elastic Compliance Matrix: (Units=1/GPa)
#
#
# Indices 1 2 3 4 5 6 
#
# 1 0.018692 -0.008936 -0.001766 0.000000 0.000000 0.000000
# 2 -0.008936 0.019256 -0.006658 0.000000 0.000000 0.000000
# 3 -0.001766 -0.006658 0.011314 0.000000 0.000000 0.000000
# 4 0.000000 0.000000 0.000000 0.024873 0.000000 0.000000
# 5 0.000000 0.000000 0.000000 0.000000 0.051275 0.000000
# 6 0.000000 0.000000 0.000000 0.000000 0.000000 0.034372
#
#
# Mechanical properties :
#
#
# Convention : Reuss Voigt Hill
#
# Bulk Modulus (GPa) = 68.76962 72.74337 70.75649
# Shear Modulus (GPa) = 25.08178 27.91730 26.49954
#
# Velocity S-wave (km/s) = 3.76302 3.97003 3.86791
# Velocity P-wave (km/s) = 7.59641 7.87929 7.73914
#
# Compressibility (1/GPa) = 0.01454131
#
# Stress axis : x y z
#
# Youngs Moduli (GPa) = 53.49926 51.93265 88.38825
#
# Poissons Ratio (x) = 0.46406 0.15612
# Poissons Ratio (y) = 0.47806 0.58848
# Poissons Ratio (z) = 0.09450 0.34576
#
# Static dielectric constant tensor:
#      x y z
#    x 1.616510 0.000000 0.000000 
#    y 0.000000 1.649470 0.000000 
#    z 0.000000 0.000000 1.627150 
# 
# From -- ./inp_files/25155.got.cif
#   From: 2010.05.17/outbox.cif.g08.bks.cpg/sg20_13_cif.got.tgz:25155.got - 2010.06.03 22:52:26.
