data_PCOD9316167
_publ_section_title
;
Structure prediction by ZEFSAII (Michael W. Deem and Ramdas Pophale) SiO2 
 PCOD9316167
Probable space group: P 21 21 21
;
_chemical_formula_sum "Si O2"
_cell_formula_units_Z 24
_cell_length_a 12.000000
_cell_length_b 6.000000
_cell_length_c 15.000000
_cell_angle_alpha 90.000000
_cell_angle_beta 90.000000
_cell_angle_gamma 90.000000
_cell_volume 1080.000000
_symmetry_space_group_name_H-M "P 21 21 21"
_symmetry_group_IT_number 19
_symmetry_cell_setting 'orthorhombic'
loop_
_space_group_symop_operation_xyz
x,y,z
1/2-x,-y,1/2+z
1/2+x,1/2-y,-z
-x,1/2+y,1/2-z
loop_
_atom_site_type_symbol
_atom_site_label
_atom_site_fract_x
_atom_site_fract_y
_atom_site_fract_z
Si Si1 0.466292 0.981532 0.861200
Si Si2 0.409441 0.690967 0.030603
Si Si3 0.176191 0.336913 0.234304
Si Si4 0.626528 0.545048 0.327870
Si Si5 0.073825 0.133609 0.869066
Si Si6 0.293779 0.362856 0.902705
O O1 0.589519 0.028328 0.826030
O O2 0.400721 0.208561 0.883233
O O3 0.396597 0.852848 0.784693
O O4 0.460594 0.833152 0.949580
O O5 0.350697 0.851056 0.101747
O O6 0.507520 0.559121 0.080294
O O7 0.324106 0.521041 0.984462
O O8 0.225068 0.490069 0.313611
O O9 0.274886 0.223401 0.179700
O O10 0.512878 0.664519 0.358082
O O11 0.608528 0.448079 0.229143
O O12 0.185536 0.212805 0.917802
#
# Coordination Sequence:
#
# PCOD9316167 Si02
#       6
#     4   4   4   4   4   4
#     4  11  23  51  74 110 148 195 251 305 372 441
#     4  11  28  50  72 114 150 197 247 311 373 439
#     4  11  24  46  82 107 147 198 246 306 374 444
#     4  12  25  49  78 110 144 203 248 303 378 444
#     4  12  25  50  77 107 148 195 253 306 372 449
#     4  11  25  50  75 110 149 192 253 313 367 441
#
# _framework density 22.222221999999999
#
# number of rings (size 3 to 8) (size 9 to 14) (size 15 to 20)
#    0.000    0.667    5.000    2.000    0.000    0.000 
#   18.000    0.000    0.000    0.000    0.000    0.000 
#    0.000    0.000    0.000    0.000    0.000    0.000 
#
# Total GULP energy -134580.931709 kJ/mol
# GULP energy per Si atom -5607.538821 kJ/mol
# Density = 2.217164 g / cm^3
# Si number density = 22.222222 Si / 1000 Ang^3
#
#
#
# Elastic Constant Matrix: (Units=GPa)
#
#
# Indices 1 2 3 4 5 6 
#
# 1 51.0734 -11.2353 16.9046 0.0000 0.0000 0.0000
# 2 -11.2353 50.4975 25.8500 0.0000 0.0000 0.0000
# 3 16.9046 25.8500 106.3743 0.0000 0.0000 0.0000
# 4 0.0000 0.0000 0.0000 34.4266 0.0000 0.0000
# 5 0.0000 0.0000 0.0000 0.0000 3.8956 0.0000
# 6 0.0000 0.0000 0.0000 0.0000 0.0000 32.5181
#
#
#
# Elastic Compliance Matrix: (Units=1/GPa)
#
#
# Indices 1 2 3 4 5 6 
#
# 1 0.023222 0.008058 -0.005649 0.000000 0.000000 0.000000
# 2 0.008058 0.025413 -0.007456 0.000000 0.000000 0.000000
# 3 -0.005649 -0.007456 0.012110 0.000000 0.000000 0.000000
# 4 0.000000 0.000000 0.000000 0.029047 0.000000 0.000000
# 5 0.000000 0.000000 0.000000 0.000000 0.256697 0.000000
# 6 0.000000 0.000000 0.000000 0.000000 0.000000 0.030752
#
#
# Mechanical properties :
#
#
# Convention : Reuss Voigt Hill
#
# Bulk Modulus (GPa) = 19.74253 30.10932 24.92592
# Shear Modulus (GPa) = 12.36954 25.92979 19.14967
#
# Velocity S-wave (km/s) = 2.36186 3.41961 2.93872
# Velocity P-wave (km/s) = 4.04243 5.40095 4.77030
#
# Compressibility (1/GPa) = 0.05065207
#
# Stress axis : x y z
#
# Youngs Moduli (GPa) = 43.06271 39.35041 82.57419
#
# Poissons Ratio (x) = -0.31710 0.46643
# Poissons Ratio (y) = -0.34701 0.61568
# Poissons Ratio (z) = 0.24324 0.29340
#
# Static dielectric constant tensor:
#      x y z
#    x 1.768110 0.000000 0.000000 
#    y 0.000000 1.833100 0.000000 
#    z 0.000000 0.000000 1.792110 
# 
# From -- ./inp_files/933.got.cif
#   From: 2010.05.17/outbox.ucp.g08.bks.cvg/sg19_1_cif.got.tgz:933.got - 2010.06.11 13:13:52.
