data_PCOD9316459
_publ_section_title
;
Structure prediction by ZEFSAII (Michael W. Deem and Ramdas Pophale) SiO2 
 PCOD9316459
Probable space group: C 2 2 21
;
_chemical_formula_sum "Si O2"
_cell_formula_units_Z 24
_cell_length_a 28.744916
_cell_length_b 7.386773
_cell_length_c 4.974872
_cell_angle_alpha 90.000000
_cell_angle_beta 90.000000
_cell_angle_gamma 90.000000
_cell_volume 1056.325364
_symmetry_space_group_name_H-M "C 2 2 21"
_symmetry_group_IT_number 20
_symmetry_cell_setting 'orthorhombic'
loop_
_space_group_symop_operation_xyz
x,y,z
-x,-y,1/2+z
x,-y,-z
-x,y,1/2-z
1/2+x,1/2+y,z
1/2-x,1/2-y,1/2+z
1/2+x,1/2-y,-z
1/2-x,1/2+y,1/2-z
loop_
_atom_site_type_symbol
_atom_site_label
_atom_site_fract_x
_atom_site_fract_y
_atom_site_fract_z
Si Si1 0.529729 0.720244 0.992583
Si Si2 0.721050 0.298978 0.386833
Si Si3 0.375555 0.368384 0.257889
O O1 0.500000 0.792251 0.750000
O O2 0.583087 0.745313 0.898860
O O3 0.528195 0.500000 0.000000
O O4 0.500000 0.778490 0.250000
O O5 0.716196 0.500000 0.500000
O O6 0.748579 0.196513 0.618550
O O7 0.667814 0.245358 0.329683
O O8 0.358925 0.500000 0.500000
O O9 0.390335 0.500000 0.000000
#
# Coordination Sequence:
#
# PCOD9316459 Si02
#       3
#     8   8   8
#     4   9  15  23  38  62  94 132 169 206 258 327
#     4  11  22  37  56  80 111 152 194 234 281 332
#     4  10  18  30  47  70 103 144 183 222 277 333
#
# _framework density 22.720272999999999
#
# number of rings (size 3 to 8) (size 9 to 14) (size 15 to 20)
#    0.000    2.000    0.000   10.000    0.000    0.000 
#    0.000    0.000    0.000    0.000    0.000    0.000 
#    0.000    8.000    0.000  125.333    0.000    4.000 
#
# Total GULP energy -66839.457384 kJ/mol
# GULP energy per Si atom -5569.954782 kJ/mol
# Density = 2.266856 g / cm^3
# Si number density = 22.720273 Si / 1000 Ang^3
#
#
#
# Elastic Constant Matrix: (Units=GPa)
#
#
# Indices 1 2 3 4 5 6 
#
# 1 231.8409 10.8097 93.0096 0.0000 0.0000 0.0000
# 2 10.8097 23.5412 1.2819 0.0000 0.0000 0.0000
# 3 93.0096 1.2819 199.8173 0.0000 0.0000 0.0000
# 4 0.0000 0.0000 0.0000 14.7273 0.0000 0.0000
# 5 0.0000 0.0000 0.0000 0.0000 43.3805 0.0000
# 6 0.0000 0.0000 0.0000 0.0000 0.0000 4.3488
#
#
#
# Elastic Compliance Matrix: (Units=1/GPa)
#
#
# Indices 1 2 3 4 5 6 
#
# 1 0.005431 -0.002357 -0.002513 0.000000 0.000000 0.000000
# 2 -0.002357 0.043517 0.000818 0.000000 0.000000 0.000000
# 3 -0.002513 0.000818 0.006169 0.000000 0.000000 0.000000
# 4 0.000000 0.000000 0.000000 0.067901 0.000000 0.000000
# 5 0.000000 0.000000 0.000000 0.000000 0.023052 0.000000
# 6 0.000000 0.000000 0.000000 0.000000 0.000000 0.229949
#
#
# Mechanical properties :
#
#
# Convention : Reuss Voigt Hill
#
# Bulk Modulus (GPa) = 21.27085 73.93353 47.60219
# Shear Modulus (GPa) = 12.50642 35.83119 24.16881
#
# Velocity S-wave (km/s) = 2.34872 3.97553 3.26506
# Velocity P-wave (km/s) = 4.09117 7.32697 5.93389
#
# Compressibility (1/GPa) = 0.04701270
#
# Stress axis : x y z
#
# Youngs Moduli (GPa) = 184.11513 22.97973 162.09885
#
# Poissons Ratio (x) = 0.05417 0.40736
# Poissons Ratio (y) = 0.43399 -0.13260
# Poissons Ratio (z) = 0.46269 -0.01880
#
# Static dielectric constant tensor:
#      x y z
#    x 1.571730 0.000000 0.000000 
#    y 0.000000 1.881170 0.000000 
#    z 0.000000 0.000000 1.833280 
# 
# From -- ./inp_files/3957.got.cif
#   From: 2010.05.17/outbox.cif.g08.bks.cpg/sg20_2_cif.got.tgz:3957.got - 2010.06.03 22:52:26.
