data_PCOD9316607
_publ_section_title
;
Structure prediction by ZEFSAII (Michael W. Deem and Ramdas Pophale) SiO2 
 PCOD9316607
Probable space group: C 2 2 21
;
_chemical_formula_sum "Si O2"
_cell_formula_units_Z 48
_cell_length_a 30.394910
_cell_length_b 8.590942
_cell_length_c 7.511245
_cell_angle_alpha 90.000000
_cell_angle_beta 90.000000
_cell_angle_gamma 90.000000
_cell_volume 1961.343121
_symmetry_space_group_name_H-M "C 2 2 21"
_symmetry_group_IT_number 20
_symmetry_cell_setting 'orthorhombic'
loop_
_space_group_symop_operation_xyz
x,y,z
-x,-y,1/2+z
x,-y,-z
-x,y,1/2-z
1/2+x,1/2+y,z
1/2-x,1/2-y,1/2+z
1/2+x,1/2-y,-z
1/2-x,1/2+y,1/2-z
loop_
_atom_site_type_symbol
_atom_site_label
_atom_site_fract_x
_atom_site_fract_y
_atom_site_fract_z
Si Si1 0.107082 0.717231 0.652782
Si Si2 0.640150 0.912559 0.809677
Si Si3 0.696385 0.363026 0.735586
Si Si4 0.426291 0.318353 0.464541
Si Si5 0.715591 0.295418 0.148536
Si Si6 0.014324 0.683148 0.543560
O O1 0.123463 0.540591 0.673592
O O2 0.149782 0.826565 0.644031
O O3 0.087155 0.745558 0.847811
O O4 0.064717 0.738924 0.527725
O O5 0.687095 0.841213 0.763618
O O6 0.606605 0.768213 0.830641
O O7 0.643872 0.000000 0.000000
O O8 0.708748 0.544611 0.744864
O O9 0.734340 0.259936 0.646404
O O10 0.696799 0.315814 0.946965
O O11 0.420253 0.500000 0.500000
O O12 0.477052 0.273620 0.433288
O O13 0.012259 0.500000 0.500000
O O14 0.000000 0.701331 0.750000
#
# Coordination Sequence:
#
# PCOD9316607 Si02
#       6
#     8   8   8   8   8   8
#     4  10  20  37  59  87 123 161 200 254 301 364
#     4  10  18  34  63  86 115 160 204 245 297 365
#     4  11  23  40  63  93 128 160 209 250 311 367
#     4  10  18  33  61  87 116 157 206 246 295 365
#     4  11  23  39  65  94 122 166 204 256 305 371
#     4  10  21  40  63  90 122 161 203 253 307 362
#
# _framework density 24.473023999999999
#
# number of rings (size 3 to 8) (size 9 to 14) (size 15 to 20)
#    0.000    1.667    3.333    4.500    0.000    0.000 
#    6.000    9.167    0.000    0.000    0.000    0.000 
#    0.000    0.000    0.000    0.000    0.000    0.000 
#
# Total GULP energy -134285.427573 kJ/mol
# GULP energy per Si atom -5595.226149 kJ/mol
# Density = 2.441732 g / cm^3
# Si number density = 24.473024 Si / 1000 Ang^3
#
#
#
# Elastic Constant Matrix: (Units=GPa)
#
#
# Indices 1 2 3 4 5 6 
#
# 1 187.8472 50.1481 4.4042 0.0000 0.0000 0.0000
# 2 50.1481 120.1952 0.4978 0.0000 0.0000 0.0000
# 3 4.4042 0.4978 49.8510 0.0000 0.0000 0.0000
# 4 0.0000 0.0000 0.0000 2.4037 0.0000 0.0000
# 5 0.0000 0.0000 0.0000 0.0000 24.5065 0.0000
# 6 0.0000 0.0000 0.0000 0.0000 0.0000 45.8136
#
#
#
# Elastic Compliance Matrix: (Units=1/GPa)
#
#
# Indices 1 2 3 4 5 6 
#
# 1 0.006003 -0.002503 -0.000505 0.000000 0.000000 0.000000
# 2 -0.002503 0.009363 0.000128 0.000000 0.000000 0.000000
# 3 -0.000505 0.000128 0.020103 0.000000 0.000000 0.000000
# 4 0.000000 0.000000 0.000000 0.416024 0.000000 0.000000
# 5 0.000000 0.000000 0.000000 0.000000 0.040805 0.000000
# 6 0.000000 0.000000 0.000000 0.000000 0.000000 0.021828
#
#
# Mechanical properties :
#
#
# Convention : Reuss Voigt Hill
#
# Bulk Modulus (GPa) = 33.65975 51.99931 42.82953
# Shear Modulus (GPa) = 9.43769 34.73432 22.08600
#
# Velocity S-wave (km/s) = 1.96589 3.77143 3.00736
# Velocity P-wave (km/s) = 4.35163 6.34497 5.44037
#
# Compressibility (1/GPa) = 0.02970908
#
# Stress axis : x y z
#
# Youngs Moduli (GPa) = 166.57104 106.79836 49.74348
#
# Poissons Ratio (x) = 0.26728 0.02514
# Poissons Ratio (y) = 0.41687 -0.00635
# Poissons Ratio (z) = 0.08418 -0.01363
#
# Static dielectric constant tensor:
#      x y z
#    x 1.962670 0.000000 0.000000 
#    y 0.000000 1.887640 0.000000 
#    z 0.000000 0.000000 1.997060 
# 
# From -- ./inp_files/16959.got.cif
#   From: 2010.05.17/outbox.cif.g08.bks.cpg/sg20_9_cif.got.tgz:16959.got - 2010.06.03 22:52:26.
