data_PCOD9316356
_publ_section_title
;
Structure prediction by ZEFSAII (Michael W. Deem and Ramdas Pophale) SiO2 
 PCOD9316356
Probable space group: C 2 2 21
;
_chemical_formula_sum "Si O2"
_cell_formula_units_Z 64
_cell_length_a 7.573199
_cell_length_b 21.675902
_cell_length_c 16.978370
_cell_angle_alpha 90.000000
_cell_angle_beta 90.000000
_cell_angle_gamma 90.000000
_cell_volume 2787.099936
_symmetry_space_group_name_H-M "C 2 2 21"
_symmetry_group_IT_number 20
_symmetry_cell_setting 'orthorhombic'
loop_
_space_group_symop_operation_xyz
x,y,z
-x,-y,1/2+z
x,-y,-z
-x,y,1/2-z
1/2+x,1/2+y,z
1/2-x,1/2-y,1/2+z
1/2+x,1/2-y,-z
1/2-x,1/2+y,1/2-z
loop_
_atom_site_type_symbol
_atom_site_label
_atom_site_fract_x
_atom_site_fract_y
_atom_site_fract_z
Si Si1 0.746836 0.214057 0.588259
Si Si2 0.850315 0.655271 0.079419
Si Si3 0.600427 0.100123 0.667705
Si Si4 0.727597 0.516446 0.406524
Si Si5 0.399085 0.266557 0.169502
Si Si6 0.279954 0.351381 0.929352
Si Si7 0.233556 0.886034 0.392712
Si Si8 0.351573 0.017728 0.091235
O O1 0.709800 0.181860 0.504840
O O2 0.694886 0.165067 0.655325
O O3 0.660395 0.282330 0.593416
O O4 0.952838 0.224996 0.602170
O O5 0.794418 0.706098 0.143629
O O6 0.780952 0.587014 0.098919
O O7 0.065239 0.649736 0.078860
O O8 0.500000 0.092570 0.750000
O O9 0.443863 0.104225 0.602739
O O10 0.711534 0.039406 0.644952
O O11 0.708812 0.500000 0.500000
O O12 0.656516 0.584826 0.388764
O O13 0.659068 0.452886 0.368284
O O14 0.937833 0.521042 0.390889
O O15 0.500000 0.255219 0.250000
O O16 0.298063 0.330913 0.167527
O O17 0.322137 0.363739 0.021078
O O18 0.326308 0.000000 0.000000
#
# Coordination Sequence:
#
# PCOD9316356 Si02
#       8
#     8   8   8   8   8   8   8   8
#     4  11  20  34  56  80 109 146 182 233 275 334
#     4  10  18  34  58  80 104 144 190 230 272 327
#     4  11  21  33  56  85 109 142 185 227 282 334
#     4   7  13  25  49  77  93 126 177 225 255 304
#     4  11  24  36  51  81 121 150 177 229 295 340
#     4   9  16  30  55  81 100 132 188 235 265 311
#     4  10  17  33  55  74 107 142 183 225 270 334
#     4   9  15  30  54  78 106 131 176 233 269 305
#
# _framework density 22.962938999999999
#
# number of rings (size 3 to 8) (size 9 to 14) (size 15 to 20)
#    0.000    2.250    3.750    2.250    0.000    0.500 
#    0.000    0.000    8.250    0.750    0.000    0.000 
#    0.000    0.000    0.000    0.000    0.000    0.000 
#
# Total GULP energy -178349.017879 kJ/mol
# GULP energy per Si atom -5573.406809 kJ/mol
# Density = 2.291067 g / cm^3
# Si number density = 22.962939 Si / 1000 Ang^3
#
#
#
# Elastic Constant Matrix: (Units=GPa)
#
#
# Indices 1 2 3 4 5 6 
#
# 1 29.9294 20.1031 -8.7347 0.0000 0.0000 0.0000
# 2 20.1031 264.8274 42.2083 0.0000 0.0000 0.0000
# 3 -8.7347 42.2083 30.7823 0.0000 0.0000 0.0000
# 4 0.0000 0.0000 0.0000 8.7905 0.0000 0.0000
# 5 0.0000 0.0000 0.0000 0.0000 14.7516 0.0000
# 6 0.0000 0.0000 0.0000 0.0000 0.0000 -7.4437
#
#
#
# Elastic Compliance Matrix: (Units=1/GPa)
#
#
# Indices 1 2 3 4 5 6 
#
# 1 0.044488 -0.006896 0.022080 0.000000 0.000000 0.000000
# 2 -0.006896 0.005901 -0.010048 0.000000 0.000000 0.000000
# 3 0.022080 -0.010048 0.052530 0.000000 0.000000 0.000000
# 4 0.000000 0.000000 0.000000 0.113759 0.000000 0.000000
# 5 0.000000 0.000000 0.000000 0.000000 0.067789 0.000000
# 6 0.000000 0.000000 0.000000 0.000000 0.000000 -0.134343
#
#
# Mechanical properties :
#
#
# Convention : Reuss Voigt Hill
#
# Bulk Modulus (GPa) = 8.83478 48.07696 28.45587
# Shear Modulus (GPa) = 28.15575 21.35051 24.75313
#
# Velocity S-wave (km/s) = 3.50543 3.05254 3.28679
# Velocity P-wave (km/s) = 4.49886 5.77981 5.17909
#
# Compressibility (1/GPa) = 0.11318896
#
# Stress axis : x y z
#
# Youngs Moduli (GPa) = 22.47808 169.46189 19.03690
#
# Poissons Ratio (x) = 1.16864 -0.42033
# Poissons Ratio (y) = 0.15501 0.19129
# Poissons Ratio (z) = -0.49631 1.70280
#
# Static dielectric constant tensor:
#      x y z
#    x 1.931420 0.000000 0.000000 
#    y 0.000000 2.025910 0.000000 
#    z 0.000000 0.000000 1.855820 
# 
# From -- ./inp_files/23943.got.cif
#   From: 2010.05.17/outbox.cif.g08.bks.cpg/sg20_12_cif.got.tgz:23943.got - 2010.06.03 22:52:26.
