data_PCOD9316983
_publ_section_title
;
Structure prediction by ZEFSAII (Michael W. Deem and Ramdas Pophale) SiO2 
 PCOD9316983
Probable space group: C 2 2 21
;
_chemical_formula_sum "Si O2"
_cell_formula_units_Z 48
_cell_length_a 23.946305
_cell_length_b 7.440072
_cell_length_c 11.627783
_cell_angle_alpha 90.000000
_cell_angle_beta 90.000000
_cell_angle_gamma 90.000000
_cell_volume 2071.631788
_symmetry_space_group_name_H-M "C 2 2 21"
_symmetry_group_IT_number 20
_symmetry_cell_setting 'orthorhombic'
loop_
_space_group_symop_operation_xyz
x,y,z
-x,-y,1/2+z
x,-y,-z
-x,y,1/2-z
1/2+x,1/2+y,z
1/2-x,1/2-y,1/2+z
1/2+x,1/2-y,-z
1/2-x,1/2+y,1/2-z
loop_
_atom_site_type_symbol
_atom_site_label
_atom_site_fract_x
_atom_site_fract_y
_atom_site_fract_z
Si Si1 0.908259 0.837597 0.622625
Si Si2 0.342553 0.294461 0.045618
Si Si3 0.188545 0.000000 0.000000
Si Si4 0.000053 0.000000 0.000000
Si Si5 0.559271 0.340721 0.289074
Si Si6 0.659284 0.160247 0.704201
Si Si7 0.745162 0.889783 0.693862
O O1 0.852976 0.846458 0.544384
O O2 0.960289 0.833705 0.537088
O O3 0.896071 0.696046 0.721905
O O4 0.916360 0.030320 0.688856
O O5 0.390244 0.249549 0.141243
O O6 0.283587 0.255366 0.108900
O O7 0.345802 0.500000 0.000000
O O8 0.350171 0.172975 0.931672
O O9 0.227288 0.961817 0.108474
O O10 0.963458 0.029118 0.888961
O O11 0.500000 0.249664 0.250000
O O12 0.703831 0.319767 0.731889
O O13 0.693064 0.988583 0.749992
#
# Coordination Sequence:
#
# PCOD9316983 Si02
#       7
#     8   8   4   4   8   8   8
#     4   9  18  31  55  79 117 147 192 243 300 345
#     4  12  21  35  57  87 117 150 199 246 294 354
#     4   9  18  34  50  82 114 154 184 237 286 354
#     4   9  16  32  52  84 112 146 194 255 298 352
#     4  10  19  32  55  87 114 148 198 251 299 351
#     4  11  21  37  55  84 119 158 198 240 293 365
#     4  11  23  37  57  85 124 162 198 238 299 355
#
# _framework density 23.170138999999999
#
# number of rings (size 3 to 8) (size 9 to 14) (size 15 to 20)
#    0.000    1.667    4.167    1.000    2.333    0.000 
#    0.000    0.000    0.000    7.000    0.000    0.000 
#    0.000    0.000    0.000    0.000    0.000    0.000 
#
# Total GULP energy -133655.037605 kJ/mol
# GULP energy per Si atom -5568.959900 kJ/mol
# Density = 2.311740 g / cm^3
# Si number density = 23.170139 Si / 1000 Ang^3
#
#
#
# Elastic Constant Matrix: (Units=GPa)
#
#
# Indices 1 2 3 4 5 6 
#
# 1 101.2021 4.8378 30.2526 0.0000 0.0000 0.0000
# 2 4.8378 26.7722 10.4742 0.0000 0.0000 0.0000
# 3 30.2526 10.4742 100.3854 0.0000 0.0000 0.0000
# 4 0.0000 0.0000 0.0000 23.8732 0.0000 0.0000
# 5 0.0000 0.0000 0.0000 0.0000 50.6118 0.0000
# 6 0.0000 0.0000 0.0000 0.0000 0.0000 14.9960
#
#
#
# Elastic Compliance Matrix: (Units=1/GPa)
#
#
# Indices 1 2 3 4 5 6 
#
# 1 0.010873 -0.000712 -0.003202 0.000000 0.000000 0.000000
# 2 -0.000712 0.038988 -0.003854 0.000000 0.000000 0.000000
# 3 -0.003202 -0.003854 0.011329 0.000000 0.000000 0.000000
# 4 0.000000 0.000000 0.000000 0.041888 0.000000 0.000000
# 5 0.000000 0.000000 0.000000 0.000000 0.019758 0.000000
# 6 0.000000 0.000000 0.000000 0.000000 0.000000 0.066685
#
#
# Mechanical properties :
#
#
# Convention : Reuss Voigt Hill
#
# Bulk Modulus (GPa) = 21.90373 35.49877 28.70125
# Shear Modulus (GPa) = 22.69901 30.08253 26.39077
#
# Velocity S-wave (km/s) = 3.13336 3.60715 3.37857
# Velocity P-wave (km/s) = 4.75021 5.71864 5.25678
#
# Compressibility (1/GPa) = 0.04565432
#
# Stress axis : x y z
#
# Youngs Moduli (GPa) = 91.97498 25.64866 88.27097
#
# Poissons Ratio (x) = 0.01826 0.28267
# Poissons Ratio (y) = 0.06547 0.34015
# Poissons Ratio (z) = 0.29453 0.09884
#
# Static dielectric constant tensor:
#      x y z
#    x 1.925840 0.000000 0.000000 
#    y 0.000000 1.960890 0.000000 
#    z 0.000000 0.000000 1.905830 
# 
# From -- ./inp_files/16671.got.cif
#   From: 2010.05.17/outbox.cif.g08.bks.cpg/sg20_9_cif.got.tgz:16671.got - 2010.06.03 22:52:26.
