data_PCOD9316599
_publ_section_title
;
Structure prediction by ZEFSAII (Michael W. Deem and Ramdas Pophale) SiO2 
 PCOD9316599
Probable space group: C 2 2 21
;
_chemical_formula_sum "Si O2"
_cell_formula_units_Z 48
_cell_length_a 14.551122
_cell_length_b 9.466305
_cell_length_c 14.792398
_cell_angle_alpha 90.000000
_cell_angle_beta 90.000000
_cell_angle_gamma 90.000000
_cell_volume 2037.584172
_symmetry_space_group_name_H-M "C 2 2 21"
_symmetry_group_IT_number 20
_symmetry_cell_setting 'orthorhombic'
loop_
_space_group_symop_operation_xyz
x,y,z
-x,-y,1/2+z
x,-y,-z
-x,y,1/2-z
1/2+x,1/2+y,z
1/2-x,1/2-y,1/2+z
1/2+x,1/2-y,-z
1/2-x,1/2+y,1/2-z
loop_
_atom_site_type_symbol
_atom_site_label
_atom_site_fract_x
_atom_site_fract_y
_atom_site_fract_z
Si Si1 0.005475 0.818491 0.553192
Si Si2 0.290535 0.248052 0.977308
Si Si3 0.384853 0.185881 0.392185
Si Si4 0.222665 0.451188 0.639050
Si Si5 0.586700 0.522462 0.813254
Si Si6 0.967329 0.473323 0.110873
O O1 0.110884 0.824616 0.519022
O O2 0.941210 0.752393 0.476626
O O3 0.020125 0.692349 0.625977
O O4 0.953490 0.951450 0.595043
O O5 0.215794 0.344495 0.929313
O O6 0.280370 0.101518 0.917243
O O7 0.265623 0.184924 0.074885
O O8 0.392555 0.311263 0.320367
O O9 0.438503 0.047588 0.366814
O O10 0.311851 0.456410 0.702736
O O11 0.115658 0.453535 0.664707
O O12 0.500000 0.498627 0.750000
O O13 0.949795 0.500000 0.000000
#
# Coordination Sequence:
#
# PCOD9316599 Si02
#       6
#     8   8   8   8   8   8
#     4  10  18  33  57  80 104 134 183 228 263 322
#     4   9  15  28  54  81 100 131 173 216 273 313
#     4  10  18  33  57  80 106 137 177 228 266 320
#     4   9  14  30  52  73 102 137 174 205 265 338
#     4  11  23  35  50  78 113 148 178 216 276 335
#     4   9  16  31  55  81  98 126 182 229 268 309
#
# _framework density 23.557309
#
# number of rings (size 3 to 8) (size 9 to 14) (size 15 to 20)
#    0.000    2.333    6.667    0.500    0.000    0.000 
#    0.000   12.500    0.000    0.000    0.000    0.000 
#    0.000    0.000    0.000    0.000    0.000    0.000 
#
# Total GULP energy -133691.115232 kJ/mol
# GULP energy per Si atom -5570.463135 kJ/mol
# Density = 2.350369 g / cm^3
# Si number density = 23.557309 Si / 1000 Ang^3
#
#
#
# Elastic Constant Matrix: (Units=GPa)
#
#
# Indices 1 2 3 4 5 6 
#
# 1 81.9256 -7.7728 -6.5839 0.0000 0.0000 0.0000
# 2 -7.7728 47.1282 -11.3870 0.0000 0.0000 0.0000
# 3 -6.5839 -11.3870 38.1053 0.0000 0.0000 0.0000
# 4 0.0000 0.0000 0.0000 4.0731 0.0000 0.0000
# 5 0.0000 0.0000 0.0000 0.0000 26.3214 0.0000
# 6 0.0000 0.0000 0.0000 0.0000 0.0000 22.2323
#
#
#
# Elastic Compliance Matrix: (Units=1/GPa)
#
#
# Indices 1 2 3 4 5 6 
#
# 1 0.012720 0.002833 0.003044 0.000000 0.000000 0.000000
# 2 0.002833 0.023501 0.007512 0.000000 0.000000 0.000000
# 3 0.003044 0.007512 0.029014 0.000000 0.000000 0.000000
# 4 0.000000 0.000000 0.000000 0.245513 0.000000 0.000000
# 5 0.000000 0.000000 0.000000 0.000000 0.037992 0.000000
# 6 0.000000 0.000000 0.000000 0.000000 0.000000 0.044980
#
#
# Mechanical properties :
#
#
# Convention : Reuss Voigt Hill
#
# Bulk Modulus (GPa) = 10.86774 12.85241 11.86007
# Shear Modulus (GPa) = 12.57511 23.38554 17.98033
#
# Velocity S-wave (km/s) = 2.31294 3.15415 2.76571
# Velocity P-wave (km/s) = 3.42874 4.32811 3.90440
#
# Compressibility (1/GPa) = 0.09201549
#
# Stress axis : x y z
#
# Youngs Moduli (GPa) = 78.61827 42.55106 34.46610
#
# Poissons Ratio (x) = -0.12057 -0.10493
# Poissons Ratio (y) = -0.22276 -0.25892
# Poissons Ratio (z) = -0.23935 -0.31966
#
# Static dielectric constant tensor:
#      x y z
#    x 1.953670 0.000000 0.000000 
#    y 0.000000 1.923270 0.000000 
#    z 0.000000 0.000000 2.000640 
# 
# From -- ./inp_files/24220.got.cif
#   From: 2010.05.17/outbox.cif.g08.bks.cpg/sg20_13_cif.got.tgz:24220.got - 2010.06.03 22:52:26.
