data_PCOD9316056
_publ_section_title
;
Structure prediction by ZEFSAII (Michael W. Deem and Ramdas Pophale) SiO2 
 PCOD9316056
Probable space group: P 21 21 21
;
_chemical_formula_sum "Si O2"
_cell_formula_units_Z 24
_cell_length_a 10.445224
_cell_length_b 11.811478
_cell_length_c 8.343857
_cell_angle_alpha 90.000000
_cell_angle_beta 90.000000
_cell_angle_gamma 90.000000
_cell_volume 1029.411121
_symmetry_space_group_name_H-M "P 21 21 21"
_symmetry_group_IT_number 19
_symmetry_cell_setting 'orthorhombic'
loop_
_space_group_symop_operation_xyz
x,y,z
1/2-x,-y,1/2+z
1/2+x,1/2-y,-z
-x,1/2+y,1/2-z
loop_
_atom_site_type_symbol
_atom_site_label
_atom_site_fract_x
_atom_site_fract_y
_atom_site_fract_z
Si Si1 0.134519 0.121692 0.942946
Si Si2 0.710171 0.147764 0.174228
Si Si3 0.155205 0.039557 0.306997
Si Si4 0.108547 0.465600 0.244485
Si Si5 0.621746 0.917539 0.253341
Si Si6 0.296332 0.719567 0.960921
O O1 0.182307 0.250672 0.944578
O O2 0.996623 0.116802 0.858644
O O3 0.230069 0.045781 0.837794
O O4 0.140361 0.071915 0.120874
O O5 0.701758 0.205074 0.350488
O O6 0.847727 0.084613 0.176187
O O7 0.610007 0.043042 0.178105
O O8 0.177198 0.154036 0.405555
O O9 0.020951 0.980080 0.348820
O O10 0.241471 0.435104 0.152743
O O11 0.102530 0.367814 0.378858
O O12 0.663062 0.827756 0.116695
#
# Coordination Sequence:
#
# PCOD9316056 Si02
#       6
#     4   4   4   4   4   4
#     4  12  26  43  65 102 139 172 220 274 332 396
#     4   9  21  42  68  94 127 173 222 270 326 387
#     4  12  26  43  65 102 139 172 220 274 332 396
#     4   8  23  43  67  94 128 173 221 271 323 392
#     4   8  23  43  67  94 128 173 221 271 323 392
#     4   9  21  42  68  94 127 173 222 270 326 387
#
# _framework density 23.314299999999999
#
# number of rings (size 3 to 8) (size 9 to 14) (size 15 to 20)
#    2.000    0.000    0.000    2.000    4.667    9.333 
#    0.000    0.000    0.000    0.000    0.000    0.000 
#    0.000    0.000    0.000    0.000    0.000    0.000 
#
# Total GULP energy -134026.005421 kJ/mol
# GULP energy per Si atom -5584.416893 kJ/mol
# Density = 2.326124 g / cm^3
# Si number density = 23.314300 Si / 1000 Ang^3
#
#
#
# Elastic Constant Matrix: (Units=GPa)
#
#
# Indices 1 2 3 4 5 6 
#
# 1 117.4424 39.7889 33.2931 0.0000 0.0000 0.0000
# 2 39.7889 127.4192 18.3700 0.0000 0.0000 0.0000
# 3 33.2931 18.3700 74.7000 0.0000 0.0000 0.0000
# 4 0.0000 0.0000 0.0000 24.9386 0.0000 0.0000
# 5 0.0000 0.0000 0.0000 0.0000 19.3574 0.0000
# 6 0.0000 0.0000 0.0000 0.0000 0.0000 26.3250
#
#
#
# Elastic Compliance Matrix: (Units=1/GPa)
#
#
# Indices 1 2 3 4 5 6 
#
# 1 0.010584 -0.002722 -0.004048 0.000000 0.000000 0.000000
# 2 -0.002722 0.008836 -0.000960 0.000000 0.000000 0.000000
# 3 -0.004048 -0.000960 0.015427 0.000000 0.000000 0.000000
# 4 0.000000 0.000000 0.000000 0.040098 0.000000 0.000000
# 5 0.000000 0.000000 0.000000 0.000000 0.051660 0.000000
# 6 0.000000 0.000000 0.000000 0.000000 0.000000 0.037987
#
#
# Mechanical properties :
#
#
# Convention : Reuss Voigt Hill
#
# Bulk Modulus (GPa) = 51.57675 55.82949 53.70312
# Shear Modulus (GPa) = 26.80746 29.33152 28.06949
#
# Velocity S-wave (km/s) = 3.39459 3.55081 3.47358
# Velocity P-wave (km/s) = 6.12656 6.38822 6.25876
#
# Compressibility (1/GPa) = 0.01938858
#
# Stress axis : x y z
#
# Youngs Moduli (GPa) = 94.47834 113.16861 64.82066
#
# Poissons Ratio (x) = 0.30800 0.26240
# Poissons Ratio (y) = 0.25713 0.06223
# Poissons Ratio (z) = 0.38246 0.10865
#
# Static dielectric constant tensor:
#      x y z
#    x 1.888880 0.000000 0.000000 
#    y 0.000000 1.835770 0.000000 
#    z 0.000000 0.000000 1.902250 
# 
# From -- ./inp_files/3409.got.cif
#   From: 2010.05.17/outbox.cif.g08.bks.cpg/sg19_2_cif.got.tgz:3409.got - 2010.06.03 22:46:19.
