data_PCOD9316034
_publ_section_title
;
Structure prediction by ZEFSAII (Michael W. Deem and Ramdas Pophale) SiO2 
 PCOD9316034
Probable space group: P 21 21 21
;
_chemical_formula_sum "Si O2"
_cell_formula_units_Z 28
_cell_length_a 26.169684
_cell_length_b 6.003061
_cell_length_c 7.779139
_cell_angle_alpha 90.000000
_cell_angle_beta 90.000000
_cell_angle_gamma 90.000000
_cell_volume 1222.088808
_symmetry_space_group_name_H-M "P 21 21 21"
_symmetry_group_IT_number 19
_symmetry_cell_setting 'orthorhombic'
loop_
_space_group_symop_operation_xyz
x,y,z
1/2-x,-y,1/2+z
1/2+x,1/2-y,-z
-x,1/2+y,1/2-z
loop_
_atom_site_type_symbol
_atom_site_label
_atom_site_fract_x
_atom_site_fract_y
_atom_site_fract_z
Si Si1 0.370125 0.072802 0.406421
Si Si2 0.963551 0.727239 0.648729
Si Si3 0.805022 0.336522 0.274065
Si Si4 0.192652 0.113143 0.579548
Si Si5 0.129474 0.483013 0.384349
Si Si6 0.920822 0.099623 0.804886
Si Si7 0.524624 0.106620 0.789612
O O1 0.426817 0.967439 0.416031
O O2 0.337300 0.978477 0.246760
O O3 0.340663 0.042250 0.584231
O O4 0.383539 0.323610 0.346013
O O5 0.021217 0.684153 0.701787
O O6 0.931543 0.837123 0.801284
O O7 0.968377 0.899797 0.493389
O O8 0.749026 0.324127 0.354688
O O9 0.832862 0.101040 0.247607
O O10 0.802557 0.449475 0.085858
O O11 0.162956 0.322438 0.501458
O O12 0.104453 0.663917 0.515052
O O13 0.080285 0.375895 0.295958
O O14 0.502280 0.855526 0.740774
#
# Coordination Sequence:
#
# PCOD9316034 Si02
#       7
#     4   4   4   4   4   4   4
#     4  12  26  47  78 110 151 205 266 330 408 485
#     4  12  26  43  72 107 159 207 261 314 405 485
#     4  12  28  51  79 112 147 208 269 347 413 489
#     4  12  27  51  79 110 152 203 274 340 417 483
#     4  12  28  48  77 111 161 203 265 339 407 492
#     4  12  25  42  73 109 149 206 254 321 394 495
#     4  12  30  48  78 121 167 214 269 333 408 495
#
# _framework density 22.911591999999999
#
# number of rings (size 3 to 8) (size 9 to 14) (size 15 to 20)
#    0.000    0.000    7.143    1.714   10.000    2.286 
#    2.571    0.000    0.000    0.000    0.000    0.000 
#    0.000    0.000    0.000    0.000    0.000    0.000 
#
# Total GULP energy -156227.352606 kJ/mol
# GULP energy per Si atom -5579.548307 kJ/mol
# Density = 2.285944 g / cm^3
# Si number density = 22.911592 Si / 1000 Ang^3
#
#
#
# Elastic Constant Matrix: (Units=GPa)
#
#
# Indices 1 2 3 4 5 6 
#
# 1 161.5789 55.4017 39.9111 0.0000 0.0000 0.0000
# 2 55.4017 66.4863 23.2278 0.0000 0.0000 0.0000
# 3 39.9111 23.2278 106.6544 0.0000 0.0000 0.0000
# 4 0.0000 0.0000 0.0000 38.9709 0.0000 0.0000
# 5 0.0000 0.0000 0.0000 0.0000 53.2513 0.0000
# 6 0.0000 0.0000 0.0000 0.0000 0.0000 24.3660
#
#
#
# Elastic Compliance Matrix: (Units=1/GPa)
#
#
# Indices 1 2 3 4 5 6 
#
# 1 0.008999 -0.006843 -0.001877 0.000000 0.000000 0.000000
# 2 -0.006843 0.021483 -0.002118 0.000000 0.000000 0.000000
# 3 -0.001877 -0.002118 0.010540 0.000000 0.000000 0.000000
# 4 0.000000 0.000000 0.000000 0.025660 0.000000 0.000000
# 5 0.000000 0.000000 0.000000 0.000000 0.018779 0.000000
# 6 0.000000 0.000000 0.000000 0.000000 0.000000 0.041041
#
#
# Mechanical properties :
#
#
# Convention : Reuss Voigt Hill
#
# Bulk Modulus (GPa) = 51.69193 63.53343 57.61268
# Shear Modulus (GPa) = 32.33626 37.72959 35.03292
#
# Velocity S-wave (km/s) = 3.76087 4.06241 3.91455
# Velocity P-wave (km/s) = 6.43967 7.05651 6.75513
#
# Compressibility (1/GPa) = 0.01934538
#
# Stress axis : x y z
#
# Youngs Moduli (GPa) = 111.12562 46.54943 94.87841
#
# Poissons Ratio (x) = 0.31852 0.17811
# Poissons Ratio (y) = 0.76040 0.20095
# Poissons Ratio (z) = 0.20861 0.09859
#
# Static dielectric constant tensor:
#      x y z
#    x 1.837060 0.000000 0.000000 
#    y 0.000000 1.982960 0.000000 
#    z 0.000000 0.000000 1.915000 
# 
# From -- ./inp_files/4352.got.cif
#   From: 2010.05.17/outbox.cif.g08.bks.cpg/sg19_3_cif.got.tgz:4352.got - 2010.06.03 22:46:19.
