data_PCOD9316811
_publ_section_title
;
Structure prediction by ZEFSAII (Michael W. Deem and Ramdas Pophale) SiO2 
 PCOD9316811
Probable space group: C 2 2 21
;
_chemical_formula_sum "Si O2"
_cell_formula_units_Z 48
_cell_length_a 17.477165
_cell_length_b 8.070312
_cell_length_c 13.529558
_cell_angle_alpha 90.000000
_cell_angle_beta 90.000000
_cell_angle_gamma 90.000000
_cell_volume 1908.292398
_symmetry_space_group_name_H-M "C 2 2 21"
_symmetry_group_IT_number 20
_symmetry_cell_setting 'orthorhombic'
loop_
_space_group_symop_operation_xyz
x,y,z
-x,-y,1/2+z
x,-y,-z
-x,y,1/2-z
1/2+x,1/2+y,z
1/2-x,1/2-y,1/2+z
1/2+x,1/2-y,-z
1/2-x,1/2+y,1/2-z
loop_
_atom_site_type_symbol
_atom_site_label
_atom_site_fract_x
_atom_site_fract_y
_atom_site_fract_z
Si Si1 0.239277 0.943994 0.152742
Si Si2 0.908138 0.075072 0.391589
Si Si3 0.541433 0.755101 0.444657
Si Si4 0.787099 0.239561 0.981432
Si Si5 0.979576 0.401194 0.639165
Si Si6 0.674716 0.077550 0.854255
O O1 0.294126 0.914605 0.243951
O O2 0.150319 0.977404 0.179318
O O3 0.275302 0.101409 0.092799
O O4 0.240853 0.790504 0.078814
O O5 0.998580 0.109933 0.384176
O O6 0.873184 0.258990 0.383363
O O7 0.893217 0.000000 0.500000
O O8 0.627543 0.724253 0.477614
O O9 0.498963 0.778871 0.550132
O O10 0.527704 0.929035 0.386265
O O11 0.750674 0.091384 0.919568
O O12 0.889654 0.439885 0.633429
O O13 0.000000 0.348182 0.750000
#
# Coordination Sequence:
#
# PCOD9316811 Si02
#       6
#     8   8   8   8   8   8
#     4  10  18  38  66  87 123 165 216 256 318 369
#     4  10  20  42  62  84 126 173 197 254 333 378
#     4  10  21  36  65  88 123 165 209 256 320 379
#     4  10  19  38  63  91 119 169 211 262 311 380
#     4  10  19  37  61  99 123 158 215 275 310 367
#     4  10  20  35  66  98 121 164 218 264 311 381
#
# _framework density 25.153378
#
# number of rings (size 3 to 8) (size 9 to 14) (size 15 to 20)
#    0.000    2.000    3.333    4.000    0.000    0.000 
#    9.000    3.333   44.000    0.000    0.000    0.000 
#    0.000    0.000    0.000    0.000    0.000    0.000 
#
# Total GULP energy -134179.016245 kJ/mol
# GULP energy per Si atom -5590.792344 kJ/mol
# Density = 2.509613 g / cm^3
# Si number density = 25.153378 Si / 1000 Ang^3
#
#
#
# Elastic Constant Matrix: (Units=GPa)
#
#
# Indices 1 2 3 4 5 6 
#
# 1 182.5407 32.1311 34.0435 0.0000 0.0000 0.0000
# 2 32.1311 62.1344 20.5943 0.0000 0.0000 0.0000
# 3 34.0435 20.5943 92.9752 0.0000 0.0000 0.0000
# 4 0.0000 0.0000 0.0000 13.7532 0.0000 0.0000
# 5 0.0000 0.0000 0.0000 0.0000 34.0557 0.0000
# 6 0.0000 0.0000 0.0000 0.0000 0.0000 21.0506
#
#
#
# Elastic Compliance Matrix: (Units=1/GPa)
#
#
# Indices 1 2 3 4 5 6 
#
# 1 0.006267 -0.002677 -0.001702 0.000000 0.000000 0.000000
# 2 -0.002677 0.018513 -0.003121 0.000000 0.000000 0.000000
# 3 -0.001702 -0.003121 0.012070 0.000000 0.000000 0.000000
# 4 0.000000 0.000000 0.000000 0.072710 0.000000 0.000000
# 5 0.000000 0.000000 0.000000 0.000000 0.029364 0.000000
# 6 0.000000 0.000000 0.000000 0.000000 0.000000 0.047505
#
#
# Mechanical properties :
#
#
# Convention : Reuss Voigt Hill
#
# Bulk Modulus (GPa) = 45.76364 56.79868 51.28116
# Shear Modulus (GPa) = 23.95675 30.49732 27.22703
#
# Velocity S-wave (km/s) = 3.08949 3.48581 3.29362
# Velocity P-wave (km/s) = 5.56416 6.23146 5.90724
#
# Compressibility (1/GPa) = 0.02185141
#
# Stress axis : x y z
#
# Youngs Moduli (GPa) = 159.57239 54.01725 82.85092
#
# Poissons Ratio (x) = 0.14458 0.14099
# Poissons Ratio (y) = 0.42712 0.25854
# Poissons Ratio (z) = 0.27155 0.16856
#
# Static dielectric constant tensor:
#      x y z
#    x 2.011560 0.000000 0.000000 
#    y 0.000000 2.109880 0.000000 
#    z 0.000000 0.000000 1.956080 
# 
# From -- ./inp_files/21306.got.cif
#   From: 2010.05.17/outbox.cif.g08.bks.cpg/sg20_11_cif.got.tgz:21306.got - 2010.06.03 22:52:26.
