data_PCOD9316097
_publ_section_title
;
Structure prediction by ZEFSAII (Michael W. Deem and Ramdas Pophale) SiO2 
 PCOD9316097
Probable space group: P 21 21 21
;
_chemical_formula_sum "Si O2"
_cell_formula_units_Z 24
_cell_length_a 11.273451
_cell_length_b 16.271248
_cell_length_c 4.759840
_cell_angle_alpha 90.000000
_cell_angle_beta 90.000000
_cell_angle_gamma 90.000000
_cell_volume 873.112288
_symmetry_space_group_name_H-M "P 21 21 21"
_symmetry_group_IT_number 19
_symmetry_cell_setting 'orthorhombic'
loop_
_space_group_symop_operation_xyz
x,y,z
1/2-x,-y,1/2+z
1/2+x,1/2-y,-z
-x,1/2+y,1/2-z
loop_
_atom_site_type_symbol
_atom_site_label
_atom_site_fract_x
_atom_site_fract_y
_atom_site_fract_z
Si Si1 0.963226 0.975640 0.937523
Si Si2 0.516466 0.763553 0.985523
Si Si3 0.935770 0.866247 0.401599
Si Si4 0.708002 0.456271 0.227589
Si Si5 0.753704 0.278774 0.289663
Si Si6 0.326486 0.368067 0.134514
O O1 0.862066 0.043449 0.986436
O O2 0.071804 0.028974 0.831334
O O3 0.935454 0.903745 0.711245
O O4 0.006924 0.931495 0.217985
O O5 0.482274 0.724912 0.674026
O O6 0.641492 0.711897 0.023543
O O7 0.382004 0.763932 0.109955
O O8 0.577471 0.844012 0.127100
O O9 0.806969 0.875212 0.255847
O O10 0.728438 0.471783 0.554669
O O11 0.746865 0.365793 0.135926
O O12 0.801534 0.202162 0.102955
#
# Coordination Sequence:
#
# PCOD9316097 Si02
#       6
#     4   4   4   4   4   4
#     4  12  27  52  79 116 163 218 279 346 418 505
#     4  12  27  51  79 123 165 221 281 347 428 505
#     4  12  28  50  81 118 163 218 275 340 423 503
#     4  12  28  50  76 117 161 218 272 347 421 505
#     4  12  29  50  85 120 171 219 288 348 434 502
#     4  12  29  49  82 118 167 218 283 350 420 510
#
# _framework density 27.487871999999999
#
# number of rings (size 3 to 8) (size 9 to 14) (size 15 to 20)
#    0.000    0.000    3.333    5.000   11.667    1.333 
#    0.000    0.000    0.000    0.000    0.000    0.000 
#    0.000    0.000    0.000    0.000    0.000    0.000 
#
# Total GULP energy -133807.188128 kJ/mol
# GULP energy per Si atom -5575.299505 kJ/mol
# Density = 2.742531 g / cm^3
# Si number density = 27.487872 Si / 1000 Ang^3
#
#
#
# Elastic Constant Matrix: (Units=GPa)
#
#
# Indices 1 2 3 4 5 6 
#
# 1 169.5023 21.1199 15.8528 0.0000 0.0000 0.0000
# 2 21.1199 129.3205 44.0680 0.0000 0.0000 0.0000
# 3 15.8528 44.0680 103.6412 0.0000 0.0000 0.0000
# 4 0.0000 0.0000 0.0000 45.5131 0.0000 0.0000
# 5 0.0000 0.0000 0.0000 0.0000 28.8956 0.0000
# 6 0.0000 0.0000 0.0000 0.0000 0.0000 56.0100
#
#
#
# Elastic Compliance Matrix: (Units=1/GPa)
#
#
# Indices 1 2 3 4 5 6 
#
# 1 0.006053 -0.000787 -0.000591 0.000000 0.000000 0.000000
# 2 -0.000787 0.009145 -0.003768 0.000000 0.000000 0.000000
# 3 -0.000591 -0.003768 0.011341 0.000000 0.000000 0.000000
# 4 0.000000 0.000000 0.000000 0.021972 0.000000 0.000000
# 5 0.000000 0.000000 0.000000 0.000000 0.034607 0.000000
# 6 0.000000 0.000000 0.000000 0.000000 0.000000 0.017854
#
#
# Mechanical properties :
#
#
# Convention : Reuss Voigt Hill
#
# Bulk Modulus (GPa) = 61.55084 62.72727 62.13906
# Shear Modulus (GPa) = 42.85183 47.51196 45.18190
#
# Velocity S-wave (km/s) = 3.95262 4.16200 4.05866
# Velocity P-wave (km/s) = 6.57811 6.77981 6.67972
#
# Compressibility (1/GPa) = 0.01624673
#
# Stress axis : x y z
#
# Youngs Moduli (GPa) = 165.20773 109.34532 88.17308
#
# Poissons Ratio (x) = 0.08606 0.05213
# Poissons Ratio (y) = 0.13003 0.33225
# Poissons Ratio (z) = 0.09767 0.41203
#
# Static dielectric constant tensor:
#      x y z
#    x 2.249140 0.000000 0.000000 
#    y 0.000000 2.185580 0.000000 
#    z 0.000000 0.000000 2.268990 
# 
# From -- ./inp_files/1002.got.cif
#   From: 2010.05.17/outbox.cif.g08.bks.cpg/sg19_1_cif.got.tgz:1002.got - 2010.06.03 22:46:19.
