data_PCOD9316689
_publ_section_title
;
Structure prediction by ZEFSAII (Michael W. Deem and Ramdas Pophale) SiO2 
 PCOD9316689
Probable space group: C 2 2 21
;
_chemical_formula_sum "Si O2"
_cell_formula_units_Z 36
_cell_length_a 13.117011
_cell_length_b 17.055192
_cell_length_c 7.977704
_cell_angle_alpha 90.000000
_cell_angle_beta 90.000000
_cell_angle_gamma 90.000000
_cell_volume 1784.717220
_symmetry_space_group_name_H-M "C 2 2 21"
_symmetry_group_IT_number 20
_symmetry_cell_setting 'orthorhombic'
loop_
_space_group_symop_operation_xyz
x,y,z
-x,-y,1/2+z
x,-y,-z
-x,y,1/2-z
1/2+x,1/2+y,z
1/2-x,1/2-y,1/2+z
1/2+x,1/2-y,-z
1/2-x,1/2+y,1/2-z
loop_
_atom_site_type_symbol
_atom_site_label
_atom_site_fract_x
_atom_site_fract_y
_atom_site_fract_z
Si Si1 0.253432 0.287049 0.719902
Si Si2 0.105658 0.597416 0.187029
Si Si3 0.773044 0.000000 0.000000
Si Si4 0.545468 0.238479 0.936948
Si Si5 0.139147 0.837801 0.435471
O O1 0.163642 0.348006 0.677223
O O2 0.349975 0.283876 0.600381
O O3 0.199141 0.203080 0.715233
O O4 0.298242 0.310617 0.899036
O O5 0.192244 0.537049 0.130575
O O6 0.000000 0.561382 0.250000
O O7 0.072270 0.659809 0.041198
O O8 0.845131 0.069329 0.931470
O O9 0.500000 0.220687 0.750000
O O10 0.469790 0.296961 0.036454
#
# Coordination Sequence:
#
# PCOD9316689 Si02
#       5
#     8   8   4   8   8
#     4  10  18  35  60  87 115 157 205 243 284 376
#     4  11  21  37  63  91 120 159 206 252 309 365
#     4  10  22  38  56  90 126 152 186 272 312 334
#     4  10  20  35  63  89 114 163 210 244 291 376
#     4  10  20  36  62  83 121 156 205 240 309 348
#
# _framework density 20.171264000000001
#
# number of rings (size 3 to 8) (size 9 to 14) (size 15 to 20)
#    0.000    1.778    6.667    0.000    0.000    0.889 
#    0.000    0.000   24.444    4.000    0.000    0.000 
#    0.000    0.000    0.000    0.000    0.000    0.000 
#
# Total GULP energy -100253.057388 kJ/mol
# GULP energy per Si atom -5569.614299 kJ/mol
# Density = 2.012535 g / cm^3
# Si number density = 20.171264 Si / 1000 Ang^3
#
#
#
# Elastic Constant Matrix: (Units=GPa)
#
#
# Indices 1 2 3 4 5 6 
#
# 1 101.5492 15.4367 25.0873 0.0000 0.0000 0.0000
# 2 15.4367 101.1671 19.9535 0.0000 0.0000 0.0000
# 3 25.0873 19.9535 43.4799 0.0000 0.0000 0.0000
# 4 0.0000 0.0000 0.0000 25.5135 0.0000 0.0000
# 5 0.0000 0.0000 0.0000 0.0000 26.4832 0.0000
# 6 0.0000 0.0000 0.0000 0.0000 0.0000 35.2216
#
#
#
# Elastic Compliance Matrix: (Units=1/GPa)
#
#
# Indices 1 2 3 4 5 6 
#
# 1 0.011507 -0.000491 -0.006414 0.000000 0.000000 0.000000
# 2 -0.000491 0.010889 -0.004714 0.000000 0.000000 0.000000
# 3 -0.006414 -0.004714 0.028863 0.000000 0.000000 0.000000
# 4 0.000000 0.000000 0.000000 0.039195 0.000000 0.000000
# 5 0.000000 0.000000 0.000000 0.000000 0.037760 0.000000
# 6 0.000000 0.000000 0.000000 0.000000 0.000000 0.028392
#
#
# Mechanical properties :
#
#
# Convention : Reuss Voigt Hill
#
# Bulk Modulus (GPa) = 35.68673 40.79456 38.24065
# Shear Modulus (GPa) = 26.42937 29.82492 28.12715
#
# Velocity S-wave (km/s) = 3.62366 3.84941 3.73824
# Velocity P-wave (km/s) = 5.93618 6.32655 6.13447
#
# Compressibility (1/GPa) = 0.02802162
#
# Stress axis : x y z
#
# Youngs Moduli (GPa) = 86.90686 91.83328 34.64610
#
# Poissons Ratio (x) = 0.04506 0.22222
# Poissons Ratio (y) = 0.04265 0.16333
# Poissons Ratio (z) = 0.55742 0.43291
#
# Static dielectric constant tensor:
#      x y z
#    x 1.773540 0.000000 0.000000 
#    y 0.000000 1.761890 0.000000 
#    z 0.000000 0.000000 1.783510 
# 
# From -- ./inp_files/8015.got.cif
#   From: 2010.05.17/outbox.cif.g08.bks.cpg/sg20_5_cif.got.tgz:8015.got - 2010.06.03 22:52:26.
