data_PCOD9316522
_publ_section_title
;
Structure prediction by ZEFSAII (Michael W. Deem and Ramdas Pophale) SiO2 
 PCOD9316522
Probable space group: C 2 2 21
;
_chemical_formula_sum "Si O2"
_cell_formula_units_Z 48
_cell_length_a 11.692883
_cell_length_b 26.799374
_cell_length_c 7.536651
_cell_angle_alpha 90.000000
_cell_angle_beta 90.000000
_cell_angle_gamma 90.000000
_cell_volume 2361.699614
_symmetry_space_group_name_H-M "C 2 2 21"
_symmetry_group_IT_number 20
_symmetry_cell_setting 'orthorhombic'
loop_
_space_group_symop_operation_xyz
x,y,z
-x,-y,1/2+z
x,-y,-z
-x,y,1/2-z
1/2+x,1/2+y,z
1/2-x,1/2-y,1/2+z
1/2+x,1/2-y,-z
1/2-x,1/2+y,1/2-z
loop_
_atom_site_type_symbol
_atom_site_label
_atom_site_fract_x
_atom_site_fract_y
_atom_site_fract_z
Si Si1 0.000000 0.804258 0.750000
Si Si2 0.293991 0.348939 0.925811
Si Si3 0.322933 0.748680 0.507625
Si Si4 0.347229 0.055804 0.452983
Si Si5 0.608656 0.944111 0.530742
Si Si6 0.323402 0.157023 0.037407
Si Si7 0.500000 0.793723 0.750000
O O1 0.071965 0.838207 0.610603
O O2 0.909444 0.769819 0.644986
O O3 0.242059 0.300713 0.024259
O O4 0.242781 0.400637 0.000400
O O5 0.242204 0.347462 0.725609
O O6 0.235297 0.704355 0.549519
O O7 0.399312 0.759948 0.679050
O O8 0.374570 0.060965 0.242882
O O9 0.476261 0.059357 0.530412
O O10 0.305716 0.000000 0.500000
O O11 0.674632 0.896947 0.448640
O O12 0.650373 0.000000 0.500000
O O13 0.452663 0.171777 0.092409
#
# Coordination Sequence:
#
# PCOD9316522 Si02
#       7
#     4   8   8   8   8   8   4
#     4  10  20  34  52  76 104 136 172 206 248 302
#     4   9  18  32  51  72  99 135 169 203 246 299
#     4  10  19  32  51  76 101 133 169 203 248 300
#     4   9  17  31  49  71  98 127 161 204 254 298
#     4   9  16  29  49  71  96 127 162 202 250 300
#     4   9  17  30  49  71  97 132 166 197 245 302
#     4  10  18  32  50  70 102 134 162 202 246 296
#
# _framework density 20.324348000000001
#
# number of rings (size 3 to 8) (size 9 to 14) (size 15 to 20)
#    0.000    2.667    0.000    4.000    0.000    0.000 
#    0.000   11.667    0.000    9.000    0.000    2.333 
#    0.000    0.000    0.000    0.000    0.000    0.000 
#
# Total GULP energy -133714.143568 kJ/mol
# GULP energy per Si atom -5571.422649 kJ/mol
# Density = 2.027809 g / cm^3
# Si number density = 20.324348 Si / 1000 Ang^3
#
#
#
# Elastic Constant Matrix: (Units=GPa)
#
#
# Indices 1 2 3 4 5 6 
#
# 1 82.8579 74.6014 11.0063 0.0000 0.0000 0.0000
# 2 74.6014 216.5526 18.4270 0.0000 0.0000 0.0000
# 3 11.0063 18.4270 31.8986 0.0000 0.0000 0.0000
# 4 0.0000 0.0000 0.0000 26.3275 0.0000 0.0000
# 5 0.0000 0.0000 0.0000 0.0000 25.6571 0.0000
# 6 0.0000 0.0000 0.0000 0.0000 0.0000 28.4076
#
#
#
# Elastic Compliance Matrix: (Units=1/GPa)
#
#
# Indices 1 2 3 4 5 6 
#
# 1 0.017717 -0.005872 -0.002721 0.000000 0.000000 0.000000
# 2 -0.005872 0.006803 -0.001904 0.000000 0.000000 0.000000
# 3 -0.002721 -0.001904 0.033388 0.000000 0.000000 0.000000
# 4 0.000000 0.000000 0.000000 0.037983 0.000000 0.000000
# 5 0.000000 0.000000 0.000000 0.000000 0.038976 0.000000
# 6 0.000000 0.000000 0.000000 0.000000 0.000000 0.035202
#
#
# Mechanical properties :
#
#
# Convention : Reuss Voigt Hill
#
# Bulk Modulus (GPa) = 27.08974 59.93094 43.51034
# Shear Modulus (GPa) = 24.58618 31.23006 27.90812
#
# Velocity S-wave (km/s) = 3.48183 3.92418 3.70961
# Velocity P-wave (km/s) = 5.43340 7.07697 6.30894
#
# Compressibility (1/GPa) = 0.03691435
#
# Stress axis : x y z
#
# Youngs Moduli (GPa) = 56.44264 147.00158 29.95096
#
# Poissons Ratio (x) = 0.86318 0.08150
# Poissons Ratio (y) = 0.33143 0.05702
# Poissons Ratio (z) = 0.15359 0.27984
#
# Static dielectric constant tensor:
#      x y z
#    x 1.784800 0.000000 0.000000 
#    y 0.000000 1.779610 0.000000 
#    z 0.000000 0.000000 1.815200 
# 
# From -- ./inp_files/7447.got.cif
#   From: 2010.05.17/outbox.cif.g08.bks.cpg/sg20_4_cif.got.tgz:7447.got - 2010.06.03 22:52:26.
