data_PCOD9316813
_publ_section_title
;
Structure prediction by ZEFSAII (Michael W. Deem and Ramdas Pophale) SiO2 
 PCOD9316813
Probable space group: C 2 2 21
;
_chemical_formula_sum "Si O2"
_cell_formula_units_Z 48
_cell_length_a 13.208341
_cell_length_b 13.577200
_cell_length_c 12.443695
_cell_angle_alpha 90.000000
_cell_angle_beta 90.000000
_cell_angle_gamma 90.000000
_cell_volume 2231.556288
_symmetry_space_group_name_H-M "C 2 2 21"
_symmetry_group_IT_number 20
_symmetry_cell_setting 'orthorhombic'
loop_
_space_group_symop_operation_xyz
x,y,z
-x,-y,1/2+z
x,-y,-z
-x,y,1/2-z
1/2+x,1/2+y,z
1/2-x,1/2-y,1/2+z
1/2+x,1/2-y,-z
1/2-x,1/2+y,1/2-z
loop_
_atom_site_type_symbol
_atom_site_label
_atom_site_fract_x
_atom_site_fract_y
_atom_site_fract_z
Si Si1 0.796654 0.909280 0.062923
Si Si2 0.000000 0.495336 0.250000
Si Si3 0.114530 0.202973 0.257384
Si Si4 0.223079 0.500000 0.500000
Si Si5 0.413014 0.853972 0.432519
Si Si6 0.735124 0.972469 0.731635
Si Si7 0.110533 0.291700 0.494393
O O1 0.685961 0.893540 0.009331
O O2 0.766914 0.946490 0.180817
O O3 0.851162 0.804825 0.055808
O O4 0.848821 0.000000 0.000000
O O5 0.025926 0.431794 0.142283
O O6 0.112295 0.540851 0.269748
O O7 0.122575 0.271993 0.153104
O O8 0.203764 0.125292 0.259381
O O9 0.118851 0.264598 0.367477
O O10 0.000000 0.159411 0.250000
O O11 0.274988 0.506942 0.615242
O O12 0.165456 0.395310 0.511385
O O13 0.492394 0.809960 0.515196
#
# Coordination Sequence:
#
# PCOD9316813 Si02
#       7
#     8   4   8   4   8   8   8
#     4  11  23  39  67  99 133 173 217 286 333 409
#     4  10  18  38  66  94 128 172 224 284 324 404
#     4  10  20  41  67  96 134 180 225 268 343 425
#     4  12  24  38  68  96 134 174 234 288 328 412
#     4  10  19  38  66  94 128 176 228 267 338 401
#     4  11  23  41  65 104 132 179 226 283 347 395
#     4  11  21  40  64 100 129 175 229 278 335 409
#
# _framework density 21.509651999999999
#
# number of rings (size 3 to 8) (size 9 to 14) (size 15 to 20)
#    0.000    1.333    5.833    2.000    1.167    0.000 
#    0.000    5.000    1.833    0.000    6.500    0.000 
#    0.000    0.000    0.000    0.000    0.000    0.000 
#
# Total GULP energy -133894.859284 kJ/mol
# GULP energy per Si atom -5578.952470 kJ/mol
# Density = 2.146069 g / cm^3
# Si number density = 21.509652 Si / 1000 Ang^3
#
#
#
# Elastic Constant Matrix: (Units=GPa)
#
#
# Indices 1 2 3 4 5 6 
#
# 1 86.4496 54.3592 5.9495 0.0000 0.0000 0.0000
# 2 54.3592 126.4696 12.9193 0.0000 0.0000 0.0000
# 3 5.9495 12.9193 67.1539 0.0000 0.0000 0.0000
# 4 0.0000 0.0000 0.0000 18.8532 0.0000 0.0000
# 5 0.0000 0.0000 0.0000 0.0000 20.2796 0.0000
# 6 0.0000 0.0000 0.0000 0.0000 0.0000 37.3033
#
#
#
# Elastic Compliance Matrix: (Units=1/GPa)
#
#
# Indices 1 2 3 4 5 6 
#
# 1 0.015852 -0.006804 -0.000095 0.000000 0.000000 0.000000
# 2 -0.006804 0.010986 -0.001511 0.000000 0.000000 0.000000
# 3 -0.000095 -0.001511 0.015190 0.000000 0.000000 0.000000
# 4 0.000000 0.000000 0.000000 0.053041 0.000000 0.000000
# 5 0.000000 0.000000 0.000000 0.000000 0.049311 0.000000
# 6 0.000000 0.000000 0.000000 0.000000 0.000000 0.026807
#
#
# Mechanical properties :
#
#
# Convention : Reuss Voigt Hill
#
# Bulk Modulus (GPa) = 39.66957 47.39210 43.53084
# Shear Modulus (GPa) = 25.45689 29.07688 27.26689
#
# Velocity S-wave (km/s) = 3.44395 3.68068 3.56428
# Velocity P-wave (km/s) = 5.85637 6.33593 6.10086
#
# Compressibility (1/GPa) = 0.02520824
#
# Stress axis : x y z
#
# Youngs Moduli (GPa) = 63.08251 91.02659 65.83164
#
# Poissons Ratio (x) = 0.61933 0.00629
# Poissons Ratio (y) = 0.42920 0.09945
# Poissons Ratio (z) = 0.00602 0.13751
#
# Static dielectric constant tensor:
#      x y z
#    x 1.826030 0.000000 0.000000 
#    y 0.000000 1.834170 0.000000 
#    z 0.000000 0.000000 1.862920 
# 
# From -- ./inp_files/15091.got.cif
#   From: 2010.05.17/outbox.cif.g08.bks.cpg/sg20_8_cif.got.tgz:15091.got - 2010.06.03 22:52:26.
