data_PCOD9316130
_publ_section_title
;
Structure prediction by ZEFSAII (Michael W. Deem and Ramdas Pophale) SiO2 
 PCOD9316130
Probable space group: P 21 21 21
;
_chemical_formula_sum "Si O2"
_cell_formula_units_Z 24
_cell_length_a 15.000000
_cell_length_b 9.000000
_cell_length_c 9.000000
_cell_angle_alpha 90.000000
_cell_angle_beta 90.000000
_cell_angle_gamma 90.000000
_cell_volume 1215.000000
_symmetry_space_group_name_H-M "P 21 21 21"
_symmetry_group_IT_number 19
_symmetry_cell_setting 'orthorhombic'
loop_
_space_group_symop_operation_xyz
x,y,z
1/2-x,-y,1/2+z
1/2+x,1/2-y,-z
-x,1/2+y,1/2-z
loop_
_atom_site_type_symbol
_atom_site_label
_atom_site_fract_x
_atom_site_fract_y
_atom_site_fract_z
Si Si1 0.111870 0.739510 0.354693
Si Si2 0.959168 0.918891 0.202508
Si Si3 0.968371 0.451287 0.631791
Si Si4 0.221056 0.078902 0.920011
Si Si5 0.291104 0.795386 0.756560
Si Si6 0.891563 0.168671 0.794811
O O1 0.084169 0.583860 0.274377
O O2 0.213435 0.800956 0.340527
O O3 0.102501 0.708965 0.530551
O O4 0.041581 0.866524 0.305448
O O5 0.882924 0.792579 0.219217
O O6 0.000067 0.925135 0.036829
O O7 0.881292 0.559419 0.633666
O O8 0.937619 0.298624 0.702836
O O9 0.051116 0.520572 0.720869
O O10 0.267576 0.919956 0.880655
O O11 0.214465 0.121635 0.095235
O O12 0.211422 0.673866 0.752244
#
# Coordination Sequence:
#
# PCOD9316130 Si02
#       6
#     4   4   4   4   4   4
#     4  10  21  37  60  87 119 154 193 240 295 353
#     4  11  22  39  61  91 121 156 201 247 297 362
#     4  10  21  37  58  82 114 152 198 243 298 356
#     4  10  20  39  61  86 118 157 195 244 299 355
#     4  10  21  38  60  85 119 154 197 243 300 359
#     4   9  21  38  56  83 113 151 192 243 297 353
#
# _framework density 19.753086
#
# number of rings (size 3 to 8) (size 9 to 14) (size 15 to 20)
#    0.000    2.000    0.000    4.000    0.000    6.667 
#    0.000   15.000    0.000    0.000    0.000    0.000 
#    0.000    0.000    0.000    0.000    0.000    0.000 
#
# Total GULP energy -133925.762520 kJ/mol
# GULP energy per Si atom -5580.240105 kJ/mol
# Density = 1.970813 g / cm^3
# Si number density = 19.753086 Si / 1000 Ang^3
#
#
#
# Elastic Constant Matrix: (Units=GPa)
#
#
# Indices 1 2 3 4 5 6 
#
# 1 113.5158 26.6879 21.5369 0.0000 0.0000 0.0000
# 2 26.6879 54.6893 16.1511 0.0000 0.0000 0.0000
# 3 21.5369 16.1511 18.0447 0.0000 0.0000 0.0000
# 4 0.0000 0.0000 0.0000 24.8637 0.0000 0.0000
# 5 0.0000 0.0000 0.0000 0.0000 26.3113 0.0000
# 6 0.0000 0.0000 0.0000 0.0000 0.0000 44.9746
#
#
#
# Elastic Compliance Matrix: (Units=1/GPa)
#
#
# Indices 1 2 3 4 5 6 
#
# 1 0.011568 -0.002131 -0.011900 0.000000 0.000000 0.000000
# 2 -0.002131 0.025248 -0.020055 0.000000 0.000000 0.000000
# 3 -0.011900 -0.020055 0.087571 0.000000 0.000000 0.000000
# 4 0.000000 0.000000 0.000000 0.040219 0.000000 0.000000
# 5 0.000000 0.000000 0.000000 0.000000 0.038006 0.000000
# 6 0.000000 0.000000 0.000000 0.000000 0.000000 0.022235
#
#
# Mechanical properties :
#
#
# Convention : Reuss Voigt Hill
#
# Bulk Modulus (GPa) = 17.78855 35.00019 26.39437
# Shear Modulus (GPa) = 16.03815 27.35486 21.69650
#
# Velocity S-wave (km/s) = 2.85253 3.72538 3.31779
# Velocity P-wave (km/s) = 4.45806 6.02179 5.29793
#
# Compressibility (1/GPa) = 0.05621593
#
# Stress axis : x y z
#
# Youngs Moduli (GPa) = 86.44564 39.60758 11.41929
#
# Poissons Ratio (x) = 0.08440 0.13588
# Poissons Ratio (y) = 0.18420 0.22901
# Poissons Ratio (z) = 1.02866 0.79433
#
# Static dielectric constant tensor:
#      x y z
#    x 1.718130 0.000000 0.000000 
#    y 0.000000 1.704140 0.000000 
#    z 0.000000 0.000000 1.685260 
# 
# From -- ./inp_files/2751.got.cif
#   From: 2010.05.17/outbox.ucp.g08.bks.cvg/sg19_2_cif.got.tgz:2751.got - 2010.06.11 13:13:52.
