data_PCOD9316611
_publ_section_title
;
Structure prediction by ZEFSAII (Michael W. Deem and Ramdas Pophale) SiO2 
 PCOD9316611
Probable space group: C 2 2 21
;
_chemical_formula_sum "Si O2"
_cell_formula_units_Z 48
_cell_length_a 22.239306
_cell_length_b 22.334272
_cell_length_c 5.897819
_cell_angle_alpha 90.000000
_cell_angle_beta 90.000000
_cell_angle_gamma 90.000000
_cell_volume 2929.439085
_symmetry_space_group_name_H-M "C 2 2 21"
_symmetry_group_IT_number 20
_symmetry_cell_setting 'orthorhombic'
loop_
_space_group_symop_operation_xyz
x,y,z
-x,-y,1/2+z
x,-y,-z
-x,y,1/2-z
1/2+x,1/2+y,z
1/2-x,1/2-y,1/2+z
1/2+x,1/2-y,-z
1/2-x,1/2+y,1/2-z
loop_
_atom_site_type_symbol
_atom_site_label
_atom_site_fract_x
_atom_site_fract_y
_atom_site_fract_z
Si Si1 0.681027 0.434602 0.560819
Si Si2 0.849070 0.142933 0.446528
Si Si3 0.341244 0.755846 0.121132
Si Si4 0.530307 0.263065 0.498597
Si Si5 0.438424 0.390924 0.181383
Si Si6 0.757442 0.825729 0.166982
O O1 0.703461 0.500000 0.500000
O O2 0.664381 0.418787 0.817745
O O3 0.617383 0.425440 0.429263
O O4 0.728477 0.383096 0.489110
O O5 0.908566 0.137303 0.594581
O O6 0.793693 0.158096 0.607529
O O7 0.854519 0.197998 0.276178
O O8 0.404631 0.769478 0.006057
O O9 0.291548 0.731193 0.944168
O O10 0.309707 0.806868 0.270308
O O11 0.500000 0.248053 0.250000
O O12 0.543103 0.334562 0.474219
O O13 0.500000 0.252375 0.750000
O O14 0.500000 0.423909 0.250000
#
# Coordination Sequence:
#
# PCOD9316611 Si02
#       6
#     8   8   8   8   8   8
#     4  10  22  37  48  70  99 141 184 234 279 314
#     4  10  18  34  49  71 101 135 176 227 270 322
#     4  11  18  31  51  78 106 132 185 216 276 336
#     4  11  22  33  52  77 114 151 178 220 276 335
#     4  10  20  31  47  70  96 144 189 225 268 308
#     4  10  20  30  53  77  95 140 174 232 276 327
#
# _framework density 16.385389
#
# number of rings (size 3 to 8) (size 9 to 14) (size 15 to 20)
#    0.000    1.667    6.667    2.000    0.000    2.667 
#    3.000    0.000    0.000    0.000    0.000    0.000 
#    0.000    0.000    5.667    0.000    0.000    0.000 
#
# Total GULP energy -133603.599920 kJ/mol
# GULP energy per Si atom -5566.816663 kJ/mol
# Density = 1.634809 g / cm^3
# Si number density = 16.385389 Si / 1000 Ang^3
#
#
#
# Elastic Constant Matrix: (Units=GPa)
#
#
# Indices 1 2 3 4 5 6 
#
# 1 72.1527 27.2441 24.4502 0.0000 0.0000 0.0000
# 2 27.2441 44.1894 7.8066 0.0000 0.0000 0.0000
# 3 24.4502 7.8066 76.3813 0.0000 0.0000 0.0000
# 4 0.0000 0.0000 0.0000 8.9223 0.0000 0.0000
# 5 0.0000 0.0000 0.0000 0.0000 27.2801 0.0000
# 6 0.0000 0.0000 0.0000 0.0000 0.0000 16.3537
#
#
#
# Elastic Compliance Matrix: (Units=1/GPa)
#
#
# Indices 1 2 3 4 5 6 
#
# 1 0.019915 -0.011357 -0.005214 0.000000 0.000000 0.000000
# 2 -0.011357 0.029522 0.000618 0.000000 0.000000 0.000000
# 3 -0.005214 0.000618 0.014698 0.000000 0.000000 0.000000
# 4 0.000000 0.000000 0.000000 0.112078 0.000000 0.000000
# 5 0.000000 0.000000 0.000000 0.000000 0.036657 0.000000
# 6 0.000000 0.000000 0.000000 0.000000 0.000000 0.061148
#
#
# Mechanical properties :
#
#
# Convention : Reuss Voigt Hill
#
# Bulk Modulus (GPa) = 31.02751 34.63615 32.83183
# Shear Modulus (GPa) = 15.78946 19.39274 17.59110
#
# Velocity S-wave (km/s) = 3.10761 3.44399 3.28011
# Velocity P-wave (km/s) = 5.64389 6.08269 5.86739
#
# Compressibility (1/GPa) = 0.03222946
#
# Stress axis : x y z
#
# Youngs Moduli (GPa) = 50.21446 33.87249 68.03593
#
# Poissons Ratio (x) = 0.38468 0.35474
# Poissons Ratio (y) = 0.57028 -0.04205
# Poissons Ratio (z) = 0.26182 -0.02093
#
# Static dielectric constant tensor:
#      x y z
#    x 1.583020 0.000000 0.000000 
#    y 0.000000 1.542140 0.000000 
#    z 0.000000 0.000000 1.645110 
# 
# From -- ./inp_files/2711.got.cif
#   From: 2010.05.17/outbox.cif.g08.bks.cpg/sg20_2_cif.got.tgz:2711.got - 2010.06.03 22:52:26.
