data_PCOD9316964
_publ_section_title
;
Structure prediction by ZEFSAII (Michael W. Deem and Ramdas Pophale) SiO2 
 PCOD9316964
Probable space group: C 2 2 21
;
_chemical_formula_sum "Si O2"
_cell_formula_units_Z 56
_cell_length_a 16.892249
_cell_length_b 17.056828
_cell_length_c 8.711864
_cell_angle_alpha 90.000000
_cell_angle_beta 90.000000
_cell_angle_gamma 90.000000
_cell_volume 2510.133569
_symmetry_space_group_name_H-M "C 2 2 21"
_symmetry_group_IT_number 20
_symmetry_cell_setting 'orthorhombic'
loop_
_space_group_symop_operation_xyz
x,y,z
-x,-y,1/2+z
x,-y,-z
-x,y,1/2-z
1/2+x,1/2+y,z
1/2-x,1/2-y,1/2+z
1/2+x,1/2-y,-z
1/2-x,1/2+y,1/2-z
loop_
_atom_site_type_symbol
_atom_site_label
_atom_site_fract_x
_atom_site_fract_y
_atom_site_fract_z
Si Si1 0.322234 0.133153 0.577149
Si Si2 0.142616 0.090822 0.460533
Si Si3 0.282733 0.297134 0.466959
Si Si4 0.363772 0.444027 0.624931
Si Si5 0.419710 0.890887 0.693739
Si Si6 0.699501 0.011547 0.675094
Si Si7 0.860410 0.759951 0.145290
O O1 0.238126 0.107092 0.492200
O O2 0.322560 0.226066 0.560969
O O3 0.402085 0.110513 0.486365
O O4 0.321940 0.091141 0.739799
O O5 0.110253 0.096338 0.284773
O O6 0.106548 0.160361 0.567726
O O7 0.126790 0.000000 0.500000
O O8 0.319783 0.376643 0.528605
O O9 0.191807 0.284614 0.516062
O O10 0.304308 0.284973 0.289129
O O11 0.409040 0.500000 0.500000
O O12 0.293280 0.499493 0.688040
O O13 0.500000 0.929084 0.750000
O O14 0.414737 0.805855 0.776078
O O15 0.345128 0.940676 0.746569
O O16 0.677857 0.000000 0.500000
#
# Coordination Sequence:
#
# PCOD9316964 Si02
#       7
#     8   8   8   8   8   8   8
#     4  10  20  36  55  79 117 152 191 239 298 333
#     4  11  18  32  54  81 115 143 173 235 300 358
#     4  10  19  32  51  78 111 149 182 240 293 358
#     4  11  20  31  50  83 118 148 182 226 289 356
#     4  11  22  39  56  76 112 157 207 239 276 337
#     4  11  22  33  53  80 115 152 199 240 280 339
#     4  10  21  33  54  83 110 146 191 236 300 343
#
# _framework density 22.309569
#
# number of rings (size 3 to 8) (size 9 to 14) (size 15 to 20)
#    0.000    1.429    4.286    3.000    6.000    2.286 
#    0.000    0.000    0.000    0.000    0.000    8.000 
#    0.000    0.000    0.000    0.000    0.000    0.000 
#
# Total GULP energy -155952.990967 kJ/mol
# GULP energy per Si atom -5569.749677 kJ/mol
# Density = 2.225879 g / cm^3
# Si number density = 22.309569 Si / 1000 Ang^3
#
#
#
# Elastic Constant Matrix: (Units=GPa)
#
#
# Indices 1 2 3 4 5 6 
#
# 1 13.5472 -12.1213 -0.4825 0.0000 0.0000 0.0000
# 2 -12.1213 121.6569 40.4245 0.0000 0.0000 0.0000
# 3 -0.4825 40.4245 130.1464 0.0000 0.0000 0.0000
# 4 0.0000 0.0000 0.0000 51.4970 0.0000 0.0000
# 5 0.0000 0.0000 0.0000 0.0000 6.3664 0.0000
# 6 0.0000 0.0000 0.0000 0.0000 0.0000 -4.4449
#
#
#
# Elastic Compliance Matrix: (Units=1/GPa)
#
#
# Indices 1 2 3 4 5 6 
#
# 1 0.081754 0.008971 -0.002483 0.000000 0.000000 0.000000
# 2 0.008971 0.010150 -0.003119 0.000000 0.000000 0.000000
# 3 -0.002483 -0.003119 0.008643 0.000000 0.000000 0.000000
# 4 0.000000 0.000000 0.000000 0.019419 0.000000 0.000000
# 5 0.000000 0.000000 0.000000 0.000000 0.157075 0.000000
# 6 0.000000 0.000000 0.000000 0.000000 0.000000 -0.224978
#
#
# Mechanical properties :
#
#
# Convention : Reuss Voigt Hill
#
# Bulk Modulus (GPa) = 9.32108 35.66574 22.49341
# Shear Modulus (GPa) = 61.66090 26.51902 44.08996
#
# Velocity S-wave (km/s) = 5.26296 3.45147 4.45036
# Velocity P-wave (km/s) = 6.41240 5.64845 6.04251
#
# Compressibility (1/GPa) = 0.10728365
#
# Stress axis : x y z
#
# Youngs Moduli (GPa) = 12.23180 98.52028 115.69544
#
# Poissons Ratio (x) = -0.88380 0.28731
# Poissons Ratio (y) = -0.10973 0.36091
# Poissons Ratio (z) = 0.03038 0.30733
#
# Static dielectric constant tensor:
#      x y z
#    x 1.843700 0.000000 0.000000 
#    y 0.000000 1.885880 0.000000 
#    z 0.000000 0.000000 2.024370 
# 
# From -- ./inp_files/10314.got.cif
#   From: 2010.05.17/outbox.cif.g08.bks.cpg/sg20_6_cif.got.tgz:10314.got - 2010.06.03 22:52:26.
