data_PCOD9316963
_publ_section_title
;
Structure prediction by ZEFSAII (Michael W. Deem and Ramdas Pophale) SiO2 
 PCOD9316963
Probable space group: C 2 2 21
;
_chemical_formula_sum "Si O2"
_cell_formula_units_Z 56
_cell_length_a 28.221969
_cell_length_b 5.048089
_cell_length_c 19.547773
_cell_angle_alpha 90.000000
_cell_angle_beta 90.000000
_cell_angle_gamma 90.000000
_cell_volume 2784.912796
_symmetry_space_group_name_H-M "C 2 2 21"
_symmetry_group_IT_number 20
_symmetry_cell_setting 'orthorhombic'
loop_
_space_group_symop_operation_xyz
x,y,z
-x,-y,1/2+z
x,-y,-z
-x,y,1/2-z
1/2+x,1/2+y,z
1/2-x,1/2-y,1/2+z
1/2+x,1/2-y,-z
1/2-x,1/2+y,1/2-z
loop_
_atom_site_type_symbol
_atom_site_label
_atom_site_fract_x
_atom_site_fract_y
_atom_site_fract_z
Si Si1 0.565293 0.394203 0.805756
Si Si2 0.627337 0.085680 0.181730
Si Si3 0.220562 0.149106 0.667329
Si Si4 0.374313 0.922941 0.835959
Si Si5 0.402999 0.259906 0.954882
Si Si6 0.776755 0.160149 0.666430
Si Si7 0.540691 0.504518 0.657016
O O1 0.600314 0.639593 0.808965
O O2 0.555971 0.337805 0.724838
O O3 0.515746 0.508625 0.834347
O O4 0.590658 0.143221 0.841766
O O5 0.638773 0.988249 0.259075
O O6 0.675198 0.184283 0.145019
O O7 0.168517 0.229887 0.644163
O O8 0.219994 0.147673 0.750629
O O9 0.260397 0.366242 0.645669
O O10 0.235316 0.858504 0.645581
O O11 0.425027 0.765079 0.839285
O O12 0.373900 0.157660 0.889961
O O13 0.448790 0.374411 0.915850
O O14 0.383400 0.500000 0.000000
O O15 0.411902 0.000000 0.000000
#
# Coordination Sequence:
#
# PCOD9316963 Si02
#       7
#     8   8   8   8   8   8   8
#     4  10  21  32  55  77 107 147 182 216 264 338
#     4  10  19  32  51  77 110 144 177 216 262 322
#     4   9  18  28  48  69 101 142 173 201 246 311
#     4  10  21  35  53  74 108 146 182 213 269 317
#     4  12  24  37  54  73 106 148 182 228 266 311
#     4   9  17  29  44  73 104 136 173 205 245 301
#     4  10  22  36  53  78 108 143 187 217 270 323
#
# _framework density 20.108350000000002
#
# number of rings (size 3 to 8) (size 9 to 14) (size 15 to 20)
#    0.000    2.000    2.857    0.857    4.000    4.571 
#    0.000    0.000    0.000    0.000    0.000    0.000 
#    0.000   17.143    0.000    0.000    0.000    0.000 
#
# Total GULP energy -155877.420706 kJ/mol
# GULP energy per Si atom -5567.050739 kJ/mol
# Density = 2.006258 g / cm^3
# Si number density = 20.108350 Si / 1000 Ang^3
#
#
#
# Elastic Constant Matrix: (Units=GPa)
#
#
# Indices 1 2 3 4 5 6 
#
# 1 76.9023 7.2223 5.1592 0.0000 0.0000 0.0000
# 2 7.2223 86.0749 13.4855 0.0000 0.0000 0.0000
# 3 5.1592 13.4855 22.9896 0.0000 0.0000 0.0000
# 4 0.0000 0.0000 0.0000 17.4951 0.0000 0.0000
# 5 0.0000 0.0000 0.0000 0.0000 6.1829 0.0000
# 6 0.0000 0.0000 0.0000 0.0000 0.0000 28.1806
#
#
#
# Elastic Compliance Matrix: (Units=1/GPa)
#
#
# Indices 1 2 3 4 5 6 
#
# 1 0.013242 -0.000711 -0.002555 0.000000 0.000000 0.000000
# 2 -0.000711 0.012832 -0.007367 0.000000 0.000000 0.000000
# 3 -0.002555 -0.007367 0.048393 0.000000 0.000000 0.000000
# 4 0.000000 0.000000 0.000000 0.057159 0.000000 0.000000
# 5 0.000000 0.000000 0.000000 0.000000 0.161736 0.000000
# 6 0.000000 0.000000 0.000000 0.000000 0.000000 0.035485
#
#
# Mechanical properties :
#
#
# Convention : Reuss Voigt Hill
#
# Bulk Modulus (GPa) = 18.79685 26.41121 22.60403
# Shear Modulus (GPa) = 13.59263 21.04503 17.31883
#
# Velocity S-wave (km/s) = 2.60276 3.23860 2.93793
# Velocity P-wave (km/s) = 4.28959 5.21034 4.77222
#
# Compressibility (1/GPa) = 0.05320039
#
# Stress axis : x y z
#
# Youngs Moduli (GPa) = 75.51928 77.93198 20.66418
#
# Poissons Ratio (x) = 0.05540 0.05279
# Poissons Ratio (y) = 0.05368 0.15224
# Poissons Ratio (z) = 0.19293 0.57416
#
# Static dielectric constant tensor:
#      x y z
#    x 1.815320 0.000000 0.000000 
#    y 0.000000 1.781490 0.000000 
#    z 0.000000 0.000000 1.730530 
# 
# From -- ./inp_files/28066.got.cif
#   From: 2010.05.17/outbox.cif.g08.bks.cpg/sg20_15_cif.got.tgz:28066.got - 2010.06.03 22:52:26.
