data_PCOD9316807
_publ_section_title
;
Structure prediction by ZEFSAII (Michael W. Deem and Ramdas Pophale) SiO2 
 PCOD9316807
Probable space group: C 2 2 21
;
_chemical_formula_sum "Si O2"
_cell_formula_units_Z 64
_cell_length_a 29.199335
_cell_length_b 9.056281
_cell_length_c 11.673438
_cell_angle_alpha 90.000000
_cell_angle_beta 90.000000
_cell_angle_gamma 90.000000
_cell_volume 3086.893393
_symmetry_space_group_name_H-M "C 2 2 21"
_symmetry_group_IT_number 20
_symmetry_cell_setting 'orthorhombic'
loop_
_space_group_symop_operation_xyz
x,y,z
-x,-y,1/2+z
x,-y,-z
-x,y,1/2-z
1/2+x,1/2+y,z
1/2-x,1/2-y,1/2+z
1/2+x,1/2-y,-z
1/2-x,1/2+y,1/2-z
loop_
_atom_site_type_symbol
_atom_site_label
_atom_site_fract_x
_atom_site_fract_y
_atom_site_fract_z
Si Si1 0.672153 0.812188 0.421619
Si Si2 0.389417 0.180069 0.511769
Si Si3 0.049133 0.215314 0.224443
Si Si4 0.309004 0.383027 0.599891
Si Si5 0.709771 0.095859 0.331912
Si Si6 0.622936 0.773680 0.753881
Si Si7 0.134575 0.035341 0.310387
Si Si8 0.425496 0.969126 0.120839
O O1 0.690614 0.841390 0.547562
O O2 0.665607 0.641649 0.388572
O O3 0.621803 0.883411 0.409405
O O4 0.703329 0.917871 0.340261
O O5 0.428553 0.239912 0.600691
O O6 0.340613 0.245368 0.559518
O O7 0.394510 0.246170 0.383662
O O8 0.389585 0.000000 0.500000
O O9 0.087009 0.115453 0.286477
O O10 0.046624 0.365459 0.296618
O O11 0.000000 0.143004 0.250000
O O12 0.297786 0.500000 0.500000
O O13 0.261855 0.352081 0.666604
O O14 0.340232 0.469877 0.688776
O O15 0.674426 0.158289 0.239032
O O16 0.625325 0.634599 0.668147
O O17 0.590461 0.889814 0.691039
O O18 0.449017 0.000000 0.000000
#
# Coordination Sequence:
#
# PCOD9316807 Si02
#       8
#     8   8   8   8   8   8   8   8
#     4   9  17  36  57  80 119 171 214 262 307 369
#     4  11  23  42  67  95 131 171 220 269 338 403
#     4  10  23  43  69  94 122 161 210 268 337 412
#     4  11  21  38  58  91 132 180 216 272 327 376
#     4  10  20  35  60  84 126 174 229 263 300 374
#     4  11  21  39  64  93 129 174 214 272 325 389
#     4  10  23  37  62  90 126 168 211 269 347 387
#     4  10  18  38  65  88 121 167 208 260 329 383
#
# _framework density 20.73282
#
# number of rings (size 3 to 8) (size 9 to 14) (size 15 to 20)
#    0.000    1.750    6.250    0.000    1.750    3.000 
#    2.250    0.625    2.750    0.000    0.000    0.000 
#    0.000    0.000    0.000    0.000    0.000    0.000 
#
# Total GULP energy -178304.670512 kJ/mol
# GULP energy per Si atom -5572.020953 kJ/mol
# Density = 2.068563 g / cm^3
# Si number density = 20.732820 Si / 1000 Ang^3
#
#
#
# Elastic Constant Matrix: (Units=GPa)
#
#
# Indices 1 2 3 4 5 6 
#
# 1 94.2145 2.5107 24.8423 0.0000 0.0000 0.0000
# 2 2.5107 58.2199 0.7003 0.0000 0.0000 0.0000
# 3 24.8423 0.7003 72.3444 0.0000 0.0000 0.0000
# 4 0.0000 0.0000 0.0000 27.6278 0.0000 0.0000
# 5 0.0000 0.0000 0.0000 0.0000 13.6650 0.0000
# 6 0.0000 0.0000 0.0000 0.0000 0.0000 8.5189
#
#
#
# Elastic Compliance Matrix: (Units=1/GPa)
#
#
# Indices 1 2 3 4 5 6 
#
# 1 0.011683 -0.000456 -0.004007 0.000000 0.000000 0.000000
# 2 -0.000456 0.017196 -0.000010 0.000000 0.000000 0.000000
# 3 -0.004007 -0.000010 0.015199 0.000000 0.000000 0.000000
# 4 0.000000 0.000000 0.000000 0.036195 0.000000 0.000000
# 5 0.000000 0.000000 0.000000 0.000000 0.073180 0.000000
# 6 0.000000 0.000000 0.000000 0.000000 0.000000 0.117386
#
#
# Mechanical properties :
#
#
# Convention : Reuss Voigt Hill
#
# Bulk Modulus (GPa) = 28.46419 31.20950 29.83685
# Shear Modulus (GPa) = 17.15291 23.07737 20.11514
#
# Velocity S-wave (km/s) = 2.87946 3.33991 3.11820
# Velocity P-wave (km/s) = 4.98135 5.47350 5.23322
#
# Compressibility (1/GPa) = 0.03513186
#
# Stress axis : x y z
#
# Youngs Moduli (GPa) = 85.59535 58.15301 65.79395
#
# Poissons Ratio (x) = 0.02650 0.26366
# Poissons Ratio (y) = 0.03900 0.00066
# Poissons Ratio (z) = 0.34301 0.00058
#
# Static dielectric constant tensor:
#      x y z
#    x 1.761720 0.000000 0.000000 
#    y 0.000000 1.814210 0.000000 
#    z 0.000000 0.000000 1.765660 
# 
# From -- ./inp_files/17230.got.cif
#   From: 2010.05.17/outbox.cif.g08.bks.cpg/sg20_9_cif.got.tgz:17230.got - 2010.06.03 22:52:26.
