data_PCOD9316554
_publ_section_title
;
Structure prediction by ZEFSAII (Michael W. Deem and Ramdas Pophale) SiO2 
 PCOD9316554
Probable space group: C 2 2 21
;
_chemical_formula_sum "Si O2"
_cell_formula_units_Z 60
_cell_length_a 27.254780
_cell_length_b 8.121941
_cell_length_c 14.787296
_cell_angle_alpha 90.000000
_cell_angle_beta 90.000000
_cell_angle_gamma 90.000000
_cell_volume 3273.341205
_symmetry_space_group_name_H-M "C 2 2 21"
_symmetry_group_IT_number 20
_symmetry_cell_setting 'orthorhombic'
loop_
_space_group_symop_operation_xyz
x,y,z
-x,-y,1/2+z
x,-y,-z
-x,y,1/2-z
1/2+x,1/2+y,z
1/2-x,1/2-y,1/2+z
1/2+x,1/2-y,-z
1/2-x,1/2+y,1/2-z
loop_
_atom_site_type_symbol
_atom_site_label
_atom_site_fract_x
_atom_site_fract_y
_atom_site_fract_z
Si Si1 0.279681 0.662441 0.788015
Si Si2 0.451876 0.972802 0.693137
Si Si3 0.118789 0.843671 0.179313
Si Si4 0.201143 0.795546 0.653612
Si Si5 0.645983 0.730599 0.019925
Si Si6 0.437901 0.000000 0.500000
Si Si7 0.254221 0.190247 0.024194
Si Si8 0.611273 0.301928 0.780202
O O1 0.331094 0.681579 0.735472
O O2 0.236839 0.683669 0.714799
O O3 0.280134 0.480461 0.829693
O O4 0.271314 0.783438 0.873079
O O5 0.500000 0.942313 0.750000
O O6 0.413492 0.820678 0.693461
O O7 0.468678 0.983675 0.589321
O O8 0.425501 0.147090 0.716910
O O9 0.091904 0.009415 0.215359
O O10 0.133584 0.870004 0.072834
O O11 0.206618 0.751429 0.548988
O O12 0.147035 0.782895 0.694972
O O13 0.702455 0.782798 0.006897
O O14 0.644298 0.696089 0.127923
O O15 0.600381 0.853553 0.013879
O O16 0.243534 0.000000 0.000000
#
# Coordination Sequence:
#
# PCOD9316554 Si02
#       8
#     8   8   8   8   8   4   8   8
#     4  11  23  35  53  80 117 159 196 232 285 350
#     4  10  22  40  64  86 112 146 198 248 302 348
#     4  10  21  37  58  85 119 152 190 242 293 348
#     4  11  23  35  53  80 117 159 196 232 285 350
#     4  10  18  32  55  84 115 150 186 242 290 336
#     4   8  20  36  58  86 110 138 192 246 304 334
#     4  12  23  33  51  79 117 159 203 233 279 341
#     4  10  21  37  58  85 119 152 190 242 293 348
#
# _framework density 18.329895
#
# number of rings (size 3 to 8) (size 9 to 14) (size 15 to 20)
#    0.000    1.600    2.667    2.400    5.600    0.533 
#    0.000    1.333    0.000    0.000    0.000    0.000 
#    0.000    0.000    0.000    0.000    0.000    0.000 
#
# Total GULP energy -167034.360331 kJ/mol
# GULP energy per Si atom -5567.812011 kJ/mol
# Density = 1.828818 g / cm^3
# Si number density = 18.329895 Si / 1000 Ang^3
#
#
#
# Elastic Constant Matrix: (Units=GPa)
#
#
# Indices 1 2 3 4 5 6 
#
# 1 36.4591 13.6023 23.6913 0.0000 0.0000 0.0000
# 2 13.6023 54.6820 5.8096 0.0000 0.0000 0.0000
# 3 23.6913 5.8096 90.9918 0.0000 0.0000 0.0000
# 4 0.0000 0.0000 0.0000 24.3928 0.0000 0.0000
# 5 0.0000 0.0000 0.0000 0.0000 29.9562 0.0000
# 6 0.0000 0.0000 0.0000 0.0000 0.0000 12.7406
#
#
#
# Elastic Compliance Matrix: (Units=1/GPa)
#
#
# Indices 1 2 3 4 5 6 
#
# 1 0.036233 -0.008065 -0.008919 0.000000 0.000000 0.000000
# 2 -0.008065 0.020208 0.000810 0.000000 0.000000 0.000000
# 3 -0.008919 0.000810 0.013260 0.000000 0.000000 0.000000
# 4 0.000000 0.000000 0.000000 0.040996 0.000000 0.000000
# 5 0.000000 0.000000 0.000000 0.000000 0.033382 0.000000
# 6 0.000000 0.000000 0.000000 0.000000 0.000000 0.078489
#
#
# Mechanical properties :
#
#
# Convention : Reuss Voigt Hill
#
# Bulk Modulus (GPa) = 26.77239 29.81548 28.29394
# Shear Modulus (GPa) = 18.70088 22.68658 20.69373
#
# Velocity S-wave (km/s) = 3.19758 3.52189 3.36365
# Velocity P-wave (km/s) = 5.31698 5.73059 5.52765
#
# Compressibility (1/GPa) = 0.03735191
#
# Stress axis : x y z
#
# Youngs Moduli (GPa) = 27.59950 49.48587 75.41207
#
# Poissons Ratio (x) = 0.39912 0.67259
# Poissons Ratio (y) = 0.22260 -0.06106
# Poissons Ratio (z) = 0.24616 -0.04007
#
# Static dielectric constant tensor:
#      x y z
#    x 1.564310 0.000000 0.000000 
#    y 0.000000 1.713330 0.000000 
#    z 0.000000 0.000000 1.641620 
# 
# From -- ./inp_files/22000.got.cif
#   From: 2010.05.17/outbox.cif.g08.bks.cpg/sg20_11_cif.got.tgz:22000.got - 2010.06.03 22:52:26.
