data_PCOD9316702
_publ_section_title
;
Structure prediction by ZEFSAII (Michael W. Deem and Ramdas Pophale) SiO2 
 PCOD9316702
Probable space group: C 2 2 21
;
_chemical_formula_sum "Si O2"
_cell_formula_units_Z 44
_cell_length_a 9.373446
_cell_length_b 16.151974
_cell_length_c 13.435625
_cell_angle_alpha 90.000000
_cell_angle_beta 90.000000
_cell_angle_gamma 90.000000
_cell_volume 2034.149004
_symmetry_space_group_name_H-M "C 2 2 21"
_symmetry_group_IT_number 20
_symmetry_cell_setting 'orthorhombic'
loop_
_space_group_symop_operation_xyz
x,y,z
-x,-y,1/2+z
x,-y,-z
-x,y,1/2-z
1/2+x,1/2+y,z
1/2-x,1/2-y,1/2+z
1/2+x,1/2-y,-z
1/2-x,1/2+y,1/2-z
loop_
_atom_site_type_symbol
_atom_site_label
_atom_site_fract_x
_atom_site_fract_y
_atom_site_fract_z
Si Si1 0.016879 0.500000 0.000000
Si Si2 0.184156 0.381654 0.850503
Si Si3 0.291078 0.187669 0.151905
Si Si4 0.037509 0.205158 0.888794
Si Si5 0.967478 0.199440 0.118982
Si Si6 0.182729 0.634978 0.580217
O O1 0.115081 0.446698 0.925031
O O2 0.913829 0.554403 0.929074
O O3 0.156194 0.380146 0.731664
O O4 0.122715 0.292419 0.886331
O O5 0.354681 0.372617 0.858020
O O6 0.390406 0.269607 0.167518
O O7 0.123036 0.199423 0.167767
O O8 0.304725 0.160525 0.037381
O O9 0.158677 0.135243 0.871784
O O10 0.990273 0.189890 0.001094
O O11 0.900954 0.290402 0.132423
#
# Coordination Sequence:
#
# PCOD9316702 Si02
#       6
#     4   8   8   8   8   8
#     4  12  22  36  60  94 138 174 210 256 330 410
#     4  11  21  34  62  93 124 171 213 259 326 384
#     4  10  18  35  66  89 121 154 219 273 313 370
#     4   9  18  35  63  88 112 162 222 256 309 386
#     4   9  18  36  61  94 116 163 223 259 310 395
#     4   9  20  36  61  88 124 163 209 253 326 386
#
# _framework density 21.630668
#
# number of rings (size 3 to 8) (size 9 to 14) (size 15 to 20)
#    0.000    2.182    3.636    2.182    0.000    0.000 
#    0.000    3.636   16.000    0.000    0.000    0.000 
#    0.000    0.000    0.000    0.000    0.000    0.000 
#
# Total GULP energy -122496.712831 kJ/mol
# GULP energy per Si atom -5568.032401 kJ/mol
# Density = 2.158144 g / cm^3
# Si number density = 21.630668 Si / 1000 Ang^3
#
#
#
# Elastic Constant Matrix: (Units=GPa)
#
#
# Indices 1 2 3 4 5 6 
#
# 1 191.7277 51.8618 26.4456 0.0000 0.0000 0.0000
# 2 51.8618 69.1901 26.5038 0.0000 0.0000 0.0000
# 3 26.4456 26.5038 100.8416 0.0000 0.0000 0.0000
# 4 0.0000 0.0000 0.0000 26.4884 0.0000 0.0000
# 5 0.0000 0.0000 0.0000 0.0000 22.5334 0.0000
# 6 0.0000 0.0000 0.0000 0.0000 0.0000 28.9407
#
#
#
# Elastic Compliance Matrix: (Units=1/GPa)
#
#
# Indices 1 2 3 4 5 6 
#
# 1 0.006563 -0.004737 -0.000476 0.000000 0.000000 0.000000
# 2 -0.004737 0.019490 -0.003880 0.000000 0.000000 0.000000
# 3 -0.000476 -0.003880 0.011061 0.000000 0.000000 0.000000
# 4 0.000000 0.000000 0.000000 0.037752 0.000000 0.000000
# 5 0.000000 0.000000 0.000000 0.000000 0.044379 0.000000
# 6 0.000000 0.000000 0.000000 0.000000 0.000000 0.034553
#
#
# Mechanical properties :
#
#
# Convention : Reuss Voigt Hill
#
# Bulk Modulus (GPa) = 52.83307 63.48685 58.15996
# Shear Modulus (GPa) = 28.04369 32.72237 30.38303
#
# Velocity S-wave (km/s) = 3.60457 3.89366 3.75190
# Velocity P-wave (km/s) = 6.46545 7.04473 6.76130
#
# Compressibility (1/GPa) = 0.01892754
#
# Stress axis : x y z
#
# Youngs Moduli (GPa) = 152.37702 51.30916 90.40591
#
# Poissons Ratio (x) = 0.24304 0.04304
# Poissons Ratio (y) = 0.72176 0.35079
# Poissons Ratio (z) = 0.07255 0.19909
#
# Static dielectric constant tensor:
#      x y z
#    x 1.909310 0.000000 0.000000 
#    y 0.000000 1.749410 0.000000 
#    z 0.000000 0.000000 1.840150 
# 
# From -- ./inp_files/18775.got.cif
#   From: 2010.05.17/outbox.cif.g08.bks.cpg/sg20_10_cif.got.tgz:18775.got - 2010.06.03 22:52:26.
