data_PCOD9316825
_publ_section_title
;
Structure prediction by ZEFSAII (Michael W. Deem and Ramdas Pophale) SiO2 
 PCOD9316825
Probable space group: C 2 2 21
;
_chemical_formula_sum "Si O2"
_cell_formula_units_Z 44
_cell_length_a 12.171320
_cell_length_b 16.229012
_cell_length_c 9.700895
_cell_angle_alpha 90.000000
_cell_angle_beta 90.000000
_cell_angle_gamma 90.000000
_cell_volume 1916.203222
_symmetry_space_group_name_H-M "C 2 2 21"
_symmetry_group_IT_number 20
_symmetry_cell_setting 'orthorhombic'
loop_
_space_group_symop_operation_xyz
x,y,z
-x,-y,1/2+z
x,-y,-z
-x,y,1/2-z
1/2+x,1/2+y,z
1/2-x,1/2-y,1/2+z
1/2+x,1/2-y,-z
1/2-x,1/2+y,1/2-z
loop_
_atom_site_type_symbol
_atom_site_label
_atom_site_fract_x
_atom_site_fract_y
_atom_site_fract_z
Si Si1 0.919990 0.500000 0.000000
Si Si2 0.198000 0.113826 0.285830
Si Si3 0.950855 0.760646 0.894560
Si Si4 0.245107 0.349069 0.476681
Si Si5 0.396733 0.540954 0.652854
Si Si6 0.561163 0.147684 0.113786
O O1 0.834275 0.570878 0.953842
O O2 0.001749 0.440542 0.915383
O O3 0.088059 0.145118 0.364978
O O4 0.310781 0.129863 0.365681
O O5 0.182392 0.019810 0.239386
O O6 0.214934 0.157336 0.135079
O O7 0.831882 0.724053 0.931639
O O8 0.000000 0.731652 0.750000
O O9 0.032318 0.717567 0.002231
O O10 0.345908 0.370275 0.379209
O O11 0.413731 0.500000 0.500000
O O12 0.500000 0.549112 0.750000
O O13 0.500000 0.178228 0.250000
#
# Coordination Sequence:
#
# PCOD9316825 Si02
#       6
#     4   8   8   8   8   8
#     4  10  18  38  70 102 122 168 232 292 330 396
#     4  11  22  44  70  96 139 184 226 280 346 417
#     4  11  26  41  65 103 139 177 235 289 340 411
#     4  10  20  44  71  95 137 184 229 283 344 405
#     4  10  21  43  71 100 135 181 231 285 348 408
#     4  11  22  41  71  99 133 183 229 282 356 403
#
# _framework density 22.962074000000001
#
# number of rings (size 3 to 8) (size 9 to 14) (size 15 to 20)
#    0.000    1.455    6.364    0.545    2.545    5.818 
#    4.909    4.545    0.000    0.000    0.000    0.000 
#    0.000    0.000    0.000    0.000    0.000    0.000 
#
# Total GULP energy -122647.043823 kJ/mol
# GULP energy per Si atom -5574.865628 kJ/mol
# Density = 2.290981 g / cm^3
# Si number density = 22.962074 Si / 1000 Ang^3
#
#
#
# Elastic Constant Matrix: (Units=GPa)
#
#
# Indices 1 2 3 4 5 6 
#
# 1 113.7037 15.9468 50.0304 0.0000 0.0000 0.0000
# 2 15.9468 66.5517 29.1337 0.0000 0.0000 0.0000
# 3 50.0304 29.1337 98.6856 0.0000 0.0000 0.0000
# 4 0.0000 0.0000 0.0000 29.3126 0.0000 0.0000
# 5 0.0000 0.0000 0.0000 0.0000 50.7031 0.0000
# 6 0.0000 0.0000 0.0000 0.0000 0.0000 49.4769
#
#
#
# Elastic Compliance Matrix: (Units=1/GPa)
#
#
# Indices 1 2 3 4 5 6 
#
# 1 0.011323 -0.000230 -0.005672 0.000000 0.000000 0.000000
# 2 -0.000230 0.017261 -0.004979 0.000000 0.000000 0.000000
# 3 -0.005672 -0.004979 0.014479 0.000000 0.000000 0.000000
# 4 0.000000 0.000000 0.000000 0.034115 0.000000 0.000000
# 5 0.000000 0.000000 0.000000 0.000000 0.019723 0.000000
# 6 0.000000 0.000000 0.000000 0.000000 0.000000 0.020211
#
#
# Mechanical properties :
#
#
# Convention : Reuss Voigt Hill
#
# Bulk Modulus (GPa) = 46.94954 52.12919 49.53937
# Shear Modulus (GPa) = 34.25258 38.15387 36.20323
#
# Velocity S-wave (km/s) = 3.86645 4.08070 3.97502
# Velocity P-wave (km/s) = 6.35795 6.70480 6.53368
#
# Compressibility (1/GPa) = 0.02129946
#
# Stress axis : x y z
#
# Youngs Moduli (GPa) = 88.31595 57.93526 69.06622
#
# Poissons Ratio (x) = 0.01332 0.39178
# Poissons Ratio (y) = 0.02031 0.34388
# Poissons Ratio (z) = 0.50097 0.28846
#
# Static dielectric constant tensor:
#      x y z
#    x 1.919160 0.000000 0.000000 
#    y 0.000000 1.977080 0.000000 
#    z 0.000000 0.000000 1.773480 
# 
# From -- ./inp_files/8323.got.cif
#   From: 2010.05.17/outbox.cif.g08.bks.cpg/sg20_5_cif.got.tgz:8323.got - 2010.06.03 22:52:26.
