data_PCOD9316276
_publ_section_title
;
Structure prediction by ZEFSAII (Michael W. Deem and Ramdas Pophale) SiO2 
 PCOD9316276
Probable space group: C 2 2 21
;
_chemical_formula_sum "Si O2"
_cell_formula_units_Z 44
_cell_length_a 17.836715
_cell_length_b 7.010741
_cell_length_c 15.358776
_cell_angle_alpha 90.000000
_cell_angle_beta 90.000000
_cell_angle_gamma 90.000000
_cell_volume 1920.593270
_symmetry_space_group_name_H-M "C 2 2 21"
_symmetry_group_IT_number 20
_symmetry_cell_setting 'orthorhombic'
loop_
_space_group_symop_operation_xyz
x,y,z
-x,-y,1/2+z
x,-y,-z
-x,y,1/2-z
1/2+x,1/2+y,z
1/2-x,1/2-y,1/2+z
1/2+x,1/2-y,-z
1/2-x,1/2+y,1/2-z
loop_
_atom_site_type_symbol
_atom_site_label
_atom_site_fract_x
_atom_site_fract_y
_atom_site_fract_z
Si Si1 0.036997 0.723809 0.474321
Si Si2 0.412776 0.872094 0.642930
Si Si3 0.626737 0.721968 0.353740
Si Si4 0.154506 0.329369 0.671236
Si Si5 0.500000 0.175384 0.750000
Si Si6 0.756090 0.459220 0.400426
O O1 0.035322 0.500000 0.500000
O O2 0.074457 0.813145 0.560833
O O3 0.096226 0.757635 0.397609
O O4 0.955524 0.756795 0.428983
O O5 0.377369 0.786736 0.732274
O O6 0.342365 0.986558 0.605692
O O7 0.473920 0.028433 0.675052
O O8 0.569874 0.697278 0.274753
O O9 0.701324 0.600772 0.348604
O O10 0.651306 0.943905 0.345347
O O11 0.233872 0.243121 0.641130
O O12 0.734235 0.500000 0.500000
#
# Coordination Sequence:
#
# PCOD9316276 Si02
#       6
#     8   8   8   8   4   8
#     4  10  16  37  68  86 118 171 210 249 312 381
#     4  11  21  38  65  97 120 170 211 257 319 379
#     4  10  22  42  65  91 124 173 211 263 323 376
#     4  10  22  41  64  87 129 165 208 261 320 373
#     4  10  20  40  64  86 124 168 212 250 314 384
#     4  12  26  39  64  99 126 163 217 265 320 375
#
# _framework density 22.909586999999998
#
# number of rings (size 3 to 8) (size 9 to 14) (size 15 to 20)
#    0.000    1.455    7.273    0.545    5.091    0.000 
#    3.273    0.000    0.000    2.182    0.000    0.000 
#    0.000    0.000    0.000    0.000    0.000    0.000 
#
# Total GULP energy -122724.027970 kJ/mol
# GULP energy per Si atom -5578.364908 kJ/mol
# Density = 2.285744 g / cm^3
# Si number density = 22.909587 Si / 1000 Ang^3
#
#
#
# Elastic Constant Matrix: (Units=GPa)
#
#
# Indices 1 2 3 4 5 6 
#
# 1 108.1982 16.1848 -1.5798 0.0000 0.0000 0.0000
# 2 16.1848 48.6175 11.9756 0.0000 0.0000 0.0000
# 3 -1.5798 11.9756 67.4055 0.0000 0.0000 0.0000
# 4 0.0000 0.0000 0.0000 15.0324 0.0000 0.0000
# 5 0.0000 0.0000 0.0000 0.0000 31.6297 0.0000
# 6 0.0000 0.0000 0.0000 0.0000 0.0000 27.4080
#
#
#
# Elastic Compliance Matrix: (Units=1/GPa)
#
#
# Indices 1 2 3 4 5 6 
#
# 1 0.009772 -0.003461 0.000844 0.000000 0.000000 0.000000
# 2 -0.003461 0.022736 -0.004121 0.000000 0.000000 0.000000
# 3 0.000844 -0.004121 0.015587 0.000000 0.000000 0.000000
# 4 0.000000 0.000000 0.000000 0.066523 0.000000 0.000000
# 5 0.000000 0.000000 0.000000 0.000000 0.031616 0.000000
# 6 0.000000 0.000000 0.000000 0.000000 0.000000 0.036486
#
#
# Mechanical properties :
#
#
# Convention : Reuss Voigt Hill
#
# Bulk Modulus (GPa) = 28.88472 30.82028 29.85250
# Shear Modulus (GPa) = 24.06907 27.99007 26.02957
#
# Velocity S-wave (km/s) = 3.24483 3.49916 3.37439
# Velocity P-wave (km/s) = 5.16469 5.45965 5.31422
#
# Compressibility (1/GPa) = 0.03462038
#
# Stress axis : x y z
#
# Youngs Moduli (GPa) = 102.32959 43.98326 64.15422
#
# Poissons Ratio (x) = 0.15223 -0.05414
# Poissons Ratio (y) = 0.35417 0.26435
# Poissons Ratio (z) = -0.08636 0.18123
#
# Static dielectric constant tensor:
#      x y z
#    x 1.850270 0.000000 0.000000 
#    y 0.000000 1.910800 0.000000 
#    z 0.000000 0.000000 1.941800 
# 
# From -- ./inp_files/21231.got.cif
#   From: 2010.05.17/outbox.cif.g08.bks.cpg/sg20_11_cif.got.tgz:21231.got - 2010.06.03 22:52:26.
