data_PCOD9316165
_publ_section_title
;
Structure prediction by ZEFSAII (Michael W. Deem and Ramdas Pophale) SiO2 
 PCOD9316165
Probable space group: P 21 21 21
;
_chemical_formula_sum "Si O2"
_cell_formula_units_Z 32
_cell_length_a 12.000000
_cell_length_b 21.000000
_cell_length_c 6.000000
_cell_angle_alpha 90.000000
_cell_angle_beta 90.000000
_cell_angle_gamma 90.000000
_cell_volume 1512.000000
_symmetry_space_group_name_H-M "P 21 21 21"
_symmetry_group_IT_number 19
_symmetry_cell_setting 'orthorhombic'
loop_
_space_group_symop_operation_xyz
x,y,z
1/2-x,-y,1/2+z
1/2+x,1/2-y,-z
-x,1/2+y,1/2-z
loop_
_atom_site_type_symbol
_atom_site_label
_atom_site_fract_x
_atom_site_fract_y
_atom_site_fract_z
Si Si1 0.943520 0.281465 0.604197
Si Si2 0.739577 0.915502 0.810756
Si Si3 0.166800 0.289815 0.894820
Si Si4 0.039593 0.635985 0.974081
Si Si5 0.938108 0.598293 0.476658
Si Si6 0.414530 0.514592 0.926341
Si Si7 0.209175 0.833576 0.544415
Si Si8 0.516191 0.135541 0.799322
O O1 0.932841 0.210578 0.511398
O O2 0.829695 0.302735 0.722988
O O3 0.972904 0.335690 0.429984
O O4 0.052950 0.277192 0.760634
O O5 0.762179 0.846762 0.707984
O O6 0.653654 0.905055 0.015563
O O7 0.857274 0.944390 0.881501
O O8 0.677119 0.962619 0.643763
O O9 0.240346 0.226873 0.912431
O O10 0.116244 0.318310 0.123321
O O11 0.983529 0.620852 0.223852
O O12 0.983261 0.624505 0.724213
O O13 0.808214 0.615564 0.460430
O O14 0.975544 0.524862 0.485658
O O15 0.440127 0.564332 0.730248
O O16 0.092740 0.860718 0.453745
#
# Coordination Sequence:
#
# PCOD9316165 Si02
#       8
#     4   4   4   4   4   4   4   4
#     4  11  24  42  70 104 142 182 236 304 361 435
#     4  11  23  41  72 106 137 193 236 303 369 412
#     4  11  23  43  72 105 142 177 242 304 368 429
#     4  11  25  43  73 110 142 181 242 305 364 429
#     4  11  26  48  69 104 146 194 243 294 355 440
#     4  11  24  44  67 103 142 190 244 296 348 444
#     4  11  26  43  72 103 144 191 236 298 375 428
#     4  11  25  44  65 107 141 186 243 298 358 437
#
# _framework density 21.164021000000002
#
# number of rings (size 3 to 8) (size 9 to 14) (size 15 to 20)
#    0.000    1.000    2.500    3.000    8.750    3.000 
#    2.250    0.000    0.000    0.000    0.000    0.000 
#    0.000    0.000    0.000    0.000    0.000    0.000 
#
# Total GULP energy -178438.137469 kJ/mol
# GULP energy per Si atom -5576.191796 kJ/mol
# Density = 2.111585 g / cm^3
# Si number density = 21.164021 Si / 1000 Ang^3
#
#
#
# Elastic Constant Matrix: (Units=GPa)
#
#
# Indices 1 2 3 4 5 6 
#
# 1 33.9713 -0.9000 5.9592 0.0000 0.0000 0.0000
# 2 -0.9000 50.7966 -11.5561 0.0000 0.0000 0.0000
# 3 5.9592 -11.5561 66.3090 0.0000 0.0000 0.0000
# 4 0.0000 0.0000 0.0000 16.6732 0.0000 0.0000
# 5 0.0000 0.0000 0.0000 0.0000 21.5888 0.0000
# 6 0.0000 0.0000 0.0000 0.0000 0.0000 38.7176
#
#
#
# Elastic Compliance Matrix: (Units=1/GPa)
#
#
# Indices 1 2 3 4 5 6 
#
# 1 0.029908 -0.000085 -0.002703 0.000000 0.000000 0.000000
# 2 -0.000085 0.020499 0.003580 0.000000 0.000000 0.000000
# 3 -0.002703 0.003580 0.015948 0.000000 0.000000 0.000000
# 4 0.000000 0.000000 0.000000 0.059977 0.000000 0.000000
# 5 0.000000 0.000000 0.000000 0.000000 0.046320 0.000000
# 6 0.000000 0.000000 0.000000 0.000000 0.000000 0.025828
#
#
# Mechanical properties :
#
#
# Convention : Reuss Voigt Hill
#
# Bulk Modulus (GPa) = 14.71871 15.34255 15.03063
# Shear Modulus (GPa) = 22.77468 25.90084 24.33776
#
# Velocity S-wave (km/s) = 3.28396 3.50210 3.39478
# Velocity P-wave (km/s) = 4.62049 4.85984 4.74167
#
# Compressibility (1/GPa) = 0.06794073
#
# Stress axis : x y z
#
# Youngs Moduli (GPa) = 33.43537 48.78205 62.70477
#
# Poissons Ratio (x) = 0.00414 0.16947
# Poissons Ratio (y) = 0.00284 -0.22450
# Poissons Ratio (z) = 0.09036 -0.17465
#
# Static dielectric constant tensor:
#      x y z
#    x 1.757670 0.000000 0.000000 
#    y 0.000000 1.785590 0.000000 
#    z 0.000000 0.000000 1.860690 
# 
# From -- ./inp_files/1214.got.cif
#   From: 2010.05.17/outbox.ucp.g08.bks.cvg/sg19_1_cif.got.tgz:1214.got - 2010.06.11 13:13:52.
