data_PCOD9316057
_publ_section_title
;
Structure prediction by ZEFSAII (Michael W. Deem and Ramdas Pophale) SiO2 
 PCOD9316057
Probable space group: P 21 21 21
;
_chemical_formula_sum "Si O2"
_cell_formula_units_Z 24
_cell_length_a 7.265989
_cell_length_b 27.167634
_cell_length_c 5.261777
_cell_angle_alpha 90.000000
_cell_angle_beta 90.000000
_cell_angle_gamma 90.000000
_cell_volume 1038.673358
_symmetry_space_group_name_H-M "P 21 21 21"
_symmetry_group_IT_number 19
_symmetry_cell_setting 'orthorhombic'
loop_
_space_group_symop_operation_xyz
x,y,z
1/2-x,-y,1/2+z
1/2+x,1/2-y,-z
-x,1/2+y,1/2-z
loop_
_atom_site_type_symbol
_atom_site_label
_atom_site_fract_x
_atom_site_fract_y
_atom_site_fract_z
Si Si1 0.371299 0.007487 0.960092
Si Si2 0.871788 0.673968 0.052817
Si Si3 0.627566 0.099138 0.916779
Si Si4 0.865650 0.084376 0.424771
Si Si5 0.050538 0.810181 0.612351
Si Si6 0.699732 0.759352 0.745829
O O1 0.266471 0.995264 0.221409
O O2 0.531913 0.967618 0.913651
O O3 0.467186 0.060457 0.976873
O O4 0.716228 0.661087 0.258244
O O5 0.025227 0.712452 0.147860
O O6 0.757352 0.706178 0.853014
O O7 0.983675 0.625174 0.991194
O O8 0.715830 0.085038 0.648219
O O9 0.774055 0.096593 0.150910
O O10 0.543991 0.154004 0.908479
O O11 0.138852 0.757508 0.535225
O O12 0.874129 0.794390 0.776240
#
# Coordination Sequence:
#
# PCOD9316057 Si02
#       6
#     4   4   4   4   4   4
#     4  12  26  50  80 110 146 188 244 302 372 442
#     4  12  27  44  70 103 147 197 250 301 366 433
#     4  12  28  48  76 108 149 191 245 302 370 439
#     4  12  28  48  76 108 149 191 245 302 370 439
#     4  12  27  44  70 103 147 197 250 301 366 433
#     4  12  26  44  68 102 146 196 250 302 360 428
#
# _framework density 23.106397999999999
#
# number of rings (size 3 to 8) (size 9 to 14) (size 15 to 20)
#    0.000    0.000    5.000    4.000   11.667    0.000 
#    0.000    0.000    0.000    0.000    0.000    0.000 
#    0.000    0.000    0.000    0.000    0.000    0.000 
#
# Total GULP energy -134200.194344 kJ/mol
# GULP energy per Si atom -5591.674764 kJ/mol
# Density = 2.305381 g / cm^3
# Si number density = 23.106398 Si / 1000 Ang^3
#
#
#
# Elastic Constant Matrix: (Units=GPa)
#
#
# Indices 1 2 3 4 5 6 
#
# 1 106.0035 15.8270 18.4908 0.0000 0.0000 0.0000
# 2 15.8270 82.0761 -3.7641 0.0000 0.0000 0.0000
# 3 18.4908 -3.7641 53.3701 0.0000 0.0000 0.0000
# 4 0.0000 0.0000 0.0000 27.3315 0.0000 0.0000
# 5 0.0000 0.0000 0.0000 0.0000 48.7690 0.0000
# 6 0.0000 0.0000 0.0000 0.0000 0.0000 53.5383
#
#
#
# Elastic Compliance Matrix: (Units=1/GPa)
#
#
# Indices 1 2 3 4 5 6 
#
# 1 0.010416 -0.002181 -0.003762 0.000000 0.000000 0.000000
# 2 -0.002181 0.012680 0.001650 0.000000 0.000000 0.000000
# 3 -0.003762 0.001650 0.020157 0.000000 0.000000 0.000000
# 4 0.000000 0.000000 0.000000 0.036588 0.000000 0.000000
# 5 0.000000 0.000000 0.000000 0.000000 0.020505 0.000000
# 6 0.000000 0.000000 0.000000 0.000000 0.000000 0.018678
#
#
# Mechanical properties :
#
#
# Convention : Reuss Voigt Hill
#
# Bulk Modulus (GPa) = 28.84702 33.61745 31.23224
# Shear Modulus (GPa) = 35.92835 39.98747 37.95791
#
# Velocity S-wave (km/s) = 3.94751 4.16454 4.05748
# Velocity P-wave (km/s) = 5.76963 6.14044 5.95792
#
# Compressibility (1/GPa) = 0.03466562
#
# Stress axis : x y z
#
# Youngs Moduli (GPa) = 96.00989 78.86395 49.61052
#
# Poissons Ratio (x) = 0.17200 0.18666
# Poissons Ratio (y) = 0.20940 -0.08185
# Poissons Ratio (z) = 0.36123 -0.13012
#
# Static dielectric constant tensor:
#      x y z
#    x 1.829050 0.000000 0.000000 
#    y 0.000000 1.831560 0.000000 
#    z 0.000000 0.000000 1.931040 
# 
# From -- ./inp_files/189.got.cif
#   From: 2010.05.17/outbox.cif.g08.bks.cpg/sg19_1_cif.got.tgz:189.got - 2010.06.03 22:46:19.
