data_PCOD9316031
_publ_section_title
;
Structure prediction by ZEFSAII (Michael W. Deem and Ramdas Pophale) SiO2 
 PCOD9316031
Probable space group: P 21 21 21
;
_chemical_formula_sum "Si O2"
_cell_formula_units_Z 24
_cell_length_a 12.215838
_cell_length_b 8.445727
_cell_length_c 9.608096
_cell_angle_alpha 90.000000
_cell_angle_beta 90.000000
_cell_angle_gamma 90.000000
_cell_volume 991.282953
_symmetry_space_group_name_H-M "P 21 21 21"
_symmetry_group_IT_number 19
_symmetry_cell_setting 'orthorhombic'
loop_
_space_group_symop_operation_xyz
x,y,z
1/2-x,-y,1/2+z
1/2+x,1/2-y,-z
-x,1/2+y,1/2-z
loop_
_atom_site_type_symbol
_atom_site_label
_atom_site_fract_x
_atom_site_fract_y
_atom_site_fract_z
Si Si1 0.403924 0.259730 0.997279
Si Si2 0.188350 0.567620 0.739846
Si Si3 0.446965 0.927784 0.137901
Si Si4 0.262360 0.207003 0.724481
Si Si5 0.568581 0.494766 0.865788
Si Si6 0.383309 0.738632 0.863927
O O1 0.344479 0.214359 0.854332
O O2 0.505934 0.378530 0.972442
O O3 0.312673 0.342402 0.093095
O O4 0.440782 0.101366 0.073191
O O5 0.225030 0.388469 0.709781
O O6 0.268167 0.651485 0.849380
O O7 0.065164 0.585980 0.794859
O O8 0.347259 0.895631 0.243489
O O9 0.421457 0.803050 0.013585
O O10 0.331544 0.115832 0.603316
O O11 0.470153 0.607097 0.816379
O O12 0.612023 0.381974 0.744080
#
# Coordination Sequence:
#
# PCOD9316031 Si02
#       6
#     4   4   4   4   4   4
#     4  12  27  53  80 117 159 212 262 344 394 490
#     4  12  29  50  76 119 163 209 275 334 411 474
#     4  12  29  49  77 118 161 213 269 340 402 483
#     4  12  27  50  79 117 158 217 272 332 411 491
#     4  12  24  48  79 113 153 209 270 318 411 476
#     4  12  24  48  79 114 156 212 262 336 397 488
#
# _framework density 24.21105
#
# number of rings (size 3 to 8) (size 9 to 14) (size 15 to 20)
#    0.000    0.000    5.000    3.000    2.333    6.667 
#    0.000    0.000    0.000    0.000    0.000    0.000 
#    0.000    0.000    0.000    0.000    0.000    0.000 
#
# Total GULP energy -134399.264067 kJ/mol
# GULP energy per Si atom -5599.969336 kJ/mol
# Density = 2.415595 g / cm^3
# Si number density = 24.211050 Si / 1000 Ang^3
#
#
#
# Elastic Constant Matrix: (Units=GPa)
#
#
# Indices 1 2 3 4 5 6 
#
# 1 171.8796 73.8184 31.7693 0.0000 0.0000 0.0000
# 2 73.8184 159.9216 44.0307 0.0000 0.0000 0.0000
# 3 31.7693 44.0307 68.1384 0.0000 0.0000 0.0000
# 4 0.0000 0.0000 0.0000 19.0843 0.0000 0.0000
# 5 0.0000 0.0000 0.0000 0.0000 30.9403 0.0000
# 6 0.0000 0.0000 0.0000 0.0000 0.0000 55.7673
#
#
#
# Elastic Compliance Matrix: (Units=1/GPa)
#
#
# Indices 1 2 3 4 5 6 
#
# 1 0.007382 -0.002992 -0.001508 0.000000 0.000000 0.000000
# 2 -0.002992 0.008819 -0.004304 0.000000 0.000000 0.000000
# 3 -0.001508 -0.004304 0.018160 0.000000 0.000000 0.000000
# 4 0.000000 0.000000 0.000000 0.052399 0.000000 0.000000
# 5 0.000000 0.000000 0.000000 0.000000 0.032320 0.000000
# 6 0.000000 0.000000 0.000000 0.000000 0.000000 0.017932
#
#
# Mechanical properties :
#
#
# Convention : Reuss Voigt Hill
#
# Bulk Modulus (GPa) = 59.69110 77.68626 68.68868
# Shear Modulus (GPa) = 31.20998 37.84647 34.52823
#
# Velocity S-wave (km/s) = 3.59427 3.95801 3.78052
# Velocity P-wave (km/s) = 6.47557 7.28317 6.89121
#
# Compressibility (1/GPa) = 0.01675292
#
# Stress axis : x y z
#
# Youngs Moduli (GPa) = 135.46723 113.38939 55.06508
#
# Poissons Ratio (x) = 0.33928 0.08305
# Poissons Ratio (y) = 0.40534 0.23699
# Poissons Ratio (z) = 0.20432 0.48801
#
# Static dielectric constant tensor:
#      x y z
#    x 1.905840 0.000000 0.000000 
#    y 0.000000 1.910500 0.000000 
#    z 0.000000 0.000000 1.930350 
# 
# From -- ./inp_files/4932.got.cif
#   From: 2010.05.17/outbox.cif.g08.bks.cpg/sg19_3_cif.got.tgz:4932.got - 2010.06.03 22:46:19.
