data_PCOD9316170
_publ_section_title
;
Structure prediction by ZEFSAII (Michael W. Deem and Ramdas Pophale) SiO2 
 PCOD9316170
Probable space group: P 21 21 21
;
_chemical_formula_sum "Si O2"
_cell_formula_units_Z 24
_cell_length_a 9.000000
_cell_length_b 9.000000
_cell_length_c 15.000000
_cell_angle_alpha 90.000000
_cell_angle_beta 90.000000
_cell_angle_gamma 90.000000
_cell_volume 1215.000000
_symmetry_space_group_name_H-M "P 21 21 21"
_symmetry_group_IT_number 19
_symmetry_cell_setting 'orthorhombic'
loop_
_space_group_symop_operation_xyz
x,y,z
1/2-x,-y,1/2+z
1/2+x,1/2-y,-z
-x,1/2+y,1/2-z
loop_
_atom_site_type_symbol
_atom_site_label
_atom_site_fract_x
_atom_site_fract_y
_atom_site_fract_z
Si Si1 0.652343 0.994001 0.503882
Si Si2 0.347190 0.841619 0.804054
Si Si3 0.174422 0.151991 0.515084
Si Si4 0.437464 0.067610 0.648503
Si Si5 0.558954 0.038164 0.131767
Si Si6 0.099934 0.665071 0.689615
O O1 0.793869 0.966782 0.569222
O O2 0.647442 0.913595 0.405835
O O3 0.638866 0.171586 0.484724
O O4 0.522055 0.962031 0.576209
O O5 0.468196 0.711632 0.820858
O O6 0.222738 0.762197 0.742889
O O7 0.398452 0.976543 0.739024
O O8 0.302304 0.884719 0.907893
O O9 0.308913 0.130277 0.584333
O O10 0.053453 0.047174 0.563929
O O11 0.517444 0.208300 0.157458
O O12 0.559301 0.951021 0.228973
#
# Coordination Sequence:
#
# PCOD9316170 Si02
#       6
#     4   4   4   4   4   4
#     4  11  26  44  71 101 142 184 233 288 353 411
#     4  11  26  45  70 104 140 179 236 279 356 408
#     4  11  24  45  74 101 141 183 228 289 353 414
#     4  11  25  45  73 103 140 182 229 290 343 422
#     4  12  26  47  74 104 142 189 230 298 346 424
#     4  12  27  46  70 105 141 183 240 282 357 415
#
# _framework density 19.753086
#
# number of rings (size 3 to 8) (size 9 to 14) (size 15 to 20)
#    0.000    0.667    5.000    3.000    9.333    1.333 
#    0.000    0.000    0.000    0.000    0.000    0.000 
#    0.000    0.000    0.000    0.000    0.000    0.000 
#
# Total GULP energy -133632.453263 kJ/mol
# GULP energy per Si atom -5568.018886 kJ/mol
# Density = 1.970813 g / cm^3
# Si number density = 19.753086 Si / 1000 Ang^3
#
#
#
# Elastic Constant Matrix: (Units=GPa)
#
#
# Indices 1 2 3 4 5 6 
#
# 1 9.3665 -5.1530 -4.9993 0.0000 0.0000 0.0000
# 2 -5.1530 73.1669 39.7014 0.0000 0.0000 0.0000
# 3 -4.9993 39.7014 193.5618 0.0000 0.0000 0.0000
# 4 0.0000 0.0000 0.0000 64.5215 0.0000 0.0000
# 5 0.0000 0.0000 0.0000 0.0000 38.0371 0.0000
# 6 0.0000 0.0000 0.0000 0.0000 0.0000 25.4837
#
#
#
# Elastic Compliance Matrix: (Units=1/GPa)
#
#
# Indices 1 2 3 4 5 6 
#
# 1 0.111416 0.007072 0.001427 0.000000 0.000000 0.000000
# 2 0.007072 0.015828 -0.003064 0.000000 0.000000 0.000000
# 3 0.001427 -0.003064 0.005832 0.000000 0.000000 0.000000
# 4 0.000000 0.000000 0.000000 0.015499 0.000000 0.000000
# 5 0.000000 0.000000 0.000000 0.000000 0.026290 0.000000
# 6 0.000000 0.000000 0.000000 0.000000 0.000000 0.039241
#
#
# Mechanical properties :
#
#
# Convention : Reuss Voigt Hill
#
# Bulk Modulus (GPa) = 6.94700 37.24371 22.09536
# Shear Modulus (GPa) = 19.90316 42.04486 30.97401
#
# Velocity S-wave (km/s) = 3.17771 4.61859 3.96417
# Velocity P-wave (km/s) = 4.12169 6.88022 5.67123
#
# Compressibility (1/GPa) = 0.14394704
#
# Stress axis : x y z
#
# Youngs Moduli (GPa) = 8.97535 63.17950 171.48013
#
# Poissons Ratio (x) = -0.44683 -0.24471
# Poissons Ratio (y) = -0.06348 0.52538
# Poissons Ratio (z) = -0.01281 0.19357
#
# Static dielectric constant tensor:
#      x y z
#    x 1.855300 0.000000 0.000000 
#    y 0.000000 1.710300 0.000000 
#    z 0.000000 0.000000 1.667090 
# 
# From -- ./inp_files/2671.got.cif
#   From: 2010.05.17/outbox.ucp.g08.bks.cvg/sg19_2_cif.got.tgz:2671.got - 2010.06.11 13:13:52.
