data_PCOD9316149
_publ_section_title
;
Structure prediction by ZEFSAII (Michael W. Deem and Ramdas Pophale) SiO2 
 PCOD9316149
Probable space group: P 21 21 21
;
_chemical_formula_sum "Si O2"
_cell_formula_units_Z 20
_cell_length_a 9.000000
_cell_length_b 9.000000
_cell_length_c 12.000000
_cell_angle_alpha 90.000000
_cell_angle_beta 90.000000
_cell_angle_gamma 90.000000
_cell_volume 972.000000
_symmetry_space_group_name_H-M "P 21 21 21"
_symmetry_group_IT_number 19
_symmetry_cell_setting 'orthorhombic'
loop_
_space_group_symop_operation_xyz
x,y,z
1/2-x,-y,1/2+z
1/2+x,1/2-y,-z
-x,1/2+y,1/2-z
loop_
_atom_site_type_symbol
_atom_site_label
_atom_site_fract_x
_atom_site_fract_y
_atom_site_fract_z
Si Si1 0.360144 0.267381 0.498416
Si Si2 0.462031 0.164943 0.265148
Si Si3 0.305177 0.652741 0.789517
Si Si4 0.717860 0.373864 0.279401
Si Si5 0.976617 0.555207 0.174822
O O1 0.439037 0.168531 0.401223
O O2 0.293766 0.171074 0.601551
O O3 0.467688 0.391117 0.553429
O O4 0.235555 0.347660 0.421157
O O5 0.345631 0.294781 0.229697
O O6 0.624741 0.228901 0.241438
O O7 0.401385 0.010932 0.214828
O O8 0.657383 0.562247 0.694281
O O9 0.383870 0.510797 0.740355
O O10 0.414585 0.792738 0.773336
#
# Coordination Sequence:
#
# PCOD9316149 Si02
#       5
#     4   4   4   4   4
#     4  10  22  42  71  90 138 178 219 272 337 399
#     4   9  24  40  67  98 132 181 219 273 337 394
#     4   9  22  39  69  95 129 184 215 273 336 392
#     4  11  22  40  72  98 132 178 227 272 335 399
#     4  11  20  41  71  97 129 181 226 272 333 396
#
# _framework density 20.576132000000001
#
# number of rings (size 3 to 8) (size 9 to 14) (size 15 to 20)
#    1.200    0.800    2.000    1.200    2.800    0.000 
#    0.000    0.000   48.400    0.000    0.000    0.000 
#    0.000    0.000    0.000    0.000    0.000    0.000 
#
# Total GULP energy -111349.477523 kJ/mol
# GULP energy per Si atom -5567.473876 kJ/mol
# Density = 2.052930 g / cm^3
# Si number density = 20.576132 Si / 1000 Ang^3
#
#
#
# Elastic Constant Matrix: (Units=GPa)
#
#
# Indices 1 2 3 4 5 6 
#
# 1 81.6645 64.3125 4.7617 0.0000 0.0000 0.0000
# 2 64.3125 40.1654 23.1809 0.0000 0.0000 0.0000
# 3 4.7617 23.1809 49.7116 0.0000 0.0000 0.0000
# 4 0.0000 0.0000 0.0000 37.1979 0.0000 0.0000
# 5 0.0000 0.0000 0.0000 0.0000 43.3224 0.0000
# 6 0.0000 0.0000 0.0000 0.0000 0.0000 65.4865
#
#
#
# Elastic Compliance Matrix: (Units=1/GPa)
#
#
# Indices 1 2 3 4 5 6 
#
# 1 -0.019950 0.042197 -0.017766 0.000000 0.000000 0.000000
# 2 0.042197 -0.055188 0.021693 0.000000 0.000000 0.000000
# 3 -0.017766 0.021693 0.011702 0.000000 0.000000 0.000000
# 4 0.000000 0.000000 0.000000 0.026883 0.000000 0.000000
# 5 0.000000 0.000000 0.000000 0.000000 0.023083 0.000000
# 6 0.000000 0.000000 0.000000 0.000000 0.000000 0.015270
#
#
# Mechanical properties :
#
#
# Convention : Reuss Voigt Hill
#
# Bulk Modulus (GPa) = 34.70777 39.56131 37.13454
# Shear Modulus (GPa) = -61.84806 34.48712 -13.68047
#
# Velocity S-wave (km/s) = -5.48848 4.09843 -2.58131
# Velocity P-wave (km/s) = 4.82286 6.45482 3.03354
#
# Compressibility (1/GPa) = 0.02881199
#
# Stress axis : x y z
#
# Youngs Moduli (GPa) = -50.12562 -18.11984 85.45394
#
# Poissons Ratio (x) = 0.76460 1.51817
# Poissons Ratio (y) = 2.11515 -1.85374
# Poissons Ratio (z) = -0.89053 0.39307
#
# Static dielectric constant tensor:
#      x y z
#    x 1.873330 0.000000 0.000000 
#    y 0.000000 1.726480 0.000000 
#    z 0.000000 0.000000 1.699610 
# 
# From -- ./inp_files/2710.got.cif
#   From: 2010.05.17/outbox.ucp.g08.bks.cvg/sg19_2_cif.got.tgz:2710.got - 2010.06.11 13:13:52.
