data_PCOD9316605
_publ_section_title
;
Structure prediction by ZEFSAII (Michael W. Deem and Ramdas Pophale) SiO2 
 PCOD9316605
Probable space group: C 2 2 21
;
_chemical_formula_sum "Si O2"
_cell_formula_units_Z 64
_cell_length_a 7.893054
_cell_length_b 23.743881
_cell_length_c 15.992031
_cell_angle_alpha 90.000000
_cell_angle_beta 90.000000
_cell_angle_gamma 90.000000
_cell_volume 2997.094274
_symmetry_space_group_name_H-M "C 2 2 21"
_symmetry_group_IT_number 20
_symmetry_cell_setting 'orthorhombic'
loop_
_space_group_symop_operation_xyz
x,y,z
-x,-y,1/2+z
x,-y,-z
-x,y,1/2-z
1/2+x,1/2+y,z
1/2-x,1/2-y,1/2+z
1/2+x,1/2-y,-z
1/2-x,1/2+y,1/2-z
loop_
_atom_site_type_symbol
_atom_site_label
_atom_site_fract_x
_atom_site_fract_y
_atom_site_fract_z
Si Si1 0.207714 0.639051 0.582646
Si Si2 0.311800 0.541032 0.250000
Si Si3 0.792288 0.639051 0.582645
Si Si4 0.796015 0.757262 0.652637
Si Si5 0.302158 0.118583 0.100472
Si Si6 0.194259 0.419383 0.250000
Si Si7 0.802160 0.381417 0.600473
Si Si8 0.203987 0.757262 0.652637
O O1 0.265594 0.614815 0.494014
O O2 0.267353 0.604591 0.663641
O O3 0.257072 0.704096 0.596892
O O4 0.000001 0.637882 0.579641
O O5 0.500000 0.517418 0.250000
O O6 0.285816 0.579978 0.330833
O O7 0.194845 0.486521 0.250000
O O8 0.285814 0.579978 0.169167
O O9 0.742930 0.704096 0.596891
O O10 0.732648 0.604590 0.663640
O O11 0.734408 0.614815 0.494013
O O12 0.715734 0.816169 0.626606
O O13 0.757224 0.744975 0.750000
O O14 0.000001 0.763173 0.646271
O O15 0.499999 0.103040 0.101395
O O16 0.000000 0.398241 0.250000
O O17 0.784270 0.316169 0.626607
#
# Coordination Sequence:
#
# PCOD9316605 Si02
#       8
#     8   8   8   8   8   8   8   8
#     4   9  19  36  62  91 118 151 189 231 284 344
#     4  12  26  43  58  79 113 154 196 242 297 342
#     4   9  19  36  62  91 118 151 189 231 284 344
#     4  10  18  33  59  89 122 156 185 223 284 345
#     4  11  22  37  59  89 119 151 194 237 279 336
#     4  10  20  41  66  85 109 148 196 240 283 340
#     4  11  22  37  59  89 119 151 194 237 279 336
#     4  10  18  33  59  89 122 156 185 223 284 345
#
# _framework density 21.354016000000001
#
# number of rings (size 3 to 8) (size 9 to 14) (size 15 to 20)
#    0.000    1.750    2.500    2.625    0.000    1.000 
#    0.000   10.000    0.000    0.000    0.000    0.000 
#    0.000    0.000    0.000    0.000    0.000    0.000 
#
# Total GULP energy -178824.278963 kJ/mol
# GULP energy per Si atom -5588.258718 kJ/mol
# Density = 2.130541 g / cm^3
# Si number density = 21.354016 Si / 1000 Ang^3
#
#
#
# Elastic Constant Matrix: (Units=GPa)
#
#
# Indices 1 2 3 4 5 6 
#
# 1 28.5278 -14.8029 6.7496 0.0000 0.0000 0.0000
# 2 -14.8029 76.4795 22.2368 0.0000 0.0000 0.0000
# 3 6.7496 22.2368 118.6710 0.0000 0.0000 0.0000
# 4 0.0000 0.0000 0.0000 0.8822 0.0000 0.0000
# 5 0.0000 0.0000 0.0000 0.0000 -5.4129 0.0000
# 6 0.0000 0.0000 0.0000 0.0000 0.0000 22.3506
#
#
#
# Elastic Compliance Matrix: (Units=1/GPa)
#
#
# Indices 1 2 3 4 5 6 
#
# 1 0.040694 0.009042 -0.004009 0.000000 0.000000 0.000000
# 2 0.009042 0.015838 -0.003482 0.000000 0.000000 0.000000
# 3 -0.004009 -0.003482 0.009307 0.000000 0.000000 0.000000
# 4 0.000000 0.000000 0.000000 1.133559 0.000000 0.000000
# 5 0.000000 0.000000 0.000000 0.000000 -0.184744 0.000000
# 6 0.000000 0.000000 0.000000 0.000000 0.000000 0.044742
#
#
# Mechanical properties :
#
#
# Convention : Reuss Voigt Hill
#
# Bulk Modulus (GPa) = 14.50508 28.00502 21.25505
# Shear Modulus (GPa) = 4.63275 17.53030 11.08152
#
# Velocity S-wave (km/s) = 1.47452 2.86831 2.28050
# Velocity P-wave (km/s) = 3.11550 4.91047 4.11212
#
# Compressibility (1/GPa) = 0.06894138
#
# Stress axis : x y z
#
# Youngs Moduli (GPa) = 24.57369 63.13957 107.44444
#
# Poissons Ratio (x) = -0.57091 0.43073
# Poissons Ratio (y) = -0.22220 0.37412
# Poissons Ratio (z) = 0.09851 0.21985
#
# Static dielectric constant tensor:
#      x y z
#    x 1.763840 0.000000 0.000000 
#    y 0.000000 1.709820 0.000000 
#    z 0.000000 0.000000 1.782540 
# 
# From -- ./inp_files/19353.got.cif
#   From: 2010.05.17/outbox.cif.g08.bks.cpg/sg20_10_cif.got.tgz:19353.got - 2010.06.03 22:52:26.
