data_PCOD9316980
_publ_section_title
;
Structure prediction by ZEFSAII (Michael W. Deem and Ramdas Pophale) SiO2 
 PCOD9316980
Probable space group: C 2 2 21
;
_chemical_formula_sum "Si O2"
_cell_formula_units_Z 56
_cell_length_a 8.798775
_cell_length_b 15.863220
_cell_length_c 15.565662
_cell_angle_alpha 90.000000
_cell_angle_beta 90.000000
_cell_angle_gamma 90.000000
_cell_volume 2172.606904
_symmetry_space_group_name_H-M "C 2 2 21"
_symmetry_group_IT_number 20
_symmetry_cell_setting 'orthorhombic'
loop_
_space_group_symop_operation_xyz
x,y,z
-x,-y,1/2+z
x,-y,-z
-x,y,1/2-z
1/2+x,1/2+y,z
1/2-x,1/2-y,1/2+z
1/2+x,1/2-y,-z
1/2-x,1/2+y,1/2-z
loop_
_atom_site_type_symbol
_atom_site_label
_atom_site_fract_x
_atom_site_fract_y
_atom_site_fract_z
Si Si1 0.282411 0.974978 0.832881
Si Si2 0.106790 0.813511 0.863979
Si Si3 0.357828 0.552838 0.081232
Si Si4 0.074999 0.647525 0.649008
Si Si5 0.021059 0.394084 0.958460
Si Si6 0.375322 0.714273 0.560143
Si Si7 0.014871 0.917433 0.342731
O O1 0.213225 0.878924 0.808539
O O2 0.393291 0.944152 0.908247
O O3 0.372742 0.061479 0.800525
O O4 0.126985 0.020553 0.859048
O O5 0.955135 0.868203 0.886511
O O6 0.051321 0.721381 0.829409
O O7 0.172420 0.795727 0.960408
O O8 0.188873 0.572628 0.055936
O O9 0.348755 0.483371 0.157467
O O10 0.423584 0.500000 0.000000
O O11 0.233001 0.694538 0.621890
O O12 0.014051 0.613512 0.558148
O O13 0.043261 0.301051 0.922317
O O14 0.508923 0.649309 0.583196
O O15 0.000000 0.876519 0.250000
#
# Coordination Sequence:
#
# PCOD9316980 Si02
#       7
#     8   8   8   8   8   8   8
#     4  10  21  36  60  83 125 162 198 246 322 367
#     4  10  19  33  55  90 120 156 200 246 300 386
#     4  11  20  34  60  91 121 150 200 261 308 378
#     4  10  19  32  54  89 127 157 192 247 309 367
#     4  11  21  33  55  97 123 153 193 258 317 372
#     4  10  19  34  58  82 122 156 199 248 308 373
#     4  10  23  41  61  81 112 165 215 251 315 391
#
# _framework density 25.775487999999999
#
# number of rings (size 3 to 8) (size 9 to 14) (size 15 to 20)
#    0.000    1.714    4.286    1.286    2.000    0.000 
#    2.571    2.143    0.000    0.000    0.000    0.000 
#    0.000    0.000    0.000    0.000    0.000    0.000 
#
# Total GULP energy -155900.983273 kJ/mol
# GULP energy per Si atom -5567.892260 kJ/mol
# Density = 2.571682 g / cm^3
# Si number density = 25.775488 Si / 1000 Ang^3
#
#
#
# Elastic Constant Matrix: (Units=GPa)
#
#
# Indices 1 2 3 4 5 6 
#
# 1 74.4958 33.9956 11.0391 0.0000 0.0000 0.0000
# 2 33.9956 197.6757 17.7822 0.0000 0.0000 0.0000
# 3 11.0391 17.7822 27.1494 0.0000 0.0000 0.0000
# 4 0.0000 0.0000 0.0000 -32.3868 0.0000 0.0000
# 5 0.0000 0.0000 0.0000 0.0000 27.7602 0.0000
# 6 0.0000 0.0000 0.0000 0.0000 0.0000 -90.5236
#
#
#
# Elastic Compliance Matrix: (Units=1/GPa)
#
#
# Indices 1 2 3 4 5 6 
#
# 1 0.015116 -0.002175 -0.004722 0.000000 0.000000 0.000000
# 2 -0.002175 0.005688 -0.002841 0.000000 0.000000 0.000000
# 3 -0.004722 -0.002841 0.040614 0.000000 0.000000 0.000000
# 4 0.000000 0.000000 0.000000 -0.030877 0.000000 0.000000
# 5 0.000000 0.000000 0.000000 0.000000 0.036023 0.000000
# 6 0.000000 0.000000 0.000000 0.000000 0.000000 -0.011047
#
#
# Mechanical properties :
#
#
# Convention : Reuss Voigt Hill
#
# Bulk Modulus (GPa) = 23.84225 47.21718 35.52972
# Shear Modulus (GPa) = 56.19611 -3.26309 26.46651
#
# Velocity S-wave (km/s) = 4.67434 -1.12637 3.20786
# Velocity P-wave (km/s) = 6.19699 4.08250 5.24736
#
# Compressibility (1/GPa) = 0.04194236
#
# Stress axis : x y z
#
# Youngs Moduli (GPa) = 66.15635 175.79593 24.62195
#
# Poissons Ratio (x) = 0.38232 0.11626
# Poissons Ratio (y) = 0.14388 0.06996
# Poissons Ratio (z) = 0.31237 0.49952
#
# Static dielectric constant tensor:
#      x y z
#    x 2.030180 0.000000 0.000000 
#    y 0.000000 2.213730 0.000000 
#    z 0.000000 0.000000 2.726020 
# 
# From -- ./inp_files/26725.got.cif
#   From: 2010.05.17/outbox.cif.g08.bks.cpg/sg20_14_cif.got.tgz:26725.got - 2010.06.03 22:52:26.
