data_PCOD9316375
_publ_section_title
;
Structure prediction by ZEFSAII (Michael W. Deem and Ramdas Pophale) SiO2 
 PCOD9316375
Probable space group: C 2 2 21
;
_chemical_formula_sum "Si O2"
_cell_formula_units_Z 56
_cell_length_a 9.389318
_cell_length_b 22.971006
_cell_length_c 13.365530
_cell_angle_alpha 90.000000
_cell_angle_beta 90.000000
_cell_angle_gamma 90.000000
_cell_volume 2882.705312
_symmetry_space_group_name_H-M "C 2 2 21"
_symmetry_group_IT_number 20
_symmetry_cell_setting 'orthorhombic'
loop_
_space_group_symop_operation_xyz
x,y,z
-x,-y,1/2+z
x,-y,-z
-x,y,1/2-z
1/2+x,1/2+y,z
1/2-x,1/2-y,1/2+z
1/2+x,1/2-y,-z
1/2-x,1/2+y,1/2-z
loop_
_atom_site_type_symbol
_atom_site_label
_atom_site_fract_x
_atom_site_fract_y
_atom_site_fract_z
Si Si1 0.654099 0.550063 0.257117
Si Si2 0.320516 0.659863 0.094892
Si Si3 0.562962 0.132428 0.944716
Si Si4 0.939377 0.760202 0.638055
Si Si5 0.392700 0.009944 0.618097
Si Si6 0.849584 0.710043 0.231125
Si Si7 0.873918 0.410416 0.880298
O O1 0.500000 0.523284 0.250000
O O2 0.644158 0.607042 0.328857
O O3 0.764977 0.509155 0.312238
O O4 0.717001 0.567499 0.148595
O O5 0.468553 0.693644 0.072514
O O6 0.225063 0.703910 0.161317
O O7 0.211033 0.637938 0.009430
O O8 0.535201 0.195042 0.898373
O O9 0.576655 0.077997 0.870531
O O10 0.430307 0.113986 0.015089
O O11 0.769097 0.768339 0.652159
O O12 0.000000 0.768572 0.750000
O O13 0.358566 0.000000 0.500000
O O14 0.521812 0.965171 0.638453
O O15 0.886547 0.645357 0.191361
O O16 0.000000 0.741475 0.250000
#
# Coordination Sequence:
#
# PCOD9316375 Si02
#       7
#     8   8   8   8   8   8   8
#     4  11  20  36  64  91 119 152 203 262 310 355
#     4  10  19  35  58  86 115 154 199 258 294 339
#     4  11  22  37  63  87 126 162 207 249 302 372
#     4  10  24  38  55  89 127 163 201 249 315 366
#     4  10  20  37  58  85 120 155 197 246 306 366
#     4  10  17  34  60  86 113 149 204 250 294 359
#     4  10  19  35  63  91 109 155 207 250 298 357
#
# _framework density 19.426196000000001
#
# number of rings (size 3 to 8) (size 9 to 14) (size 15 to 20)
#    0.000    1.714    4.286    3.429    2.000    1.143 
#    0.000    2.857    0.000    0.000    0.000    0.000 
#    0.000    0.000    0.000    0.000    0.000    0.000 
#
# Total GULP energy -155919.169670 kJ/mol
# GULP energy per Si atom -5568.541774 kJ/mol
# Density = 1.938198 g / cm^3
# Si number density = 19.426196 Si / 1000 Ang^3
#
#
#
# Elastic Constant Matrix: (Units=GPa)
#
#
# Indices 1 2 3 4 5 6 
#
# 1 104.1930 19.8267 23.6032 0.0000 0.0000 0.0000
# 2 19.8267 93.7112 13.7269 0.0000 0.0000 0.0000
# 3 23.6032 13.7269 25.3766 0.0000 0.0000 0.0000
# 4 0.0000 0.0000 0.0000 18.7992 0.0000 0.0000
# 5 0.0000 0.0000 0.0000 0.0000 13.7680 0.0000
# 6 0.0000 0.0000 0.0000 0.0000 0.0000 17.9385
#
#
#
# Elastic Compliance Matrix: (Units=1/GPa)
#
#
# Indices 1 2 3 4 5 6 
#
# 1 0.012246 -0.001002 -0.010848 0.000000 0.000000 0.000000
# 2 -0.001002 0.011671 -0.005382 0.000000 0.000000 0.000000
# 3 -0.010848 -0.005382 0.052407 0.000000 0.000000 0.000000
# 4 0.000000 0.000000 0.000000 0.053194 0.000000 0.000000
# 5 0.000000 0.000000 0.000000 0.000000 0.072632 0.000000
# 6 0.000000 0.000000 0.000000 0.000000 0.000000 0.055746
#
#
# Mechanical properties :
#
#
# Convention : Reuss Voigt Hill
#
# Bulk Modulus (GPa) = 23.88826 37.51049 30.69937
# Shear Modulus (GPa) = 16.32320 21.17607 18.74963
#
# Velocity S-wave (km/s) = 2.90188 3.30521 3.11009
# Velocity P-wave (km/s) = 4.85299 5.82384 5.36044
#
# Compressibility (1/GPa) = 0.04186157
#
# Stress axis : x y z
#
# Youngs Moduli (GPa) = 81.66183 85.67999 19.08137
#
# Poissons Ratio (x) = 0.08584 0.20699
# Poissons Ratio (y) = 0.08181 0.10269
# Poissons Ratio (z) = 0.88586 0.46109
#
# Static dielectric constant tensor:
#      x y z
#    x 1.755280 0.000000 0.000000 
#    y 0.000000 1.681900 0.000000 
#    z 0.000000 0.000000 1.598940 
# 
# From -- ./inp_files/19181.got.cif
#   From: 2010.05.17/outbox.cif.g08.bks.cpg/sg20_10_cif.got.tgz:19181.got - 2010.06.03 22:52:26.
