data_PCOD9316918
_publ_section_title
;
Structure prediction by ZEFSAII (Michael W. Deem and Ramdas Pophale) SiO2 
 PCOD9316918
Probable space group: C 2 2 21
;
_chemical_formula_sum "Si O2"
_cell_formula_units_Z 56
_cell_length_a 18.733943
_cell_length_b 9.928708
_cell_length_c 15.079608
_cell_angle_alpha 90.000000
_cell_angle_beta 90.000000
_cell_angle_gamma 90.000000
_cell_volume 2804.865141
_symmetry_space_group_name_H-M "C 2 2 21"
_symmetry_group_IT_number 20
_symmetry_cell_setting 'orthorhombic'
loop_
_space_group_symop_operation_xyz
x,y,z
-x,-y,1/2+z
x,-y,-z
-x,y,1/2-z
1/2+x,1/2+y,z
1/2-x,1/2-y,1/2+z
1/2+x,1/2-y,-z
1/2-x,1/2+y,1/2-z
loop_
_atom_site_type_symbol
_atom_site_label
_atom_site_fract_x
_atom_site_fract_y
_atom_site_fract_z
Si Si1 0.681041 0.214133 0.099324
Si Si2 0.088738 0.939641 0.153030
Si Si3 0.201240 0.834161 0.914043
Si Si4 0.388074 0.568717 0.168642
Si Si5 0.672159 0.000000 0.500000
Si Si6 0.976860 0.000000 0.000000
Si Si7 0.668464 0.846282 0.340671
Si Si8 0.271292 0.051875 0.671342
O O1 0.624685 0.293102 0.159261
O O2 0.758773 0.274056 0.125441
O O3 0.686137 0.054909 0.111336
O O4 0.666689 0.264622 0.000317
O O5 0.149045 0.049255 0.121292
O O6 0.072402 0.991222 0.252052
O O7 0.029910 0.935162 0.074433
O O8 0.220270 0.708473 0.852272
O O9 0.274091 0.903507 0.945952
O O10 0.423772 0.571455 0.071053
O O11 0.378370 0.724427 0.196077
O O12 0.310704 0.495217 0.165486
O O13 0.632267 0.084428 0.574506
O O14 0.694544 0.954212 0.268956
#
# Coordination Sequence:
#
# PCOD9316918 Si02
#       8
#     8   8   8   8   4   4   8   8
#     4  10  20  34  57  96 124 161 203 252 312 382
#     4  12  20  43  66  86 124 173 216 247 300 371
#     4  11  18  35  61  92 127 164 202 251 314 386
#     4  11  25  40  61 100 127 156 212 267 314 375
#     4  10  19  30  56  86 130 167 190 240 326 402
#     4  12  27  42  62  88 120 175 222 258 284 358
#     4  10  20  36  58  93 132 159 193 257 337 379
#     4  11  22  34  63 103 129 150 194 269 337 369
#
# _framework density 19.965309999999999
#
# number of rings (size 3 to 8) (size 9 to 14) (size 15 to 20)
#    0.000    1.143    7.143    0.857    8.000    0.000 
#    0.000    0.000    0.000    1.714    0.000    0.000 
#    0.000    0.000    0.000    0.000    0.000    0.000 
#
# Total GULP energy -155948.328787 kJ/mol
# GULP energy per Si atom -5569.583171 kJ/mol
# Density = 1.991987 g / cm^3
# Si number density = 19.965310 Si / 1000 Ang^3
#
#
#
# Elastic Constant Matrix: (Units=GPa)
#
#
# Indices 1 2 3 4 5 6 
#
# 1 51.4096 21.5783 16.0131 0.0000 0.0000 0.0000
# 2 21.5783 72.0790 20.5213 0.0000 0.0000 0.0000
# 3 16.0131 20.5213 97.7246 0.0000 0.0000 0.0000
# 4 0.0000 0.0000 0.0000 33.5613 0.0000 0.0000
# 5 0.0000 0.0000 0.0000 0.0000 27.9122 0.0000
# 6 0.0000 0.0000 0.0000 0.0000 0.0000 -17.6483
#
#
#
# Elastic Compliance Matrix: (Units=1/GPa)
#
#
# Indices 1 2 3 4 5 6 
#
# 1 0.022784 -0.006124 -0.002447 0.000000 0.000000 0.000000
# 2 -0.006124 0.016402 -0.002441 0.000000 0.000000 0.000000
# 3 -0.002447 -0.002441 0.011146 0.000000 0.000000 0.000000
# 4 0.000000 0.000000 0.000000 0.029796 0.000000 0.000000
# 5 0.000000 0.000000 0.000000 0.000000 0.035827 0.000000
# 6 0.000000 0.000000 0.000000 0.000000 0.000000 -0.056663
#
#
# Mechanical properties :
#
#
# Convention : Reuss Voigt Hill
#
# Bulk Modulus (GPa) = 35.32558 37.49317 36.40937
# Shear Modulus (GPa) = 55.09410 19.63840 37.36625
#
# Velocity S-wave (km/s) = 5.25878 3.13968 4.33084
# Velocity P-wave (km/s) = 7.38952 5.65362 6.57907
#
# Compressibility (1/GPa) = 0.02830810
#
# Stress axis : x y z
#
# Youngs Moduli (GPa) = 43.88951 60.96833 89.71503
#
# Poissons Ratio (x) = 0.37338 0.21957
# Poissons Ratio (y) = 0.26879 0.21897
# Poissons Ratio (z) = 0.10742 0.14881
#
# Static dielectric constant tensor:
#      x y z
#    x 1.728570 0.000000 0.000000 
#    y 0.000000 1.704220 0.000000 
#    z 0.000000 0.000000 1.824480 
# 
# From -- ./inp_files/21805.got.cif
#   From: 2010.05.17/outbox.cif.g08.bks.cpg/sg20_11_cif.got.tgz:21805.got - 2010.06.03 22:52:26.
