data_PCOD9316346
_publ_section_title
;
Structure prediction by ZEFSAII (Michael W. Deem and Ramdas Pophale) SiO2 
 PCOD9316346
Probable space group: C 2 2 21
;
_chemical_formula_sum "Si O2"
_cell_formula_units_Z 52
_cell_length_a 21.858208
_cell_length_b 8.546176
_cell_length_c 15.049698
_cell_angle_alpha 90.000000
_cell_angle_beta 90.000000
_cell_angle_gamma 90.000000
_cell_volume 2811.345179
_symmetry_space_group_name_H-M "C 2 2 21"
_symmetry_group_IT_number 20
_symmetry_cell_setting 'orthorhombic'
loop_
_space_group_symop_operation_xyz
x,y,z
-x,-y,1/2+z
x,-y,-z
-x,y,1/2-z
1/2+x,1/2+y,z
1/2-x,1/2-y,1/2+z
1/2+x,1/2-y,-z
1/2-x,1/2+y,1/2-z
loop_
_atom_site_type_symbol
_atom_site_label
_atom_site_fract_x
_atom_site_fract_y
_atom_site_fract_z
Si Si1 0.567256 0.563636 0.904158
Si Si2 0.598564 0.079097 0.096160
Si Si3 0.811727 0.863071 0.626618
Si Si4 0.608128 0.151953 0.748757
Si Si5 0.728942 0.158537 0.042138
Si Si6 0.000000 0.884735 0.750000
Si Si7 0.693713 0.058148 0.600432
O O1 0.568888 0.750421 0.900726
O O2 0.635535 0.492235 0.889075
O O3 0.524425 0.490664 0.829559
O O4 0.547883 0.500000 0.000000
O O5 0.671988 0.106366 0.102328
O O6 0.581630 0.964089 0.176050
O O7 0.587453 0.000000 0.000000
O O8 0.837483 0.749689 0.702578
O O9 0.801631 0.761188 0.537235
O O10 0.747422 0.949148 0.640737
O O11 0.555986 0.273732 0.721753
O O12 0.636392 0.063039 0.665213
O O13 0.777447 0.268720 0.089625
O O14 0.755765 0.000000 0.000000
O O15 0.680767 0.000000 0.500000
#
# Coordination Sequence:
#
# PCOD9316346 Si02
#       7
#     8   8   8   8   8   4   8
#     4  11  19  39  64  86 117 155 202 254 312 351
#     4  11  19  34  64  94 113 147 202 260 301 352
#     4  10  18  32  59  89 117 147 194 252 302 359
#     4  11  23  39  59  86 127 161 206 252 298 349
#     4  10  17  32  56  92 119 143 188 247 304 362
#     4  10  26  44  58  88 120 164 214 260 282 362
#     4  10  22  37  57  88 127 161 188 242 310 381
#
# _framework density 18.496483999999999
#
# number of rings (size 3 to 8) (size 9 to 14) (size 15 to 20)
#    0.000    1.538    6.154    1.385    2.154    0.615 
#    0.000    9.231    0.000    0.000    0.000    0.000 
#    0.000    0.000    0.000    0.000    0.000    0.000 
#
# Total GULP energy -145159.170662 kJ/mol
# GULP energy per Si atom -5583.045025 kJ/mol
# Density = 1.845439 g / cm^3
# Si number density = 18.496484 Si / 1000 Ang^3
#
#
#
# Elastic Constant Matrix: (Units=GPa)
#
#
# Indices 1 2 3 4 5 6 
#
# 1 56.7562 35.3681 52.5535 0.0000 0.0000 0.0000
# 2 35.3681 135.8269 46.5802 0.0000 0.0000 0.0000
# 3 52.5535 46.5802 93.3713 0.0000 0.0000 0.0000
# 4 0.0000 0.0000 0.0000 25.1296 0.0000 0.0000
# 5 0.0000 0.0000 0.0000 0.0000 17.4324 0.0000
# 6 0.0000 0.0000 0.0000 0.0000 0.0000 -7.2335
#
#
#
# Elastic Compliance Matrix: (Units=1/GPa)
#
#
# Indices 1 2 3 4 5 6 
#
# 1 0.037831 -0.003075 -0.019759 0.000000 0.000000 0.000000
# 2 -0.003075 0.009132 -0.002825 0.000000 0.000000 0.000000
# 3 -0.019759 -0.002825 0.023241 0.000000 0.000000 0.000000
# 4 0.000000 0.000000 0.000000 0.039794 0.000000 0.000000
# 5 0.000000 0.000000 0.000000 0.000000 0.057364 0.000000
# 6 0.000000 0.000000 0.000000 0.000000 0.000000 -0.138245
#
#
# Mechanical properties :
#
#
# Convention : Reuss Voigt Hill
#
# Bulk Modulus (GPa) = 52.94986 61.66200 57.30593
# Shear Modulus (GPa) = 57.65016 17.16253 37.40635
#
# Velocity S-wave (km/s) = 5.58890 3.04942 4.50193
# Velocity P-wave (km/s) = 8.38671 6.76817 7.62053
#
# Compressibility (1/GPa) = 0.01888579
#
# Stress axis : x y z
#
# Youngs Moduli (GPa) = 26.43305 109.50830 43.02819
#
# Poissons Ratio (x) = 0.33671 0.85021
# Poissons Ratio (y) = 0.08128 0.12155
# Poissons Ratio (z) = 0.52230 0.30935
#
# Static dielectric constant tensor:
#      x y z
#    x 1.619030 0.000000 0.000000 
#    y 0.000000 1.649430 0.000000 
#    z 0.000000 0.000000 1.641070 
# 
# From -- ./inp_files/21706.got.cif
#   From: 2010.05.17/outbox.cif.g08.bks.cpg/sg20_11_cif.got.tgz:21706.got - 2010.06.03 22:52:26.
