data_PCOD9316797
_publ_section_title
;
Structure prediction by ZEFSAII (Michael W. Deem and Ramdas Pophale) SiO2 
 PCOD9316797
Probable space group: C 2 2 21
;
_chemical_formula_sum "Si O2"
_cell_formula_units_Z 60
_cell_length_a 14.890417
_cell_length_b 7.357368
_cell_length_c 24.488952
_cell_angle_alpha 90.000000
_cell_angle_beta 90.000000
_cell_angle_gamma 90.000000
_cell_volume 2682.869444
_symmetry_space_group_name_H-M "C 2 2 21"
_symmetry_group_IT_number 20
_symmetry_cell_setting 'orthorhombic'
loop_
_space_group_symop_operation_xyz
x,y,z
-x,-y,1/2+z
x,-y,-z
-x,y,1/2-z
1/2+x,1/2+y,z
1/2-x,1/2-y,1/2+z
1/2+x,1/2-y,-z
1/2-x,1/2+y,1/2-z
loop_
_atom_site_type_symbol
_atom_site_label
_atom_site_fract_x
_atom_site_fract_y
_atom_site_fract_z
Si Si1 0.349756 0.192076 0.093510
Si Si2 0.196631 0.596347 0.199042
Si Si3 0.050132 0.547097 0.119314
Si Si4 0.361965 0.601051 0.131942
Si Si5 0.908394 0.212422 0.016406
Si Si6 0.229562 0.163659 0.187727
Si Si7 0.966893 0.185842 0.309270
Si Si8 0.937433 0.500000 0.500000
O O1 0.450836 0.127044 0.108506
O O2 0.338752 0.403258 0.109192
O O3 0.274014 0.103564 0.131086
O O4 0.343983 0.193597 0.028172
O O5 0.110186 0.651026 0.164056
O O6 0.285958 0.678141 0.171642
O O7 0.209587 0.379523 0.191451
O O8 0.201198 0.628597 0.263258
O O9 0.039327 0.349840 0.147107
O O10 0.102420 0.535529 0.060633
O O11 0.375266 0.721873 0.078172
O O12 0.452465 0.570250 0.166057
O O13 0.000492 0.323749 0.011387
O O14 0.920653 0.000000 0.000000
O O15 0.129189 0.087694 0.196225
O O16 0.000000 0.253589 0.250000
#
# Coordination Sequence:
#
# PCOD9316797 Si02
#       8
#     8   8   8   8   8   8   8   4
#     4   9  21  37  56  83 112 150 189 238 293 349
#     4  10  22  38  55  86 115 154 195 239 293 356
#     4  10  22  37  59  87 115 150 197 236 299 347
#     4  10  19  39  58  82 113 151 194 238 296 351
#     4   9  18  36  62  86 117 156 196 246 301 356
#     4  10  22  37  55  82 116 146 196 235 287 355
#     4  11  21  36  58  83 111 154 191 240 293 349
#     4  10  18  38  62  92 118 152 202 252 292 364
#
# _framework density 22.364114000000001
#
# number of rings (size 3 to 8) (size 9 to 14) (size 15 to 20)
#    0.000    2.133    2.667    0.000    3.733    1.067 
#    8.400    0.000    0.000    0.000    3.467    0.000 
#    0.000    0.000    0.000    0.000    0.000    0.000 
#
# Total GULP energy -167270.349842 kJ/mol
# GULP energy per Si atom -5575.678328 kJ/mol
# Density = 2.231321 g / cm^3
# Si number density = 22.364114 Si / 1000 Ang^3
#
#
#
# Elastic Constant Matrix: (Units=GPa)
#
#
# Indices 1 2 3 4 5 6 
#
# 1 65.9578 -8.9085 13.1935 0.0000 0.0000 0.0000
# 2 -8.9085 48.2974 4.4025 0.0000 0.0000 0.0000
# 3 13.1935 4.4025 104.4883 0.0000 0.0000 0.0000
# 4 0.0000 0.0000 0.0000 26.8262 0.0000 0.0000
# 5 0.0000 0.0000 0.0000 0.0000 21.6761 0.0000
# 6 0.0000 0.0000 0.0000 0.0000 0.0000 13.4355
#
#
#
# Elastic Compliance Matrix: (Units=1/GPa)
#
#
# Indices 1 2 3 4 5 6 
#
# 1 0.016018 0.003151 -0.002155 0.000000 0.000000 0.000000
# 2 0.003151 0.021405 -0.001300 0.000000 0.000000 0.000000
# 3 -0.002155 -0.001300 0.009897 0.000000 0.000000 0.000000
# 4 0.000000 0.000000 0.000000 0.037277 0.000000 0.000000
# 5 0.000000 0.000000 0.000000 0.000000 0.046134 0.000000
# 6 0.000000 0.000000 0.000000 0.000000 0.000000 0.074430
#
#
# Mechanical properties :
#
#
# Convention : Reuss Voigt Hill
#
# Bulk Modulus (GPa) = 21.40783 26.23540 23.82161
# Shear Modulus (GPa) = 22.58973 26.39128 24.49051
#
# Velocity S-wave (km/s) = 3.18164 3.43895 3.31279
# Velocity P-wave (km/s) = 4.80523 5.24642 5.03067
#
# Compressibility (1/GPa) = 0.04671188
#
# Stress axis : x y z
#
# Youngs Moduli (GPa) = 62.43009 46.71865 101.03711
#
# Poissons Ratio (x) = -0.14721 0.21777
# Poissons Ratio (y) = -0.19672 0.13132
# Poissons Ratio (z) = 0.13456 0.06072
#
# Static dielectric constant tensor:
#      x y z
#    x 1.889570 0.000000 0.000000 
#    y 0.000000 1.878660 0.000000 
#    z 0.000000 0.000000 1.870300 
# 
# From -- ./inp_files/28841.got.cif
#   From: 2010.05.17/outbox.cif.g08.bks.cpg/sg20_15_cif.got.tgz:28841.got - 2010.06.03 22:52:26.
