data_PCOD9316218
_publ_section_title
;
Structure prediction by ZEFSAII (Michael W. Deem and Ramdas Pophale) SiO2 
 PCOD9316218
Probable space group: C 2 2 21
;
_chemical_formula_sum "Si O2"
_cell_formula_units_Z 52
_cell_length_a 14.759672
_cell_length_b 8.521493
_cell_length_c 21.194754
_cell_angle_alpha 90.000000
_cell_angle_beta 90.000000
_cell_angle_gamma 90.000000
_cell_volume 2665.758350
_symmetry_space_group_name_H-M "C 2 2 21"
_symmetry_group_IT_number 20
_symmetry_cell_setting 'orthorhombic'
loop_
_space_group_symop_operation_xyz
x,y,z
-x,-y,1/2+z
x,-y,-z
-x,y,1/2-z
1/2+x,1/2+y,z
1/2-x,1/2-y,1/2+z
1/2+x,1/2-y,-z
1/2-x,1/2+y,1/2-z
loop_
_atom_site_type_symbol
_atom_site_label
_atom_site_fract_x
_atom_site_fract_y
_atom_site_fract_z
Si Si1 0.683046 0.383475 0.165363
Si Si2 0.149786 0.783693 0.334637
Si Si3 1.000000 1.000000 0.325857
Si Si4 0.500000 0.896780 0.750000
Si Si5 0.533260 0.832832 0.334637
Si Si6 0.801610 0.801610 0.750000
Si Si7 0.666667 0.000000 0.574589
O O1 0.576598 0.378844 0.152374
O O2 0.729785 0.228835 0.193458
O O3 0.691021 0.525192 0.218617
O O4 0.740019 0.438839 0.105542
O O5 0.098877 0.945681 0.347626
O O6 0.250475 0.790906 0.306542
O O7 0.150590 0.670552 0.394458
O O8 0.082915 0.700872 0.281383
O O9 0.000000 1.000000 0.250000
O O10 0.977721 0.175475 0.347626
O O11 0.520690 0.019741 0.806542
O O12 0.608107 0.773936 0.281383
O O13 0.589429 0.890608 0.394458
O O14 0.666667 0.000000 0.500000
#
# Coordination Sequence:
#
# PCOD9316218 Si02
#       7
#     8   8   8   4   8   8   8
#     4  10  19  29  52  72 108 133 168 213 265 310
#     4  10  19  29  52  72 108 133 168 213 265 310
#     4  12  18  30  49  86 115 126 147 223 284 322
#     4  10  16  28  42  76  96 138 160 202 262 308
#     4  10  19  29  52  72 108 133 168 213 265 310
#     4  10  16  28  42  76  96 138 160 202 262 308
#     4   9  21  39  51  66  96 147 193 209 235 318
#
# _framework density 19.506646
#
# number of rings (size 3 to 8) (size 9 to 14) (size 15 to 20)
#    0.000    1.846    4.615    0.923    0.000    0.000 
#    0.000    2.308    0.000    0.000    0.000    0.000 
#    0.000    0.000    0.000    0.000    0.000    0.000 
#
# Total GULP energy -144747.271766 kJ/mol
# GULP energy per Si atom -5567.202760 kJ/mol
# Density = 1.946225 g / cm^3
# Si number density = 19.506646 Si / 1000 Ang^3
#
#
#
# Elastic Constant Matrix: (Units=GPa)
#
#
# Indices 1 2 3 4 5 6 
#
# 1 55.7233 0.8253 17.8495 0.0000 0.0000 0.0000
# 2 0.8253 55.7236 17.8495 0.0000 0.0000 0.0000
# 3 17.8495 17.8495 122.9240 0.0000 0.0000 0.0000
# 4 0.0000 0.0000 0.0000 15.7884 0.0000 0.0000
# 5 0.0000 0.0000 0.0000 0.0000 15.7885 0.0000
# 6 0.0000 0.0000 0.0000 0.0000 0.0000 27.4491
#
#
#
# Elastic Compliance Matrix: (Units=1/GPa)
#
#
# Indices 1 2 3 4 5 6 
#
# 1 0.018842 0.000626 -0.002827 0.000000 0.000000 0.000000
# 2 0.000626 0.018842 -0.002827 0.000000 0.000000 0.000000
# 3 -0.002827 -0.002827 0.008956 0.000000 0.000000 0.000000
# 4 0.000000 0.000000 0.000000 0.063338 0.000000 0.000000
# 5 0.000000 0.000000 0.000000 0.000000 0.063337 0.000000
# 6 0.000000 0.000000 0.000000 0.000000 0.000000 0.036431
#
#
# Mechanical properties :
#
#
# Convention : Reuss Voigt Hill
#
# Bulk Modulus (GPa) = 27.33344 34.15771 30.74557
# Shear Modulus (GPa) = 21.55208 24.99497 23.27353
#
# Velocity S-wave (km/s) = 3.32755 3.58349 3.45789
# Velocity P-wave (km/s) = 5.36714 5.88818 5.63369
#
# Compressibility (1/GPa) = 0.03658523
#
# Stress axis : x y z
#
# Youngs Moduli (GPa) = 53.07272 53.07298 111.65572
#
# Poissons Ratio (x) = -0.03325 0.31565
# Poissons Ratio (y) = -0.03325 0.31565
# Poissons Ratio (z) = 0.15004 0.15004
#
# Static dielectric constant tensor:
#      x y z
#    x 1.804700 0.000000 0.000000 
#    y 0.000000 1.804700 0.000000 
#    z 0.000000 0.000000 1.633190 
# 
# From -- ./inp_files/27515.got.cif
#   From: 2010.05.17/outbox.cif.g08.bks.cpg/sg20_14_cif.got.tgz:27515.got - 2010.06.03 22:52:26.
