data_PCOD9316645
_publ_section_title
;
Structure prediction by ZEFSAII (Michael W. Deem and Ramdas Pophale) SiO2 
 PCOD9316645
Probable space group: C 2 2 21
;
_chemical_formula_sum "Si O2"
_cell_formula_units_Z 48
_cell_length_a 5.687598
_cell_length_b 22.797956
_cell_length_c 14.904121
_cell_angle_alpha 90.000000
_cell_angle_beta 90.000000
_cell_angle_gamma 90.000000
_cell_volume 1932.551925
_symmetry_space_group_name_H-M "C 2 2 21"
_symmetry_group_IT_number 20
_symmetry_cell_setting 'orthorhombic'
loop_
_space_group_symop_operation_xyz
x,y,z
-x,-y,1/2+z
x,-y,-z
-x,y,1/2-z
1/2+x,1/2+y,z
1/2-x,1/2-y,1/2+z
1/2+x,1/2-y,-z
1/2-x,1/2+y,1/2-z
loop_
_atom_site_type_symbol
_atom_site_label
_atom_site_fract_x
_atom_site_fract_y
_atom_site_fract_z
Si Si1 0.604670 0.389324 0.054407
Si Si2 0.748603 0.413847 0.242018
Si Si3 0.250318 0.209168 0.700953
Si Si4 0.822152 0.682547 0.105254
Si Si5 0.115686 0.500000 0.500000
Si Si6 0.788009 0.592629 0.414899
Si Si7 0.500000 0.617201 0.250000
O O1 0.700534 0.374682 0.153057
O O2 0.722664 0.453621 0.049309
O O3 0.715722 0.343542 0.985366
O O4 0.354103 0.400405 0.007454
O O5 0.500000 0.446943 0.250000
O O6 0.761987 0.360882 0.314512
O O7 0.000000 0.444395 0.250000
O O8 0.500000 0.223310 0.750000
O O9 0.220225 0.248447 0.612501
O O10 0.000000 0.223657 0.750000
O O11 0.684411 0.655583 0.191621
O O12 0.079695 0.653744 0.106624
O O13 0.964124 0.539149 0.432081
O O14 0.627386 0.581139 0.328583
#
# Coordination Sequence:
#
# PCOD9316645 Si02
#       7
#     8   8   8   8   4   8   4
#     4  10  23  42  66  95 129 183 226 286 349 407
#     4  10  24  45  69  95 136 186 230 283 341 414
#     4  10  20  38  63  95 132 175 219 274 331 398
#     4  10  20  35  65  97 133 169 221 277 345 404
#     4  10  22  42  64  90 130 174 226 292 340 410
#     4  10  21  37  65  93 136 171 223 287 352 411
#     4  10  18  34  60 100 124 170 208 276 354 404
#
# _framework density 24.837624999999999
#
# number of rings (size 3 to 8) (size 9 to 14) (size 15 to 20)
#    0.000    2.000    0.833    2.000    7.000    0.000 
#    0.000   13.333    7.333    0.000    0.000    0.000 
#    0.000    0.000    0.000    0.000    0.000    0.000 
#
# Total GULP energy -133833.067415 kJ/mol
# GULP energy per Si atom -5576.377809 kJ/mol
# Density = 2.478109 g / cm^3
# Si number density = 24.837625 Si / 1000 Ang^3
#
#
#
# Elastic Constant Matrix: (Units=GPa)
#
#
# Indices 1 2 3 4 5 6 
#
# 1 179.5033 12.8671 35.5021 0.0000 0.0000 0.0000
# 2 12.8671 50.6063 1.8246 0.0000 0.0000 0.0000
# 3 35.5021 1.8246 125.9065 0.0000 0.0000 0.0000
# 4 0.0000 0.0000 0.0000 14.9219 0.0000 0.0000
# 5 0.0000 0.0000 0.0000 0.0000 1.8128 0.0000
# 6 0.0000 0.0000 0.0000 0.0000 0.0000 1.4055
#
#
#
# Elastic Compliance Matrix: (Units=1/GPa)
#
#
# Indices 1 2 3 4 5 6 
#
# 1 0.006007 -0.001467 -0.001673 0.000000 0.000000 0.000000
# 2 -0.001467 0.020129 0.000122 0.000000 0.000000 0.000000
# 3 -0.001673 0.000122 0.008412 0.000000 0.000000 0.000000
# 4 0.000000 0.000000 0.000000 0.067016 0.000000 0.000000
# 5 0.000000 0.000000 0.000000 0.000000 0.551644 0.000000
# 6 0.000000 0.000000 0.000000 0.000000 0.000000 0.711507
#
#
# Mechanical properties :
#
#
# Convention : Reuss Voigt Hill
#
# Bulk Modulus (GPa) = 35.07175 50.71155 42.89165
# Shear Modulus (GPa) = 3.62252 24.01618 13.81935
#
# Velocity S-wave (km/s) = 1.20899 3.11292 2.36135
# Velocity P-wave (km/s) = 4.01247 5.77771 4.97402
#
# Compressibility (1/GPa) = 0.02851298
#
# Stress axis : x y z
#
# Youngs Moduli (GPa) = 166.47596 49.67955 118.87450
#
# Poissons Ratio (x) = 0.07288 0.19882
# Poissons Ratio (y) = 0.24422 -0.01450
# Poissons Ratio (z) = 0.27843 -0.00606
#
# Static dielectric constant tensor:
#      x y z
#    x 2.175510 0.000000 0.000000 
#    y 0.000000 1.984040 0.000000 
#    z 0.000000 0.000000 1.836180 
# 
# From -- ./inp_files/17919.got.cif
#   From: 2010.05.17/outbox.cif.g08.bks.cpg/sg20_9_cif.got.tgz:17919.got - 2010.06.03 22:52:26.
