data_PCOD9316731
_publ_section_title
;
Structure prediction by ZEFSAII (Michael W. Deem and Ramdas Pophale) SiO2 
 PCOD9316731
Probable space group: C 2 2 21
;
_chemical_formula_sum "Si O2"
_cell_formula_units_Z 56
_cell_length_a 21.867371
_cell_length_b 7.739107
_cell_length_c 17.449177
_cell_angle_alpha 90.000000
_cell_angle_beta 90.000000
_cell_angle_gamma 90.000000
_cell_volume 2952.992694
_symmetry_space_group_name_H-M "C 2 2 21"
_symmetry_group_IT_number 20
_symmetry_cell_setting 'orthorhombic'
loop_
_space_group_symop_operation_xyz
x,y,z
-x,-y,1/2+z
x,-y,-z
-x,y,1/2-z
1/2+x,1/2+y,z
1/2-x,1/2-y,1/2+z
1/2+x,1/2-y,-z
1/2-x,1/2+y,1/2-z
loop_
_atom_site_type_symbol
_atom_site_label
_atom_site_fract_x
_atom_site_fract_y
_atom_site_fract_z
Si Si1 0.027012 0.704005 0.518359
Si Si2 0.928499 0.000000 0.500000
Si Si3 0.879635 0.909665 0.657476
Si Si4 0.419223 0.276783 0.135886
Si Si5 0.000000 0.995554 0.750000
Si Si6 0.446163 0.107281 0.813647
Si Si7 0.672793 0.905841 0.216233
Si Si8 0.189280 0.199533 0.748475
O O1 0.016400 0.500000 0.500000
O O2 0.075861 0.776169 0.456093
O O3 0.043866 0.714336 0.608240
O O4 0.969719 0.827829 0.503680
O O5 0.889756 0.996957 0.576426
O O6 0.854070 0.715126 0.648979
O O7 0.835220 0.036084 0.704263
O O8 0.943538 0.910326 0.704130
O O9 0.464337 0.402652 0.182529
O O10 0.351551 0.296608 0.170886
O O11 0.444826 0.090833 0.160627
O O12 0.500000 0.120166 0.750000
O O13 0.378051 0.136063 0.781029
O O14 0.739452 0.831970 0.234746
O O15 0.676825 0.113932 0.211126
#
# Coordination Sequence:
#
# PCOD9316731 Si02
#       8
#     8   4   8   8   4   8   8   8
#     4  10  22  37  56  89 130 160 197 253 320 378
#     4  12  24  38  58  94 134 158 198 254 320 378
#     4  11  24  38  63  92 125 163 204 260 315 367
#     4   9  18  36  60  85 122 158 199 251 312 363
#     4  10  18  36  60  90 118 158 202 256 304 376
#     4  10  20  34  61  92 120 156 202 255 315 371
#     4  11  22  40  63  91 118 163 219 259 303 375
#     4  10  22  41  64  87 122 164 217 260 304 369
#
# _framework density 18.963812000000001
#
# number of rings (size 3 to 8) (size 9 to 14) (size 15 to 20)
#    0.000    1.714    3.571    0.857    3.000    1.143 
#    0.000    1.429    0.000    0.000    0.000    0.000 
#    0.000    0.000    0.000    0.000    0.000    0.000 
#
# Total GULP energy -156011.602555 kJ/mol
# GULP energy per Si atom -5571.842948 kJ/mol
# Density = 1.892065 g / cm^3
# Si number density = 18.963812 Si / 1000 Ang^3
#
#
#
# Elastic Constant Matrix: (Units=GPa)
#
#
# Indices 1 2 3 4 5 6 
#
# 1 117.1692 22.9946 36.6202 0.0000 0.0000 0.0000
# 2 22.9946 68.1130 -1.2744 0.0000 0.0000 0.0000
# 3 36.6202 -1.2744 84.1364 0.0000 0.0000 0.0000
# 4 0.0000 0.0000 0.0000 21.0150 0.0000 0.0000
# 5 0.0000 0.0000 0.0000 0.0000 11.4327 0.0000
# 6 0.0000 0.0000 0.0000 0.0000 0.0000 25.2731
#
#
#
# Elastic Compliance Matrix: (Units=1/GPa)
#
#
# Indices 1 2 3 4 5 6 
#
# 1 0.010743 -0.003715 -0.004732 0.000000 0.000000 0.000000
# 2 -0.003715 0.015971 0.001859 0.000000 0.000000 0.000000
# 3 -0.004732 0.001859 0.013973 0.000000 0.000000 0.000000
# 4 0.000000 0.000000 0.000000 0.047585 0.000000 0.000000
# 5 0.000000 0.000000 0.000000 0.000000 0.087468 0.000000
# 6 0.000000 0.000000 0.000000 0.000000 0.000000 0.039568
#
#
# Mechanical properties :
#
#
# Convention : Reuss Voigt Hill
#
# Bulk Modulus (GPa) = 36.35060 42.89993 39.62527
# Shear Modulus (GPa) = 21.03897 25.61604 23.32751
#
# Velocity S-wave (km/s) = 3.33442 3.67929 3.51109
# Velocity P-wave (km/s) = 5.83391 6.38128 6.11372
#
# Compressibility (1/GPa) = 0.02750986
#
# Stress axis : x y z
#
# Youngs Moduli (GPa) = 93.08604 62.61537 71.56537
#
# Poissons Ratio (x) = 0.23263 0.33865
# Poissons Ratio (y) = 0.34584 -0.13304
# Poissons Ratio (z) = 0.44049 -0.11640
#
# Static dielectric constant tensor:
#      x y z
#    x 1.645020 0.000000 0.000000 
#    y 0.000000 1.754320 0.000000 
#    z 0.000000 0.000000 1.700350 
# 
# From -- ./inp_files/25470.got.cif
#   From: 2010.05.17/outbox.cif.g08.bks.cpg/sg20_13_cif.got.tgz:25470.got - 2010.06.03 22:52:26.
