data_PCOD9316489
_publ_section_title
;
Structure prediction by ZEFSAII (Michael W. Deem and Ramdas Pophale) SiO2 
 PCOD9316489
Probable space group: C 2 2 21
;
_chemical_formula_sum "Si O2"
_cell_formula_units_Z 44
_cell_length_a 32.199924
_cell_length_b 13.375999
_cell_length_c 5.260319
_cell_angle_alpha 90.000000
_cell_angle_beta 90.000000
_cell_angle_gamma 90.000000
_cell_volume 2265.651751
_symmetry_space_group_name_H-M "C 2 2 21"
_symmetry_group_IT_number 20
_symmetry_cell_setting 'orthorhombic'
loop_
_space_group_symop_operation_xyz
x,y,z
-x,-y,1/2+z
x,-y,-z
-x,y,1/2-z
1/2+x,1/2+y,z
1/2-x,1/2-y,1/2+z
1/2+x,1/2-y,-z
1/2-x,1/2+y,1/2-z
loop_
_atom_site_type_symbol
_atom_site_label
_atom_site_fract_x
_atom_site_fract_y
_atom_site_fract_z
Si Si1 0.000000 0.273579 0.250000
Si Si2 0.000000 0.597234 0.250000
Si Si3 0.169850 0.500000 0.000000
Si Si4 0.227584 0.500000 0.500000
Si Si5 0.591296 0.773092 0.414328
Si Si6 0.731067 0.706037 0.898438
Si Si7 0.861729 0.722506 0.422088
Si Si8 0.072788 0.500000 0.500000
O O1 0.992098 0.337019 0.503119
O O2 0.045718 0.232294 0.331254
O O3 0.040742 0.532290 0.282860
O O4 0.198377 0.509369 0.748456
O O5 0.144200 0.398312 0.944617
O O6 0.256380 0.402637 0.500294
O O7 0.606235 0.749112 0.698470
O O8 0.592990 0.895848 0.418989
O O9 0.622787 0.741062 0.195758
O O10 0.752674 0.722561 0.625487
O O11 0.682842 0.730327 0.862347
#
# Coordination Sequence:
#
# PCOD9316489 Si02
#       8
#     4   4   4   4   8   8   8   4
#     4  10  21  36  48  68 102 154 199 232 285 340
#     4  10  19  28  48  64  94 142 205 238 265 324
#     4  12  22  36  59  84 115 154 205 236 304 347
#     4  12  22  41  64  86 109 164 193 240 300 374
#     4  11  22  33  50  73 110 150 192 243 285 330
#     4  12  23  42  63  86 118 152 195 247 298 363
#     4  12  23  36  53  84 114 145 195 250 282 340
#     4  10  18  31  43  68  98 144 190 230 270 319
#
# _framework density 19.420462000000001
#
# number of rings (size 3 to 8) (size 9 to 14) (size 15 to 20)
#    0.000    0.727    3.636    7.636    0.000    2.909 
#    0.000    0.000    0.000    0.000    0.000    0.000 
#    0.000    2.909    0.000    2.364    0.000    0.455 
#
# Total GULP energy -122715.833833 kJ/mol
# GULP energy per Si atom -5577.992447 kJ/mol
# Density = 1.937626 g / cm^3
# Si number density = 19.420462 Si / 1000 Ang^3
#
#
#
# Elastic Constant Matrix: (Units=GPa)
#
#
# Indices 1 2 3 4 5 6 
#
# 1 82.3764 4.3155 28.9318 0.0000 0.0000 0.0000
# 2 4.3155 20.6280 -0.7402 0.0000 0.0000 0.0000
# 3 28.9318 -0.7402 128.3990 0.0000 0.0000 0.0000
# 4 0.0000 0.0000 0.0000 9.1946 0.0000 0.0000
# 5 0.0000 0.0000 0.0000 0.0000 -1.9437 0.0000
# 6 0.0000 0.0000 0.0000 0.0000 0.0000 21.8654
#
#
#
# Elastic Compliance Matrix: (Units=1/GPa)
#
#
# Indices 1 2 3 4 5 6 
#
# 1 0.013354 -0.002902 -0.003026 0.000000 0.000000 0.000000
# 2 -0.002902 0.049119 0.000937 0.000000 0.000000 0.000000
# 3 -0.003026 0.000937 0.008475 0.000000 0.000000 0.000000
# 4 0.000000 0.000000 0.000000 0.108760 0.000000 0.000000
# 5 0.000000 0.000000 0.000000 0.000000 -0.514483 0.000000
# 6 0.000000 0.000000 0.000000 0.000000 0.000000 0.045734
#
#
# Mechanical properties :
#
#
# Convention : Reuss Voigt Hill
#
# Bulk Modulus (GPa) = 16.40252 32.93529 24.66891
# Shear Modulus (GPa) = -19.32468 19.08301 -0.12084
#
# Velocity S-wave (km/s) = -3.15789 3.13808 -0.24972
# Velocity P-wave (km/s) = 2.19819 5.48871 3.55626
#
# Compressibility (1/GPa) = 0.06096625
#
# Stress axis : x y z
#
# Youngs Moduli (GPa) = 74.88313 20.35887 117.98827
#
# Poissons Ratio (x) = 0.05909 0.35701
# Poissons Ratio (y) = 0.21733 -0.11057
# Poissons Ratio (z) = 0.22658 -0.01908
#
# Static dielectric constant tensor:
#      x y z
#    x 1.731800 0.000000 0.000000 
#    y 0.000000 1.732840 0.000000 
#    z 0.000000 0.000000 1.710940 
# 
# From -- ./inp_files/4620.got.cif
#   From: 2010.05.17/outbox.cif.g08.bks.cpg/sg20_3_cif.got.tgz:4620.got - 2010.06.03 22:52:26.
