data_PCOD9316419
_publ_section_title
;
Structure prediction by ZEFSAII (Michael W. Deem and Ramdas Pophale) SiO2 
 PCOD9316419
Probable space group: C 2 2 21
;
_chemical_formula_sum "Si O2"
_cell_formula_units_Z 40
_cell_length_a 23.936466
_cell_length_b 7.831396
_cell_length_c 9.448178
_cell_angle_alpha 90.000000
_cell_angle_beta 90.000000
_cell_angle_gamma 90.000000
_cell_volume 1771.117127
_symmetry_space_group_name_H-M "C 2 2 21"
_symmetry_group_IT_number 20
_symmetry_cell_setting 'orthorhombic'
loop_
_space_group_symop_operation_xyz
x,y,z
-x,-y,1/2+z
x,-y,-z
-x,y,1/2-z
1/2+x,1/2+y,z
1/2-x,1/2-y,1/2+z
1/2+x,1/2-y,-z
1/2-x,1/2+y,1/2-z
loop_
_atom_site_type_symbol
_atom_site_label
_atom_site_fract_x
_atom_site_fract_y
_atom_site_fract_z
Si Si1 0.141962 0.330585 0.404199
Si Si2 0.054155 0.312394 0.165950
Si Si3 0.835115 0.161719 0.822889
Si Si4 0.248495 0.974013 0.842940
Si Si5 0.945773 0.727592 0.342985
O O1 0.122239 0.500000 0.500000
O O2 0.105213 0.282519 0.270913
O O3 0.143447 0.182090 0.518484
O O4 0.202420 0.384623 0.348158
O O5 0.053095 0.519884 0.157448
O O6 0.000000 0.253567 0.250000
O O7 0.053976 0.232237 0.010229
O O8 0.800027 0.001561 0.769172
O O9 0.786214 0.307466 0.818683
O O10 0.887974 0.206970 0.724891
O O11 0.222865 0.000000 0.000000
O O12 0.000000 0.782172 0.250000
#
# Coordination Sequence:
#
# PCOD9316419 Si02
#       5
#     8   8   8   8   8
#     4   9  17  33  47  73 114 151 184 235 292 350
#     4  10  18  27  48  78 118 148 188 249 301 349
#     4  10  19  37  58  80 119 155 195 242 300 360
#     4   9  20  36  54  85 116 156 193 245 293 356
#     4  10  19  30  52  84 115 151 194 245 304 348
#
# _framework density 22.584613999999998
#
# number of rings (size 3 to 8) (size 9 to 14) (size 15 to 20)
#    0.000    2.800    4.000    1.200    2.800    3.200 
#    0.000    0.000    0.000    0.000    0.000   12.600 
#    0.000    0.000    0.000    0.200    0.000    0.000 
#
# Total GULP energy -111580.426690 kJ/mol
# GULP energy per Si atom -5579.021335 kJ/mol
# Density = 2.253321 g / cm^3
# Si number density = 22.584614 Si / 1000 Ang^3
#
#
#
# Elastic Constant Matrix: (Units=GPa)
#
#
# Indices 1 2 3 4 5 6 
#
# 1 65.8937 15.6907 89.4094 0.0000 0.0000 0.0000
# 2 15.6907 63.8386 16.9659 0.0000 0.0000 0.0000
# 3 89.4094 16.9659 201.4408 0.0000 0.0000 0.0000
# 4 0.0000 0.0000 0.0000 8.0455 0.0000 0.0000
# 5 0.0000 0.0000 0.0000 0.0000 33.2999 0.0000
# 6 0.0000 0.0000 0.0000 0.0000 0.0000 82.3064
#
#
#
# Elastic Compliance Matrix: (Units=1/GPa)
#
#
# Indices 1 2 3 4 5 6 
#
# 1 0.039774 -0.005201 -0.017215 0.000000 0.000000 0.000000
# 2 -0.005201 0.016703 0.000901 0.000000 0.000000 0.000000
# 3 -0.017215 0.000901 0.012529 0.000000 0.000000 0.000000
# 4 0.000000 0.000000 0.000000 0.124293 0.000000 0.000000
# 5 0.000000 0.000000 0.000000 0.000000 0.030030 0.000000
# 6 0.000000 0.000000 0.000000 0.000000 0.000000 0.012150
#
#
# Mechanical properties :
#
#
# Convention : Reuss Voigt Hill
#
# Bulk Modulus (GPa) = 38.49566 63.92280 51.20923
# Shear Modulus (GPa) = 17.41148 38.67084 28.04116
#
# Velocity S-wave (km/s) = 2.77960 4.14244 3.52746
# Velocity P-wave (km/s) = 5.23294 7.15855 6.27011
#
# Compressibility (1/GPa) = 0.02597696
#
# Stress axis : x y z
#
# Youngs Moduli (GPa) = 25.14237 59.86894 79.81244
#
# Poissons Ratio (x) = 0.31135 1.37401
# Poissons Ratio (y) = 0.13075 -0.07195
# Poissons Ratio (z) = 0.43284 -0.05397
#
# Static dielectric constant tensor:
#      x y z
#    x 1.804670 0.000000 0.000000 
#    y 0.000000 1.970240 0.000000 
#    z 0.000000 0.000000 0.425890 
# 
# From -- ./inp_files/10514.got.cif
#   From: 2010.05.17/outbox.cif.g08.bks.cpg/sg20_6_cif.got.tgz:10514.got - 2010.06.03 22:52:26.
