data_PCOD9316102
_publ_section_title
;
Structure prediction by ZEFSAII (Michael W. Deem and Ramdas Pophale) SiO2 
 PCOD9316102
Probable space group: P 21 21 21
;
_chemical_formula_sum "Si O2"
_cell_formula_units_Z 20
_cell_length_a 5.055091
_cell_length_b 17.754496
_cell_length_c 8.984627
_cell_angle_alpha 90.000000
_cell_angle_beta 90.000000
_cell_angle_gamma 90.000000
_cell_volume 806.375601
_symmetry_space_group_name_H-M "P 21 21 21"
_symmetry_group_IT_number 19
_symmetry_cell_setting 'orthorhombic'
loop_
_space_group_symop_operation_xyz
x,y,z
1/2-x,-y,1/2+z
1/2+x,1/2-y,-z
-x,1/2+y,1/2-z
loop_
_atom_site_type_symbol
_atom_site_label
_atom_site_fract_x
_atom_site_fract_y
_atom_site_fract_z
Si Si1 0.972349 0.180018 0.325837
Si Si2 0.623472 0.214815 0.072346
Si Si3 0.326173 0.917240 0.254152
Si Si4 0.194104 0.337720 0.382228
Si Si5 0.310031 0.076172 0.098254
O O1 0.757899 0.225680 0.229893
O O2 0.809114 0.139576 0.455876
O O3 0.158026 0.247025 0.387099
O O4 0.132169 0.123914 0.216901
O O5 0.422615 0.365160 0.273307
O O6 0.570948 0.126111 0.069231
O O7 0.842300 0.247853 0.961654
O O8 0.302064 0.929575 0.431260
O O9 0.070463 0.878902 0.175137
O O10 0.365254 0.996577 0.171822
#
# Coordination Sequence:
#
# PCOD9316102 Si02
#       5
#     4   4   4   4   4
#     4  12  30  51  88 123 169 222 281 358 407 515
#     4  12  28  47  84 122 161 212 284 344 414 492
#     4  12  32  52  83 120 170 224 277 349 430 506
#     4  12  31  51  82 124 168 217 282 345 428 495
#     4  12  31  53  87 119 176 221 286 348 425 514
#
# _framework density 24.802339
#
# number of rings (size 3 to 8) (size 9 to 14) (size 15 to 20)
#    0.000    0.000    2.000    3.600   22.400    0.000 
#    0.000    0.000    0.000    0.000    0.000    0.000 
#    0.000    0.000    0.000    0.000    0.000    0.000 
#
# Total GULP energy -112080.965726 kJ/mol
# GULP energy per Si atom -5604.048286 kJ/mol
# Density = 2.474589 g / cm^3
# Si number density = 24.802339 Si / 1000 Ang^3
#
#
#
# Elastic Constant Matrix: (Units=GPa)
#
#
# Indices 1 2 3 4 5 6 
#
# 1 119.3018 43.7546 5.5219 0.0000 0.0000 0.0000
# 2 43.7546 131.4722 35.5065 0.0000 0.0000 0.0000
# 3 5.5219 35.5065 139.7763 0.0000 0.0000 0.0000
# 4 0.0000 0.0000 0.0000 48.7596 0.0000 0.0000
# 5 0.0000 0.0000 0.0000 0.0000 40.9139 0.0000
# 6 0.0000 0.0000 0.0000 0.0000 0.0000 22.3451
#
#
#
# Elastic Compliance Matrix: (Units=1/GPa)
#
#
# Indices 1 2 3 4 5 6 
#
# 1 0.009575 -0.003312 0.000463 0.000000 0.000000 0.000000
# 2 -0.003312 0.009312 -0.002235 0.000000 0.000000 0.000000
# 3 0.000463 -0.002235 0.007704 0.000000 0.000000 0.000000
# 4 0.000000 0.000000 0.000000 0.020509 0.000000 0.000000
# 5 0.000000 0.000000 0.000000 0.000000 0.024442 0.000000
# 6 0.000000 0.000000 0.000000 0.000000 0.000000 0.044753
#
#
# Mechanical properties :
#
#
# Convention : Reuss Voigt Hill
#
# Bulk Modulus (GPa) = 60.88632 62.23513 61.56073
# Shear Modulus (GPa) = 37.89745 42.78821 40.34283
#
# Velocity S-wave (km/s) = 3.91318 4.15802 4.03746
# Velocity P-wave (km/s) = 6.70963 6.94256 6.82709
#
# Compressibility (1/GPa) = 0.01642405
#
# Stress axis : x y z
#
# Youngs Moduli (GPa) = 104.43569 107.39034 129.80877
#
# Poissons Ratio (x) = 0.35565 -0.06010
# Poissons Ratio (y) = 0.34586 0.29007
# Poissons Ratio (z) = -0.04835 0.23997
#
# Static dielectric constant tensor:
#      x y z
#    x 2.008100 0.000000 0.000000 
#    y 0.000000 1.950250 0.000000 
#    z 0.000000 0.000000 2.022520 
# 
# From -- ./inp_files/2382.got.cif
#   From: 2010.05.17/outbox.cif.g08.bks.cpg/sg19_2_cif.got.tgz:2382.got - 2010.06.03 22:46:19.
