data_PCOD9316082
_publ_section_title
;
Structure prediction by ZEFSAII (Michael W. Deem and Ramdas Pophale) SiO2 
 PCOD9316082
Probable space group: P 21 21 21
;
_chemical_formula_sum "Si O2"
_cell_formula_units_Z 16
_cell_length_a 23.219841
_cell_length_b 4.873605
_cell_length_c 5.299277
_cell_angle_alpha 90.000000
_cell_angle_beta 90.000000
_cell_angle_gamma 90.000000
_cell_volume 599.689148
_symmetry_space_group_name_H-M "P 21 21 21"
_symmetry_group_IT_number 19
_symmetry_cell_setting 'orthorhombic'
loop_
_space_group_symop_operation_xyz
x,y,z
1/2-x,-y,1/2+z
1/2+x,1/2-y,-z
-x,1/2+y,1/2-z
loop_
_atom_site_type_symbol
_atom_site_label
_atom_site_fract_x
_atom_site_fract_y
_atom_site_fract_z
Si Si1 0.741529 0.817908 0.240260
Si Si2 0.344251 0.050887 0.585855
Si Si3 0.014672 0.128835 0.595102
Si Si4 0.414237 0.561083 0.743850
O O1 0.789661 0.583918 0.273616
O O2 0.743723 0.000433 0.492195
O O3 0.681018 0.675974 0.171755
O O4 0.388196 0.798466 0.566074
O O5 0.372824 0.301246 0.736724
O O6 0.071596 0.282310 0.501590
O O7 0.978066 0.350373 0.751937
O O8 0.975028 0.043721 0.360398
#
# Coordination Sequence:
#
# PCOD9316082 Si02
#       4
#     4   4   4   4
#     4  12  28  58  82 118 176 220 278 342 406 492
#     4  12  27  52  82 120 162 224 269 344 408 492
#     4  12  26  52  80 116 162 212 266 338 406 494
#     4  12  27  52  82 118 166 206 275 334 410 488
#
# _framework density 26.680486999999999
#
# number of rings (size 3 to 8) (size 9 to 14) (size 15 to 20)
#    0.000    0.000    2.500    7.500    0.000    2.000 
#   22.500    0.000    0.000    0.000    0.000    0.000 
#    0.000    0.000    0.000    0.000    0.000    0.000 
#
# Total GULP energy -89822.023160 kJ/mol
# GULP energy per Si atom -5613.876447 kJ/mol
# Density = 2.661976 g / cm^3
# Si number density = 26.680487 Si / 1000 Ang^3
#
#
#
# Elastic Constant Matrix: (Units=GPa)
#
#
# Indices 1 2 3 4 5 6 
#
# 1 51.0740 29.4637 12.0256 0.0000 0.0000 0.0000
# 2 29.4637 195.6941 55.2430 0.0000 0.0000 0.0000
# 3 12.0256 55.2430 121.6906 0.0000 0.0000 0.0000
# 4 0.0000 0.0000 0.0000 55.9617 0.0000 0.0000
# 5 0.0000 0.0000 0.0000 0.0000 26.7962 0.0000
# 6 0.0000 0.0000 0.0000 0.0000 0.0000 85.1344
#
#
#
# Elastic Compliance Matrix: (Units=1/GPa)
#
#
# Indices 1 2 3 4 5 6 
#
# 1 0.021502 -0.003025 -0.000752 0.000000 0.000000 0.000000
# 2 -0.003025 0.006287 -0.002555 0.000000 0.000000 0.000000
# 3 -0.000752 -0.002555 0.009452 0.000000 0.000000 0.000000
# 4 0.000000 0.000000 0.000000 0.017869 0.000000 0.000000
# 5 0.000000 0.000000 0.000000 0.000000 0.037319 0.000000
# 6 0.000000 0.000000 0.000000 0.000000 0.000000 0.011746
#
#
# Mechanical properties :
#
#
# Convention : Reuss Voigt Hill
#
# Bulk Modulus (GPa) = 40.68893 62.43592 51.56242
# Shear Modulus (GPa) = 39.99051 51.69355 45.84203
#
# Velocity S-wave (km/s) = 3.87572 4.40648 4.14960
# Velocity P-wave (km/s) = 5.94238 7.02436 6.50590
#
# Compressibility (1/GPa) = 0.02457671
#
# Stress axis : x y z
#
# Youngs Moduli (GPa) = 46.50833 159.06506 105.80110
#
# Poissons Ratio (x) = 0.48119 0.07951
# Poissons Ratio (y) = 0.14069 0.27032
# Poissons Ratio (z) = 0.03495 0.40641
#
# Static dielectric constant tensor:
#      x y z
#    x 2.122100 0.000000 0.000000 
#    y 0.000000 2.016290 0.000000 
#    z 0.000000 0.000000 2.089950 
# 
# From -- ./inp_files/148.got.cif
#   From: 2010.05.17/outbox.cif.g08.bks.cpg/sg19_1_cif.got.tgz:148.got - 2010.06.03 22:46:19.
