data_PCOD9316232
_publ_section_title
;
Structure prediction by ZEFSAII (Michael W. Deem and Ramdas Pophale) SiO2 
 PCOD9316232
Probable space group: C 2 2 21
;
_chemical_formula_sum "Si O2"
_cell_formula_units_Z 40
_cell_length_a 17.839646
_cell_length_b 6.979962
_cell_length_c 13.168953
_cell_angle_alpha 90.000000
_cell_angle_beta 90.000000
_cell_angle_gamma 90.000000
_cell_volume 1639.798701
_symmetry_space_group_name_H-M "C 2 2 21"
_symmetry_group_IT_number 20
_symmetry_cell_setting 'orthorhombic'
loop_
_space_group_symop_operation_xyz
x,y,z
-x,-y,1/2+z
x,-y,-z
-x,y,1/2-z
1/2+x,1/2+y,z
1/2-x,1/2-y,1/2+z
1/2+x,1/2-y,-z
1/2-x,1/2+y,1/2-z
loop_
_atom_site_type_symbol
_atom_site_label
_atom_site_fract_x
_atom_site_fract_y
_atom_site_fract_z
Si Si1 0.078161 0.686421 0.706920
Si Si2 0.121482 0.724979 0.097239
Si Si3 0.457259 0.768880 0.987931
Si Si4 0.828870 0.277822 0.385527
Si Si5 0.159959 0.709966 0.321803
O O1 0.057041 0.795458 0.603545
O O2 0.114489 0.801300 0.800088
O O3 0.137248 0.516947 0.680865
O O4 0.000000 0.599211 0.750000
O O5 0.140380 0.496704 0.104631
O O6 0.140234 0.788064 0.210494
O O7 0.036977 0.771996 0.063250
O O8 0.168697 0.795107 0.000755
O O9 0.391190 0.712277 0.912598
O O10 0.458053 0.000000 0.000000
O O11 0.745718 0.253560 0.344620
#
# Coordination Sequence:
#
# PCOD9316232 Si02
#       5
#     8   8   8   8   8
#     4  10  18  34  53  77 106 132 168 211 256 301
#     4  10  18  35  50  69 108 136 168 205 260 303
#     4  10  16  31  52  76  98 130 165 212 247 299
#     4  10  19  31  48  77 105 138 157 213 260 298
#     4  10  20  27  49  77 104 127 171 208 255 301
#
# _framework density 24.393238
#
# number of rings (size 3 to 8) (size 9 to 14) (size 15 to 20)
#    0.000    2.000    4.000    4.200    2.800    0.000 
#    0.000    0.000    0.000    0.000    0.000   50.400 
#    0.000    0.000    0.000    0.000    0.000    0.000 
#
# Total GULP energy -111704.106831 kJ/mol
# GULP energy per Si atom -5585.205342 kJ/mol
# Density = 2.433772 g / cm^3
# Si number density = 24.393238 Si / 1000 Ang^3
#
#
#
# Elastic Constant Matrix: (Units=GPa)
#
#
# Indices 1 2 3 4 5 6 
#
# 1 198.0508 6.9254 106.4588 0.0000 0.0000 0.0000
# 2 6.9254 79.7457 -22.2547 0.0000 0.0000 0.0000
# 3 106.4588 -22.2547 264.3597 0.0000 0.0000 0.0000
# 4 0.0000 0.0000 0.0000 -30.1998 0.0000 0.0000
# 5 0.0000 0.0000 0.0000 0.0000 28.2586 0.0000
# 6 0.0000 0.0000 0.0000 0.0000 0.0000 -14.5045
#
#
#
# Elastic Compliance Matrix: (Units=1/GPa)
#
#
# Indices 1 2 3 4 5 6 
#
# 1 0.006582 -0.001343 -0.002763 0.000000 0.000000 0.000000
# 2 -0.001343 0.013115 0.001645 0.000000 0.000000 0.000000
# 3 -0.002763 0.001645 0.005034 0.000000 0.000000 0.000000
# 4 0.000000 0.000000 0.000000 -0.033113 0.000000 0.000000
# 5 0.000000 0.000000 0.000000 0.000000 0.035387 0.000000
# 6 0.000000 0.000000 0.000000 0.000000 0.000000 -0.068944
#
#
# Mechanical properties :
#
#
# Convention : Reuss Voigt Hill
#
# Bulk Modulus (GPa) = 50.48375 80.49057 65.48716
# Shear Modulus (GPa) = -164.40575 26.77930 -68.81322
#
# Velocity S-wave (km/s) = -8.21854 3.31693 -5.31707
# Velocity P-wave (km/s) = 8.32577 6.90927 3.28485
#
# Compressibility (1/GPa) = 0.01980835
#
# Stress axis : x y z
#
# Youngs Moduli (GPa) = 151.93806 76.24567 198.64666
#
# Poissons Ratio (x) = 0.10238 0.54896
# Poissons Ratio (y) = 0.20402 -0.32674
# Poissons Ratio (z) = 0.41988 -0.12541
#
# Static dielectric constant tensor:
#      x y z
#    x 1.859990 0.000000 0.000000 
#    y 0.000000 2.108610 0.000000 
#    z 0.000000 0.000000 2.010310 
# 
# From -- ./inp_files/18554.got.cif
#   From: 2010.05.17/outbox.cif.g08.bks.cpg/sg20_10_cif.got.tgz:18554.got - 2010.06.03 22:52:26.
