data_PCOD9316486
_publ_section_title
;
Structure prediction by ZEFSAII (Michael W. Deem and Ramdas Pophale) SiO2 
 PCOD9316486
Probable space group: C 2 2 21
;
_chemical_formula_sum "Si O2"
_cell_formula_units_Z 48
_cell_length_a 22.715487
_cell_length_b 5.445809
_cell_length_c 18.192316
_cell_angle_alpha 90.000000
_cell_angle_beta 90.000000
_cell_angle_gamma 90.000000
_cell_volume 2250.465961
_symmetry_space_group_name_H-M "C 2 2 21"
_symmetry_group_IT_number 20
_symmetry_cell_setting 'orthorhombic'
loop_
_space_group_symop_operation_xyz
x,y,z
-x,-y,1/2+z
x,-y,-z
-x,y,1/2-z
1/2+x,1/2+y,z
1/2-x,1/2-y,1/2+z
1/2+x,1/2-y,-z
1/2-x,1/2+y,1/2-z
loop_
_atom_site_type_symbol
_atom_site_label
_atom_site_fract_x
_atom_site_fract_y
_atom_site_fract_z
Si Si1 0.778479 0.295140 0.283943
Si Si2 0.239006 0.746826 0.958598
Si Si3 0.458923 0.687790 0.123307
Si Si4 0.466291 0.000000 0.000000
Si Si5 0.500000 0.664280 0.750000
Si Si6 0.393213 0.957711 0.772275
Si Si7 0.369937 0.688170 0.914396
O O1 0.742766 0.542504 0.256640
O O2 0.776121 0.258251 0.371936
O O3 0.845742 0.366466 0.263982
O O4 0.310271 0.728398 0.957578
O O5 0.217262 0.500000 0.000000
O O6 0.222336 0.000000 0.000000
O O7 0.495513 0.808886 0.056755
O O8 0.485744 0.481872 0.175167
O O9 0.440102 0.888416 0.181536
O O10 0.397234 0.583064 0.090516
O O11 0.423175 0.158674 0.051038
O O12 0.438750 0.795984 0.726939
O O13 0.360083 0.785811 0.831528
#
# Coordination Sequence:
#
# PCOD9316486 Si02
#       7
#     8   8   8   4   4   8   8
#     4  12  25  43  69 106 143 186 233 290 350 428
#     4  12  24  39  61  99 142 183 226 277 353 421
#     4  10  20  35  60  94 129 176 217 284 351 409
#     4  10  18  30  56  92 130 164 206 270 356 412
#     4  10  22  40  60  98 132 180 226 286 340 404
#     4  10  22  39  63  97 132 172 232 283 336 415
#     4  10  19  34  56  91 134 168 210 276 351 403
#
# _framework density 21.328917000000001
#
# number of rings (size 3 to 8) (size 9 to 14) (size 15 to 20)
#    0.000    1.333    2.500    4.000    4.667    0.000 
#    0.000    0.000    0.000    0.000   52.000    0.000 
#    0.000    0.000    0.000    0.000    0.000    0.000 
#
# Total GULP energy -133759.490421 kJ/mol
# GULP energy per Si atom -5573.312101 kJ/mol
# Density = 2.128037 g / cm^3
# Si number density = 21.328917 Si / 1000 Ang^3
#
#
#
# Elastic Constant Matrix: (Units=GPa)
#
#
# Indices 1 2 3 4 5 6 
#
# 1 34.9526 9.7457 28.1595 0.0000 0.0000 0.0000
# 2 9.7457 101.5764 62.8782 0.0000 0.0000 0.0000
# 3 28.1595 62.8782 137.9496 0.0000 0.0000 0.0000
# 4 0.0000 0.0000 0.0000 42.7569 0.0000 0.0000
# 5 0.0000 0.0000 0.0000 0.0000 27.2609 0.0000
# 6 0.0000 0.0000 0.0000 0.0000 0.0000 15.5578
#
#
#
# Elastic Compliance Matrix: (Units=1/GPa)
#
#
# Indices 1 2 3 4 5 6 
#
# 1 0.034396 0.001457 -0.007685 0.000000 0.000000 0.000000
# 2 0.001457 0.013776 -0.006577 0.000000 0.000000 0.000000
# 3 -0.007685 -0.006577 0.011816 0.000000 0.000000 0.000000
# 4 0.000000 0.000000 0.000000 0.023388 0.000000 0.000000
# 5 0.000000 0.000000 0.000000 0.000000 0.036683 0.000000
# 6 0.000000 0.000000 0.000000 0.000000 0.000000 0.064276
#
#
# Mechanical properties :
#
#
# Convention : Reuss Voigt Hill
#
# Bulk Modulus (GPa) = 29.08861 52.89392 40.99127
# Shear Modulus (GPa) = 22.58328 28.69481 25.63904
#
# Velocity S-wave (km/s) = 3.25747 3.67188 3.47086
# Velocity P-wave (km/s) = 5.27407 6.54446 5.94330
#
# Compressibility (1/GPa) = 0.03437771
#
# Stress axis : x y z
#
# Youngs Moduli (GPa) = 29.07356 72.58933 84.63424
#
# Poissons Ratio (x) = -0.10579 0.65045
# Poissons Ratio (y) = -0.04237 0.55662
# Poissons Ratio (z) = 0.22344 0.47740
#
# Static dielectric constant tensor:
#      x y z
#    x 1.771420 0.000000 0.000000 
#    y 0.000000 1.945370 0.000000 
#    z 0.000000 0.000000 1.849910 
# 
# From -- ./inp_files/25588.got.cif
#   From: 2010.05.17/outbox.cif.g08.bks.cpg/sg20_13_cif.got.tgz:25588.got - 2010.06.03 22:52:26.
