data_PCOD9316753
_publ_section_title
;
Structure prediction by ZEFSAII (Michael W. Deem and Ramdas Pophale) SiO2 
 PCOD9316753
Probable space group: C 2 2 21
;
_chemical_formula_sum "Si O2"
_cell_formula_units_Z 60
_cell_length_a 20.192220
_cell_length_b 11.383187
_cell_length_c 12.828143
_cell_angle_alpha 90.000000
_cell_angle_beta 90.000000
_cell_angle_gamma 90.000000
_cell_volume 2948.571967
_symmetry_space_group_name_H-M "C 2 2 21"
_symmetry_group_IT_number 20
_symmetry_cell_setting 'orthorhombic'
loop_
_space_group_symop_operation_xyz
x,y,z
-x,-y,1/2+z
x,-y,-z
-x,y,1/2-z
1/2+x,1/2+y,z
1/2-x,1/2-y,1/2+z
1/2+x,1/2-y,-z
1/2-x,1/2+y,1/2-z
loop_
_atom_site_type_symbol
_atom_site_label
_atom_site_fract_x
_atom_site_fract_y
_atom_site_fract_z
Si Si1 0.806309 0.355712 0.226785
Si Si2 0.676119 0.338400 0.341495
Si Si3 0.436937 0.500000 0.500000
Si Si4 0.247586 0.207162 0.447332
Si Si5 0.347447 0.896666 0.712008
Si Si6 0.634330 0.712669 0.082816
Si Si7 0.969569 0.164515 0.863594
Si Si8 0.535250 0.872586 0.955490
O O1 0.730577 0.385636 0.260971
O O2 0.800833 0.289944 0.117935
O O3 0.845548 0.476515 0.235129
O O4 0.835596 0.263516 0.310941
O O5 0.709652 0.345397 0.454460
O O6 0.662449 0.206874 0.295839
O O7 0.603070 0.389495 0.351384
O O8 0.394301 0.417637 0.576620
O O9 0.482573 0.416946 0.430662
O O10 0.285836 0.118148 0.369730
O O11 0.307342 0.281434 0.497616
O O12 0.413630 0.883090 0.642367
O O13 0.577598 0.802227 0.042773
O O14 0.000000 0.178273 0.750000
O O15 0.974264 0.291657 0.919680
O O16 0.518295 0.000000 0.000000
#
# Coordination Sequence:
#
# PCOD9316753 Si02
#       8
#     8   8   4   8   8   8   8   8
#     4  10  20  36  62  91 119 157 198 255 320 367
#     4  10  22  40  57  88 126 155 199 252 308 374
#     4  10  24  40  64  86 120 172 210 252 298 366
#     4   9  21  35  55  90 123 152 197 255 314 370
#     4  10  19  36  63  89 117 159 199 252 310 365
#     4   9  19  36  59  86 117 152 206 248 298 366
#     4  11  23  44  63  88 124 168 212 248 306 372
#     4  10  18  36  66  87 110 157 208 246 291 367
#
# _framework density 20.348835000000001
#
# number of rings (size 3 to 8) (size 9 to 14) (size 15 to 20)
#    0.000    2.133    2.667    0.000    1.867    4.800 
#    4.800    0.000    0.000    0.000    0.000    0.000 
#    0.000    0.000    0.000    0.000    0.000    0.000 
#
# Total GULP energy -167424.719486 kJ/mol
# GULP energy per Si atom -5580.823983 kJ/mol
# Density = 2.030252 g / cm^3
# Si number density = 20.348835 Si / 1000 Ang^3
#
#
#
# Elastic Constant Matrix: (Units=GPa)
#
#
# Indices 1 2 3 4 5 6 
#
# 1 51.2193 -10.1454 -13.4328 0.0000 0.0000 0.0000
# 2 -10.1454 74.0142 -1.6714 0.0000 0.0000 0.0000
# 3 -13.4328 -1.6714 55.3857 0.0000 0.0000 0.0000
# 4 0.0000 0.0000 0.0000 19.8747 0.0000 0.0000
# 5 0.0000 0.0000 0.0000 0.0000 -16.4156 0.0000
# 6 0.0000 0.0000 0.0000 0.0000 0.0000 9.9275
#
#
#
# Elastic Compliance Matrix: (Units=1/GPa)
#
#
# Indices 1 2 3 4 5 6 
#
# 1 0.021526 0.003071 0.005313 0.000000 0.000000 0.000000
# 2 0.003071 0.013958 0.001166 0.000000 0.000000 0.000000
# 3 0.005313 0.001166 0.019379 0.000000 0.000000 0.000000
# 4 0.000000 0.000000 0.000000 0.050315 0.000000 0.000000
# 5 0.000000 0.000000 0.000000 0.000000 -0.060918 0.000000
# 6 0.000000 0.000000 0.000000 0.000000 0.000000 0.100730
#
#
# Mechanical properties :
#
#
# Convention : Reuss Voigt Hill
#
# Bulk Modulus (GPa) = 13.52040 14.45779 13.98910
# Shear Modulus (GPa) = 33.21266 16.40191 24.80728
#
# Velocity S-wave (km/s) = 4.04439 2.84216 3.49535
# Velocity P-wave (km/s) = 5.33556 4.22976 4.81451
#
# Compressibility (1/GPa) = 0.07396230
#
# Stress axis : x y z
#
# Youngs Moduli (GPa) = 46.45641 71.64280 51.60214
#
# Poissons Ratio (x) = -0.21998 -0.27418
# Poissons Ratio (y) = -0.14265 -0.06016
# Poissons Ratio (z) = -0.24684 -0.08353
#
# Static dielectric constant tensor:
#      x y z
#    x 1.736610 0.000000 0.000000 
#    y 0.000000 1.771550 0.000000 
#    z 0.000000 0.000000 1.715950 
# 
# From -- ./inp_files/16389.got.cif
#   From: 2010.05.17/outbox.cif.g08.bks.cpg/sg20_9_cif.got.tgz:16389.got - 2010.06.03 22:52:26.
