data_PCOD9316312
_publ_section_title
;
Structure prediction by ZEFSAII (Michael W. Deem and Ramdas Pophale) SiO2 
 PCOD9316312
Probable space group: C 2 2 21
;
_chemical_formula_sum "Si O2"
_cell_formula_units_Z 56
_cell_length_a 17.247771
_cell_length_b 21.144385
_cell_length_c 8.741116
_cell_angle_alpha 90.000000
_cell_angle_beta 90.000000
_cell_angle_gamma 90.000000
_cell_volume 3187.828279
_symmetry_space_group_name_H-M "C 2 2 21"
_symmetry_group_IT_number 20
_symmetry_cell_setting 'orthorhombic'
loop_
_space_group_symop_operation_xyz
x,y,z
-x,-y,1/2+z
x,-y,-z
-x,y,1/2-z
1/2+x,1/2+y,z
1/2-x,1/2-y,1/2+z
1/2+x,1/2-y,-z
1/2-x,1/2+y,1/2-z
loop_
_atom_site_type_symbol
_atom_site_label
_atom_site_fract_x
_atom_site_fract_y
_atom_site_fract_z
Si Si1 0.116030 0.708973 0.091151
Si Si2 0.678996 0.813785 0.583401
Si Si3 0.962026 0.719624 0.902722
Si Si4 0.761986 0.831948 0.067208
Si Si5 0.947148 0.926145 0.535432
Si Si6 0.095982 0.864651 0.634423
Si Si7 0.315574 0.648936 0.603470
O O1 0.135844 0.678566 0.255402
O O2 0.149549 0.780246 0.097373
O O3 0.172084 0.671271 0.975903
O O4 0.028114 0.715987 0.033638
O O5 0.613457 0.817318 0.455075
O O6 0.709921 0.741272 0.580512
O O7 0.752337 0.855167 0.532723
O O8 0.933587 0.791498 0.863577
O O9 0.000000 0.693854 0.750000
O O10 0.776611 0.861021 0.232691
O O11 0.818071 0.862227 0.937602
O O12 0.915547 0.899741 0.701681
O O13 0.887779 0.896132 0.417483
O O14 0.034201 0.899411 0.525245
O O15 0.948462 0.000000 0.500000
#
# Coordination Sequence:
#
# PCOD9316312 Si02
#       7
#     8   8   8   8   8   8   8
#     4  10  17  30  47  73 101 130 163 194 251 321
#     4   9  19  28  46  72 100 130 162 197 250 317
#     4  11  17  29  49  71 102 134 163 197 254 312
#     4   9  19  29  50  70  95 131 162 201 256 314
#     4  11  22  35  52  69  94 140 186 221 255 293
#     4  10  20  36  47  68  98 134 169 220 263 290
#     4  10  18  33  46  69  97 128 168 212 252 295
#
# _framework density 17.566818999999999
#
# number of rings (size 3 to 8) (size 9 to 14) (size 15 to 20)
#    0.000    2.000    2.857    2.143    0.000    7.429 
#    0.000    0.000    0.000    0.000    0.000    0.000 
#    0.000   14.857    0.000    0.000    0.000    0.286 
#
# Total GULP energy -155978.650073 kJ/mol
# GULP energy per Si atom -5570.666074 kJ/mol
# Density = 1.752684 g / cm^3
# Si number density = 17.566819 Si / 1000 Ang^3
#
#
#
# Elastic Constant Matrix: (Units=GPa)
#
#
# Indices 1 2 3 4 5 6 
#
# 1 52.9193 6.9825 -9.4696 0.0000 0.0000 0.0000
# 2 6.9825 19.6318 -11.1847 0.0000 0.0000 0.0000
# 3 -9.4696 -11.1847 24.5530 0.0000 0.0000 0.0000
# 4 0.0000 0.0000 0.0000 1.5006 0.0000 0.0000
# 5 0.0000 0.0000 0.0000 0.0000 30.6907 0.0000
# 6 0.0000 0.0000 0.0000 0.0000 0.0000 7.4938
#
#
#
# Elastic Compliance Matrix: (Units=1/GPa)
#
#
# Indices 1 2 3 4 5 6 
#
# 1 0.020501 -0.003764 0.006192 0.000000 0.000000 0.000000
# 2 -0.003764 0.069482 0.030200 0.000000 0.000000 0.000000
# 3 0.006192 0.030200 0.056873 0.000000 0.000000 0.000000
# 4 0.000000 0.000000 0.000000 0.666390 0.000000 0.000000
# 5 0.000000 0.000000 0.000000 0.000000 0.032583 0.000000
# 6 0.000000 0.000000 0.000000 0.000000 0.000000 0.133444
#
#
# Mechanical properties :
#
#
# Convention : Reuss Voigt Hill
#
# Bulk Modulus (GPa) = 4.71446 7.75117 6.23282
# Shear Modulus (GPa) = 5.07757 15.32207 10.19982
#
# Velocity S-wave (km/s) = 1.70197 2.95653 2.41224
# Velocity P-wave (km/s) = 2.55966 4.00958 3.36367
#
# Compressibility (1/GPa) = 0.21211324
#
# Stress axis : x y z
#
# Youngs Moduli (GPa) = 48.77708 14.39221 17.58291
#
# Poissons Ratio (x) = 0.05417 -0.10888
# Poissons Ratio (y) = 0.18359 -0.53100
# Poissons Ratio (z) = -0.30205 -0.43464
#
# Static dielectric constant tensor:
#      x y z
#    x 1.611110 0.000000 0.000000 
#    y 0.000000 1.573420 0.000000 
#    z 0.000000 0.000000 1.682330 
# 
# From -- ./inp_files/8745.got.cif
#   From: 2010.05.17/outbox.cif.g08.bks.cpg/sg20_5_cif.got.tgz:8745.got - 2010.06.03 22:52:26.
