data_PCOD9316266
_publ_section_title
;
Structure prediction by ZEFSAII (Michael W. Deem and Ramdas Pophale) SiO2 
 PCOD9316266
Probable space group: C 2 2 21
;
_chemical_formula_sum "Si O2"
_cell_formula_units_Z 44
_cell_length_a 24.664204
_cell_length_b 7.264722
_cell_length_c 8.806710
_cell_angle_alpha 90.000000
_cell_angle_beta 90.000000
_cell_angle_gamma 90.000000
_cell_volume 1577.973840
_symmetry_space_group_name_H-M "C 2 2 21"
_symmetry_group_IT_number 20
_symmetry_cell_setting 'orthorhombic'
loop_
_space_group_symop_operation_xyz
x,y,z
-x,-y,1/2+z
x,-y,-z
-x,y,1/2-z
1/2+x,1/2+y,z
1/2-x,1/2-y,1/2+z
1/2+x,1/2-y,-z
1/2-x,1/2+y,1/2-z
loop_
_atom_site_type_symbol
_atom_site_label
_atom_site_fract_x
_atom_site_fract_y
_atom_site_fract_z
Si Si1 0.921394 0.268364 0.300237
Si Si2 0.676303 0.000000 0.500000
Si Si3 0.199617 0.212403 0.250273
Si Si4 0.514706 0.223468 0.496483
Si Si5 0.799136 0.682048 0.430271
Si Si6 0.103790 0.305709 0.723664
O O1 0.863366 0.175272 0.277012
O O2 0.954675 0.216981 0.149704
O O3 0.914002 0.491655 0.286382
O O4 0.952698 0.224970 0.458348
O O5 0.699476 0.098683 0.649747
O O6 0.637713 0.156960 0.430106
O O7 0.244970 0.111983 0.347183
O O8 0.220355 0.208304 0.077456
O O9 0.548500 0.280992 0.346223
O O10 0.515908 0.000000 0.500000
O O11 0.825698 0.500000 0.500000
O O12 0.847472 0.769211 0.331473
#
# Coordination Sequence:
#
# PCOD9316266 Si02
#       6
#     8   4   8   8   8   8
#     4   9  17  29  49  79 112 157 189 235 295 372
#     4  10  16  36  56  76 116 158 198 254 300 362
#     4  11  23  36  57  79 120 161 210 248 302 355
#     4   9  16  27  50  75 114 156 184 225 303 370
#     4  12  24  37  58  82 117 171 213 250 304 356
#     4  10  17  33  49  79 115 159 200 241 291 373
#
# _framework density 27.883858
#
# number of rings (size 3 to 8) (size 9 to 14) (size 15 to 20)
#    0.000    1.818    8.182    1.091    2.545    0.000 
#    0.000    0.000    0.000    0.000    0.000    0.000 
#    0.000   11.636    1.455    1.818    0.000    0.000 
#
# Total GULP energy -122655.470429 kJ/mol
# GULP energy per Si atom -5575.248656 kJ/mol
# Density = 2.782039 g / cm^3
# Si number density = 27.883858 Si / 1000 Ang^3
#
#
#
# Elastic Constant Matrix: (Units=GPa)
#
#
# Indices 1 2 3 4 5 6 
#
# 1 191.3816 17.4956 103.6063 0.0000 0.0000 0.0000
# 2 17.4956 75.0176 12.4231 0.0000 0.0000 0.0000
# 3 103.6063 12.4231 157.8164 0.0000 0.0000 0.0000
# 4 0.0000 0.0000 0.0000 11.9742 0.0000 0.0000
# 5 0.0000 0.0000 0.0000 0.0000 84.7767 0.0000
# 6 0.0000 0.0000 0.0000 0.0000 0.0000 4.6610
#
#
#
# Elastic Compliance Matrix: (Units=1/GPa)
#
#
# Indices 1 2 3 4 5 6 
#
# 1 0.008184 -0.001032 -0.005292 0.000000 0.000000 0.000000
# 2 -0.001032 0.013637 -0.000396 0.000000 0.000000 0.000000
# 3 -0.005292 -0.000396 0.009842 0.000000 0.000000 0.000000
# 4 0.000000 0.000000 0.000000 0.083513 0.000000 0.000000
# 5 0.000000 0.000000 0.000000 0.000000 0.011796 0.000000
# 6 0.000000 0.000000 0.000000 0.000000 0.000000 0.214545
#
#
# Mechanical properties :
#
#
# Convention : Reuss Voigt Hill
#
# Bulk Modulus (GPa) = 54.87619 76.80728 65.84173
# Shear Modulus (GPa) = 13.84926 39.66176 26.75551
#
# Velocity S-wave (km/s) = 2.23104 3.77555 3.10100
# Velocity P-wave (km/s) = 5.13417 6.82727 6.04034
#
# Compressibility (1/GPa) = 0.01822284
#
# Stress axis : x y z
#
# Youngs Moduli (GPa) = 122.18601 73.33252 101.60943
#
# Poissons Ratio (x) = 0.07571 0.53768
# Poissons Ratio (y) = 0.12615 0.04020
# Poissons Ratio (z) = 0.64657 0.02902
#
# Static dielectric constant tensor:
#      x y z
#    x 2.323420 0.000000 0.000000 
#    y 0.000000 2.227400 0.000000 
#    z 0.000000 0.000000 2.195680 
# 
# From -- ./inp_files/10591.got.cif
#   From: 2010.05.17/outbox.cif.g08.bks.cpg/sg20_6_cif.got.tgz:10591.got - 2010.06.03 22:52:26.
