data_PCOD9316309
_publ_section_title
;
Structure prediction by ZEFSAII (Michael W. Deem and Ramdas Pophale) SiO2 
 PCOD9316309
Probable space group: C 2 2 21
;
_chemical_formula_sum "Si O2"
_cell_formula_units_Z 56
_cell_length_a 14.346023
_cell_length_b 15.671514
_cell_length_c 12.677735
_cell_angle_alpha 90.000000
_cell_angle_beta 90.000000
_cell_angle_gamma 90.000000
_cell_volume 2850.257830
_symmetry_space_group_name_H-M "C 2 2 21"
_symmetry_group_IT_number 20
_symmetry_cell_setting 'orthorhombic'
loop_
_space_group_symop_operation_xyz
x,y,z
-x,-y,1/2+z
x,-y,-z
-x,y,1/2-z
1/2+x,1/2+y,z
1/2-x,1/2-y,1/2+z
1/2+x,1/2-y,-z
1/2-x,1/2+y,1/2-z
loop_
_atom_site_type_symbol
_atom_site_label
_atom_site_fract_x
_atom_site_fract_y
_atom_site_fract_z
Si Si1 0.292921 0.525687 0.780306
Si Si2 0.071605 0.888789 0.669260
Si Si3 0.976629 0.226898 0.872111
Si Si4 0.433419 0.455881 0.396229
Si Si5 0.088074 0.483168 0.175901
Si Si6 0.685365 0.658741 0.534180
Si Si7 0.604463 0.139530 0.013477
O O1 0.336471 0.430877 0.779225
O O2 0.355997 0.566978 0.690309
O O3 0.183745 0.529029 0.760046
O O4 0.307753 0.571796 0.894345
O O5 0.117232 0.846048 0.567224
O O6 0.000000 0.841829 0.750000
O O7 0.007876 0.970936 0.637078
O O8 0.010599 0.131842 0.904640
O O9 0.031792 0.292038 0.944956
O O10 0.000000 0.241512 0.750000
O O11 0.865691 0.226879 0.891130
O O12 0.390852 0.500000 0.500000
O O13 0.106369 0.563757 0.099617
O O14 0.000000 0.496006 0.250000
O O15 0.075918 0.402961 0.097495
O O16 0.790944 0.675842 0.499671
#
# Coordination Sequence:
#
# PCOD9316309 Si02
#       7
#     8   8   8   8   8   8   8
#     4  10  18  33  62  90 114 158 204 253 305 369
#     4  10  17  29  58  94 117 149 200 250 308 363
#     4  12  22  40  62  94 130 160 206 264 320 375
#     4  11  19  33  59  97 128 151 193 258 324 371
#     4  10  21  44  68  85 119 166 224 259 298 382
#     4  11  19  38  62  87 124 166 209 250 308 388
#     4  10  24  41  66  92 116 173 217 257 316 376
#
# _framework density 19.647345999999999
#
# number of rings (size 3 to 8) (size 9 to 14) (size 15 to 20)
#    0.000    1.429    5.714    1.286    0.000    0.000 
#    5.143    3.571    0.000    0.000    0.000    0.000 
#    0.000    0.000    0.000    0.000    0.000    0.000 
#
# Total GULP energy -156019.429185 kJ/mol
# GULP energy per Si atom -5572.122471 kJ/mol
# Density = 1.960263 g / cm^3
# Si number density = 19.647346 Si / 1000 Ang^3
#
#
#
# Elastic Constant Matrix: (Units=GPa)
#
#
# Indices 1 2 3 4 5 6 
#
# 1 135.1379 13.1789 44.8001 0.0000 0.0000 0.0000
# 2 13.1789 24.3313 2.2365 0.0000 0.0000 0.0000
# 3 44.8001 2.2365 59.7469 0.0000 0.0000 0.0000
# 4 0.0000 0.0000 0.0000 10.7172 0.0000 0.0000
# 5 0.0000 0.0000 0.0000 0.0000 36.7241 0.0000
# 6 0.0000 0.0000 0.0000 0.0000 0.0000 18.8198
#
#
#
# Elastic Compliance Matrix: (Units=1/GPa)
#
#
# Indices 1 2 3 4 5 6 
#
# 1 0.010407 -0.004937 -0.007619 0.000000 0.000000 0.000000
# 2 -0.004937 0.043583 0.002070 0.000000 0.000000 0.000000
# 3 -0.007619 0.002070 0.022373 0.000000 0.000000 0.000000
# 4 0.000000 0.000000 0.000000 0.093308 0.000000 0.000000
# 5 0.000000 0.000000 0.000000 0.000000 0.027230 0.000000
# 6 0.000000 0.000000 0.000000 0.000000 0.000000 0.053136
#
#
# Mechanical properties :
#
#
# Convention : Reuss Voigt Hill
#
# Bulk Modulus (GPa) = 18.05310 37.73859 27.89584
# Shear Modulus (GPa) = 17.27294 23.85225 20.56259
#
# Velocity S-wave (km/s) = 2.96826 3.48806 3.23860
# Velocity P-wave (km/s) = 4.57777 5.95582 5.31167
#
# Compressibility (1/GPa) = 0.05539215
#
# Stress axis : x y z
#
# Youngs Moduli (GPa) = 96.08932 22.94477 44.69772
#
# Poissons Ratio (x) = 0.11327 0.34054
# Poissons Ratio (y) = 0.47435 -0.09253
# Poissons Ratio (z) = 0.73207 -0.04750
#
# Static dielectric constant tensor:
#      x y z
#    x 1.697480 0.000000 0.000000 
#    y 0.000000 1.698740 0.000000 
#    z 0.000000 0.000000 1.802120 
# 
# From -- ./inp_files/14315.got.cif
#   From: 2010.05.17/outbox.cif.g08.bks.cpg/sg20_8_cif.got.tgz:14315.got - 2010.06.03 22:52:26.
