data_PCOD9316156
_publ_section_title
;
Structure prediction by ZEFSAII (Michael W. Deem and Ramdas Pophale) SiO2 
 PCOD9316156
Probable space group: P 21 21 21
;
_chemical_formula_sum "Si O2"
_cell_formula_units_Z 32
_cell_length_a 15.000000
_cell_length_b 9.000000
_cell_length_c 12.000000
_cell_angle_alpha 90.000000
_cell_angle_beta 90.000000
_cell_angle_gamma 90.000000
_cell_volume 1620.000000
_symmetry_space_group_name_H-M "P 21 21 21"
_symmetry_group_IT_number 19
_symmetry_cell_setting 'orthorhombic'
loop_
_space_group_symop_operation_xyz
x,y,z
1/2-x,-y,1/2+z
1/2+x,1/2-y,-z
-x,1/2+y,1/2-z
loop_
_atom_site_type_symbol
_atom_site_label
_atom_site_fract_x
_atom_site_fract_y
_atom_site_fract_z
Si Si1 0.474946 0.210069 0.649412
Si Si2 0.966977 0.464987 0.115297
Si Si3 0.747542 0.827246 0.615755
Si Si4 0.065354 0.463389 0.882539
Si Si5 0.382567 0.545365 0.010452
Si Si6 0.063893 0.699247 0.691953
Si Si7 0.304393 0.100938 0.053648
Si Si8 0.736378 0.724665 0.872083
O O1 0.522426 0.369054 0.660373
O O2 0.473755 0.136553 0.773833
O O3 0.538286 0.124535 0.559731
O O4 0.371703 0.230137 0.606399
O O5 0.877855 0.432210 0.043457
O O6 0.037850 0.459117 0.012841
O O7 0.830573 0.936134 0.623842
O O8 0.762331 0.706090 0.516870
O O9 0.740290 0.756385 0.738801
O O10 0.665356 0.928796 0.573973
O O11 0.049343 0.616049 0.811542
O O12 0.014777 0.319550 0.828913
O O13 0.425753 0.441088 0.107095
O O14 0.305875 0.658723 0.064099
O O15 0.149790 0.802325 0.654072
O O16 0.268197 0.943288 0.097652
#
# Coordination Sequence:
#
# PCOD9316156 Si02
#       8
#     4   4   4   4   4   4   4   4
#     4  12  26  45  76  98 148 192 244 302 371 437
#     4  11  25  46  68 108 139 190 240 295 366 444
#     4  11  24  46  68 103 145 187 244 305 364 443
#     4  11  25  45  73 107 142 189 241 302 370 447
#     4  11  25  48  71 105 145 197 244 307 371 443
#     4  10  25  43  74  99 149 184 235 304 370 433
#     4  10  24  48  66 102 145 187 246 302 361 448
#     4  12  24  47  74 106 145 194 252 305 373 441
#
# _framework density 19.753086
#
# number of rings (size 3 to 8) (size 9 to 14) (size 15 to 20)
#    0.000    1.000    3.750    1.500   10.500    0.000 
#    6.750    0.000    0.000    0.000    0.000    0.000 
#    0.000    0.000    0.000    0.000    0.000    0.000 
#
# Total GULP energy -178462.915498 kJ/mol
# GULP energy per Si atom -5576.966109 kJ/mol
# Density = 1.970813 g / cm^3
# Si number density = 19.753086 Si / 1000 Ang^3
#
#
#
# Elastic Constant Matrix: (Units=GPa)
#
#
# Indices 1 2 3 4 5 6 
#
# 1 55.3065 12.7158 30.7992 0.0000 0.0000 0.0000
# 2 12.7158 120.5618 36.7002 0.0000 0.0000 0.0000
# 3 30.7992 36.7002 105.4188 0.0000 0.0000 0.0000
# 4 0.0000 0.0000 0.0000 50.0235 0.0000 0.0000
# 5 0.0000 0.0000 0.0000 0.0000 31.0632 0.0000
# 6 0.0000 0.0000 0.0000 0.0000 0.0000 33.6556
#
#
#
# Elastic Compliance Matrix: (Units=1/GPa)
#
#
# Indices 1 2 3 4 5 6 
#
# 1 0.021612 -0.000400 -0.006175 0.000000 0.000000 0.000000
# 2 -0.000400 0.009285 -0.003116 0.000000 0.000000 0.000000
# 3 -0.006175 -0.003116 0.012375 0.000000 0.000000 0.000000
# 4 0.000000 0.000000 0.000000 0.019991 0.000000 0.000000
# 5 0.000000 0.000000 0.000000 0.000000 0.032192 0.000000
# 6 0.000000 0.000000 0.000000 0.000000 0.000000 0.029713
#
#
# Mechanical properties :
#
#
# Convention : Reuss Voigt Hill
#
# Bulk Modulus (GPa) = 41.85702 49.07970 45.46836
# Shear Modulus (GPa) = 32.78440 36.35325 34.56883
#
# Velocity S-wave (km/s) = 4.07837 4.29462 4.18789
# Velocity P-wave (km/s) = 6.58890 7.03507 6.81564
#
# Compressibility (1/GPa) = 0.02389085
#
# Stress axis : x y z
#
# Youngs Moduli (GPa) = 46.27131 107.69929 80.80984
#
# Poissons Ratio (x) = 0.04305 0.49899
# Poissons Ratio (y) = 0.01849 0.25178
# Poissons Ratio (z) = 0.28572 0.33556
#
# Static dielectric constant tensor:
#      x y z
#    x 1.731550 0.000000 0.000000 
#    y 0.000000 1.704880 0.000000 
#    z 0.000000 0.000000 1.710090 
# 
# From -- ./inp_files/5241.got.cif
#   From: 2010.05.17/outbox.ucp.g08.bks.cvg/sg19_3_cif.got.tgz:5241.got - 2010.06.11 13:13:52.
