data_PCOD9316505
_publ_section_title
;
Structure prediction by ZEFSAII (Michael W. Deem and Ramdas Pophale) SiO2 
 PCOD9316505
Probable space group: C 2 2 21
;
_chemical_formula_sum "Si O2"
_cell_formula_units_Z 52
_cell_length_a 15.058674
_cell_length_b 8.098800
_cell_length_c 20.459764
_cell_angle_alpha 90.000000
_cell_angle_beta 90.000000
_cell_angle_gamma 90.000000
_cell_volume 2495.215305
_symmetry_space_group_name_H-M "C 2 2 21"
_symmetry_group_IT_number 20
_symmetry_cell_setting 'orthorhombic'
loop_
_space_group_symop_operation_xyz
x,y,z
-x,-y,1/2+z
x,-y,-z
-x,y,1/2-z
1/2+x,1/2+y,z
1/2-x,1/2-y,1/2+z
1/2+x,1/2-y,-z
1/2-x,1/2+y,1/2-z
loop_
_atom_site_type_symbol
_atom_site_label
_atom_site_fract_x
_atom_site_fract_y
_atom_site_fract_z
Si Si1 0.512134 0.672639 0.463402
Si Si2 0.378533 0.817874 0.922852
Si Si3 0.512641 0.910263 0.822236
Si Si4 0.500000 0.583671 0.750000
Si Si5 0.192281 0.760800 0.972556
Si Si6 0.691097 0.081500 0.102350
Si Si7 0.375267 0.458011 0.850327
O O1 0.527537 0.500000 0.500000
O O2 0.556625 0.801321 0.514044
O O3 0.406785 0.685878 0.453262
O O4 0.565554 0.659558 0.396164
O O5 0.427769 0.929524 0.869015
O O6 0.279007 0.858260 0.947117
O O7 0.374743 0.638948 0.885791
O O8 0.500000 0.985113 0.750000
O O9 0.472202 0.713746 0.693727
O O10 0.600641 0.955205 0.860274
O O11 0.420818 0.479518 0.780383
O O12 0.206350 0.581425 0.940734
O O13 0.188940 0.731737 0.050709
O O14 0.774442 0.101994 0.149908
#
# Coordination Sequence:
#
# PCOD9316505 Si02
#       7
#     8   8   8   4   8   8   8
#     4  10  18  31  54  78 108 132 168 222 261 297
#     4   9  16  32  53  75 103 132 175 207 256 314
#     4   9  18  33  56  72  99 142 174 209 248 322
#     4   8  18  34  52  72 102 134 184 212 252 310
#     4  10  19  31  53  82 102 134 169 220 270 310
#     4  10  18  32  56  76 101 135 176 207 265 322
#     4   9  17  32  52  76  97 138 177 215 254 307
#
# _framework density 20.839886
#
# number of rings (size 3 to 8) (size 9 to 14) (size 15 to 20)
#    0.462    2.154    3.077    0.000    0.000    0.000 
#    2.769    1.538    5.077    0.000    0.000    0.000 
#    0.000    0.000    0.000    0.000    0.000    0.000 
#
# Total GULP energy -144817.804696 kJ/mol
# GULP energy per Si atom -5569.915565 kJ/mol
# Density = 2.079245 g / cm^3
# Si number density = 20.839886 Si / 1000 Ang^3
#
#
#
# Elastic Constant Matrix: (Units=GPa)
#
#
# Indices 1 2 3 4 5 6 
#
# 1 133.4054 -1.4057 33.2102 0.0000 0.0000 0.0000
# 2 -1.4057 21.8900 3.9625 0.0000 0.0000 0.0000
# 3 33.2102 3.9625 60.1839 0.0000 0.0000 0.0000
# 4 0.0000 0.0000 0.0000 6.3776 0.0000 0.0000
# 5 0.0000 0.0000 0.0000 0.0000 22.6515 0.0000
# 6 0.0000 0.0000 0.0000 0.0000 0.0000 12.6017
#
#
#
# Elastic Compliance Matrix: (Units=1/GPa)
#
#
# Indices 1 2 3 4 5 6 
#
# 1 0.008735 0.001451 -0.004916 0.000000 0.000000 0.000000
# 2 0.001451 0.046475 -0.003860 0.000000 0.000000 0.000000
# 3 -0.004916 -0.003860 0.019582 0.000000 0.000000 0.000000
# 4 0.000000 0.000000 0.000000 0.156798 0.000000 0.000000
# 5 0.000000 0.000000 0.000000 0.000000 0.044147 0.000000
# 6 0.000000 0.000000 0.000000 0.000000 0.000000 0.079354
#
#
# Mechanical properties :
#
#
# Convention : Reuss Voigt Hill
#
# Bulk Modulus (GPa) = 16.62742 31.89038 24.25890
# Shear Modulus (GPa) = 12.82743 20.30698 16.56721
#
# Velocity S-wave (km/s) = 2.48367 3.12497 2.82259
# Velocity P-wave (km/s) = 4.02750 5.32507 4.72108
#
# Compressibility (1/GPa) = 0.06014164
#
# Stress axis : x y z
#
# Youngs Moduli (GPa) = 114.48297 21.51702 51.06631
#
# Poissons Ratio (x) = -0.03122 0.25102
# Poissons Ratio (y) = -0.16608 0.19714
# Poissons Ratio (z) = 0.56275 0.08306
#
# Static dielectric constant tensor:
#      x y z
#    x 1.751000 0.000000 0.000000 
#    y 0.000000 1.801580 0.000000 
#    z 0.000000 0.000000 1.745870 
# 
# From -- ./inp_files/27646.got.cif
#   From: 2010.05.17/outbox.cif.g08.bks.cpg/sg20_14_cif.got.tgz:27646.got - 2010.06.03 22:52:26.
