data_PCOD9316578
_publ_section_title
;
Structure prediction by ZEFSAII (Michael W. Deem and Ramdas Pophale) SiO2 
 PCOD9316578
Probable space group: C 2 2 21
;
_chemical_formula_sum "Si O2"
_cell_formula_units_Z 48
_cell_length_a 30.226620
_cell_length_b 8.652668
_cell_length_c 7.355963
_cell_angle_alpha 90.000000
_cell_angle_beta 90.000000
_cell_angle_gamma 90.000000
_cell_volume 1923.885239
_symmetry_space_group_name_H-M "C 2 2 21"
_symmetry_group_IT_number 20
_symmetry_cell_setting 'orthorhombic'
loop_
_space_group_symop_operation_xyz
x,y,z
-x,-y,1/2+z
x,-y,-z
-x,y,1/2-z
1/2+x,1/2+y,z
1/2-x,1/2-y,1/2+z
1/2+x,1/2-y,-z
1/2-x,1/2+y,1/2-z
loop_
_atom_site_type_symbol
_atom_site_label
_atom_site_fract_x
_atom_site_fract_y
_atom_site_fract_z
Si Si1 0.423312 0.817834 0.536869
Si Si2 0.481278 0.175679 0.957818
Si Si3 0.304942 0.143531 0.767624
Si Si4 0.217210 0.306932 0.843892
Si Si5 0.355313 0.592953 0.689810
Si Si6 0.606327 0.299934 0.648722
O O1 0.474986 0.789567 0.576283
O O2 0.388607 0.737816 0.669663
O O3 0.413339 0.736148 0.347662
O O4 0.416849 0.000000 0.500000
O O5 0.500000 0.178765 0.750000
O O6 0.437045 0.275963 0.973919
O O7 0.467639 0.000000 0.000000
O O8 0.267887 0.256078 0.850328
O O9 0.303468 0.177855 0.547951
O O10 0.351956 0.182641 0.859472
O O11 0.291356 0.963483 0.767894
O O12 0.191260 0.163974 0.756060
O O13 0.350333 0.500000 0.500000
O O14 0.374287 0.469048 0.826074
#
# Coordination Sequence:
#
# PCOD9316578 Si02
#       6
#     8   8   8   8   8   8
#     4   9  16  31  60  88 116 156 211 251 295 366
#     4   9  19  36  61  93 125 159 208 258 313 369
#     4  11  23  39  63  91 129 155 212 251 315 366
#     4  11  23  39  62  94 120 168 203 259 301 382
#     4  10  18  32  61  89 121 159 211 247 301 368
#     4  10  19  34  58  90 123 165 199 259 304 366
#
# _framework density 24.949511999999999
#
# number of rings (size 3 to 8) (size 9 to 14) (size 15 to 20)
#    0.000    2.000    3.333    2.000    0.000    0.000 
#    3.000    0.000    0.000   88.000   30.333    0.000 
#    0.000    0.000    0.000    0.000    0.000    0.000 
#
# Total GULP energy -134235.619220 kJ/mol
# GULP energy per Si atom -5593.150801 kJ/mol
# Density = 2.489273 g / cm^3
# Si number density = 24.949512 Si / 1000 Ang^3
#
#
#
# Elastic Constant Matrix: (Units=GPa)
#
#
# Indices 1 2 3 4 5 6 
#
# 1 156.9211 68.8371 -3.1553 0.0000 0.0000 0.0000
# 2 68.8371 129.7358 7.3423 0.0000 0.0000 0.0000
# 3 -3.1553 7.3423 60.0888 0.0000 0.0000 0.0000
# 4 0.0000 0.0000 0.0000 9.5755 0.0000 0.0000
# 5 0.0000 0.0000 0.0000 0.0000 58.8935 0.0000
# 6 0.0000 0.0000 0.0000 0.0000 0.0000 43.2555
#
#
#
# Elastic Compliance Matrix: (Units=1/GPa)
#
#
# Indices 1 2 3 4 5 6 
#
# 1 0.008364 -0.004494 0.000988 0.000000 0.000000 0.000000
# 2 -0.004494 0.010176 -0.001479 0.000000 0.000000 0.000000
# 3 0.000988 -0.001479 0.016875 0.000000 0.000000 0.000000
# 4 0.000000 0.000000 0.000000 0.104433 0.000000 0.000000
# 5 0.000000 0.000000 0.000000 0.000000 0.016980 0.000000
# 6 0.000000 0.000000 0.000000 0.000000 0.000000 0.023118
#
#
# Mechanical properties :
#
#
# Convention : Reuss Voigt Hill
#
# Bulk Modulus (GPa) = 39.30065 54.75488 47.02776
# Shear Modulus (GPa) = 25.20200 40.59301 32.89750
#
# Velocity S-wave (km/s) = 3.18169 4.03799 3.63514
# Velocity P-wave (km/s) = 5.41145 6.61320 6.04228
#
# Compressibility (1/GPa) = 0.02544487
#
# Stress axis : x y z
#
# Youngs Moduli (GPa) = 119.56335 98.27015 59.26034
#
# Poissons Ratio (x) = 0.44160 -0.05857
# Poissons Ratio (y) = 0.53728 0.08767
# Poissons Ratio (z) = -0.11816 0.14538
#
# Static dielectric constant tensor:
#      x y z
#    x 1.970500 0.000000 0.000000 
#    y 0.000000 1.928350 0.000000 
#    z 0.000000 0.000000 2.042770 
# 
# From -- ./inp_files/11471.got.cif
#   From: 2010.05.17/outbox.cif.g08.bks.cpg/sg20_6_cif.got.tgz:11471.got - 2010.06.03 22:52:26.
