data_PCOD9316965
_publ_section_title
;
Structure prediction by ZEFSAII (Michael W. Deem and Ramdas Pophale) SiO2 
 PCOD9316965
Probable space group: C 2 2 21
;
_chemical_formula_sum "Si O2"
_cell_formula_units_Z 36
_cell_length_a 34.460071
_cell_length_b 11.475577
_cell_length_c 5.188426
_cell_angle_alpha 90.000000
_cell_angle_beta 90.000000
_cell_angle_gamma 90.000000
_cell_volume 2051.758902
_symmetry_space_group_name_H-M "C 2 2 21"
_symmetry_group_IT_number 20
_symmetry_cell_setting 'orthorhombic'
loop_
_space_group_symop_operation_xyz
x,y,z
-x,-y,1/2+z
x,-y,-z
-x,y,1/2-z
1/2+x,1/2+y,z
1/2-x,1/2-y,1/2+z
1/2+x,1/2-y,-z
1/2-x,1/2+y,1/2-z
loop_
_atom_site_type_symbol
_atom_site_label
_atom_site_fract_x
_atom_site_fract_y
_atom_site_fract_z
Si Si1 0.500000 0.417337 0.750000
Si Si2 0.290501 0.354941 0.138496
Si Si3 0.333898 0.681826 0.352254
Si Si4 0.789837 0.617252 0.875237
Si Si5 0.915422 0.082757 0.250103
O O1 0.499740 0.500000 0.500000
O O2 0.542077 0.356581 0.742320
O O3 0.322142 0.359980 0.365127
O O4 0.250358 0.408841 0.230747
O O5 0.308645 0.387906 0.862910
O O6 0.280880 0.216418 0.090712
O O7 0.319411 0.814227 0.310041
O O8 0.378477 0.665259 0.280959
O O9 0.805213 0.500000 0.000000
O O10 0.914825 0.000000 0.500000
O O11 0.911383 0.000000 0.000000
#
# Coordination Sequence:
#
# PCOD9316965 Si02
#       5
#     4   8   8   8   8
#     4   8  16  30  48  74 100 134 164 184 246 312
#     4  10  20  37  48  72  95 124 177 203 237 305
#     4  10  20  35  46  74  99 122 174 201 238 304
#     4  10  21  37  52  65  98 134 162 211 252 283
#     4  10  19  32  52  74 107 136 159 203 247 295
#
# _framework density 17.545922999999998
#
# number of rings (size 3 to 8) (size 9 to 14) (size 15 to 20)
#    1.333    0.889    2.222    1.333    0.000    3.556 
#    0.000    0.000    0.000    0.000    0.000    0.000 
#    6.667    0.000    0.000    0.000    0.000    0.000 
#
# Total GULP energy -100314.280829 kJ/mol
# GULP energy per Si atom -5573.015602 kJ/mol
# Density = 1.750599 g / cm^3
# Si number density = 17.545923 Si / 1000 Ang^3
#
#
#
# Elastic Constant Matrix: (Units=GPa)
#
#
# Indices 1 2 3 4 5 6 
#
# 1 158.6970 15.7690 16.8334 0.0000 0.0000 0.0000
# 2 15.7690 40.8117 10.4104 0.0000 0.0000 0.0000
# 3 16.8334 10.4104 111.3333 0.0000 0.0000 0.0000
# 4 0.0000 0.0000 0.0000 24.0220 0.0000 0.0000
# 5 0.0000 0.0000 0.0000 0.0000 23.2988 0.0000
# 6 0.0000 0.0000 0.0000 0.0000 0.0000 10.9556
#
#
#
# Elastic Compliance Matrix: (Units=1/GPa)
#
#
# Indices 1 2 3 4 5 6 
#
# 1 0.006618 -0.002358 -0.000780 0.000000 0.000000 0.000000
# 2 -0.002358 0.025942 -0.002069 0.000000 0.000000 0.000000
# 3 -0.000780 -0.002069 0.009293 0.000000 0.000000 0.000000
# 4 0.000000 0.000000 0.000000 0.041629 0.000000 0.000000
# 5 0.000000 0.000000 0.000000 0.000000 0.042921 0.000000
# 6 0.000000 0.000000 0.000000 0.000000 0.000000 0.091278
#
#
# Mechanical properties :
#
#
# Convention : Reuss Voigt Hill
#
# Bulk Modulus (GPa) = 31.80811 44.09640 37.95226
# Shear Modulus (GPa) = 20.95774 29.51055 25.23414
#
# Velocity S-wave (km/s) = 3.45983 4.10555 3.79644
# Velocity P-wave (km/s) = 5.84195 6.90367 6.39488
#
# Compressibility (1/GPa) = 0.03143852
#
# Stress axis : x y z
#
# Youngs Moduli (GPa) = 151.09399 38.54783 107.60231
#
# Poissons Ratio (x) = 0.09090 0.08395
# Poissons Ratio (y) = 0.35631 0.22265
# Poissons Ratio (z) = 0.11788 0.07976
#
# Static dielectric constant tensor:
#      x y z
#    x 1.626510 0.000000 0.000000 
#    y 0.000000 1.666150 0.000000 
#    z 0.000000 0.000000 1.644720 
# 
# From -- ./inp_files/4158.got.cif
#   From: 2010.05.17/outbox.cif.g08.bks.cpg/sg20_3_cif.got.tgz:4158.got - 2010.06.03 22:52:26.
