data_PCOD9316580
_publ_section_title
;
Structure prediction by ZEFSAII (Michael W. Deem and Ramdas Pophale) SiO2 
 PCOD9316580
Probable space group: C 2 2 21
;
_chemical_formula_sum "Si O2"
_cell_formula_units_Z 64
_cell_length_a 9.475527
_cell_length_b 26.390225
_cell_length_c 12.087696
_cell_angle_alpha 90.000000
_cell_angle_beta 90.000000
_cell_angle_gamma 90.000000
_cell_volume 3022.664849
_symmetry_space_group_name_H-M "C 2 2 21"
_symmetry_group_IT_number 20
_symmetry_cell_setting 'orthorhombic'
loop_
_space_group_symop_operation_xyz
x,y,z
-x,-y,1/2+z
x,-y,-z
-x,y,1/2-z
1/2+x,1/2+y,z
1/2-x,1/2-y,1/2+z
1/2+x,1/2-y,-z
1/2-x,1/2+y,1/2-z
loop_
_atom_site_type_symbol
_atom_site_label
_atom_site_fract_x
_atom_site_fract_y
_atom_site_fract_z
Si Si1 0.742022 0.476788 0.301571
Si Si2 0.146924 0.194775 0.315218
Si Si3 0.165739 0.789778 0.227308
Si Si4 0.776329 0.103220 0.604113
Si Si5 0.340497 0.582390 0.206990
Si Si6 0.965615 0.400223 0.379057
Si Si7 0.786501 0.834765 0.055843
Si Si8 0.558086 0.426586 0.462448
O O1 0.712044 0.438132 0.202384
O O2 0.752737 0.534166 0.260285
O O3 0.878691 0.452659 0.362500
O O4 0.609597 0.472541 0.386799
O O5 0.259830 0.239551 0.316315
O O6 0.200658 0.140349 0.267382
O O7 0.134603 0.184082 0.446856
O O8 0.000000 0.205934 0.250000
O O9 0.198701 0.839927 0.152751
O O10 0.232307 0.794288 0.349442
O O11 0.000000 0.784484 0.250000
O O12 0.616550 0.097785 0.564054
O O13 0.894592 0.083910 0.519046
O O14 0.500000 0.575547 0.250000
O O15 0.353496 0.577997 0.073881
O O16 0.864256 0.362772 0.446857
O O17 0.000000 0.383485 0.250000
O O18 0.889691 0.877624 0.106808
#
# Coordination Sequence:
#
# PCOD9316580 Si02
#       8
#     8   8   8   8   8   8   8   8
#     4  10  18  32  62  91 120 163 208 259 318 386
#     4  10  26  43  61  90 129 177 221 264 331 407
#     4  12  22  40  63  93 129 161 219 278 328 387
#     4  11  19  35  62 102 124 150 212 282 327 369
#     4  10  21  39  57  83 123 168 215 250 317 406
#     4   9  18  33  60  99 128 160 209 269 329 378
#     4  10  20  40  62  90 129 165 217 262 327 397
#     4  10  18  34  61  91 119 160 210 267 317 378
#
# _framework density 21.173369000000001
#
# number of rings (size 3 to 8) (size 9 to 14) (size 15 to 20)
#    0.000    1.750    5.000    1.500    1.750    1.000 
#    2.250    1.875    0.000   28.500    0.000    0.000 
#    0.000    0.000    0.000    0.000    0.000    0.000 
#
# Total GULP energy -178150.240189 kJ/mol
# GULP energy per Si atom -5567.195006 kJ/mol
# Density = 2.112518 g / cm^3
# Si number density = 21.173369 Si / 1000 Ang^3
#
#
#
# Elastic Constant Matrix: (Units=GPa)
#
#
# Indices 1 2 3 4 5 6 
#
# 1 107.3225 29.4361 -9.3024 0.0000 0.0000 0.0000
# 2 29.4361 128.5671 -0.6177 0.0000 0.0000 0.0000
# 3 -9.3024 -0.6177 24.7245 0.0000 0.0000 0.0000
# 4 0.0000 0.0000 0.0000 14.2245 0.0000 0.0000
# 5 0.0000 0.0000 0.0000 0.0000 21.6881 0.0000
# 6 0.0000 0.0000 0.0000 0.0000 0.0000 24.0338
#
#
#
# Elastic Compliance Matrix: (Units=1/GPa)
#
#
# Indices 1 2 3 4 5 6 
#
# 1 0.010289 -0.002337 0.003813 0.000000 0.000000 0.000000
# 2 -0.002337 0.008310 -0.000672 0.000000 0.000000 0.000000
# 3 0.003813 -0.000672 0.041863 0.000000 0.000000 0.000000
# 4 0.000000 0.000000 0.000000 0.070301 0.000000 0.000000
# 5 0.000000 0.000000 0.000000 0.000000 0.046108 0.000000
# 6 0.000000 0.000000 0.000000 0.000000 0.000000 0.041608
#
#
# Mechanical properties :
#
#
# Convention : Reuss Voigt Hill
#
# Bulk Modulus (GPa) = 16.11087 33.29400 24.70244
# Shear Modulus (GPa) = 21.04703 28.06249 24.55476
#
# Velocity S-wave (km/s) = 3.15625 3.64451 3.40913
# Velocity P-wave (km/s) = 4.57254 5.78520 5.21424
#
# Compressibility (1/GPa) = 0.06206989
#
# Stress axis : x y z
#
# Youngs Moduli (GPa) = 97.18819 120.33708 23.88719
#
# Poissons Ratio (x) = 0.28128 -0.09108
# Poissons Ratio (y) = 0.22717 0.01605
# Poissons Ratio (z) = -0.37057 0.08085
#
# Static dielectric constant tensor:
#      x y z
#    x 1.828920 0.000000 0.000000 
#    y 0.000000 1.850750 0.000000 
#    z 0.000000 0.000000 1.831260 
# 
# From -- ./inp_files/19356.got.cif
#   From: 2010.05.17/outbox.cif.g08.bks.cpg/sg20_10_cif.got.tgz:19356.got - 2010.06.03 22:52:26.
