data_PCOD9316656
_publ_section_title
;
Structure prediction by ZEFSAII (Michael W. Deem and Ramdas Pophale) SiO2 
 PCOD9316656
Probable space group: C 2 2 21
;
_chemical_formula_sum "Si O2"
_cell_formula_units_Z 32
_cell_length_a 15.030953
_cell_length_b 11.021050
_cell_length_c 7.982083
_cell_angle_alpha 90.000000
_cell_angle_beta 90.000000
_cell_angle_gamma 90.000000
_cell_volume 1322.287002
_symmetry_space_group_name_H-M "C 2 2 21"
_symmetry_group_IT_number 20
_symmetry_cell_setting 'orthorhombic'
loop_
_space_group_symop_operation_xyz
x,y,z
-x,-y,1/2+z
x,-y,-z
-x,y,1/2-z
1/2+x,1/2+y,z
1/2-x,1/2-y,1/2+z
1/2+x,1/2-y,-z
1/2-x,1/2+y,1/2-z
loop_
_atom_site_type_symbol
_atom_site_label
_atom_site_fract_x
_atom_site_fract_y
_atom_site_fract_z
Si Si1 0.598498 0.757119 0.310043
Si Si2 0.578904 0.395966 0.376498
Si Si3 0.405829 0.971503 0.695641
Si Si4 0.280221 0.439546 0.680437
O O1 0.500000 0.723689 0.250000
O O2 0.609938 0.709998 0.498974
O O3 0.604607 0.900551 0.292824
O O4 0.663809 0.684227 0.188184
O O5 0.540139 0.500000 0.500000
O O6 0.500000 0.363140 0.250000
O O7 0.662166 0.462318 0.287459
O O8 0.500000 0.916148 0.750000
O O9 0.411628 0.000000 0.500000
O O10 0.313872 0.907219 0.735725
O O11 0.269544 0.500000 0.500000
#
# Coordination Sequence:
#
# PCOD9316656 Si02
#       4
#     8   8   8   8
#     4  10  22  41  66  99 131 172 221 266 327 391
#     4  10  18  34  62 100 140 173 212 271 325 382
#     4  11  25  47  68  93 131 173 218 273 329 392
#     4  11  22  38  65 100 135 172 218 272 324 383
#
# _framework density 24.200496999999999
#
# number of rings (size 3 to 8) (size 9 to 14) (size 15 to 20)
#    0.000    1.500    0.000    8.250    0.000    4.000 
#    0.000   15.000    0.000    1.500    0.000    0.000 
#    0.000    0.000    0.000    0.000    0.000    0.000 
#
# Total GULP energy -89642.603590 kJ/mol
# GULP energy per Si atom -5602.662724 kJ/mol
# Density = 2.414542 g / cm^3
# Si number density = 24.200497 Si / 1000 Ang^3
#
#
#
# Elastic Constant Matrix: (Units=GPa)
#
#
# Indices 1 2 3 4 5 6 
#
# 1 169.4784 8.7218 12.3732 0.0000 0.0000 0.0000
# 2 8.7218 68.0729 4.1159 0.0000 0.0000 0.0000
# 3 12.3732 4.1159 99.0886 0.0000 0.0000 0.0000
# 4 0.0000 0.0000 0.0000 25.5032 0.0000 0.0000
# 5 0.0000 0.0000 0.0000 0.0000 41.6337 0.0000
# 6 0.0000 0.0000 0.0000 0.0000 0.0000 7.1860
#
#
#
# Elastic Compliance Matrix: (Units=1/GPa)
#
#
# Indices 1 2 3 4 5 6 
#
# 1 0.005990 -0.000724 -0.000718 0.000000 0.000000 0.000000
# 2 -0.000724 0.014815 -0.000525 0.000000 0.000000 0.000000
# 3 -0.000718 -0.000525 0.010203 0.000000 0.000000 0.000000
# 4 0.000000 0.000000 0.000000 0.039211 0.000000 0.000000
# 5 0.000000 0.000000 0.000000 0.000000 0.024019 0.000000
# 6 0.000000 0.000000 0.000000 0.000000 0.000000 0.139160
#
#
# Mechanical properties :
#
#
# Convention : Reuss Voigt Hill
#
# Bulk Modulus (GPa) = 36.93537 43.00687 39.97112
# Shear Modulus (GPa) = 20.29581 35.62651 27.96116
#
# Velocity S-wave (km/s) = 2.89909 3.84101 3.40280
# Velocity P-wave (km/s) = 5.14798 6.12216 5.65608
#
# Compressibility (1/GPa) = 0.02707432
#
# Stress axis : x y z
#
# Youngs Moduli (GPa) = 166.94124 67.50081 98.00623
#
# Poissons Ratio (x) = 0.04888 0.07036
# Poissons Ratio (y) = 0.12088 0.05145
# Poissons Ratio (z) = 0.11985 0.03543
#
# Static dielectric constant tensor:
#      x y z
#    x 1.917330 0.000000 0.000000 
#    y 0.000000 1.961380 0.000000 
#    z 0.000000 0.000000 1.937100 
# 
# From -- ./inp_files/6802.got.cif
#   From: 2010.05.17/outbox.cif.g08.bks.cpg/sg20_4_cif.got.tgz:6802.got - 2010.06.03 22:52:26.
