data_PCOD9316747
_publ_section_title
;
Structure prediction by ZEFSAII (Michael W. Deem and Ramdas Pophale) SiO2 
 PCOD9316747
Probable space group: C 2 2 21
;
_chemical_formula_sum "Si O2"
_cell_formula_units_Z 40
_cell_length_a 17.450704
_cell_length_b 9.321409
_cell_length_c 11.596435
_cell_angle_alpha 90.000000
_cell_angle_beta 90.000000
_cell_angle_gamma 90.000000
_cell_volume 1886.335831
_symmetry_space_group_name_H-M "C 2 2 21"
_symmetry_group_IT_number 20
_symmetry_cell_setting 'orthorhombic'
loop_
_space_group_symop_operation_xyz
x,y,z
-x,-y,1/2+z
x,-y,-z
-x,y,1/2-z
1/2+x,1/2+y,z
1/2-x,1/2-y,1/2+z
1/2+x,1/2-y,-z
1/2-x,1/2+y,1/2-z
loop_
_atom_site_type_symbol
_atom_site_label
_atom_site_fract_x
_atom_site_fract_y
_atom_site_fract_z
Si Si1 0.926050 0.768882 0.984854
Si Si2 0.321396 0.000000 0.000000
Si Si3 0.713107 0.454349 0.613097
Si Si4 0.716993 0.670389 0.813552
Si Si5 0.436598 0.584327 0.613321
Si Si6 0.000000 0.835155 0.750000
O O1 0.879554 0.631178 0.029463
O O2 0.862517 0.881665 0.941779
O O3 0.973399 0.748211 0.863394
O O4 0.983612 0.838111 0.079297
O O5 0.267102 0.068707 0.900134
O O6 0.761149 0.500000 0.500000
O O7 0.709270 0.592979 0.691865
O O8 0.745692 0.325333 0.688932
O O9 0.630629 0.690807 0.857342
O O10 0.413283 0.500000 0.500000
O O11 0.439150 0.454329 0.705412
#
# Coordination Sequence:
#
# PCOD9316747 Si02
#       6
#     8   4   8   8   8   4
#     4  10  22  41  67  91 137 166 225 272 340 396
#     4  10  24  44  62  98 136 182 210 282 350 396
#     4  11  25  44  68  98 136 181 222 282 340 407
#     4  11  24  42  71  98 138 173 232 275 343 400
#     4  10  20  36  63  95 121 171 220 275 316 407
#     4  10  18  36  64  92 118 168 218 266 322 386
#
# _framework density 21.205131999999999
#
# number of rings (size 3 to 8) (size 9 to 14) (size 15 to 20)
#    0.000    1.600    3.000    1.800    5.600    0.000 
#    5.400    1.000    0.000    0.000    0.000    0.000 
#    0.000    0.000    0.000    0.000    0.000    0.000 
#
# Total GULP energy -111410.077289 kJ/mol
# GULP energy per Si atom -5570.503864 kJ/mol
# Density = 2.115687 g / cm^3
# Si number density = 21.205132 Si / 1000 Ang^3
#
#
#
# Elastic Constant Matrix: (Units=GPa)
#
#
# Indices 1 2 3 4 5 6 
#
# 1 87.5007 36.9209 11.5117 0.0000 0.0000 0.0000
# 2 36.9209 95.0174 36.9855 0.0000 0.0000 0.0000
# 3 11.5117 36.9855 60.9918 0.0000 0.0000 0.0000
# 4 0.0000 0.0000 0.0000 32.4238 0.0000 0.0000
# 5 0.0000 0.0000 0.0000 0.0000 9.0282 0.0000
# 6 0.0000 0.0000 0.0000 0.0000 0.0000 25.2050
#
#
#
# Elastic Compliance Matrix: (Units=1/GPa)
#
#
# Indices 1 2 3 4 5 6 
#
# 1 0.013703 -0.005652 0.000841 0.000000 0.000000 0.000000
# 2 -0.005652 0.016107 -0.008701 0.000000 0.000000 0.000000
# 3 0.000841 -0.008701 0.021513 0.000000 0.000000 0.000000
# 4 0.000000 0.000000 0.000000 0.030841 0.000000 0.000000
# 5 0.000000 0.000000 0.000000 0.000000 0.110763 0.000000
# 6 0.000000 0.000000 0.000000 0.000000 0.000000 0.039675
#
#
# Mechanical properties :
#
#
# Convention : Reuss Voigt Hill
#
# Bulk Modulus (GPa) = 41.15246 46.03844 43.59545
# Shear Modulus (GPa) = 18.67584 23.87087 21.27336
#
# Velocity S-wave (km/s) = 2.97092 3.35880 3.17080
# Velocity P-wave (km/s) = 5.58726 6.06632 5.83171
#
# Compressibility (1/GPa) = 0.02429989
#
# Stress axis : x y z
#
# Youngs Moduli (GPa) = 72.97885 62.08379 46.48341
#
# Poissons Ratio (x) = 0.35088 -0.03909
# Poissons Ratio (y) = 0.41246 0.40444
# Poissons Ratio (z) = -0.06138 0.54017
#
# Static dielectric constant tensor:
#      x y z
#    x 1.834090 0.000000 0.000000 
#    y 0.000000 1.735250 0.000000 
#    z 0.000000 0.000000 1.918260 
# 
# From -- ./inp_files/12754.got.cif
#   From: 2010.05.17/outbox.cif.g08.bks.cpg/sg20_7_cif.got.tgz:12754.got - 2010.06.03 22:52:26.
