data_PCOD9316150
_publ_section_title
;
Structure prediction by ZEFSAII (Michael W. Deem and Ramdas Pophale) SiO2 
 PCOD9316150
Probable space group: P 21 21 21
;
_chemical_formula_sum "Si O2"
_cell_formula_units_Z 32
_cell_length_a 6.000000
_cell_length_b 15.000000
_cell_length_c 18.000000
_cell_angle_alpha 90.000000
_cell_angle_beta 90.000000
_cell_angle_gamma 90.000000
_cell_volume 1620.000000
_symmetry_space_group_name_H-M "P 21 21 21"
_symmetry_group_IT_number 19
_symmetry_cell_setting 'orthorhombic'
loop_
_space_group_symop_operation_xyz
x,y,z
1/2-x,-y,1/2+z
1/2+x,1/2-y,-z
-x,1/2+y,1/2-z
loop_
_atom_site_type_symbol
_atom_site_label
_atom_site_fract_x
_atom_site_fract_y
_atom_site_fract_z
Si Si1 0.631271 0.575938 0.142581
Si Si2 0.238997 0.569972 0.620094
Si Si3 0.807025 0.526667 0.890540
Si Si4 0.208022 0.195435 0.497053
Si Si5 0.448941 0.764666 0.403781
Si Si6 0.889612 0.387634 0.012978
Si Si7 0.993506 0.494941 0.252369
Si Si8 0.384806 0.610018 0.291889
O O1 0.455845 0.503425 0.110198
O O2 0.817620 0.523465 0.189626
O O3 0.496848 0.621378 0.210906
O O4 0.735755 0.640143 0.079423
O O5 0.428276 0.555673 0.557962
O O6 0.330634 0.561772 0.704264
O O7 0.156575 0.670635 0.609302
O O8 0.831555 0.620212 0.937024
O O9 0.624063 0.543093 0.825908
O O10 0.997198 0.470512 0.841552
O O11 0.760946 0.452451 0.955179
O O12 0.457874 0.250519 0.508676
O O13 0.493465 0.691091 0.466634
O O14 0.261088 0.833936 0.429111
O O15 0.397340 0.703536 0.333595
O O16 0.131644 0.580162 0.280260
#
# Coordination Sequence:
#
# PCOD9316150 Si02
#       8
#     4   4   4   4   4   4   4   4
#     4  10  24  49  67  97 133 190 235 287 367 418
#     4  11  22  40  68  95 140 177 228 284 360 432
#     4  10  24  44  67 101 134 183 241 287 366 423
#     4  12  30  48  75 106 142 190 248 307 356 426
#     4  11  22  37  61 109 134 174 220 279 350 418
#     4  11  23  38  67  99 144 176 220 292 356 423
#     4  10  22  43  72  92 132 193 224 289 351 432
#     4   9  23  41  71  97 141 179 234 291 356 426
#
# _framework density 19.753086
#
# number of rings (size 3 to 8) (size 9 to 14) (size 15 to 20)
#    0.000    1.500    1.250    2.250    8.750    3.000 
#    6.750    0.000    0.000    0.000    0.000    0.000 
#    0.000    0.000    0.000    0.000    0.000    0.000 
#
# Total GULP energy -178175.701021 kJ/mol
# GULP energy per Si atom -5567.990657 kJ/mol
# Density = 1.970813 g / cm^3
# Si number density = 19.753086 Si / 1000 Ang^3
#
#
#
# Elastic Constant Matrix: (Units=GPa)
#
#
# Indices 1 2 3 4 5 6 
#
# 1 68.2501 25.3959 27.5956 0.0000 0.0000 0.0000
# 2 25.3959 83.2021 43.4282 0.0000 0.0000 0.0000
# 3 27.5956 43.4282 117.7003 0.0000 0.0000 0.0000
# 4 0.0000 0.0000 0.0000 40.8857 0.0000 0.0000
# 5 0.0000 0.0000 0.0000 0.0000 32.7282 0.0000
# 6 0.0000 0.0000 0.0000 0.0000 0.0000 31.5934
#
#
#
# Elastic Compliance Matrix: (Units=1/GPa)
#
#
# Indices 1 2 3 4 5 6 
#
# 1 0.017142 -0.003882 -0.002587 0.000000 0.000000 0.000000
# 2 -0.003882 0.015765 -0.004907 0.000000 0.000000 0.000000
# 3 -0.002587 -0.004907 0.010913 0.000000 0.000000 0.000000
# 4 0.000000 0.000000 0.000000 0.024458 0.000000 0.000000
# 5 0.000000 0.000000 0.000000 0.000000 0.030555 0.000000
# 6 0.000000 0.000000 0.000000 0.000000 0.000000 0.031652
#
#
# Mechanical properties :
#
#
# Convention : Reuss Voigt Hill
#
# Bulk Modulus (GPa) = 47.46244 51.33243 49.39743
# Shear Modulus (GPa) = 31.19929 32.55699 31.87814
#
# Velocity S-wave (km/s) = 3.97856 4.06420 4.02161
# Velocity P-wave (km/s) = 6.72200 6.93305 6.82834
#
# Compressibility (1/GPa) = 0.02106929
#
# Stress axis : x y z
#
# Youngs Moduli (GPa) = 58.33461 63.43177 91.63349
#
# Poissons Ratio (x) = 0.24626 0.23703
# Poissons Ratio (y) = 0.22647 0.44961
# Poissons Ratio (z) = 0.15090 0.31124
#
# Static dielectric constant tensor:
#      x y z
#    x 1.784470 0.000000 0.000000 
#    y 0.000000 1.686610 0.000000 
#    z 0.000000 0.000000 1.730260 
# 
# From -- ./inp_files/6493.got.cif
#   From: 2010.05.17/outbox.ucp.g08.bks.cvg/sg19_4_cif.got.tgz:6493.got - 2010.06.11 13:13:52.
