data_PCOD9316035
_publ_section_title
;
Structure prediction by ZEFSAII (Michael W. Deem and Ramdas Pophale) SiO2 
 PCOD9316035
Probable space group: P 21 21 21
;
_chemical_formula_sum "Si O2"
_cell_formula_units_Z 16
_cell_length_a 18.736521
_cell_length_b 5.024631
_cell_length_c 7.880497
_cell_angle_alpha 90.000000
_cell_angle_beta 90.000000
_cell_angle_gamma 90.000000
_cell_volume 741.902331
_symmetry_space_group_name_H-M "P 21 21 21"
_symmetry_group_IT_number 19
_symmetry_cell_setting 'orthorhombic'
loop_
_space_group_symop_operation_xyz
x,y,z
1/2-x,-y,1/2+z
1/2+x,1/2-y,-z
-x,1/2+y,1/2-z
loop_
_atom_site_type_symbol
_atom_site_label
_atom_site_fract_x
_atom_site_fract_y
_atom_site_fract_z
Si Si1 0.044186 0.578942 0.303764
Si Si2 0.543990 0.063592 0.304337
Si Si3 0.312281 0.730430 0.386280
Si Si4 0.811762 0.263501 0.379482
O O1 0.055882 0.504528 0.499325
O O2 0.117033 0.668618 0.215540
O O3 0.010800 0.323620 0.210648
O O4 0.487427 0.302605 0.286547
O O5 0.616416 0.155961 0.215260
O O6 0.289200 0.472133 0.493201
O O7 0.250488 0.810807 0.255932
O O8 0.326499 0.971877 0.513946
#
# Coordination Sequence:
#
# PCOD9316035 Si02
#       4
#     4   4   4   4
#     4  12  25  44  70 101 135 175 221 274 332 395
#     4  12  25  44  70 101 135 175 221 274 332 395
#     4  12  26  46  69  99 135 177 223 274 331 395
#     4  12  26  46  69  99 135 177 223 274 331 395
#
# _framework density 21.566182000000001
#
# number of rings (size 3 to 8) (size 9 to 14) (size 15 to 20)
#    0.000    0.000    0.000   12.000    0.000    4.000 
#    0.000    0.000    0.000    0.000    0.000    0.000 
#    0.000    0.000    0.000    0.000    0.000    0.000 
#
# Total GULP energy -89793.480837 kJ/mol
# GULP energy per Si atom -5612.092552 kJ/mol
# Density = 2.151710 g / cm^3
# Si number density = 21.566182 Si / 1000 Ang^3
#
#
#
# Elastic Constant Matrix: (Units=GPa)
#
#
# Indices 1 2 3 4 5 6 
#
# 1 85.0220 9.2912 51.3194 0.0000 0.0000 0.0000
# 2 9.2912 81.9632 -24.6800 0.0000 0.0000 0.0000
# 3 51.3194 -24.6800 31.8408 0.0000 0.0000 0.0000
# 4 0.0000 0.0000 0.0000 53.3776 0.0000 0.0000
# 5 0.0000 0.0000 0.0000 0.0000 25.3632 0.0000
# 6 0.0000 0.0000 0.0000 0.0000 0.0000 18.2949
#
#
#
# Elastic Compliance Matrix: (Units=1/GPa)
#
#
# Indices 1 2 3 4 5 6 
#
# 1 -0.027769 0.021686 0.061565 0.000000 0.000000 0.000000
# 2 0.021686 -0.001020 -0.035742 0.000000 0.000000 0.000000
# 3 0.061565 -0.035742 -0.095525 0.000000 0.000000 0.000000
# 4 0.000000 0.000000 0.000000 0.018734 0.000000 0.000000
# 5 0.000000 0.000000 0.000000 0.000000 0.039427 0.000000
# 6 0.000000 0.000000 0.000000 0.000000 0.000000 0.054660
#
#
# Mechanical properties :
#
#
# Convention : Reuss Voigt Hill
#
# Bulk Modulus (GPa) = -34.13257 30.07635 -2.02811
# Shear Modulus (GPa) = -43.00204 30.26684 -6.36760
#
# Velocity S-wave (km/s) = -4.47022 3.75032 -1.72017
# Velocity P-wave (km/s) = 6.51959 5.72097 2.21083
#
# Compressibility (1/GPa) = -0.02929753
#
# Stress axis : x y z
#
# Youngs Moduli (GPa) = -36.01183 -980.35745 -10.46849
#
# Poissons Ratio (x) = 21.25963 0.64449
# Poissons Ratio (y) = 0.78094 -0.37417
# Poissons Ratio (z) = 2.21706 -35.04029
#
# Static dielectric constant tensor:
#      x y z
#    x 1.745400 0.000000 0.000000 
#    y 0.000000 1.748700 0.000000 
#    z 0.000000 0.000000 1.746000 
# 
# From -- ./inp_files/1659.got.cif
#   From: 2010.05.17/outbox.cif.g08.bks.cpg/sg19_1_cif.got.tgz:1659.got - 2010.06.03 22:46:19.
