data_PCOD9316192
_publ_section_title
;
Structure prediction by ZEFSAII (Michael W. Deem and Ramdas Pophale) SiO2 
 PCOD9316192
Probable space group: C 2 2 21
;
_chemical_formula_sum "Si O2"
_cell_formula_units_Z 60
_cell_length_a 20.806876
_cell_length_b 6.947265
_cell_length_c 14.525298
_cell_angle_alpha 90.000000
_cell_angle_beta 90.000000
_cell_angle_gamma 90.000000
_cell_volume 2099.644628
_symmetry_space_group_name_H-M "C 2 2 21"
_symmetry_group_IT_number 20
_symmetry_cell_setting 'orthorhombic'
loop_
_space_group_symop_operation_xyz
x,y,z
-x,-y,1/2+z
x,-y,-z
-x,y,1/2-z
1/2+x,1/2+y,z
1/2-x,1/2-y,1/2+z
1/2+x,1/2-y,-z
1/2-x,1/2+y,1/2-z
loop_
_atom_site_type_symbol
_atom_site_label
_atom_site_fract_x
_atom_site_fract_y
_atom_site_fract_z
Si Si1 0.453514 0.782952 0.980060
Si Si2 0.325599 0.329165 0.629501
Si Si3 0.801196 0.264131 0.957740
Si Si4 0.946044 0.355083 0.646954
Si Si5 0.141671 0.500000 0.000000
Si Si6 0.286898 0.793355 0.170775
Si Si7 0.836149 0.279788 0.773918
Si Si8 0.528766 0.316668 0.847922
O O1 0.378051 0.804020 0.967746
O O2 0.491867 0.740349 0.886683
O O3 0.477028 0.667312 0.069271
O O4 0.476093 0.000000 0.000000
O O5 0.260589 0.395366 0.575939
O O6 0.313737 0.318502 0.738670
O O7 0.400176 0.394323 0.622716
O O8 0.323676 0.117664 0.579653
O O9 0.812256 0.154314 0.860542
O O10 0.790880 0.220089 0.065319
O O11 0.900617 0.349683 0.556814
O O12 0.906490 0.276559 0.732497
O O13 0.958418 0.583341 0.664197
O O14 0.211204 0.782603 0.192756
O O15 0.323511 0.998780 0.190970
O O16 0.500000 0.379498 0.750000
#
# Coordination Sequence:
#
# PCOD9316192 Si02
#       8
#     8   8   8   8   4   8   8   8
#     4  10  19  31  51  84 122 159 190 257 319 364
#     4  10  20  35  56  84 116 173 205 249 311 379
#     4  11  24  35  54  87 134 159 195 260 332 372
#     4  10  18  31  53  83 121 156 197 247 313 374
#     4  10  14  34  56  78 112 150 214 242 286 366
#     4  11  22  38  58  85 130 164 210 259 315 377
#     4  11  23  38  59  88 126 169 208 253 321 379
#     4  10  18  29  54  80 113 160 203 256 311 371
#
# _framework density 28.576266
#
# number of rings (size 3 to 8) (size 9 to 14) (size 15 to 20)
#    0.000    1.600    6.000    2.800    3.733    0.000 
#    0.000    0.000    0.000    0.000    0.000    3.733 
#   16.000    0.000    0.000    0.000    0.000    0.000 
#
# Total GULP energy -167209.260387 kJ/mol
# GULP energy per Si atom -5573.642013 kJ/mol
# Density = 2.851123 g / cm^3
# Si number density = 28.576266 Si / 1000 Ang^3
#
#
#
# Elastic Constant Matrix: (Units=GPa)
#
#
# Indices 1 2 3 4 5 6 
#
# 1 195.2203 13.3684 113.3728 0.0000 0.0000 0.0000
# 2 13.3684 72.9537 46.9352 0.0000 0.0000 0.0000
# 3 113.3728 46.9352 303.1514 0.0000 0.0000 0.0000
# 4 0.0000 0.0000 0.0000 27.4518 0.0000 0.0000
# 5 0.0000 0.0000 0.0000 0.0000 87.0579 0.0000
# 6 0.0000 0.0000 0.0000 0.0000 0.0000 180.6378
#
#
#
# Elastic Compliance Matrix: (Units=1/GPa)
#
#
# Indices 1 2 3 4 5 6 
#
# 1 0.006555 0.000418 -0.002516 0.000000 0.000000 0.000000
# 2 0.000418 0.015250 -0.002517 0.000000 0.000000 0.000000
# 3 -0.002516 -0.002517 0.004629 0.000000 0.000000 0.000000
# 4 0.000000 0.000000 0.000000 0.036428 0.000000 0.000000
# 5 0.000000 0.000000 0.000000 0.000000 0.011487 0.000000
# 6 0.000000 0.000000 0.000000 0.000000 0.000000 0.005536
#
#
# Mechanical properties :
#
#
# Convention : Reuss Voigt Hill
#
# Bulk Modulus (GPa) = 58.12899 102.07533 80.10216
# Shear Modulus (GPa) = 52.71434 85.53942 69.12688
#
# Velocity S-wave (km/s) = 4.29964 5.47711 4.92370
# Velocity P-wave (km/s) = 6.71082 8.70610 7.77275
#
# Compressibility (1/GPa) = 0.01720312
#
# Stress axis : x y z
#
# Youngs Moduli (GPa) = 152.55447 65.57240 216.01102
#
# Poissons Ratio (x) = -0.02738 0.54351
# Poissons Ratio (y) = -0.06370 0.54376
# Poissons Ratio (z) = 0.38384 0.16506
#
# Static dielectric constant tensor:
#      x y z
#    x 2.307810 0.000000 0.000000 
#    y 0.000000 2.497780 0.000000 
#    z 0.000000 0.000000 1.173100 
# 
# From -- ./inp_files/21884.got.cif
#   From: 2010.05.17/outbox.cif.g08.bks.cpg/sg20_11_cif.got.tgz:21884.got - 2010.06.03 22:52:26.
