data_PCOD9316943
_publ_section_title
;
Structure prediction by ZEFSAII (Michael W. Deem and Ramdas Pophale) SiO2 
 PCOD9316943
Probable space group: C 2 2 21
;
_chemical_formula_sum "Si O2"
_cell_formula_units_Z 28
_cell_length_a 7.213188
_cell_length_b 30.970842
_cell_length_c 5.373338
_cell_angle_alpha 90.000000
_cell_angle_beta 90.000000
_cell_angle_gamma 90.000000
_cell_volume 1200.395681
_symmetry_space_group_name_H-M "C 2 2 21"
_symmetry_group_IT_number 20
_symmetry_cell_setting 'orthorhombic'
loop_
_space_group_symop_operation_xyz
x,y,z
-x,-y,1/2+z
x,-y,-z
-x,y,1/2-z
1/2+x,1/2+y,z
1/2-x,1/2-y,1/2+z
1/2+x,1/2-y,-z
1/2-x,1/2+y,1/2-z
loop_
_atom_site_type_symbol
_atom_site_label
_atom_site_fract_x
_atom_site_fract_y
_atom_site_fract_z
Si Si1 0.198624 0.631087 0.484291
Si Si2 0.776491 0.595115 0.514724
Si Si3 0.622288 0.000000 0.000000
Si Si4 0.209214 0.775155 0.834568
O O1 0.297013 0.609251 0.250911
O O2 0.189297 0.681552 0.425712
O O3 0.994908 0.609353 0.501067
O O4 0.292467 0.620853 0.746309
O O5 0.765924 0.543902 0.546054
O O6 0.500000 0.006939 0.250000
O O7 0.296044 0.754890 0.582189
O O8 0.000000 0.785665 0.750000
#
# Coordination Sequence:
#
# PCOD9316943 Si02
#       4
#     8   8   4   8
#     4  10  20  35  54  84 119 162 205 245 328 361
#     4  10  19  31  59  88 127 166 195 272 298 389
#     4  12  16  30  48  94 132 152 210 246 332 344
#     4  12  28  45  67  93 126 171 222 279 326 391
#
# _framework density 23.325641000000001
#
# number of rings (size 3 to 8) (size 9 to 14) (size 15 to 20)
#    0.000    1.143    5.714    2.571   12.000    0.000 
#    0.000    0.000    0.000    0.000    0.000    6.000 
#    0.000    0.000    0.000    0.000    0.000    0.000 
#
# Total GULP energy -78235.118759 kJ/mol
# GULP energy per Si atom -5588.222769 kJ/mol
# Density = 2.327255 g / cm^3
# Si number density = 23.325641 Si / 1000 Ang^3
#
#
#
# Elastic Constant Matrix: (Units=GPa)
#
#
# Indices 1 2 3 4 5 6 
#
# 1 76.6152 11.8045 8.5163 0.0000 0.0000 0.0000
# 2 11.8045 171.3866 48.4663 0.0000 0.0000 0.0000
# 3 8.5163 48.4663 234.3807 0.0000 0.0000 0.0000
# 4 0.0000 0.0000 0.0000 58.8479 0.0000 0.0000
# 5 0.0000 0.0000 0.0000 0.0000 -5.2518 0.0000
# 6 0.0000 0.0000 0.0000 0.0000 0.0000 -43.1138
#
#
#
# Elastic Compliance Matrix: (Units=1/GPa)
#
#
# Indices 1 2 3 4 5 6 
#
# 1 0.013213 -0.000822 -0.000310 0.000000 0.000000 0.000000
# 2 -0.000822 0.006248 -0.001262 0.000000 0.000000 0.000000
# 3 -0.000310 -0.001262 0.004539 0.000000 0.000000 0.000000
# 4 0.000000 0.000000 0.000000 0.016993 0.000000 0.000000
# 5 0.000000 0.000000 0.000000 0.000000 -0.190411 0.000000
# 6 0.000000 0.000000 0.000000 0.000000 0.000000 -0.023194
#
#
# Mechanical properties :
#
#
# Convention : Reuss Voigt Hill
#
# Bulk Modulus (GPa) = 52.05273 68.88409 60.46841
# Shear Modulus (GPa) = -30.97540 29.66947 -0.65296
#
# Velocity S-wave (km/s) = -3.64807 3.57034 -0.52966
# Velocity P-wave (km/s) = 2.14933 6.82583 5.06022
#
# Compressibility (1/GPa) = 0.01921129
#
# Stress axis : x y z
#
# Youngs Moduli (GPa) = 75.68069 160.04259 220.32124
#
# Poissons Ratio (x) = 0.13162 0.06831
# Poissons Ratio (y) = 0.06224 0.27808
# Poissons Ratio (z) = 0.02346 0.20200
#
# Static dielectric constant tensor:
#      x y z
#    x 1.612770 0.000000 0.000000 
#    y 0.000000 1.850580 0.000000 
#    z 0.000000 0.000000 2.008420 
# 
# From -- ./inp_files/452.got.cif
#   From: 2010.05.17/outbox.cif.g08.bks.cpg/sg20_1_cif.got.tgz:452.got - 2010.06.03 22:52:26.
