data_PCOD9316658
_publ_section_title
;
Structure prediction by ZEFSAII (Michael W. Deem and Ramdas Pophale) SiO2 
 PCOD9316658
Probable space group: C 2 2 21
;
_chemical_formula_sum "Si O2"
_cell_formula_units_Z 32
_cell_length_a 15.804408
_cell_length_b 21.774060
_cell_length_c 5.088591
_cell_angle_alpha 90.000000
_cell_angle_beta 90.000000
_cell_angle_gamma 90.000000
_cell_volume 1751.117118
_symmetry_space_group_name_H-M "C 2 2 21"
_symmetry_group_IT_number 20
_symmetry_cell_setting 'orthorhombic'
loop_
_space_group_symop_operation_xyz
x,y,z
-x,-y,1/2+z
x,-y,-z
-x,y,1/2-z
1/2+x,1/2+y,z
1/2-x,1/2-y,1/2+z
1/2+x,1/2-y,-z
1/2-x,1/2+y,1/2-z
loop_
_atom_site_type_symbol
_atom_site_label
_atom_site_fract_x
_atom_site_fract_y
_atom_site_fract_z
Si Si1 0.000000 0.539018 0.750000
Si Si2 0.054852 0.655166 0.514150
Si Si3 0.194023 0.247106 0.466468
Si Si4 0.561022 0.500000 0.500000
Si Si5 0.937753 0.135961 0.000026
O O1 0.970448 0.500000 0.500000
O O2 0.068414 0.586744 0.630137
O O3 0.137466 0.693829 0.465938
O O4 0.000000 0.650934 0.250000
O O5 0.000000 0.686130 0.750000
O O6 0.269999 0.245233 0.674242
O O7 0.133584 0.187935 0.492449
O O8 0.500000 0.499645 0.750000
O O9 0.603417 0.432771 0.496669
O O10 0.000000 0.142979 0.750000
O O11 0.000000 0.140759 0.250000
#
# Coordination Sequence:
#
# PCOD9316658 Si02
#       5
#     4   8   8   4   8
#     4  10  18  34  62  88 104 140 192 252 284 324
#     4  10  20  36  60  81 113 144 200 235 278 335
#     4  12  24  36  55  83 120 152 184 233 284 332
#     4   8  16  30  56  84 100 128 180 230 264 318
#     4  10  19  36  60  82 106 145 186 228 276 327
#
# _framework density 18.274048000000001
#
# number of rings (size 3 to 8) (size 9 to 14) (size 15 to 20)
#    0.750    1.000    1.250    4.500    0.000    0.000 
#    0.000    0.000    8.250    0.000    0.000    0.000 
#    0.000    0.000    0.000    0.000    0.000    0.000 
#
# Total GULP energy -89104.305648 kJ/mol
# GULP energy per Si atom -5569.019103 kJ/mol
# Density = 1.823246 g / cm^3
# Si number density = 18.274048 Si / 1000 Ang^3
#
#
#
# Elastic Constant Matrix: (Units=GPa)
#
#
# Indices 1 2 3 4 5 6 
#
# 1 37.9288 40.0423 6.8029 0.0000 0.0000 0.0000
# 2 40.0423 148.0888 17.7535 0.0000 0.0000 0.0000
# 3 6.8029 17.7535 116.8621 0.0000 0.0000 0.0000
# 4 0.0000 0.0000 0.0000 22.3584 0.0000 0.0000
# 5 0.0000 0.0000 0.0000 0.0000 29.9315 0.0000
# 6 0.0000 0.0000 0.0000 0.0000 0.0000 -2.8302
#
#
#
# Elastic Compliance Matrix: (Units=1/GPa)
#
#
# Indices 1 2 3 4 5 6 
#
# 1 0.036946 -0.009913 -0.000645 0.000000 0.000000 0.000000
# 2 -0.009913 0.009538 -0.000872 0.000000 0.000000 0.000000
# 3 -0.000645 -0.000872 0.008727 0.000000 0.000000 0.000000
# 4 0.000000 0.000000 0.000000 0.044726 0.000000 0.000000
# 5 0.000000 0.000000 0.000000 0.000000 0.033410 0.000000
# 6 0.000000 0.000000 0.000000 0.000000 0.000000 -0.353337
#
#
# Mechanical properties :
#
#
# Convention : Reuss Voigt Hill
#
# Bulk Modulus (GPa) = 30.91017 48.00857 39.45937
# Shear Modulus (GPa) = -26.83153 25.77736 -0.52709
#
# Velocity S-wave (km/s) = -3.83598 3.75987 -0.53764
# Velocity P-wave (km/s) = 1.63344 6.72141 4.61027
#
# Compressibility (1/GPa) = 0.03235182
#
# Stress axis : x y z
#
# Youngs Moduli (GPa) = 27.06661 104.84872 114.58583
#
# Poissons Ratio (x) = 1.03933 0.07389
# Poissons Ratio (y) = 0.26830 0.09991
# Poissons Ratio (z) = 0.01745 0.09142
#
# Static dielectric constant tensor:
#      x y z
#    x 1.546370 0.000000 0.000000 
#    y 0.000000 1.696680 0.000000 
#    z 0.000000 0.000000 1.624620 
# 
# From -- ./inp_files/1059.got.cif
#   From: 2010.05.17/outbox.cif.g08.bks.cpg/sg20_1_cif.got.tgz:1059.got - 2010.06.03 22:52:26.
