data_PCOD9316449
_publ_section_title
;
Structure prediction by ZEFSAII (Michael W. Deem and Ramdas Pophale) SiO2 
 PCOD9316449
Probable space group: C 2 2 21
;
_chemical_formula_sum "Si O2"
_cell_formula_units_Z 56
_cell_length_a 14.610047
_cell_length_b 20.002430
_cell_length_c 7.480044
_cell_angle_alpha 90.000000
_cell_angle_beta 90.000000
_cell_angle_gamma 90.000000
_cell_volume 2185.941448
_symmetry_space_group_name_H-M "C 2 2 21"
_symmetry_group_IT_number 20
_symmetry_cell_setting 'orthorhombic'
loop_
_space_group_symop_operation_xyz
x,y,z
-x,-y,1/2+z
x,-y,-z
-x,y,1/2-z
1/2+x,1/2+y,z
1/2-x,1/2-y,1/2+z
1/2+x,1/2-y,-z
1/2-x,1/2+y,1/2-z
loop_
_atom_site_type_symbol
_atom_site_label
_atom_site_fract_x
_atom_site_fract_y
_atom_site_fract_z
Si Si1 0.965977 0.617241 0.447455
Si Si2 0.560444 0.723251 0.990840
Si Si3 0.340292 0.876052 0.035318
Si Si4 0.859724 0.779043 0.886943
Si Si5 0.349749 0.401770 0.356284
Si Si6 0.896243 0.037555 0.254957
Si Si7 0.274622 0.892975 0.623878
O O1 0.948451 0.698142 0.444905
O O2 0.865782 0.588200 0.483778
O O3 0.000000 0.597935 0.250000
O O4 0.055014 0.601643 0.566649
O O5 0.616885 0.717852 0.175846
O O6 0.455961 0.699652 0.023763
O O7 0.610696 0.672917 0.855799
O O8 0.342069 0.796698 0.060062
O O9 0.259841 0.903234 0.160308
O O10 0.310905 0.888939 0.829645
O O11 0.770383 0.822114 0.929751
O O12 0.396808 0.457524 0.237167
O O13 0.366979 0.432515 0.553302
O O14 0.816036 0.062778 0.127562
O O15 0.000000 0.061518 0.250000
#
# Coordination Sequence:
#
# PCOD9316449 Si02
#       7
#     8   8   8   8   8   8   8
#     4   9  19  32  51  81 109 136 181 230 276 338
#     4  10  18  31  51  81 110 144 174 216 286 333
#     4   9  18  32  49  81 106 141 182 223 274 328
#     4  10  18  29  52  78 113 141 176 219 268 353
#     4  10  19  33  54  77 108 144 187 219 269 332
#     4  10  20  34  54  78 104 145 187 229 268 326
#     4  10  18  31  53  77 108 144 181 222 279 325
#
# _framework density 25.618251999999998
#
# number of rings (size 3 to 8) (size 9 to 14) (size 15 to 20)
#    0.000    2.286    2.857    1.714    0.000    0.571 
#    0.000    1.429    6.286    0.000   70.571    0.000 
#    0.000    0.000    0.000    0.000    0.000    0.000 
#
# Total GULP energy -156524.596838 kJ/mol
# GULP energy per Si atom -5590.164173 kJ/mol
# Density = 2.555994 g / cm^3
# Si number density = 25.618252 Si / 1000 Ang^3
#
#
#
# Elastic Constant Matrix: (Units=GPa)
#
#
# Indices 1 2 3 4 5 6 
#
# 1 265.9831 28.3026 24.9385 0.0000 0.0000 0.0000
# 2 28.3026 42.3789 4.3827 0.0000 0.0000 0.0000
# 3 24.9385 4.3827 60.8994 0.0000 0.0000 0.0000
# 4 0.0000 0.0000 0.0000 17.9186 0.0000 0.0000
# 5 0.0000 0.0000 0.0000 0.0000 22.0305 0.0000
# 6 0.0000 0.0000 0.0000 0.0000 0.0000 28.4302
#
#
#
# Elastic Compliance Matrix: (Units=1/GPa)
#
#
# Indices 1 2 3 4 5 6 
#
# 1 0.004183 -0.002636 -0.001523 0.000000 0.000000 0.000000
# 2 -0.002636 0.025435 -0.000751 0.000000 0.000000 0.000000
# 3 -0.001523 -0.000751 0.017098 0.000000 0.000000 0.000000
# 4 0.000000 0.000000 0.000000 0.055808 0.000000 0.000000
# 5 0.000000 0.000000 0.000000 0.000000 0.045392 0.000000
# 6 0.000000 0.000000 0.000000 0.000000 0.000000 0.035174
#
#
# Mechanical properties :
#
#
# Convention : Reuss Voigt Hill
#
# Bulk Modulus (GPa) = 27.10348 53.83431 40.46889
# Shear Modulus (GPa) = 24.36544 34.45169 29.40856
#
# Velocity S-wave (km/s) = 3.08733 3.67114 3.39182
# Velocity P-wave (km/s) = 4.82820 6.24735 5.58305
#
# Compressibility (1/GPa) = 0.03689563
#
# Stress axis : x y z
#
# Youngs Moduli (GPa) = 239.06580 39.31620 58.48520
#
# Poissons Ratio (x) = 0.10364 0.08909
# Poissons Ratio (y) = 0.63019 0.04392
# Poissons Ratio (z) = 0.36415 0.02953
#
# Static dielectric constant tensor:
#      x y z
#    x 2.029590 0.000000 0.000000 
#    y 0.000000 2.041530 0.000000 
#    z 0.000000 0.000000 2.056700 
# 
# From -- ./inp_files/8725.got.cif
#   From: 2010.05.17/outbox.cif.g08.bks.cpg/sg20_5_cif.got.tgz:8725.got - 2010.06.03 22:52:26.
