data_PCOD9316047
_publ_section_title
;
Structure prediction by ZEFSAII (Michael W. Deem and Ramdas Pophale) SiO2 
 PCOD9316047
Probable space group: P 21 21 21
;
_chemical_formula_sum "Si O2"
_cell_formula_units_Z 24
_cell_length_a 12.003394
_cell_length_b 9.620292
_cell_length_c 8.361238
_cell_angle_alpha 90.000000
_cell_angle_beta 90.000000
_cell_angle_gamma 90.000000
_cell_volume 965.523618
_symmetry_space_group_name_H-M "P 21 21 21"
_symmetry_group_IT_number 19
_symmetry_cell_setting 'orthorhombic'
loop_
_space_group_symop_operation_xyz
x,y,z
1/2-x,-y,1/2+z
1/2+x,1/2-y,-z
-x,1/2+y,1/2-z
loop_
_atom_site_type_symbol
_atom_site_label
_atom_site_fract_x
_atom_site_fract_y
_atom_site_fract_z
Si Si1 0.933443 0.709648 0.727597
Si Si2 0.296570 0.660900 0.815096
Si Si3 0.287505 0.367735 0.656302
Si Si4 0.962605 0.345548 0.276588
Si Si5 0.939784 0.445843 0.935093
Si Si6 0.315971 0.917857 0.576589
O O1 0.820086 0.787397 0.777048
O O2 0.967410 0.592639 0.855084
O O3 0.895737 0.631975 0.565140
O O4 0.027214 0.823083 0.687227
O O5 0.273122 0.527281 0.705694
O O6 0.424502 0.652325 0.877365
O O7 0.299439 0.798817 0.709255
O O8 0.216311 0.656024 0.966584
O O9 0.400413 0.302531 0.730609
O O10 0.871740 0.447620 0.348876
O O11 0.996004 0.402502 0.101566
O O12 0.809120 0.449845 0.977393
#
# Coordination Sequence:
#
# PCOD9316047 Si02
#       6
#     4   4   4   4   4   4
#     4  12  28  48  80 114 151 200 258 317 387 456
#     4  12  29  47  80 109 157 202 260 314 387 459
#     4  12  28  51  76 115 153 201 258 324 382 460
#     4  12  27  52  76 109 157 207 252 313 396 454
#     4  12  27  49  76 112 154 199 258 313 388 459
#     4  12  25  49  74 111 154 201 250 325 372 464
#
# _framework density 24.856977000000001
#
# number of rings (size 3 to 8) (size 9 to 14) (size 15 to 20)
#    0.000    0.000    5.000    3.000    7.000    0.000 
#    0.000    0.000    0.000    0.000    0.000    0.000 
#    0.000    0.000    0.000    0.000    0.000    0.000 
#
# Total GULP energy -134668.858256 kJ/mol
# GULP energy per Si atom -5611.202427 kJ/mol
# Density = 2.480040 g / cm^3
# Si number density = 24.856977 Si / 1000 Ang^3
#
#
#
# Elastic Constant Matrix: (Units=GPa)
#
#
# Indices 1 2 3 4 5 6 
#
# 1 84.8157 8.2360 10.2004 0.0000 0.0000 0.0000
# 2 8.2360 83.6166 6.6498 0.0000 0.0000 0.0000
# 3 10.2004 6.6498 71.6260 0.0000 0.0000 0.0000
# 4 0.0000 0.0000 0.0000 42.8403 0.0000 0.0000
# 5 0.0000 0.0000 0.0000 0.0000 31.6292 0.0000
# 6 0.0000 0.0000 0.0000 0.0000 0.0000 44.5125
#
#
#
# Elastic Compliance Matrix: (Units=1/GPa)
#
#
# Indices 1 2 3 4 5 6 
#
# 1 0.012089 -0.001062 -0.001623 0.000000 0.000000 0.000000
# 2 -0.001062 0.012142 -0.000976 0.000000 0.000000 0.000000
# 3 -0.001623 -0.000976 0.014283 0.000000 0.000000 0.000000
# 4 0.000000 0.000000 0.000000 0.023343 0.000000 0.000000
# 5 0.000000 0.000000 0.000000 0.000000 0.031616 0.000000
# 6 0.000000 0.000000 0.000000 0.000000 0.000000 0.022466
#
#
# Mechanical properties :
#
#
# Convention : Reuss Voigt Hill
#
# Bulk Modulus (GPa) = 32.05956 32.24786 32.15371
# Shear Modulus (GPa) = 37.40940 38.12789 37.76864
#
# Velocity S-wave (km/s) = 3.88362 3.92074 3.90223
# Velocity P-wave (km/s) = 5.74766 5.78773 5.76773
#
# Compressibility (1/GPa) = 0.03119194
#
# Stress axis : x y z
#
# Youngs Moduli (GPa) = 82.72295 82.36190 70.01256
#
# Poissons Ratio (x) = 0.08744 0.11363
# Poissons Ratio (y) = 0.08782 0.06834
# Poissons Ratio (z) = 0.13426 0.08039
#
# Static dielectric constant tensor:
#      x y z
#    x 1.937630 0.000000 0.000000 
#    y 0.000000 1.925740 0.000000 
#    z 0.000000 0.000000 1.964420 
# 
# From -- ./inp_files/2691.got.cif
#   From: 2010.05.17/outbox.cif.g08.bks.cpg/sg19_2_cif.got.tgz:2691.got - 2010.06.03 22:46:19.
