data_PCOD9316755
_publ_section_title
;
Structure prediction by ZEFSAII (Michael W. Deem and Ramdas Pophale) SiO2 
 PCOD9316755
Probable space group: C 2 2 21
;
_chemical_formula_sum "Si O2"
_cell_formula_units_Z 64
_cell_length_a 7.571932
_cell_length_b 32.907271
_cell_length_c 10.375055
_cell_angle_alpha 90.000000
_cell_angle_beta 90.000000
_cell_angle_gamma 90.000000
_cell_volume 2585.169244
_symmetry_space_group_name_H-M "C 2 2 21"
_symmetry_group_IT_number 20
_symmetry_cell_setting 'orthorhombic'
loop_
_space_group_symop_operation_xyz
x,y,z
-x,-y,1/2+z
x,-y,-z
-x,y,1/2-z
1/2+x,1/2+y,z
1/2-x,1/2-y,1/2+z
1/2+x,1/2-y,-z
1/2-x,1/2+y,1/2-z
loop_
_atom_site_type_symbol
_atom_site_label
_atom_site_fract_x
_atom_site_fract_y
_atom_site_fract_z
Si Si1 0.668246 0.046049 0.530090
Si Si2 0.109093 0.599021 0.121407
Si Si3 0.286338 0.670098 0.755601
Si Si4 0.297202 0.420780 0.206484
Si Si5 0.442030 0.172124 0.015567
Si Si6 0.909130 0.164356 0.388020
Si Si7 0.588238 0.757456 0.108801
Si Si8 0.960185 0.079815 0.045089
O O1 0.512973 0.074567 0.480343
O O2 0.698810 0.055104 0.681844
O O3 0.855376 0.056520 0.459405
O O4 0.624194 0.000000 0.500000
O O5 0.308398 0.583591 0.152246
O O6 0.000000 0.594966 0.250000
O O7 0.105918 0.644166 0.058432
O O8 0.500000 0.672074 0.750000
O O9 0.231686 0.625326 0.804971
O O10 0.168630 0.669751 0.621360
O O11 0.229651 0.707777 0.846896
O O12 0.500000 0.416775 0.250000
O O13 0.334442 0.438576 0.066656
O O14 0.300045 0.158414 0.121059
O O15 0.495950 0.218922 0.009196
O O16 0.908607 0.210841 0.436586
O O17 0.000000 0.162023 0.250000
O O18 0.982355 0.127283 0.473776
O O19 0.500000 0.752677 0.250000
#
# Coordination Sequence:
#
# PCOD9316755 Si02
#       8
#     8   8   8   8   8   8   8   8
#     4  11  25  50  75 109 147 180 238 315 368 449
#     4  12  26  46  70 105 140 194 246 286 370 448
#     4  10  18  36  66  95 134 182 240 298 373 438
#     4   9  18  39  69 106 134 182 244 289 374 440
#     4  11  21  39  63  90 139 179 240 306 350 426
#     4  11  22  42  64  95 146 199 250 294 370 439
#     4   9  22  37  61 102 137 187 242 310 361 418
#     4  11  24  44  76 101 141 199 234 294 372 447
#
# _framework density 24.756599000000001
#
# number of rings (size 3 to 8) (size 9 to 14) (size 15 to 20)
#    0.000    1.500    2.500    3.000    0.000    4.000 
#    9.000    4.375    0.000    2.250    0.000    0.000 
#    0.000    0.000    0.000    0.000    0.000    0.000 
#
# Total GULP energy -178251.346301 kJ/mol
# GULP energy per Si atom -5570.354572 kJ/mol
# Density = 2.470025 g / cm^3
# Si number density = 24.756599 Si / 1000 Ang^3
#
#
#
# Elastic Constant Matrix: (Units=GPa)
#
#
# Indices 1 2 3 4 5 6 
#
# 1 59.9186 -29.4056 -4.3746 0.0000 0.0000 0.0000
# 2 -29.4056 54.7983 -4.6698 0.0000 0.0000 0.0000
# 3 -4.3746 -4.6698 37.1606 0.0000 0.0000 0.0000
# 4 0.0000 0.0000 0.0000 16.8747 0.0000 0.0000
# 5 0.0000 0.0000 0.0000 0.0000 43.8114 0.0000
# 6 0.0000 0.0000 0.0000 0.0000 0.0000 5.8522
#
#
#
# Elastic Compliance Matrix: (Units=1/GPa)
#
#
# Indices 1 2 3 4 5 6 
#
# 1 0.023336 0.012895 0.004368 0.000000 0.000000 0.000000
# 2 0.012895 0.025572 0.004731 0.000000 0.000000 0.000000
# 3 0.004368 0.004731 0.028019 0.000000 0.000000 0.000000
# 4 0.000000 0.000000 0.000000 0.059260 0.000000 0.000000
# 5 0.000000 0.000000 0.000000 0.000000 0.022825 0.000000
# 6 0.000000 0.000000 0.000000 0.000000 0.000000 0.170877
#
#
# Mechanical properties :
#
#
# Convention : Reuss Voigt Hill
#
# Bulk Modulus (GPa) = 8.27027 8.33084 8.30055
# Shear Modulus (GPa) = 15.32772 25.99616 20.66194
#
# Velocity S-wave (km/s) = 2.49095 3.24399 2.89208
# Velocity P-wave (km/s) = 3.40895 4.17178 3.80951
#
# Compressibility (1/GPa) = 0.12091503
#
# Stress axis : x y z
#
# Youngs Moduli (GPa) = 42.85136 39.10595 35.69010
#
# Poissons Ratio (x) = -0.50427 -0.15588
# Poissons Ratio (y) = -0.55257 -0.16887
# Poissons Ratio (z) = -0.18716 -0.18503
#
# Static dielectric constant tensor:
#      x y z
#    x 2.074640 0.000000 0.000000 
#    y 0.000000 1.937240 0.000000 
#    z 0.000000 0.000000 2.296700 
# 
# From -- ./inp_files/13405.got.cif
#   From: 2010.05.17/outbox.cif.g08.bks.cpg/sg20_7_cif.got.tgz:13405.got - 2010.06.03 22:52:26.
