data_PCOD9316377
_publ_section_title
;
Structure prediction by ZEFSAII (Michael W. Deem and Ramdas Pophale) SiO2 
 PCOD9316377
Probable space group: C 2 2 21
;
_chemical_formula_sum "Si O2"
_cell_formula_units_Z 60
_cell_length_a 9.187370
_cell_length_b 31.353991
_cell_length_c 10.014658
_cell_angle_alpha 90.000000
_cell_angle_beta 90.000000
_cell_angle_gamma 90.000000
_cell_volume 2884.829557
_symmetry_space_group_name_H-M "C 2 2 21"
_symmetry_group_IT_number 20
_symmetry_cell_setting 'orthorhombic'
loop_
_space_group_symop_operation_xyz
x,y,z
-x,-y,1/2+z
x,-y,-z
-x,y,1/2-z
1/2+x,1/2+y,z
1/2-x,1/2-y,1/2+z
1/2+x,1/2-y,-z
1/2-x,1/2+y,1/2-z
loop_
_atom_site_type_symbol
_atom_site_label
_atom_site_fract_x
_atom_site_fract_y
_atom_site_fract_z
Si Si1 0.190472 0.899438 0.459196
Si Si2 0.641277 0.515195 0.654471
Si Si3 0.591423 0.390414 0.886243
Si Si4 0.034595 0.277023 0.530820
Si Si5 0.289607 0.692799 0.016399
Si Si6 0.296944 0.693847 0.313961
Si Si7 0.500000 0.771213 0.250000
Si Si8 0.671683 0.064709 0.228611
O O1 0.219878 0.849599 0.427255
O O2 0.286083 0.910798 0.590651
O O3 0.208041 0.937220 0.353704
O O4 0.019488 0.903808 0.499439
O O5 0.609010 0.500000 0.500000
O O6 0.500000 0.513279 0.750000
O O7 0.240388 0.481938 0.790822
O O8 0.500000 0.397983 0.750000
O O9 0.628597 0.340777 0.907361
O O10 0.742221 0.413792 0.852760
O O11 0.095465 0.228478 0.529433
O O12 0.132740 0.300677 0.638701
O O13 0.062127 0.294136 0.379451
O O14 0.863806 0.283869 0.547108
O O15 0.324225 0.676423 0.165496
O O16 0.375583 0.739532 0.306527
O O17 0.500000 0.065112 0.250000
#
# Coordination Sequence:
#
# PCOD9316377 Si02
#       8
#     8   8   8   8   8   8   4   8
#     4  10  21  38  62  92 125 167 214 274 317 380
#     4  10  21  43  69  97 133 172 214 263 328 399
#     4  10  17  34  61  93 117 153 206 271 313 369
#     4  11  23  36  60  86 120 173 204 265 328 375
#     4  11  22  38  60  90 126 162 221 273 317 384
#     4  11  19  35  62  86 119 154 216 266 318 366
#     4  10  20  40  50  84 128 156 202 264 320 382
#     4  10  20  34  62  98 128 157 203 263 331 383
#
# _framework density 20.798456000000002
#
# number of rings (size 3 to 8) (size 9 to 14) (size 15 to 20)
#    0.000    1.600    4.667    3.200    1.867    0.000 
#    0.000    8.667    1.467    0.000    0.000    0.000 
#    0.000    0.000    0.000    0.000    0.000    0.000 
#
# Total GULP energy -167203.304510 kJ/mol
# GULP energy per Si atom -5573.443484 kJ/mol
# Density = 2.075112 g / cm^3
# Si number density = 20.798456 Si / 1000 Ang^3
#
#
#
# Elastic Constant Matrix: (Units=GPa)
#
#
# Indices 1 2 3 4 5 6 
#
# 1 155.8511 46.6155 12.2455 0.0000 0.0000 0.0000
# 2 46.6155 84.9656 5.9916 0.0000 0.0000 0.0000
# 3 12.2455 5.9916 34.9022 0.0000 0.0000 0.0000
# 4 0.0000 0.0000 0.0000 9.6936 0.0000 0.0000
# 5 0.0000 0.0000 0.0000 0.0000 20.8181 0.0000
# 6 0.0000 0.0000 0.0000 0.0000 0.0000 13.2313
#
#
#
# Elastic Compliance Matrix: (Units=1/GPa)
#
#
# Indices 1 2 3 4 5 6 
#
# 1 0.007816 -0.004145 -0.002031 0.000000 0.000000 0.000000
# 2 -0.004145 0.014112 -0.000968 0.000000 0.000000 0.000000
# 3 -0.002031 -0.000968 0.029530 0.000000 0.000000 0.000000
# 4 0.000000 0.000000 0.000000 0.103160 0.000000 0.000000
# 5 0.000000 0.000000 0.000000 0.000000 0.048035 0.000000
# 6 0.000000 0.000000 0.000000 0.000000 0.000000 0.075579
#
#
# Mechanical properties :
#
#
# Convention : Reuss Voigt Hill
#
# Bulk Modulus (GPa) = 26.90332 45.04712 35.97522
# Shear Modulus (GPa) = 16.39832 22.80636 19.60234
#
# Velocity S-wave (km/s) = 2.81096 3.31500 3.07333
# Velocity P-wave (km/s) = 4.84754 6.02977 5.47069
#
# Compressibility (1/GPa) = 0.03717014
#
# Stress axis : x y z
#
# Youngs Moduli (GPa) = 127.94861 70.86304 33.86364
#
# Poissons Ratio (x) = 0.29371 0.06876
# Poissons Ratio (y) = 0.53032 0.03279
# Poissons Ratio (z) = 0.25981 0.06862
#
# Static dielectric constant tensor:
#      x y z
#    x 1.781880 0.000000 0.000000 
#    y 0.000000 1.811440 0.000000 
#    z 0.000000 0.000000 1.851530 
# 
# From -- ./inp_files/13367.got.cif
#   From: 2010.05.17/outbox.cif.g08.bks.cpg/sg20_7_cif.got.tgz:13367.got - 2010.06.03 22:52:26.
