data_PCOD9316234
_publ_section_title
;
Structure prediction by ZEFSAII (Michael W. Deem and Ramdas Pophale) SiO2 
 PCOD9316234
Probable space group: C 2 2 21
;
_chemical_formula_sum "Si O2"
_cell_formula_units_Z 40
_cell_length_a 24.558101
_cell_length_b 5.254826
_cell_length_c 14.463760
_cell_angle_alpha 90.000000
_cell_angle_beta 90.000000
_cell_angle_gamma 90.000000
_cell_volume 1866.527221
_symmetry_space_group_name_H-M "C 2 2 21"
_symmetry_group_IT_number 20
_symmetry_cell_setting 'orthorhombic'
loop_
_space_group_symop_operation_xyz
x,y,z
-x,-y,1/2+z
x,-y,-z
-x,y,1/2-z
1/2+x,1/2+y,z
1/2-x,1/2-y,1/2+z
1/2+x,1/2-y,-z
1/2-x,1/2+y,1/2-z
loop_
_atom_site_type_symbol
_atom_site_label
_atom_site_fract_x
_atom_site_fract_y
_atom_site_fract_z
Si Si1 0.140982 0.400294 0.629884
Si Si2 0.413652 0.398813 0.862239
Si Si3 0.025404 0.256645 0.058113
Si Si4 0.745386 0.711793 0.186359
Si Si5 0.873912 0.322548 0.316053
O O1 0.123657 0.676106 0.593369
O O2 0.203926 0.328947 0.618036
O O3 0.133980 0.449127 0.741762
O O4 0.101112 0.175111 0.601518
O O5 0.475846 0.321694 0.874931
O O6 0.396153 0.391186 0.754957
O O7 0.079494 0.352188 0.109498
O O8 0.006049 0.500000 0.000000
O O9 0.036976 0.000000 0.000000
O O10 0.742606 0.462089 0.251693
O O11 0.814656 0.253738 0.354706
#
# Coordination Sequence:
#
# PCOD9316234 Si02
#       5
#     8   8   8   8   8
#     4   9  18  33  62  91 109 137 191 245 289 329
#     4  10  20  38  60  84 110 150 197 241 278 342
#     4  12  27  41  56  82 123 163 195 239 297 353
#     4  10  16  31  55  96 112 134 175 251 292 336
#     4   9  22  36  63  85 117 145 200 241 292 339
#
# _framework density 21.430173
#
# number of rings (size 3 to 8) (size 9 to 14) (size 15 to 20)
#    1.200    0.800    2.000    1.800    2.800    0.000 
#    3.600    0.000    0.000    7.200    0.000    0.000 
#    0.000    0.000    0.000    0.000    0.000    0.000 
#
# Total GULP energy -111476.064010 kJ/mol
# GULP energy per Si atom -5573.803200 kJ/mol
# Density = 2.138140 g / cm^3
# Si number density = 21.430173 Si / 1000 Ang^3
#
#
#
# Elastic Constant Matrix: (Units=GPa)
#
#
# Indices 1 2 3 4 5 6 
#
# 1 173.3541 17.0941 13.2599 0.0000 0.0000 0.0000
# 2 17.0941 111.4862 11.0436 0.0000 0.0000 0.0000
# 3 13.2599 11.0436 14.6567 0.0000 0.0000 0.0000
# 4 0.0000 0.0000 0.0000 15.9671 0.0000 0.0000
# 5 0.0000 0.0000 0.0000 0.0000 1.3282 0.0000
# 6 0.0000 0.0000 0.0000 0.0000 0.0000 23.6423
#
#
#
# Elastic Compliance Matrix: (Units=1/GPa)
#
#
# Indices 1 2 3 4 5 6 
#
# 1 0.006216 -0.000428 -0.005301 0.000000 0.000000 0.000000
# 2 -0.000428 0.009723 -0.006939 0.000000 0.000000 0.000000
# 3 -0.005301 -0.006939 0.078253 0.000000 0.000000 0.000000
# 4 0.000000 0.000000 0.000000 0.062629 0.000000 0.000000
# 5 0.000000 0.000000 0.000000 0.000000 0.752885 0.000000
# 6 0.000000 0.000000 0.000000 0.000000 0.000000 0.042297
#
#
# Mechanical properties :
#
#
# Convention : Reuss Voigt Hill
#
# Bulk Modulus (GPa) = 14.52318 42.47691 28.50005
# Shear Modulus (GPa) = 4.99855 25.39414 15.19634
#
# Velocity S-wave (km/s) = 1.52890 3.44608 2.66580
# Velocity P-wave (km/s) = 3.14776 5.97478 4.77527
#
# Compressibility (1/GPa) = 0.06885543
#
# Stress axis : x y z
#
# Youngs Moduli (GPa) = 160.86872 102.85236 12.77912
#
# Poissons Ratio (x) = 0.04402 0.06775
# Poissons Ratio (y) = 0.06885 0.08867
# Poissons Ratio (z) = 0.85283 0.71366
#
# Static dielectric constant tensor:
#      x y z
#    x 1.770820 0.000000 0.000000 
#    y 0.000000 1.771260 0.000000 
#    z 0.000000 0.000000 1.845500 
# 
# From -- ./inp_files/25397.got.cif
#   From: 2010.05.17/outbox.cif.g08.bks.cpg/sg20_13_cif.got.tgz:25397.got - 2010.06.03 22:52:26.
