data_PCOD9316523
_publ_section_title
;
Structure prediction by ZEFSAII (Michael W. Deem and Ramdas Pophale) SiO2 
 PCOD9316523
Probable space group: C 2 2 21
;
_chemical_formula_sum "Si O2"
_cell_formula_units_Z 36
_cell_length_a 16.112639
_cell_length_b 11.941477
_cell_length_c 8.147743
_cell_angle_alpha 90.000000
_cell_angle_beta 90.000000
_cell_angle_gamma 90.000000
_cell_volume 1567.696704
_symmetry_space_group_name_H-M "C 2 2 21"
_symmetry_group_IT_number 20
_symmetry_cell_setting 'orthorhombic'
loop_
_space_group_symop_operation_xyz
x,y,z
-x,-y,1/2+z
x,-y,-z
-x,y,1/2-z
1/2+x,1/2+y,z
1/2-x,1/2-y,1/2+z
1/2+x,1/2-y,-z
1/2-x,1/2+y,1/2-z
loop_
_atom_site_type_symbol
_atom_site_label
_atom_site_fract_x
_atom_site_fract_y
_atom_site_fract_z
Si Si1 0.670830 0.307532 0.258977
Si Si2 0.677869 0.326302 0.888445
Si Si3 0.472860 0.829305 0.414410
Si Si4 0.409894 0.607812 0.071574
Si Si5 0.500000 0.826544 0.750000
O O1 0.737692 0.212036 0.301362
O O2 0.660282 0.375794 0.429804
O O3 0.580520 0.252315 0.241519
O O4 0.690057 0.361619 0.079509
O O5 0.621065 0.213781 0.900956
O O6 0.628811 0.401666 0.754171
O O7 0.500000 0.887579 0.250000
O O8 0.530109 0.715433 0.422708
O O9 0.494573 0.890103 0.580816
O O10 0.457505 0.500000 0.000000
#
# Coordination Sequence:
#
# PCOD9316523 Si02
#       5
#     8   8   8   8   4
#     4  10  18  32  52  71 105 135 179 220 257 312
#     4  10  18  32  50  72 101 140 178 214 255 310
#     4   8  16  30  43  67  98 130 165 198 247 313
#     4  10  20  34  49  74 110 139 169 212 267 324
#     4   8  16  28  44  70  96 126 168 212 252 300
#
# _framework density 22.963626000000001
#
# number of rings (size 3 to 8) (size 9 to 14) (size 15 to 20)
#    0.000    2.667    2.222    0.000    0.000    0.889 
#   36.000    0.000    0.000    0.000    0.000    0.000 
#   16.667    0.000    0.000    0.000    0.000    0.000 
#
# Total GULP energy -100226.579995 kJ/mol
# GULP energy per Si atom -5568.143333 kJ/mol
# Density = 2.291136 g / cm^3
# Si number density = 22.963626 Si / 1000 Ang^3
#
#
#
# Elastic Constant Matrix: (Units=GPa)
#
#
# Indices 1 2 3 4 5 6 
#
# 1 86.4144 4.6846 27.1287 0.0000 0.0000 0.0000
# 2 4.6846 61.1664 35.9356 0.0000 0.0000 0.0000
# 3 27.1287 35.9356 245.6004 0.0000 0.0000 0.0000
# 4 0.0000 0.0000 0.0000 36.1730 0.0000 0.0000
# 5 0.0000 0.0000 0.0000 0.0000 34.9976 0.0000
# 6 0.0000 0.0000 0.0000 0.0000 0.0000 15.9405
#
#
#
# Elastic Compliance Matrix: (Units=1/GPa)
#
#
# Indices 1 2 3 4 5 6 
#
# 1 0.011989 -0.000153 -0.001302 0.000000 0.000000 0.000000
# 2 -0.000153 0.017888 -0.002600 0.000000 0.000000 0.000000
# 3 -0.001302 -0.002600 0.004596 0.000000 0.000000 0.000000
# 4 0.000000 0.000000 0.000000 0.027645 0.000000 0.000000
# 5 0.000000 0.000000 0.000000 0.000000 0.028573 0.000000
# 6 0.000000 0.000000 0.000000 0.000000 0.000000 0.062733
#
#
# Mechanical properties :
#
#
# Convention : Reuss Voigt Hill
#
# Bulk Modulus (GPa) = 37.93322 58.74212 48.33767
# Shear Modulus (GPa) = 29.35586 39.11772 34.23679
#
# Velocity S-wave (km/s) = 3.57930 4.13178 3.86542
# Velocity P-wave (km/s) = 5.79970 6.95688 6.40448
#
# Compressibility (1/GPa) = 0.02636212
#
# Stress axis : x y z
#
# Youngs Moduli (GPa) = 83.40863 55.90228 217.58314
#
# Poissons Ratio (x) = 0.00857 0.28326
# Poissons Ratio (y) = 0.01279 0.56581
# Poissons Ratio (z) = 0.10859 0.14537
#
# Static dielectric constant tensor:
#      x y z
#    x 1.823030 0.000000 0.000000 
#    y 0.000000 1.869010 0.000000 
#    z 0.000000 0.000000 2.001940 
# 
# From -- ./inp_files/8017.got.cif
#   From: 2010.05.17/outbox.cif.g08.bks.cpg/sg20_5_cif.got.tgz:8017.got - 2010.06.03 22:52:26.
