data_PCOD9316573
_publ_section_title
;
Structure prediction by ZEFSAII (Michael W. Deem and Ramdas Pophale) SiO2 
 PCOD9316573
Probable space group: C 2 2 21
;
_chemical_formula_sum "Si O2"
_cell_formula_units_Z 44
_cell_length_a 19.325412
_cell_length_b 6.259127
_cell_length_c 20.768884
_cell_angle_alpha 90.000000
_cell_angle_beta 90.000000
_cell_angle_gamma 90.000000
_cell_volume 2512.208529
_symmetry_space_group_name_H-M "C 2 2 21"
_symmetry_group_IT_number 20
_symmetry_cell_setting 'orthorhombic'
loop_
_space_group_symop_operation_xyz
x,y,z
-x,-y,1/2+z
x,-y,-z
-x,y,1/2-z
1/2+x,1/2+y,z
1/2-x,1/2-y,1/2+z
1/2+x,1/2-y,-z
1/2-x,1/2+y,1/2-z
loop_
_atom_site_type_symbol
_atom_site_label
_atom_site_fract_x
_atom_site_fract_y
_atom_site_fract_z
Si Si1 0.825980 0.092746 0.783152
Si Si2 0.176527 0.245424 0.186121
Si Si3 0.749507 0.874003 0.562531
Si Si4 0.077461 0.480424 0.726420
Si Si5 0.157937 0.000000 0.500000
Si Si6 0.357158 0.230314 0.882552
O O1 0.751488 0.202237 0.782912
O O2 0.885226 0.263850 0.795404
O O3 0.843537 0.981560 0.715971
O O4 0.822581 0.909426 0.837163
O O5 0.192766 0.214363 0.111219
O O6 0.123155 0.415959 0.215461
O O7 0.705082 0.672403 0.537717
O O8 0.776714 0.000000 0.500000
O O9 0.697721 0.044164 0.598024
O O10 0.084600 0.632562 0.663886
O O11 0.000000 0.452547 0.750000
O O12 0.119373 0.855081 0.553157
#
# Coordination Sequence:
#
# PCOD9316573 Si02
#       6
#     8   8   8   8   4   8
#     4  11  19  33  59  84 112 146 192 234 290 336
#     4  11  19  34  57  84 113 149 189 239 283 349
#     4  10  20  32  55  92 117 146 192 246 287 339
#     4  11  24  36  54  85 121 151 192 246 297 349
#     4  10  18  32  58  90 122 146 190 250 290 342
#     4  10  19  34  56  86 117 147 194 237 292 344
#
# _framework density 17.514469999999999
#
# number of rings (size 3 to 8) (size 9 to 14) (size 15 to 20)
#    0.000    1.455    5.455    1.091    0.000    2.909 
#    0.000    0.000    2.000    0.000   11.818    0.000 
#    0.000    0.000    0.000    0.000    0.000    0.000 
#
# Total GULP energy -122570.424287 kJ/mol
# GULP energy per Si atom -5571.382922 kJ/mol
# Density = 1.747461 g / cm^3
# Si number density = 17.514470 Si / 1000 Ang^3
#
#
#
# Elastic Constant Matrix: (Units=GPa)
#
#
# Indices 1 2 3 4 5 6 
#
# 1 72.1830 28.6076 27.6420 0.0000 0.0000 0.0000
# 2 28.6076 97.2465 39.1279 0.0000 0.0000 0.0000
# 3 27.6420 39.1279 101.4662 0.0000 0.0000 0.0000
# 4 0.0000 0.0000 0.0000 36.5639 0.0000 0.0000
# 5 0.0000 0.0000 0.0000 0.0000 12.7067 0.0000
# 6 0.0000 0.0000 0.0000 0.0000 0.0000 9.1258
#
#
#
# Elastic Compliance Matrix: (Units=1/GPa)
#
#
# Indices 1 2 3 4 5 6 
#
# 1 0.016466 -0.003597 -0.003099 0.000000 0.000000 0.000000
# 2 -0.003597 0.012958 -0.004017 0.000000 0.000000 0.000000
# 3 -0.003099 -0.004017 0.012249 0.000000 0.000000 0.000000
# 4 0.000000 0.000000 0.000000 0.027349 0.000000 0.000000
# 5 0.000000 0.000000 0.000000 0.000000 0.078699 0.000000
# 6 0.000000 0.000000 0.000000 0.000000 0.000000 0.109580
#
#
# Mechanical properties :
#
#
# Convention : Reuss Voigt Hill
#
# Bulk Modulus (GPa) = 49.39004 51.29452 50.34228
# Shear Modulus (GPa) = 17.51475 23.38049 20.44762
#
# Velocity S-wave (km/s) = 3.16573 3.65763 3.42053
# Velocity P-wave (km/s) = 6.45161 6.86936 6.66376
#
# Compressibility (1/GPa) = 0.02024700
#
# Stress axis : x y z
#
# Youngs Moduli (GPa) = 60.73171 77.17519 81.64187
#
# Poissons Ratio (x) = 0.27761 0.25297
# Poissons Ratio (y) = 0.21846 0.32794
# Poissons Ratio (z) = 0.18818 0.31000
#
# Static dielectric constant tensor:
#      x y z
#    x 1.540480 0.000000 0.000000 
#    y 0.000000 1.635970 0.000000 
#    z 0.000000 0.000000 1.656620 
# 
# From -- ./inp_files/26018.got.cif
#   From: 2010.05.17/outbox.cif.g08.bks.cpg/sg20_14_cif.got.tgz:26018.got - 2010.06.03 22:52:26.
