data_PCOD9316670
_publ_section_title
;
Structure prediction by ZEFSAII (Michael W. Deem and Ramdas Pophale) SiO2 
 PCOD9316670
Probable space group: C 2 2 21
;
_chemical_formula_sum "Si O2"
_cell_formula_units_Z 64
_cell_length_a 14.963398
_cell_length_b 11.445989
_cell_length_c 18.860644
_cell_angle_alpha 90.000000
_cell_angle_beta 90.000000
_cell_angle_gamma 90.000000
_cell_volume 3230.279263
_symmetry_space_group_name_H-M "C 2 2 21"
_symmetry_group_IT_number 20
_symmetry_cell_setting 'orthorhombic'
loop_
_space_group_symop_operation_xyz
x,y,z
-x,-y,1/2+z
x,-y,-z
-x,y,1/2-z
1/2+x,1/2+y,z
1/2-x,1/2-y,1/2+z
1/2+x,1/2-y,-z
1/2-x,1/2+y,1/2-z
loop_
_atom_site_type_symbol
_atom_site_label
_atom_site_fract_x
_atom_site_fract_y
_atom_site_fract_z
Si Si1 0.671544 0.497943 0.648511
Si Si2 0.365955 0.988686 0.641403
Si Si3 0.606408 0.648550 0.239040
Si Si4 0.401593 0.898457 0.215794
Si Si5 0.325990 0.733318 0.931512
Si Si6 0.458461 0.614445 0.039299
Si Si7 0.127034 0.247915 0.085540
Si Si8 0.550210 0.955653 0.581454
O O1 0.766804 0.449524 0.620622
O O2 0.656619 0.462323 0.729287
O O3 0.674392 0.635567 0.631044
O O4 0.588940 0.434908 0.609521
O O5 0.452066 0.920784 0.612483
O O6 0.361957 0.011251 0.726413
O O7 0.381275 0.117056 0.607544
O O8 0.500000 0.634502 0.250000
O O9 0.637535 0.768072 0.279278
O O10 0.627450 0.672563 0.157552
O O11 0.500000 0.882823 0.250000
O O12 0.412762 0.947305 0.136992
O O13 0.223759 0.763863 0.949917
O O14 0.382495 0.847469 0.913960
O O15 0.378353 0.668776 0.994087
O O16 0.537896 0.706212 0.046922
O O17 0.495145 0.500000 0.000000
O O18 0.544248 0.000000 0.500000
#
# Coordination Sequence:
#
# PCOD9316670 Si02
#       8
#     8   8   8   8   8   8   8   8
#     4  10  21  37  61  87 114 155 202 237 297 355
#     4   9  20  38  61  86 112 157 202 247 293 353
#     4  10  18  34  66  87 108 155 213 245 279 353
#     4   8  18  35  57  85 111 149 199 250 289 340
#     4  10  24  38  57  91 126 156 189 254 308 354
#     4  10  21  38  60  83 122 157 195 245 298 360
#     4  10  20  39  63  85 116 156 207 248 287 359
#     4  11  22  36  62  85 122 156 198 246 308 358
#
# _framework density 19.812529000000001
#
# number of rings (size 3 to 8) (size 9 to 14) (size 15 to 20)
#    0.000    2.250    1.250    1.500    3.500    4.000 
#    0.000    1.875    5.500    0.000    0.000    0.000 
#    0.000    0.000    0.000    0.000    0.000    0.000 
#
# Total GULP energy -178393.813996 kJ/mol
# GULP energy per Si atom -5574.806687 kJ/mol
# Density = 1.976743 g / cm^3
# Si number density = 19.812529 Si / 1000 Ang^3
#
#
#
# Elastic Constant Matrix: (Units=GPa)
#
#
# Indices 1 2 3 4 5 6 
#
# 1 99.1341 25.2095 9.1542 0.0000 0.0000 0.0000
# 2 25.2095 27.9737 17.4730 0.0000 0.0000 0.0000
# 3 9.1542 17.4730 64.7774 0.0000 0.0000 0.0000
# 4 0.0000 0.0000 0.0000 18.0237 0.0000 0.0000
# 5 0.0000 0.0000 0.0000 0.0000 18.8956 0.0000
# 6 0.0000 0.0000 0.0000 0.0000 0.0000 19.1532
#
#
#
# Elastic Compliance Matrix: (Units=1/GPa)
#
#
# Indices 1 2 3 4 5 6 
#
# 1 0.013226 -0.012930 0.001619 0.000000 0.000000 0.000000
# 2 -0.012930 0.055632 -0.013179 0.000000 0.000000 0.000000
# 3 0.001619 -0.013179 0.018764 0.000000 0.000000 0.000000
# 4 0.000000 0.000000 0.000000 0.055483 0.000000 0.000000
# 5 0.000000 0.000000 0.000000 0.000000 0.052922 0.000000
# 6 0.000000 0.000000 0.000000 0.000000 0.000000 0.052211
#
#
# Mechanical properties :
#
#
# Convention : Reuss Voigt Hill
#
# Bulk Modulus (GPa) = 25.87922 32.83984 29.35953
# Shear Modulus (GPa) = 16.12392 20.55106 18.33749
#
# Velocity S-wave (km/s) = 2.85586 3.22417 3.04559
# Velocity P-wave (km/s) = 4.89540 5.52011 5.21712
#
# Compressibility (1/GPa) = 0.03864105
#
# Stress axis : x y z
#
# Youngs Moduli (GPa) = 75.60890 17.97523 53.29467
#
# Poissons Ratio (x) = 0.23242 -0.08627
# Poissons Ratio (y) = 0.97763 0.70237
# Poissons Ratio (z) = -0.12239 0.23689
#
# Static dielectric constant tensor:
#      x y z
#    x 1.738780 0.000000 0.000000 
#    y 0.000000 1.703220 0.000000 
#    z 0.000000 0.000000 1.770200 
# 
# From -- ./inp_files/25005.got.cif
#   From: 2010.05.17/outbox.cif.g08.bks.cpg/sg20_13_cif.got.tgz:25005.got - 2010.06.03 22:52:26.
