data_PCOD9316013
_publ_section_title
;
Structure prediction by ZEFSAII (Michael W. Deem and Ramdas Pophale) SiO2 
 PCOD9316013
Probable space group: P 21 21 21
;
_chemical_formula_sum "Si O2"
_cell_formula_units_Z 28
_cell_length_a 12.604079
_cell_length_b 18.621363
_cell_length_c 5.016930
_cell_angle_alpha 90.000000
_cell_angle_beta 90.000000
_cell_angle_gamma 90.000000
_cell_volume 1177.499210
_symmetry_space_group_name_H-M "P 21 21 21"
_symmetry_group_IT_number 19
_symmetry_cell_setting 'orthorhombic'
loop_
_space_group_symop_operation_xyz
x,y,z
1/2-x,-y,1/2+z
1/2+x,1/2-y,-z
-x,1/2+y,1/2-z
loop_
_atom_site_type_symbol
_atom_site_label
_atom_site_fract_x
_atom_site_fract_y
_atom_site_fract_z
Si Si1 0.622153 0.172314 0.804665
Si Si2 0.771311 0.303560 0.853327
Si Si3 0.691285 0.087512 0.304684
Si Si4 0.903336 0.271355 0.355277
Si Si5 0.062803 0.606599 0.285132
Si Si6 0.012210 0.525074 0.779724
Si Si7 0.790529 0.462530 0.675777
O O1 0.675878 0.250175 0.786424
O O2 0.680081 0.117737 0.602939
O O3 0.500899 0.177698 0.717977
O O4 0.639083 0.144765 0.102708
O O5 0.867218 0.278862 0.659112
O O6 0.751736 0.385586 0.777486
O O7 0.807352 0.292403 0.157373
O O8 0.814143 0.082131 0.229808
O O9 0.622771 0.016530 0.258821
O O10 0.935280 0.189650 0.292716
O O11 0.014857 0.590747 0.572802
O O12 0.002488 0.557042 0.073049
O O13 0.916607 0.471578 0.713079
O O14 0.760369 0.478318 0.372267
#
# Coordination Sequence:
#
# PCOD9316013 Si02
#       7
#     4   4   4   4   4   4   4
#     4  12  24  42  74  99 134 178 225 279 343 406
#     4  12  25  49  68 102 137 180 223 291 336 407
#     4  12  24  47  68 106 134 179 226 282 350 409
#     4  12  25  44  73 100 141 178 233 281 344 406
#     4  12  24  45  69 105 136 178 229 289 342 408
#     4  12  26  43  71  98 143 183 228 280 347 406
#     4  12  28  48  71 102 143 186 238 282 342 418
#
# _framework density 23.779209000000002
#
# number of rings (size 3 to 8) (size 9 to 14) (size 15 to 20)
#    0.000    0.000    2.857    7.714    4.000    0.000 
#    0.000    0.000    0.000    0.000    0.000    0.000 
#    0.000    0.000    0.000    0.000    0.000    0.000 
#
# Total GULP energy -157076.447258 kJ/mol
# GULP energy per Si atom -5609.873116 kJ/mol
# Density = 2.372509 g / cm^3
# Si number density = 23.779209 Si / 1000 Ang^3
#
#
#
# Elastic Constant Matrix: (Units=GPa)
#
#
# Indices 1 2 3 4 5 6 
#
# 1 52.9148 -18.0991 4.2913 0.0000 0.0000 0.0000
# 2 -18.0991 94.1504 -4.4204 0.0000 0.0000 0.0000
# 3 4.2913 -4.4204 51.5849 0.0000 0.0000 0.0000
# 4 0.0000 0.0000 0.0000 35.0987 0.0000 0.0000
# 5 0.0000 0.0000 0.0000 0.0000 30.9891 0.0000
# 6 0.0000 0.0000 0.0000 0.0000 0.0000 12.4956
#
#
#
# Elastic Compliance Matrix: (Units=1/GPa)
#
#
# Indices 1 2 3 4 5 6 
#
# 1 0.020323 0.003843 -0.001361 0.000000 0.000000 0.000000
# 2 0.003843 0.011391 0.000656 0.000000 0.000000 0.000000
# 3 -0.001361 0.000656 0.019555 0.000000 0.000000 0.000000
# 4 0.000000 0.000000 0.000000 0.028491 0.000000 0.000000
# 5 0.000000 0.000000 0.000000 0.000000 0.032269 0.000000
# 6 0.000000 0.000000 0.000000 0.000000 0.000000 0.080028
#
#
# Mechanical properties :
#
#
# Convention : Reuss Voigt Hill
#
# Bulk Modulus (GPa) = 17.37768 18.02150 17.69959
# Shear Modulus (GPa) = 24.39458 30.17523 27.28490
#
# Velocity S-wave (km/s) = 3.20641 3.56613 3.39104
# Velocity P-wave (km/s) = 4.58605 4.95495 4.77407
#
# Compressibility (1/GPa) = 0.05754509
#
# Stress axis : x y z
#
# Youngs Moduli (GPa) = 49.20491 87.78959 51.13772
#
# Poissons Ratio (x) = -0.33737 0.06962
# Poissons Ratio (y) = -0.18909 -0.03357
# Poissons Ratio (z) = 0.06699 -0.05763
#
# Static dielectric constant tensor:
#      x y z
#    x 1.891270 0.000000 0.000000 
#    y 0.000000 1.867630 0.000000 
#    z 0.000000 0.000000 1.826600 
# 
# From -- ./inp_files/1040.got.cif
#   From: 2010.05.17/outbox.cif.g08.bks.cpg/sg19_1_cif.got.tgz:1040.got - 2010.06.03 22:46:19.
