data_PCOD9316400
_publ_section_title
;
Structure prediction by ZEFSAII (Michael W. Deem and Ramdas Pophale) SiO2 
 PCOD9316400
Probable space group: C 2 2 21
;
_chemical_formula_sum "Si O2"
_cell_formula_units_Z 56
_cell_length_a 21.490303
_cell_length_b 13.862683
_cell_length_c 9.628296
_cell_angle_alpha 90.000000
_cell_angle_beta 90.000000
_cell_angle_gamma 90.000000
_cell_volume 2868.397031
_symmetry_space_group_name_H-M "C 2 2 21"
_symmetry_group_IT_number 20
_symmetry_cell_setting 'orthorhombic'
loop_
_space_group_symop_operation_xyz
x,y,z
-x,-y,1/2+z
x,-y,-z
-x,y,1/2-z
1/2+x,1/2+y,z
1/2-x,1/2-y,1/2+z
1/2+x,1/2-y,-z
1/2-x,1/2+y,1/2-z
loop_
_atom_site_type_symbol
_atom_site_label
_atom_site_fract_x
_atom_site_fract_y
_atom_site_fract_z
Si Si1 0.047897 0.781553 0.480535
Si Si2 0.333110 0.103786 0.350672
Si Si3 0.903143 0.268950 0.282648
Si Si4 0.657407 0.307123 0.272560
Si Si5 0.531962 0.893306 0.978404
Si Si6 0.080216 0.113609 0.988378
Si Si7 0.289199 0.893087 0.331881
O O1 0.064597 0.758991 0.639719
O O2 0.109126 0.810761 0.398846
O O3 0.017869 0.682458 0.422322
O O4 0.992533 0.859111 0.469232
O O5 0.322775 0.196599 0.256312
O O6 0.406884 0.096622 0.383084
O O7 0.301798 0.118161 0.502468
O O8 0.308386 0.002263 0.294823
O O9 0.941771 0.345161 0.378494
O O10 0.898525 0.173296 0.376377
O O11 0.836599 0.318733 0.259651
O O12 0.718588 0.369458 0.297830
O O13 0.619564 0.343571 0.138558
O O14 0.505981 0.000000 0.000000
O O15 0.088497 0.000000 0.000000
#
# Coordination Sequence:
#
# PCOD9316400 Si02
#       7
#     8   8   8   8   8   8   8
#     4  11  25  39  64 104 131 168 223 273 336 402
#     4  10  20  44  67  93 129 177 216 276 326 392
#     4  10  21  42  65  93 129 175 216 272 335 394
#     4  12  25  42  68  99 133 174 221 283 332 394
#     4  10  17  38  68  93 128 173 213 265 338 395
#     4  11  24  45  64  91 134 177 219 273 337 391
#     4  10  22  42  69  93 129 175 226 258 338 399
#
# _framework density 19.523098999999998
#
# number of rings (size 3 to 8) (size 9 to 14) (size 15 to 20)
#    0.000    1.429    7.143    2.143    2.000    4.571 
#    7.714    0.000    0.000    0.000    0.000    0.000 
#    0.000    0.000    0.000    0.000    0.000    0.000 
#
# Total GULP energy -156452.293460 kJ/mol
# GULP energy per Si atom -5587.581909 kJ/mol
# Density = 1.947866 g / cm^3
# Si number density = 19.523099 Si / 1000 Ang^3
#
#
#
# Elastic Constant Matrix: (Units=GPa)
#
#
# Indices 1 2 3 4 5 6 
#
# 1 123.5647 44.7623 42.7043 0.0000 0.0000 0.0000
# 2 44.7623 143.3006 34.6751 0.0000 0.0000 0.0000
# 3 42.7043 34.6751 60.9596 0.0000 0.0000 0.0000
# 4 0.0000 0.0000 0.0000 5.4747 0.0000 0.0000
# 5 0.0000 0.0000 0.0000 0.0000 17.9800 0.0000
# 6 0.0000 0.0000 0.0000 0.0000 0.0000 22.6758
#
#
#
# Elastic Compliance Matrix: (Units=1/GPa)
#
#
# Indices 1 2 3 4 5 6 
#
# 1 0.011079 -0.001835 -0.006717 0.000000 0.000000 0.000000
# 2 -0.001835 0.008396 -0.003490 0.000000 0.000000 0.000000
# 3 -0.006717 -0.003490 0.023095 0.000000 0.000000 0.000000
# 4 0.000000 0.000000 0.000000 0.182658 0.000000 0.000000
# 5 0.000000 0.000000 0.000000 0.000000 0.055617 0.000000
# 6 0.000000 0.000000 0.000000 0.000000 0.000000 0.044100
#
#
# Mechanical properties :
#
#
# Convention : Reuss Voigt Hill
#
# Bulk Modulus (GPa) = 54.09819 63.56759 58.83289
# Shear Modulus (GPa) = 14.07681 22.93832 18.50756
#
# Velocity S-wave (km/s) = 2.68812 3.43145 3.08227
# Velocity P-wave (km/s) = 6.11593 6.95202 6.54734
#
# Compressibility (1/GPa) = 0.01848491
#
# Stress axis : x y z
#
# Youngs Moduli (GPa) = 90.25778 119.10176 43.29858
#
# Poissons Ratio (x) = 0.21859 0.29086
# Poissons Ratio (y) = 0.16566 0.15112
# Poissons Ratio (z) = 0.60631 0.41569
#
# Static dielectric constant tensor:
#      x y z
#    x 1.685410 0.000000 0.000000 
#    y 0.000000 1.679190 0.000000 
#    z 0.000000 0.000000 1.692550 
# 
# From -- ./inp_files/10182.got.cif
#   From: 2010.05.17/outbox.cif.g08.bks.cpg/sg20_6_cif.got.tgz:10182.got - 2010.06.03 22:52:26.
