data_PCOD9316595
_publ_section_title
;
Structure prediction by ZEFSAII (Michael W. Deem and Ramdas Pophale) SiO2 
 PCOD9316595
Probable space group: C 2 2 21
;
_chemical_formula_sum "Si O2"
_cell_formula_units_Z 64
_cell_length_a 10.913432
_cell_length_b 20.238762
_cell_length_c 16.414191
_cell_angle_alpha 90.000000
_cell_angle_beta 90.000000
_cell_angle_gamma 90.000000
_cell_volume 3625.473815
_symmetry_space_group_name_H-M "C 2 2 21"
_symmetry_group_IT_number 20
_symmetry_cell_setting 'orthorhombic'
loop_
_space_group_symop_operation_xyz
x,y,z
-x,-y,1/2+z
x,-y,-z
-x,y,1/2-z
1/2+x,1/2+y,z
1/2-x,1/2-y,1/2+z
1/2+x,1/2-y,-z
1/2-x,1/2+y,1/2-z
loop_
_atom_site_type_symbol
_atom_site_label
_atom_site_fract_x
_atom_site_fract_y
_atom_site_fract_z
Si Si1 0.560026 0.007773 0.901354
Si Si2 0.376289 0.877566 0.697769
Si Si3 0.745952 0.793142 0.931635
Si Si4 0.723215 0.022596 0.593732
Si Si5 0.990224 0.785528 0.653935
Si Si6 0.405171 0.847266 0.429517
Si Si7 0.186655 0.650730 0.515149
Si Si8 0.202113 0.103277 0.152536
O O1 0.415734 0.007670 0.878922
O O2 0.606308 0.082418 0.883550
O O3 0.618050 0.945586 0.854838
O O4 0.569568 0.000000 0.000000
O O5 0.500000 0.871021 0.750000
O O6 0.348940 0.816109 0.638092
O O7 0.267161 0.881293 0.762874
O O8 0.880569 0.795540 0.891628
O O9 0.746450 0.719391 0.967674
O O10 0.706166 0.839094 0.007287
O O11 0.736466 0.100512 0.584409
O O12 0.733454 0.000000 0.500000
O O13 0.811658 0.975642 0.644244
O O14 0.000000 0.774871 0.750000
O O15 0.919570 0.720532 0.620867
O O16 0.917072 0.853147 0.642361
O O17 0.539075 0.849773 0.474240
O O18 0.213999 0.625841 0.424142
#
# Coordination Sequence:
#
# PCOD9316595 Si02
#       8
#     8   8   8   8   8   8   8   8
#     4  10  18  33  55  84 114 140 183 247 304 333
#     4  12  22  33  58  91 115 151 192 246 308 349
#     4  11  21  37  59  85 116 157 197 239 294 363
#     4   8  16  31  56  83 105 140 188 239 282 344
#     4  11  23  38  56  84 120 162 189 235 302 359
#     4  10  20  37  61  82 116 149 200 244 290 348
#     4   9  19  36  62  85 109 152 196 249 292 343
#     4  11  19  36  57  83 117 147 194 236 293 356
#
# _framework density 17.652864000000001
#
# number of rings (size 3 to 8) (size 9 to 14) (size 15 to 20)
#    0.000    1.750    5.000    1.500    0.000    0.500 
#    2.250    0.000    8.250    0.750    0.000    0.000 
#    0.000    0.000    0.000    0.000    0.000    0.000 
#
# Total GULP energy -178159.747325 kJ/mol
# GULP energy per Si atom -5567.492104 kJ/mol
# Density = 1.761269 g / cm^3
# Si number density = 17.652864 Si / 1000 Ang^3
#
#
#
# Elastic Constant Matrix: (Units=GPa)
#
#
# Indices 1 2 3 4 5 6 
#
# 1 34.8437 29.3970 18.5860 0.0000 0.0000 0.0000
# 2 29.3970 102.6184 24.0537 0.0000 0.0000 0.0000
# 3 18.5860 24.0537 56.3599 0.0000 0.0000 0.0000
# 4 0.0000 0.0000 0.0000 28.0176 0.0000 0.0000
# 5 0.0000 0.0000 0.0000 0.0000 25.1719 0.0000
# 6 0.0000 0.0000 0.0000 0.0000 0.0000 29.4625
#
#
#
# Elastic Compliance Matrix: (Units=1/GPa)
#
#
# Indices 1 2 3 4 5 6 
#
# 1 0.042148 -0.009796 -0.009719 0.000000 0.000000 0.000000
# 2 -0.009796 0.013105 -0.002362 0.000000 0.000000 0.000000
# 3 -0.009719 -0.002362 0.021956 0.000000 0.000000 0.000000
# 4 0.000000 0.000000 0.000000 0.035692 0.000000 0.000000
# 5 0.000000 0.000000 0.000000 0.000000 0.039727 0.000000
# 6 0.000000 0.000000 0.000000 0.000000 0.000000 0.033941
#
#
# Mechanical properties :
#
#
# Convention : Reuss Voigt Hill
#
# Bulk Modulus (GPa) = 29.89069 37.54393 33.71731
# Shear Modulus (GPa) = 20.70598 24.64941 22.67769
#
# Velocity S-wave (km/s) = 3.42856 3.74082 3.58809
# Velocity P-wave (km/s) = 5.71337 6.32237 6.02557
#
# Compressibility (1/GPa) = 0.03345523
#
# Stress axis : x y z
#
# Youngs Moduli (GPa) = 23.72566 76.30726 45.54496
#
# Poissons Ratio (x) = 0.74752 0.44263
# Poissons Ratio (y) = 0.23242 0.10760
# Poissons Ratio (z) = 0.23058 0.18028
#
# Static dielectric constant tensor:
#      x y z
#    x 1.591810 0.000000 0.000000 
#    y 0.000000 1.658960 0.000000 
#    z 0.000000 0.000000 1.621350 
# 
# From -- ./inp_files/24553.got.cif
#   From: 2010.05.17/outbox.cif.g08.bks.cpg/sg20_13_cif.got.tgz:24553.got - 2010.06.03 22:52:26.
