data_PCOD9316045
_publ_section_title
;
Structure prediction by ZEFSAII (Michael W. Deem and Ramdas Pophale) SiO2 
 PCOD9316045
Probable space group: P 21 21 21
;
_chemical_formula_sum "Si O2"
_cell_formula_units_Z 28
_cell_length_a 5.831431
_cell_length_b 21.860227
_cell_length_c 8.305709
_cell_angle_alpha 90.000000
_cell_angle_beta 90.000000
_cell_angle_gamma 90.000000
_cell_volume 1058.781928
_symmetry_space_group_name_H-M "P 21 21 21"
_symmetry_group_IT_number 19
_symmetry_cell_setting 'orthorhombic'
loop_
_space_group_symop_operation_xyz
x,y,z
1/2-x,-y,1/2+z
1/2+x,1/2-y,-z
-x,1/2+y,1/2-z
loop_
_atom_site_type_symbol
_atom_site_label
_atom_site_fract_x
_atom_site_fract_y
_atom_site_fract_z
Si Si1 0.079410 0.245830 0.091045
Si Si2 0.777222 0.377661 0.862920
Si Si3 0.831776 0.290357 0.369521
Si Si4 0.126370 0.342405 0.636552
Si Si5 0.196240 0.538088 0.952983
Si Si6 0.383294 0.896384 0.275059
Si Si7 0.928456 0.503551 0.251301
O O1 0.110444 0.179187 0.171292
O O2 0.032884 0.293581 0.234940
O O3 0.330238 0.254303 0.003820
O O4 0.738619 0.438826 0.761907
O O5 0.031982 0.354636 0.816816
O O6 0.698378 0.392019 0.043047
O O7 0.769822 0.219640 0.386377
O O8 0.622193 0.328553 0.295914
O O9 0.904248 0.323907 0.530622
O O10 0.228267 0.404108 0.562089
O O11 0.379971 0.489970 0.888441
O O12 0.103990 0.567880 0.786845
O O13 0.021049 0.503518 0.069785
O O14 0.186221 0.939716 0.201442
#
# Coordination Sequence:
#
# PCOD9316045 Si02
#       7
#     4   4   4   4   4   4   4
#     4  12  27  49  79 124 163 214 282 346 430 508
#     4  12  28  48  82 113 168 210 279 347 422 514
#     4  12  25  48  81 112 167 207 275 351 424 519
#     4  12  27  50  79 125 160 220 278 353 439 518
#     4  12  28  49  80 116 159 218 281 348 433 511
#     4  12  27  49  78 114 157 218 273 347 424 512
#     4  12  28  49  77 112 160 211 280 342 424 512
#
# _framework density 26.445482999999999
#
# number of rings (size 3 to 8) (size 9 to 14) (size 15 to 20)
#    0.000    0.000    2.857    6.000    8.000    1.143 
#    0.000    0.000    0.000    0.000    0.000    0.000 
#    0.000    0.000    0.000    0.000    0.000    0.000 
#
# Total GULP energy -156603.769460 kJ/mol
# GULP energy per Si atom -5592.991766 kJ/mol
# Density = 2.638529 g / cm^3
# Si number density = 26.445483 Si / 1000 Ang^3
#
#
#
# Elastic Constant Matrix: (Units=GPa)
#
#
# Indices 1 2 3 4 5 6 
#
# 1 73.6618 30.0173 28.2300 0.0000 0.0000 0.0000
# 2 30.0173 107.7730 8.2259 0.0000 0.0000 0.0000
# 3 28.2300 8.2259 87.6184 0.0000 0.0000 0.0000
# 4 0.0000 0.0000 0.0000 42.7293 0.0000 0.0000
# 5 0.0000 0.0000 0.0000 0.0000 46.8254 0.0000
# 6 0.0000 0.0000 0.0000 0.0000 0.0000 49.0265
#
#
#
# Elastic Compliance Matrix: (Units=1/GPa)
#
#
# Indices 1 2 3 4 5 6 
#
# 1 0.017371 -0.004443 -0.005180 0.000000 0.000000 0.000000
# 2 -0.004443 0.010482 0.000447 0.000000 0.000000 0.000000
# 3 -0.005180 0.000447 0.013040 0.000000 0.000000 0.000000
# 4 0.000000 0.000000 0.000000 0.023403 0.000000 0.000000
# 5 0.000000 0.000000 0.000000 0.000000 0.021356 0.000000
# 6 0.000000 0.000000 0.000000 0.000000 0.000000 0.020397
#
#
# Mechanical properties :
#
#
# Convention : Reuss Voigt Hill
#
# Bulk Modulus (GPa) = 44.36033 44.66662 44.51348
# Shear Modulus (GPa) = 37.90344 41.22158 39.56251
#
# Velocity S-wave (km/s) = 3.78996 3.95237 3.87202
# Velocity P-wave (km/s) = 5.99686 6.14451 6.07114
#
# Compressibility (1/GPa) = 0.02254266
#
# Stress axis : x y z
#
# Youngs Moduli (GPa) = 57.56681 95.40104 76.68714
#
# Poissons Ratio (x) = 0.42386 0.39722
# Poissons Ratio (y) = 0.25576 -0.03431
# Poissons Ratio (z) = 0.29818 -0.04268
#
# Static dielectric constant tensor:
#      x y z
#    x 2.156950 0.000000 0.000000 
#    y 0.000000 1.962050 0.000000 
#    z 0.000000 0.000000 2.101030 
# 
# From -- ./inp_files/2434.got.cif
#   From: 2010.05.17/outbox.cif.g08.bks.cpg/sg19_2_cif.got.tgz:2434.got - 2010.06.03 22:46:19.
