data_PCOD9316058
_publ_section_title
;
Structure prediction by ZEFSAII (Michael W. Deem and Ramdas Pophale) SiO2 
 PCOD9316058
Probable space group: P 21 21 21
;
_chemical_formula_sum "Si O2"
_cell_formula_units_Z 20
_cell_length_a 5.369732
_cell_length_b 22.313731
_cell_length_c 6.943815
_cell_angle_alpha 90.000000
_cell_angle_beta 90.000000
_cell_angle_gamma 90.000000
_cell_volume 831.999271
_symmetry_space_group_name_H-M "P 21 21 21"
_symmetry_group_IT_number 19
_symmetry_cell_setting 'orthorhombic'
loop_
_space_group_symop_operation_xyz
x,y,z
1/2-x,-y,1/2+z
1/2+x,1/2-y,-z
-x,1/2+y,1/2-z
loop_
_atom_site_type_symbol
_atom_site_label
_atom_site_fract_x
_atom_site_fract_y
_atom_site_fract_z
Si Si1 0.279103 0.183827 0.969153
Si Si2 0.510936 0.449826 0.652179
Si Si3 0.562844 0.251225 0.684418
Si Si4 0.573366 0.843077 0.140115
Si Si5 0.013697 0.432549 0.902993
O O1 0.341887 0.240668 0.835105
O O2 0.049086 0.155137 0.850700
O O3 0.243350 0.210643 0.180105
O O4 0.479486 0.131792 0.999107
O O5 0.474452 0.403418 0.475762
O O6 0.773514 0.439711 0.761064
O O7 0.502478 0.516048 0.563972
O O8 0.274664 0.439107 0.791582
O O9 0.647703 0.183119 0.644474
O O10 0.536788 0.289451 0.493746
#
# Coordination Sequence:
#
# PCOD9316058 Si02
#       5
#     4   4   4   4   4
#     4  12  27  45  74 108 153 196 249 307 372 446
#     4  12  29  51  79 109 150 197 255 312 377 443
#     4  12  26  44  72 110 150 196 246 302 378 442
#     4  12  27  45  74 108 153 196 249 307 372 446
#     4  12  29  51  79 109 150 197 255 312 377 443
#
# _framework density 24.038481999999998
#
# number of rings (size 3 to 8) (size 9 to 14) (size 15 to 20)
#    0.000    0.000    6.000    2.400   14.000    0.000 
#    0.000    0.000    0.000    0.000    0.000    0.000 
#    0.000    0.000    0.000    0.000    0.000    0.000 
#
# Total GULP energy -111823.652990 kJ/mol
# GULP energy per Si atom -5591.182649 kJ/mol
# Density = 2.398377 g / cm^3
# Si number density = 24.038482 Si / 1000 Ang^3
#
#
#
# Elastic Constant Matrix: (Units=GPa)
#
#
# Indices 1 2 3 4 5 6 
#
# 1 85.1362 4.5993 26.9674 0.0000 0.0000 0.0000
# 2 4.5993 83.2734 17.0120 0.0000 0.0000 0.0000
# 3 26.9674 17.0120 98.1577 0.0000 0.0000 0.0000
# 4 0.0000 0.0000 0.0000 64.1616 0.0000 0.0000
# 5 0.0000 0.0000 0.0000 0.0000 49.9096 0.0000
# 6 0.0000 0.0000 0.0000 0.0000 0.0000 30.4071
#
#
#
# Elastic Compliance Matrix: (Units=1/GPa)
#
#
# Indices 1 2 3 4 5 6 
#
# 1 0.012866 0.000012 -0.003537 0.000000 0.000000 0.000000
# 2 0.000012 0.012449 -0.002161 0.000000 0.000000 0.000000
# 3 -0.003537 -0.002161 0.011534 0.000000 0.000000 0.000000
# 4 0.000000 0.000000 0.000000 0.015586 0.000000 0.000000
# 5 0.000000 0.000000 0.000000 0.000000 0.020036 0.000000
# 6 0.000000 0.000000 0.000000 0.000000 0.000000 0.032887
#
#
# Mechanical properties :
#
#
# Convention : Reuss Voigt Hill
#
# Bulk Modulus (GPa) = 39.25039 40.41385 39.83212
# Shear Modulus (GPa) = 39.92924 43.42824 41.67874
#
# Velocity S-wave (km/s) = 4.08003 4.25504 4.16845
# Velocity P-wave (km/s) = 6.20960 6.40227 6.30667
#
# Compressibility (1/GPa) = 0.02547746
#
# Stress axis : x y z
#
# Youngs Moduli (GPa) = 77.72723 80.32493 86.70124
#
# Poissons Ratio (x) = -0.00096 0.30663
# Poissons Ratio (y) = -0.00093 0.18735
# Poissons Ratio (z) = 0.27490 0.17358
#
# Static dielectric constant tensor:
#      x y z
#    x 2.131410 0.000000 0.000000 
#    y 0.000000 1.881680 0.000000 
#    z 0.000000 0.000000 1.893390 
# 
# From -- ./inp_files/129.got.cif
#   From: 2010.05.17/outbox.cif.g08.bks.cpg/sg19_1_cif.got.tgz:129.got - 2010.06.03 22:46:19.
