data_PCOD9316162
_publ_section_title
;
Structure prediction by ZEFSAII (Michael W. Deem and Ramdas Pophale) SiO2 
 PCOD9316162
Probable space group: P 21 21 21
;
_chemical_formula_sum "Si O2"
_cell_formula_units_Z 32
_cell_length_a 21.000000
_cell_length_b 12.000000
_cell_length_c 6.000000
_cell_angle_alpha 90.000000
_cell_angle_beta 90.000000
_cell_angle_gamma 90.000000
_cell_volume 1512.000000
_symmetry_space_group_name_H-M "P 21 21 21"
_symmetry_group_IT_number 19
_symmetry_cell_setting 'orthorhombic'
loop_
_space_group_symop_operation_xyz
x,y,z
1/2-x,-y,1/2+z
1/2+x,1/2-y,-z
-x,1/2+y,1/2-z
loop_
_atom_site_type_symbol
_atom_site_label
_atom_site_fract_x
_atom_site_fract_y
_atom_site_fract_z
Si Si1 0.754005 0.678410 0.973596
Si Si2 0.061192 0.385929 0.611714
Si Si3 0.582304 0.233732 0.895497
Si Si4 0.680450 0.523204 0.273840
Si Si5 0.342289 0.427373 0.971600
Si Si6 0.369317 0.182385 0.836000
Si Si7 0.563956 0.500228 0.941804
Si Si8 0.789775 0.871146 0.284959
O O1 0.739990 0.590950 0.173782
O O2 0.777349 0.796765 0.063153
O O3 0.802379 0.603525 0.833685
O O4 0.688191 0.694297 0.841622
O O5 0.058782 0.318245 0.855256
O O6 0.116845 0.481202 0.611493
O O7 0.997534 0.459519 0.578162
O O8 0.067549 0.318719 0.363572
O O9 0.564326 0.366719 0.879556
O O10 0.657486 0.202889 0.911877
O O11 0.657014 0.604989 0.466964
O O12 0.625642 0.513524 0.093761
O O13 0.380481 0.312262 0.910219
O O14 0.318603 0.506310 0.767024
O O15 0.277883 0.386400 0.093984
O O16 0.424836 0.100860 0.739829
#
# Coordination Sequence:
#
# PCOD9316162 Si02
#       8
#     4   4   4   4   4   4   4   4
#     4  11  22  39  67 106 148 186 242 304 388 457
#     4  11  29  52  75 109 150 205 260 319 382 459
#     4  11  28  51  77 113 147 201 259 315 389 462
#     4  11  23  40  67 108 142 191 243 311 380 449
#     4  11  24  43  72 108 150 196 253 312 391 460
#     4  11  24  42  68 108 144 193 244 313 381 454
#     4  11  29  46  78 104 148 206 255 327 376 465
#     4  11  23  43  72 110 149 198 244 319 385 472
#
# _framework density 21.164021000000002
#
# number of rings (size 3 to 8) (size 9 to 14) (size 15 to 20)
#    0.000    1.000    2.500    2.250   12.250    1.000 
#    2.250    0.000    0.000    0.000    0.000    0.000 
#    0.000    0.000    0.000    0.000    0.000    0.000 
#
# Total GULP energy -178284.159564 kJ/mol
# GULP energy per Si atom -5571.379986 kJ/mol
# Density = 2.111585 g / cm^3
# Si number density = 21.164021 Si / 1000 Ang^3
#
#
#
# Elastic Constant Matrix: (Units=GPa)
#
#
# Indices 1 2 3 4 5 6 
#
# 1 35.0004 3.7684 -13.7398 0.0000 0.0000 0.0000
# 2 3.7684 153.7050 16.0721 0.0000 0.0000 0.0000
# 3 -13.7398 16.0721 59.0250 0.0000 0.0000 0.0000
# 4 0.0000 0.0000 0.0000 43.4849 0.0000 0.0000
# 5 0.0000 0.0000 0.0000 0.0000 15.2084 0.0000
# 6 0.0000 0.0000 0.0000 0.0000 0.0000 32.2059
#
#
#
# Elastic Compliance Matrix: (Units=1/GPa)
#
#
# Indices 1 2 3 4 5 6 
#
# 1 0.031822 -0.001600 0.007843 0.000000 0.000000 0.000000
# 2 -0.001600 0.006777 -0.002218 0.000000 0.000000 0.000000
# 3 0.007843 -0.002218 0.019372 0.000000 0.000000 0.000000
# 4 0.000000 0.000000 0.000000 0.022996 0.000000 0.000000
# 5 0.000000 0.000000 0.000000 0.000000 0.065753 0.000000
# 6 0.000000 0.000000 0.000000 0.000000 0.000000 0.031050
#
#
# Mechanical properties :
#
#
# Convention : Reuss Voigt Hill
#
# Bulk Modulus (GPa) = 15.14662 28.88133 22.01398
# Shear Modulus (GPa) = 26.07864 34.28849 30.18356
#
# Velocity S-wave (km/s) = 3.51410 4.02945 3.78057
# Velocity P-wave (km/s) = 4.86184 5.94346 5.42965
#
# Compressibility (1/GPa) = 0.06602132
#
# Stress axis : x y z
#
# Youngs Moduli (GPa) = 31.42444 147.55537 51.62188
#
# Poissons Ratio (x) = 0.23614 -0.40489
# Poissons Ratio (y) = 0.05029 0.11449
# Poissons Ratio (z) = -0.24647 0.32726
#
# Static dielectric constant tensor:
#      x y z
#    x 1.813280 0.000000 0.000000 
#    y 0.000000 1.760900 0.000000 
#    z 0.000000 0.000000 1.874920 
# 
# From -- ./inp_files/2018.got.cif
#   From: 2010.05.17/outbox.ucp.g08.bks.cvg/sg19_2_cif.got.tgz:2018.got - 2010.06.11 13:13:52.
