data_PCOD9316749
_publ_section_title
;
Structure prediction by ZEFSAII (Michael W. Deem and Ramdas Pophale) SiO2 
 PCOD9316749
Probable space group: C 2 2 21
;
_chemical_formula_sum "Si O2"
_cell_formula_units_Z 60
_cell_length_a 11.502813
_cell_length_b 9.245340
_cell_length_c 23.142506
_cell_angle_alpha 90.000000
_cell_angle_beta 90.000000
_cell_angle_gamma 90.000000
_cell_volume 2461.145739
_symmetry_space_group_name_H-M "C 2 2 21"
_symmetry_group_IT_number 20
_symmetry_cell_setting 'orthorhombic'
loop_
_space_group_symop_operation_xyz
x,y,z
-x,-y,1/2+z
x,-y,-z
-x,y,1/2-z
1/2+x,1/2+y,z
1/2-x,1/2-y,1/2+z
1/2+x,1/2-y,-z
1/2-x,1/2+y,1/2-z
loop_
_atom_site_type_symbol
_atom_site_label
_atom_site_fract_x
_atom_site_fract_y
_atom_site_fract_z
Si Si1 0.424014 0.097266 0.368666
Si Si2 0.864788 0.829537 0.590831
Si Si3 0.201590 0.858025 0.092548
Si Si4 0.500000 0.071670 0.250000
Si Si5 0.049731 0.387929 0.447905
Si Si6 0.036190 0.079096 0.312476
Si Si7 0.202644 0.655557 0.719077
Si Si8 0.213638 0.872822 0.346131
O O1 0.386659 0.225639 0.410276
O O2 0.464559 0.156149 0.306962
O O3 0.520578 0.990262 0.393228
O O4 0.312369 0.994379 0.358406
O O5 0.744510 0.752378 0.608823
O O6 0.946995 0.730127 0.551422
O O7 0.935911 0.843126 0.651416
O O8 0.842092 0.989655 0.568933
O O9 0.324277 0.819800 0.062919
O O10 0.225572 0.881970 0.161562
O O11 0.392763 0.967004 0.233164
O O12 0.049587 0.500000 0.500000
O O13 0.133648 0.198711 0.297311
O O14 0.000000 0.022617 0.250000
O O15 0.092024 0.954002 0.351099
O O16 0.271656 0.674863 0.779190
#
# Coordination Sequence:
#
# PCOD9316749 Si02
#       8
#     8   8   8   4   8   8   8   8
#     4  10  21  41  67  99 133 172 221 265 329 402
#     4  11  24  42  63  93 130 165 219 272 323 389
#     4  12  24  41  68  98 131 171 218 269 326 402
#     4  10  18  36  64  94 142 178 208 270 320 398
#     4  11  25  48  72  92 126 172 220 283 341 388
#     4  12  19  37  58  88 133 178 215 263 320 380
#     4  11  18  34  57  91 130 175 218 253 313 382
#     4  10  21  35  60  90 133 180 215 259 313 387
#
# _framework density 24.378889000000001
#
# number of rings (size 3 to 8) (size 9 to 14) (size 15 to 20)
#    0.000    1.067    6.000    1.600    0.000    2.133 
#    3.600    0.000    0.000    0.000    0.000    0.000 
#    0.000    0.000    0.000    0.000    0.000    0.000 
#
# Total GULP energy -168058.442333 kJ/mol
# GULP energy per Si atom -5601.948078 kJ/mol
# Density = 2.432340 g / cm^3
# Si number density = 24.378889 Si / 1000 Ang^3
#
#
#
# Elastic Constant Matrix: (Units=GPa)
#
#
# Indices 1 2 3 4 5 6 
#
# 1 40.7858 28.9927 -5.5161 0.0000 0.0000 0.0000
# 2 28.9927 98.5517 -6.3532 0.0000 0.0000 0.0000
# 3 -5.5161 -6.3532 47.1943 0.0000 0.0000 0.0000
# 4 0.0000 0.0000 0.0000 7.5013 0.0000 0.0000
# 5 0.0000 0.0000 0.0000 0.0000 6.4965 0.0000
# 6 0.0000 0.0000 0.0000 0.0000 0.0000 1.1054
#
#
#
# Elastic Compliance Matrix: (Units=1/GPa)
#
#
# Indices 1 2 3 4 5 6 
#
# 1 0.031277 -0.009044 0.002438 0.000000 0.000000 0.000000
# 2 -0.009044 0.012851 0.000673 0.000000 0.000000 0.000000
# 3 0.002438 0.000673 0.021565 0.000000 0.000000 0.000000
# 4 0.000000 0.000000 0.000000 0.133310 0.000000 0.000000
# 5 0.000000 0.000000 0.000000 0.000000 0.153930 0.000000
# 6 0.000000 0.000000 0.000000 0.000000 0.000000 0.904612
#
#
# Mechanical properties :
#
#
# Convention : Reuss Voigt Hill
#
# Bulk Modulus (GPa) = 18.57821 24.53097 21.55459
# Shear Modulus (GPa) = 3.88394 14.31453 9.09923
#
# Velocity S-wave (km/s) = 1.26357 2.42579 1.93404
# Velocity P-wave (km/s) = 3.12506 4.23440 3.72130
#
# Compressibility (1/GPa) = 0.05382649
#
# Stress axis : x y z
#
# Youngs Moduli (GPa) = 31.97216 77.81477 46.37244
#
# Poissons Ratio (x) = 0.70377 -0.11306
# Poissons Ratio (y) = 0.28916 -0.03120
# Poissons Ratio (z) = -0.07795 -0.05236
#
# Static dielectric constant tensor:
#      x y z
#    x 1.950260 0.000000 0.000000 
#    y 0.000000 1.922270 0.000000 
#    z 0.000000 0.000000 1.947340 
# 
# From -- ./inp_files/30326.got.cif
#   From: 2010.05.17/outbox.cif.g08.bks.cpg/sg20_16_cif.got.tgz:30326.got - 2010.06.03 22:52:26.
