data_PCOD9316475
_publ_section_title
;
Structure prediction by ZEFSAII (Michael W. Deem and Ramdas Pophale) SiO2 
 PCOD9316475
Probable space group: C 2 2 21
;
_chemical_formula_sum "Si O2"
_cell_formula_units_Z 40
_cell_length_a 8.911515
_cell_length_b 21.366307
_cell_length_c 8.906222
_cell_angle_alpha 90.000000
_cell_angle_beta 90.000000
_cell_angle_gamma 90.000000
_cell_volume 1695.799579
_symmetry_space_group_name_H-M "C 2 2 21"
_symmetry_group_IT_number 20
_symmetry_cell_setting 'orthorhombic'
loop_
_space_group_symop_operation_xyz
x,y,z
-x,-y,1/2+z
x,-y,-z
-x,y,1/2-z
1/2+x,1/2+y,z
1/2-x,1/2-y,1/2+z
1/2+x,1/2-y,-z
1/2-x,1/2+y,1/2-z
loop_
_atom_site_type_symbol
_atom_site_label
_atom_site_fract_x
_atom_site_fract_y
_atom_site_fract_z
Si Si1 0.237408 0.737722 0.307669
Si Si2 0.340984 0.932286 0.565435
Si Si3 0.657729 0.399322 0.821728
Si Si4 0.551388 0.795518 0.972322
Si Si5 0.519211 0.568084 0.574078
O O1 0.313754 0.671280 0.276447
O O2 0.365039 0.782895 0.371150
O O3 0.141681 0.744126 0.155734
O O4 0.115948 0.728232 0.441876
O O5 0.285782 0.939429 0.739291
O O6 0.444317 0.870672 0.557529
O O7 0.187194 0.912395 0.476011
O O8 0.389287 0.000000 0.500000
O O9 0.500000 0.419604 0.750000
O O10 0.621652 0.397821 0.996942
O O11 0.504887 0.500000 0.500000
O O12 0.500000 0.569249 0.750000
#
# Coordination Sequence:
#
# PCOD9316475 Si02
#       5
#     8   8   8   8   8
#     4  10  23  40  61  89 122 162 209 251 313 366
#     4   9  18  36  59  82 116 161 201 247 315 364
#     4   9  19  35  58  84 119 160 194 254 309 358
#     4  10  23  40  62  91 121 166 203 260 310 373
#     4  10  18  30  53  84 117 154 201 246 297 366
#
# _framework density 23.587692000000001
#
# number of rings (size 3 to 8) (size 9 to 14) (size 15 to 20)
#    0.000    2.400    0.000    3.000    8.400    1.600 
#    0.000    1.000    0.000   12.000    0.000    0.000 
#    0.000    0.000    0.000    0.000    0.000    0.000 
#
# Total GULP energy -111486.736431 kJ/mol
# GULP energy per Si atom -5574.336822 kJ/mol
# Density = 2.353401 g / cm^3
# Si number density = 23.587692 Si / 1000 Ang^3
#
#
#
# Elastic Constant Matrix: (Units=GPa)
#
#
# Indices 1 2 3 4 5 6 
#
# 1 60.7562 16.1491 19.4956 0.0000 0.0000 0.0000
# 2 16.1491 54.9466 17.1878 0.0000 0.0000 0.0000
# 3 19.4956 17.1878 111.7022 0.0000 0.0000 0.0000
# 4 0.0000 0.0000 0.0000 35.8559 0.0000 0.0000
# 5 0.0000 0.0000 0.0000 0.0000 34.5267 0.0000
# 6 0.0000 0.0000 0.0000 0.0000 0.0000 11.8589
#
#
#
# Elastic Compliance Matrix: (Units=1/GPa)
#
#
# Indices 1 2 3 4 5 6 
#
# 1 0.018502 -0.004652 -0.002513 0.000000 0.000000 0.000000
# 2 -0.004652 0.020289 -0.002310 0.000000 0.000000 0.000000
# 3 -0.002513 -0.002310 0.009747 0.000000 0.000000 0.000000
# 4 0.000000 0.000000 0.000000 0.027889 0.000000 0.000000
# 5 0.000000 0.000000 0.000000 0.000000 0.028963 0.000000
# 6 0.000000 0.000000 0.000000 0.000000 0.000000 0.084325
#
#
# Mechanical properties :
#
#
# Convention : Reuss Voigt Hill
#
# Bulk Modulus (GPa) = 33.79802 37.00778 35.40290
# Shear Modulus (GPa) = 22.88035 28.08647 25.48341
#
# Velocity S-wave (km/s) = 3.11788 3.45443 3.29046
# Velocity P-wave (km/s) = 5.22698 5.62444 5.42935
#
# Compressibility (1/GPa) = 0.02958753
#
# Stress axis : x y z
#
# Youngs Moduli (GPa) = 54.04773 49.28720 102.60086
#
# Poissons Ratio (x) = 0.22927 0.25788
# Poissons Ratio (y) = 0.25141 0.23702
# Poissons Ratio (z) = 0.13585 0.11386
#
# Static dielectric constant tensor:
#      x y z
#    x 2.003080 0.000000 0.000000 
#    y 0.000000 1.882560 0.000000 
#    z 0.000000 0.000000 2.075310 
# 
# From -- ./inp_files/6076.got.cif
#   From: 2010.05.17/outbox.cif.g08.bks.cpg/sg20_4_cif.got.tgz:6076.got - 2010.06.03 22:52:26.
