data_PCOD9316210
_publ_section_title
;
Structure prediction by ZEFSAII (Michael W. Deem and Ramdas Pophale) SiO2 
 PCOD9316210
Probable space group: C 2 2 21
;
_chemical_formula_sum "Si O2"
_cell_formula_units_Z 48
_cell_length_a 13.397382
_cell_length_b 28.106762
_cell_length_c 5.420185
_cell_angle_alpha 90.000000
_cell_angle_beta 90.000000
_cell_angle_gamma 90.000000
_cell_volume 2041.008751
_symmetry_space_group_name_H-M "C 2 2 21"
_symmetry_group_IT_number 20
_symmetry_cell_setting 'orthorhombic'
loop_
_space_group_symop_operation_xyz
x,y,z
-x,-y,1/2+z
x,-y,-z
-x,y,1/2-z
1/2+x,1/2+y,z
1/2-x,1/2-y,1/2+z
1/2+x,1/2-y,-z
1/2-x,1/2+y,1/2-z
loop_
_atom_site_type_symbol
_atom_site_label
_atom_site_fract_x
_atom_site_fract_y
_atom_site_fract_z
Si Si1 0.849209 0.675656 0.114107
Si Si2 0.904549 0.060481 0.386854
Si Si3 0.343383 0.854993 0.378278
Si Si4 0.645134 0.288834 0.390318
Si Si5 0.779372 0.949888 0.104721
Si Si6 0.112762 0.165593 0.103074
O O1 0.893887 0.655300 0.363340
O O2 0.844088 0.732517 0.098177
O O3 0.733736 0.657261 0.107978
O O4 0.899857 0.656616 0.869987
O O5 0.847593 0.043567 0.642169
O O6 0.934433 0.114461 0.455537
O O7 0.000000 0.035312 0.250000
O O8 0.838106 0.066431 0.141054
O O9 0.252178 0.815837 0.385354
O O10 0.298347 0.907778 0.351412
O O11 0.592978 0.310802 0.631940
O O12 0.597080 0.300459 0.128148
O O13 0.738034 0.000000 0.000000
#
# Coordination Sequence:
#
# PCOD9316210 Si02
#       6
#     8   8   8   8   8   8
#     4  10  16  25  46  67  87 105 118 148 214 269
#     4  12  23  38  51  61  77 108 144 195 240 267
#     4  10  16  29  42  62  88 100 126 162 208 270
#     4  10  16  25  46  67  87 105 118 148 214 269
#     4  12  23  38  51  61  77 108 144 195 240 267
#     4  10  16  29  42  62  88 100 126 162 208 270
#
# _framework density 23.517780999999999
#
# number of rings (size 3 to 8) (size 9 to 14) (size 15 to 20)
#    0.000    1.333    6.667    6.000    0.000    1.333 
#    0.000    0.000    0.000    0.000    0.000    0.000 
#    0.000    0.000    0.000    0.000    0.000    0.000 
#
# Total GULP energy -133928.327415 kJ/mol
# GULP energy per Si atom -5580.346976 kJ/mol
# Density = 2.346425 g / cm^3
# Si number density = 23.517781 Si / 1000 Ang^3
#
#
#
# Elastic Constant Matrix: (Units=GPa)
#
#
# Indices 1 2 3 4 5 6 
#
# 1 57.7052 17.2582 41.3269 0.0000 0.0000 0.0000
# 2 17.2582 150.4046 55.2723 0.0000 0.0000 0.0000
# 3 41.3269 55.2723 260.0792 0.0000 0.0000 0.0000
# 4 0.0000 0.0000 0.0000 45.2051 0.0000 0.0000
# 5 0.0000 0.0000 0.0000 0.0000 37.8188 0.0000
# 6 0.0000 0.0000 0.0000 0.0000 0.0000 -1.4667
#
#
#
# Elastic Compliance Matrix: (Units=1/GPa)
#
#
# Indices 1 2 3 4 5 6 
#
# 1 0.019755 -0.001208 -0.002882 0.000000 0.000000 0.000000
# 2 -0.001208 0.007286 -0.001357 0.000000 0.000000 0.000000
# 3 -0.002882 -0.001357 0.004591 0.000000 0.000000 0.000000
# 4 0.000000 0.000000 0.000000 0.022121 0.000000 0.000000
# 5 0.000000 0.000000 0.000000 0.000000 0.026442 0.000000
# 6 0.000000 0.000000 0.000000 0.000000 0.000000 -0.681814
#
#
# Mechanical properties :
#
#
# Convention : Reuss Voigt Hill
#
# Bulk Modulus (GPa) = 48.21818 77.32265 62.77041
# Shear Modulus (GPa) = -8.56439 39.93356 15.68459
#
# Velocity S-wave (km/s) = -1.91038 4.12517 2.58529
# Velocity P-wave (km/s) = 3.95996 7.45916 5.97162
#
# Compressibility (1/GPa) = 0.02073907
#
# Stress axis : x y z
#
# Youngs Moduli (GPa) = 50.62029 137.25337 217.80338
#
# Poissons Ratio (x) = 0.16573 0.62781
# Poissons Ratio (y) = 0.06112 0.29545
# Poissons Ratio (z) = 0.14591 0.18619
#
# Static dielectric constant tensor:
#      x y z
#    x 1.973250 0.000000 0.000000 
#    y 0.000000 1.884680 0.000000 
#    z 0.000000 0.000000 2.006950 
# 
# From -- ./inp_files/3844.got.cif
#   From: 2010.05.17/outbox.cif.g08.bks.cpg/sg20_2_cif.got.tgz:3844.got - 2010.06.03 22:52:26.
