data_PCOD9316080
_publ_section_title
;
Structure prediction by ZEFSAII (Michael W. Deem and Ramdas Pophale) SiO2 
 PCOD9316080
Probable space group: P 21 21 21
;
_chemical_formula_sum "Si O2"
_cell_formula_units_Z 28
_cell_length_a 9.245070
_cell_length_b 5.049131
_cell_length_c 22.740792
_cell_angle_alpha 90.000000
_cell_angle_beta 90.000000
_cell_angle_gamma 90.000000
_cell_volume 1061.530381
_symmetry_space_group_name_H-M "P 21 21 21"
_symmetry_group_IT_number 19
_symmetry_cell_setting 'orthorhombic'
loop_
_space_group_symop_operation_xyz
x,y,z
1/2-x,-y,1/2+z
1/2+x,1/2-y,-z
-x,1/2+y,1/2-z
loop_
_atom_site_type_symbol
_atom_site_label
_atom_site_fract_x
_atom_site_fract_y
_atom_site_fract_z
Si Si1 0.099537 0.885601 0.073453
Si Si2 0.220145 0.261897 0.427933
Si Si3 0.030173 0.922762 0.786218
Si Si4 0.902792 0.726487 0.323378
Si Si5 0.153172 0.492791 0.603382
Si Si6 0.102523 0.238688 0.967488
Si Si7 0.662847 0.405040 0.691573
O O1 0.246858 0.718306 0.068981
O O2 0.947265 0.765693 0.051555
O O3 0.085451 0.948959 0.142726
O O4 0.104629 0.157395 0.036075
O O5 0.328562 0.479482 0.453883
O O6 0.210180 0.302880 0.357853
O O7 0.289111 0.978033 0.439853
O O8 0.187501 0.052508 0.794849
O O9 0.049759 0.649330 0.751166
O O10 0.954439 0.864306 0.848453
O O11 0.889645 0.704938 0.253719
O O12 0.763376 0.849885 0.354694
O O13 0.043068 0.902541 0.335193
O O14 0.053689 0.676262 0.561566
#
# Coordination Sequence:
#
# PCOD9316080 Si02
#       7
#     4   4   4   4   4   4   4
#     4  12  29  52  79 114 165 211 283 330 419 487
#     4  12  28  52  78 120 154 219 265 339 410 494
#     4  12  28  47  78 115 162 208 264 333 405 488
#     4  12  28  49  80 119 161 219 269 342 412 502
#     4  12  28  50  77 119 157 215 276 339 404 495
#     4  12  31  50  85 114 166 213 277 342 412 477
#     4  12  26  50  81 115 171 209 276 335 424 487
#
# _framework density 26.377012000000001
#
# number of rings (size 3 to 8) (size 9 to 14) (size 15 to 20)
#    0.000    0.000    4.286    3.429   10.000    0.000 
#    0.000    0.000    0.000    0.000    0.000    0.000 
#    0.000    0.000    0.000    0.000    0.000    0.000 
#
# Total GULP energy -156988.716591 kJ/mol
# GULP energy per Si atom -5606.739878 kJ/mol
# Density = 2.631698 g / cm^3
# Si number density = 26.377012 Si / 1000 Ang^3
#
#
#
# Elastic Constant Matrix: (Units=GPa)
#
#
# Indices 1 2 3 4 5 6 
#
# 1 174.2285 28.4893 30.0133 0.0000 0.0000 0.0000
# 2 28.4893 67.7362 29.8125 0.0000 0.0000 0.0000
# 3 30.0133 29.8125 148.8702 0.0000 0.0000 0.0000
# 4 0.0000 0.0000 0.0000 37.9679 0.0000 0.0000
# 5 0.0000 0.0000 0.0000 0.0000 48.8601 0.0000
# 6 0.0000 0.0000 0.0000 0.0000 0.0000 48.6198
#
#
#
# Elastic Compliance Matrix: (Units=1/GPa)
#
#
# Indices 1 2 3 4 5 6 
#
# 1 0.006250 -0.002275 -0.000805 0.000000 0.000000 0.000000
# 2 -0.002275 0.017018 -0.002949 0.000000 0.000000 0.000000
# 3 -0.000805 -0.002949 0.007470 0.000000 0.000000 0.000000
# 4 0.000000 0.000000 0.000000 0.026338 0.000000 0.000000
# 5 0.000000 0.000000 0.000000 0.000000 0.020467 0.000000
# 6 0.000000 0.000000 0.000000 0.000000 0.000000 0.020568
#
#
# Mechanical properties :
#
#
# Convention : Reuss Voigt Hill
#
# Bulk Modulus (GPa) = 53.53036 63.05167 58.29101
# Shear Modulus (GPa) = 42.95727 47.25756 45.10742
#
# Velocity S-wave (km/s) = 4.03995 4.23734 4.13983
# Velocity P-wave (km/s) = 6.48845 6.92070 6.70806
#
# Compressibility (1/GPa) = 0.01868099
#
# Stress axis : x y z
#
# Youngs Moduli (GPa) = 159.99671 58.76149 133.86690
#
# Poissons Ratio (x) = 0.13366 0.10770
# Poissons Ratio (y) = 0.36394 0.39483
# Poissons Ratio (z) = 0.12873 0.17331
#
# Static dielectric constant tensor:
#      x y z
#    x 2.077310 0.000000 0.000000 
#    y 0.000000 2.051900 0.000000 
#    z 0.000000 0.000000 2.078800 
# 
# From -- ./inp_files/7346.got.cif
#   From: 2010.05.17/outbox.cif.g08.bks.cpg/sg19_4_cif.got.tgz:7346.got - 2010.06.03 22:46:19.
