data_PCOD9316604
_publ_section_title
;
Structure prediction by ZEFSAII (Michael W. Deem and Ramdas Pophale) SiO2 
 PCOD9316604
Probable space group: C 2 2 21
;
_chemical_formula_sum "Si O2"
_cell_formula_units_Z 40
_cell_length_a 20.724600
_cell_length_b 12.383494
_cell_length_c 8.427012
_cell_angle_alpha 90.000000
_cell_angle_beta 90.000000
_cell_angle_gamma 90.000000
_cell_volume 2162.733302
_symmetry_space_group_name_H-M "C 2 2 21"
_symmetry_group_IT_number 20
_symmetry_cell_setting 'orthorhombic'
loop_
_space_group_symop_operation_xyz
x,y,z
-x,-y,1/2+z
x,-y,-z
-x,y,1/2-z
1/2+x,1/2+y,z
1/2-x,1/2-y,1/2+z
1/2+x,1/2-y,-z
1/2-x,1/2+y,1/2-z
loop_
_atom_site_type_symbol
_atom_site_label
_atom_site_fract_x
_atom_site_fract_y
_atom_site_fract_z
Si Si1 0.191006 0.029677 0.187889
Si Si2 0.692069 0.300070 0.266062
Si Si3 0.561432 0.937947 0.152485
Si Si4 0.832247 0.742816 0.603780
Si Si5 0.836684 0.427235 0.843274
O O1 0.154387 0.143288 0.192265
O O2 0.265634 0.054147 0.232958
O O3 0.167404 0.923184 0.278755
O O4 0.192210 0.000000 0.000000
O O5 0.767245 0.302569 0.315106
O O6 0.660245 0.202254 0.365335
O O7 0.683740 0.266766 0.081088
O O8 0.500000 0.900258 0.250000
O O9 0.609754 0.840461 0.115006
O O10 0.605523 0.027109 0.239955
O O11 0.535491 0.000000 0.000000
O O12 0.837171 0.500000 0.000000
#
# Coordination Sequence:
#
# PCOD9316604 Si02
#       5
#     8   8   8   8   8
#     4   8  16  30  53  86 115 149 182 245 317 368
#     4  10  18  33  59  87 123 153 192 260 327 374
#     4  12  24  40  57  83 121 170 214 256 296 372
#     4  10  20  34  56  89 119 156 205 252 316 378
#     4  10  19  34  55  84 121 154 203 248 311 371
#
# _framework density 18.495115999999999
#
# number of rings (size 3 to 8) (size 9 to 14) (size 15 to 20)
#    0.000    2.000    4.000    1.800    0.000    0.000 
#    0.000    0.000    0.000    1.200    5.200    0.000 
#    0.000    0.000    0.000    0.000    0.000    0.000 
#
# Total GULP energy -111455.307843 kJ/mol
# GULP energy per Si atom -5572.765392 kJ/mol
# Density = 1.845302 g / cm^3
# Si number density = 18.495116 Si / 1000 Ang^3
#
#
#
# Elastic Constant Matrix: (Units=GPa)
#
#
# Indices 1 2 3 4 5 6 
#
# 1 42.8459 1.5517 22.0928 0.0000 0.0000 0.0000
# 2 1.5517 128.5941 21.1297 0.0000 0.0000 0.0000
# 3 22.0928 21.1297 39.9784 0.0000 0.0000 0.0000
# 4 0.0000 0.0000 0.0000 27.4933 0.0000 0.0000
# 5 0.0000 0.0000 0.0000 0.0000 13.9594 0.0000
# 6 0.0000 0.0000 0.0000 0.0000 0.0000 0.2435
#
#
#
# Elastic Compliance Matrix: (Units=1/GPa)
#
#
# Indices 1 2 3 4 5 6 
#
# 1 0.033598 0.002897 -0.020098 0.000000 0.000000 0.000000
# 2 0.002897 0.008766 -0.006234 0.000000 0.000000 0.000000
# 3 -0.020098 -0.006234 0.039415 0.000000 0.000000 0.000000
# 4 0.000000 0.000000 0.000000 0.036373 0.000000 0.000000
# 5 0.000000 0.000000 0.000000 0.000000 0.071636 0.000000
# 6 0.000000 0.000000 0.000000 0.000000 0.000000 4.106490
#
#
# Mechanical properties :
#
#
# Convention : Reuss Voigt Hill
#
# Bulk Modulus (GPa) = 28.64621 33.44078 31.04349
# Shear Modulus (GPa) = 1.14816 19.44885 10.29851
#
# Velocity S-wave (km/s) = 0.78876 3.24631 2.36227
# Velocity P-wave (km/s) = 4.04372 5.67199 4.92560
#
# Compressibility (1/GPa) = 0.03490864
#
# Stress axis : x y z
#
# Youngs Moduli (GPa) = 29.76404 114.08039 25.37129
#
# Poissons Ratio (x) = -0.33048 0.50991
# Poissons Ratio (y) = -0.08622 0.15816
# Poissons Ratio (z) = 0.59819 0.71116
#
# Static dielectric constant tensor:
#      x y z
#    x 1.579360 0.000000 0.000000 
#    y 0.000000 1.707930 0.000000 
#    z 0.000000 0.000000 1.712410 
# 
# From -- ./inp_files/7032.got.cif
#   From: 2010.05.17/outbox.cif.g08.bks.cpg/sg20_4_cif.got.tgz:7032.got - 2010.06.03 22:52:26.
