data_PCOD9316587
_publ_section_title
;
Structure prediction by ZEFSAII (Michael W. Deem and Ramdas Pophale) SiO2 
 PCOD9316587
Probable space group: C 2 2 21
;
_chemical_formula_sum "Si O2"
_cell_formula_units_Z 60
_cell_length_a 11.680355
_cell_length_b 26.076633
_cell_length_c 9.127084
_cell_angle_alpha 90.000000
_cell_angle_beta 90.000000
_cell_angle_gamma 90.000000
_cell_volume 2779.966771
_symmetry_space_group_name_H-M "C 2 2 21"
_symmetry_group_IT_number 20
_symmetry_cell_setting 'orthorhombic'
loop_
_space_group_symop_operation_xyz
x,y,z
-x,-y,1/2+z
x,-y,-z
-x,y,1/2-z
1/2+x,1/2+y,z
1/2-x,1/2-y,1/2+z
1/2+x,1/2-y,-z
1/2-x,1/2+y,1/2-z
loop_
_atom_site_type_symbol
_atom_site_label
_atom_site_fract_x
_atom_site_fract_y
_atom_site_fract_z
Si Si1 0.625426 0.980516 0.799794
Si Si2 0.455457 0.663519 0.410567
Si Si3 0.230304 0.099002 0.174826
Si Si4 0.584298 0.838958 0.488530
Si Si5 0.299218 0.658692 0.014979
Si Si6 0.214715 0.228994 0.906334
Si Si7 0.378899 0.087568 0.597207
Si Si8 0.000000 0.733503 0.250000
O O1 0.500000 0.963599 0.750000
O O2 0.728623 0.957864 0.705674
O O3 0.625219 0.042037 0.786131
O O4 0.632887 0.949570 0.953752
O O5 0.500000 0.679325 0.250000
O O6 0.391775 0.609065 0.398469
O O7 0.565866 0.661296 0.511669
O O8 0.359137 0.701904 0.466460
O O9 0.329935 0.125471 0.081310
O O10 0.220087 0.129450 0.329240
O O11 0.668781 0.804269 0.387222
O O12 0.489750 0.875970 0.416318
O O13 0.521670 0.801701 0.606210
O O14 0.252041 0.715188 0.040617
O O15 0.228317 0.625700 0.899573
O O16 0.119390 0.236356 0.779085
#
# Coordination Sequence:
#
# PCOD9316587 Si02
#       8
#     8   8   8   8   8   8   8   4
#     4  10  18  33  57  88 111 145 191 253 327 375
#     4   9  20  36  54  85 117 157 214 259 301 371
#     4   9  17  33  59  80 107 148 199 254 302 376
#     4  11  19  35  57  88 118 160 215 258 314 387
#     4  10  18  33  51  84 119 156 201 252 296 370
#     4  11  22  33  59  87 121 171 220 256 310 384
#     4  10  20  32  56  88 117 149 197 259 315 379
#     4  12  20  38  58  84 126 178 218 264 322 380
#
# _framework density 21.582991
#
# number of rings (size 3 to 8) (size 9 to 14) (size 15 to 20)
#    0.000    1.867    4.000    1.600    0.000    0.000 
#    0.000    3.333    0.000    0.000   58.933    0.000 
#    0.000    0.000    0.000    0.000    0.000    0.000 
#
# Total GULP energy -167403.600907 kJ/mol
# GULP energy per Si atom -5580.120030 kJ/mol
# Density = 2.153387 g / cm^3
# Si number density = 21.582991 Si / 1000 Ang^3
#
#
#
# Elastic Constant Matrix: (Units=GPa)
#
#
# Indices 1 2 3 4 5 6 
#
# 1 160.4390 83.2273 18.7389 0.0000 0.0000 0.0000
# 2 83.2273 140.1620 22.6851 0.0000 0.0000 0.0000
# 3 18.7389 22.6851 28.2891 0.0000 0.0000 0.0000
# 4 0.0000 0.0000 0.0000 22.1906 0.0000 0.0000
# 5 0.0000 0.0000 0.0000 0.0000 20.9063 0.0000
# 6 0.0000 0.0000 0.0000 0.0000 0.0000 31.6076
#
#
#
# Elastic Compliance Matrix: (Units=1/GPa)
#
#
# Indices 1 2 3 4 5 6 
#
# 1 0.009100 -0.005088 -0.001948 0.000000 0.000000 0.000000
# 2 -0.005088 0.011044 -0.005486 0.000000 0.000000 0.000000
# 3 -0.001948 -0.005486 0.041038 0.000000 0.000000 0.000000
# 4 0.000000 0.000000 0.000000 0.045064 0.000000 0.000000
# 5 0.000000 0.000000 0.000000 0.000000 0.047832 0.000000
# 6 0.000000 0.000000 0.000000 0.000000 0.000000 0.031638
#
#
# Mechanical properties :
#
#
# Convention : Reuss Voigt Hill
#
# Bulk Modulus (GPa) = 27.67078 64.24362 45.95720
# Shear Modulus (GPa) = 22.44109 28.55682 25.49896
#
# Velocity S-wave (km/s) = 3.22803 3.64141 3.44093
# Velocity P-wave (km/s) = 5.17127 6.89277 6.09313
#
# Compressibility (1/GPa) = 0.03613920
#
# Stress axis : x y z
#
# Youngs Moduli (GPa) = 109.89164 90.54856 24.36753
#
# Poissons Ratio (x) = 0.46073 0.04746
# Poissons Ratio (y) = 0.55915 0.13367
# Poissons Ratio (z) = 0.21402 0.49671
#
# Static dielectric constant tensor:
#      x y z
#    x 1.801540 0.000000 0.000000 
#    y 0.000000 1.796710 0.000000 
#    z 0.000000 0.000000 1.914770 
# 
# From -- ./inp_files/14497.got.cif
#   From: 2010.05.17/outbox.cif.g08.bks.cpg/sg20_8_cif.got.tgz:14497.got - 2010.06.03 22:52:26.
