data_PCOD9316357
_publ_section_title
;
Structure prediction by ZEFSAII (Michael W. Deem and Ramdas Pophale) SiO2 
 PCOD9316357
Probable space group: C 2 2 21
;
_chemical_formula_sum "Si O2"
_cell_formula_units_Z 64
_cell_length_a 7.521607
_cell_length_b 21.767837
_cell_length_c 16.602295
_cell_angle_alpha 90.000000
_cell_angle_beta 90.000000
_cell_angle_gamma 90.000000
_cell_volume 2718.279070
_symmetry_space_group_name_H-M "C 2 2 21"
_symmetry_group_IT_number 20
_symmetry_cell_setting 'orthorhombic'
loop_
_space_group_symop_operation_xyz
x,y,z
-x,-y,1/2+z
x,-y,-z
-x,y,1/2-z
1/2+x,1/2+y,z
1/2-x,1/2-y,1/2+z
1/2+x,1/2-y,-z
1/2-x,1/2+y,1/2-z
loop_
_atom_site_type_symbol
_atom_site_label
_atom_site_fract_x
_atom_site_fract_y
_atom_site_fract_z
Si Si1 0.754978 0.211979 0.582083
Si Si2 0.856343 0.654219 0.087677
Si Si3 0.604299 0.100606 0.666164
Si Si4 0.694443 0.517718 0.406871
Si Si5 0.396372 0.268147 0.168231
Si Si6 0.287867 0.349978 0.924094
Si Si7 0.235193 0.887863 0.394033
Si Si8 0.417065 0.032457 0.160373
O O1 0.711614 0.178071 0.498396
O O2 0.715327 0.161027 0.649720
O O3 0.659240 0.278684 0.591437
O O4 0.961417 0.226212 0.595510
O O5 0.790088 0.706713 0.149015
O O6 0.073404 0.650709 0.090247
O O7 0.806420 0.587325 0.120929
O O8 0.500000 0.101420 0.750000
O O9 0.446833 0.103826 0.600342
O O10 0.685963 0.032550 0.661655
O O11 0.656687 0.500000 0.500000
O O12 0.635734 0.587112 0.383432
O O13 0.649878 0.452212 0.365272
O O14 0.907246 0.522508 0.393866
O O15 0.500000 0.258720 0.250000
O O16 0.295575 0.331859 0.165849
O O17 0.321117 0.365757 0.017712
O O18 0.500000 0.045619 0.250000
#
# Coordination Sequence:
#
# PCOD9316357 Si02
#       8
#     8   8   8   8   8   8   8   8
#     4  11  21  34  55  82 111 144 182 235 277 332
#     4  10  19  34  57  78 110 143 186 229 280 325
#     4  10  20  34  56  83 110 142 183 228 279 331
#     4   8  16  29  54  79  95 138 190 221 258 322
#     4  11  23  36  54  82 118 151 181 225 288 339
#     4   9  17  32  53  80 100 135 183 234 260 319
#     4  10  17  33  56  76 104 141 184 222 267 330
#     4   9  18  31  53  84 111 135 179 237 284 322
#
# _framework density 23.544308000000001
#
# number of rings (size 3 to 8) (size 9 to 14) (size 15 to 20)
#    0.000    2.250    2.500    1.125    1.750    0.000 
#    0.000    0.000    8.250    0.750    0.000    0.000 
#    0.000    0.000    0.000    0.000    0.000    0.000 
#
# Total GULP energy -178154.553764 kJ/mol
# GULP energy per Si atom -5567.329805 kJ/mol
# Density = 2.349072 g / cm^3
# Si number density = 23.544308 Si / 1000 Ang^3
#
#
#
# Elastic Constant Matrix: (Units=GPa)
#
#
# Indices 1 2 3 4 5 6 
#
# 1 23.7483 14.4626 -10.3760 0.0000 0.0000 0.0000
# 2 14.4626 257.3470 34.6350 0.0000 0.0000 0.0000
# 3 -10.3760 34.6350 25.3659 0.0000 0.0000 0.0000
# 4 0.0000 0.0000 0.0000 -13.1477 0.0000 0.0000
# 5 0.0000 0.0000 0.0000 0.0000 16.9302 0.0000
# 6 0.0000 0.0000 0.0000 0.0000 0.0000 -1.6417
#
#
#
# Elastic Compliance Matrix: (Units=1/GPa)
#
#
# Indices 1 2 3 4 5 6 
#
# 1 0.064096 -0.008736 0.038147 0.000000 0.000000 0.000000
# 2 -0.008736 0.005951 -0.011700 0.000000 0.000000 0.000000
# 3 0.038147 -0.011700 0.071002 0.000000 0.000000 0.000000
# 4 0.000000 0.000000 0.000000 -0.076059 0.000000 0.000000
# 5 0.000000 0.000000 0.000000 0.000000 0.059066 0.000000
# 6 0.000000 0.000000 0.000000 0.000000 0.000000 -0.609108
#
#
# Mechanical properties :
#
#
# Convention : Reuss Voigt Hill
#
# Bulk Modulus (GPa) = 5.66663 42.65603 24.16133
# Shear Modulus (GPa) = -10.83070 18.27746 3.72338
#
# Velocity S-wave (km/s) = -2.14712 2.78924 1.25892
# Velocity P-wave (km/s) = 1.93256 5.34133 3.52101
#
# Compressibility (1/GPa) = 0.17647162
#
# Stress axis : x y z
#
# Youngs Moduli (GPa) = 15.60168 168.02904 14.08411
#
# Poissons Ratio (x) = 1.46792 -0.53727
# Poissons Ratio (y) = 0.13630 0.16478
# Poissons Ratio (z) = -0.59516 1.96587
#
# Static dielectric constant tensor:
#      x y z
#    x 1.963010 0.000000 0.000000 
#    y 0.000000 2.068150 0.000000 
#    z 0.000000 0.000000 1.914290 
# 
# From -- ./inp_files/23942.got.cif
#   From: 2010.05.17/outbox.cif.g08.bks.cpg/sg20_12_cif.got.tgz:23942.got - 2010.06.03 22:52:26.
