data_PCOD9316055
_publ_section_title
;
Structure prediction by ZEFSAII (Michael W. Deem and Ramdas Pophale) SiO2 
 PCOD9316055
Probable space group: P 21 21 21
;
_chemical_formula_sum "Si O2"
_cell_formula_units_Z 28
_cell_length_a 10.126408
_cell_length_b 10.240516
_cell_length_c 11.093376
_cell_angle_alpha 90.000000
_cell_angle_beta 90.000000
_cell_angle_gamma 90.000000
_cell_volume 1150.379132
_symmetry_space_group_name_H-M "P 21 21 21"
_symmetry_group_IT_number 19
_symmetry_cell_setting 'orthorhombic'
loop_
_space_group_symop_operation_xyz
x,y,z
1/2-x,-y,1/2+z
1/2+x,1/2-y,-z
-x,1/2+y,1/2-z
loop_
_atom_site_type_symbol
_atom_site_label
_atom_site_fract_x
_atom_site_fract_y
_atom_site_fract_z
Si Si1 0.716144 0.442601 0.316801
Si Si2 0.583992 0.931100 0.229198
Si Si3 0.424244 0.584578 0.633085
Si Si4 0.700357 0.843668 0.747080
Si Si5 0.151670 0.592793 0.510730
Si Si6 0.164546 0.318960 0.385991
Si Si7 0.684512 0.471958 0.563335
O O1 0.558230 0.443675 0.326839
O O2 0.767367 0.296208 0.298264
O O3 0.769169 0.499370 0.443157
O O4 0.750191 0.516821 0.194375
O O5 0.570232 0.883067 0.367874
O O6 0.682953 0.836761 0.156722
O O7 0.666728 0.067246 0.232081
O O8 0.388254 0.434741 0.668934
O O9 0.301940 0.626782 0.550887
O O10 0.417370 0.658554 0.761772
O O11 0.562473 0.570909 0.568815
O O12 0.630561 0.838847 0.616720
O O13 0.138924 0.439261 0.475990
O O14 0.143683 0.179762 0.444326
#
# Coordination Sequence:
#
# PCOD9316055 Si02
#       7
#     4   4   4   4   4   4   4
#     4  12  28  42  62 101 135 169 215 270 320 378
#     4   9  20  41  66  93 124 167 215 266 320 384
#     4   9  20  40  66  90 125 168 214 263 322 386
#     4   9  20  41  65  91 124 171 214 260 325 387
#     4   8  16  40  66  91 117 172 216 257 319 389
#     4   9  20  40  68  91 123 170 214 261 325 386
#     4  12  26  42  63  99 134 169 216 267 321 380
#
# _framework density 24.339801999999999
#
# number of rings (size 3 to 8) (size 9 to 14) (size 15 to 20)
#    0.000    2.857    0.000    3.429    4.000    4.571 
#    5.143    0.000    0.000    0.000    0.000    0.000 
#    0.000    0.000    0.000    0.000    0.000    0.000 
#
# Total GULP energy -156555.169615 kJ/mol
# GULP energy per Si atom -5591.256058 kJ/mol
# Density = 2.428440 g / cm^3
# Si number density = 24.339802 Si / 1000 Ang^3
#
#
#
# Elastic Constant Matrix: (Units=GPa)
#
#
# Indices 1 2 3 4 5 6 
#
# 1 19.1106 0.5167 -2.7251 0.0000 0.0000 0.0000
# 2 0.5167 69.4794 5.4257 0.0000 0.0000 0.0000
# 3 -2.7251 5.4257 143.4834 0.0000 0.0000 0.0000
# 4 0.0000 0.0000 0.0000 16.9847 0.0000 0.0000
# 5 0.0000 0.0000 0.0000 0.0000 22.6629 0.0000
# 6 0.0000 0.0000 0.0000 0.0000 0.0000 13.8762
#
#
#
# Elastic Compliance Matrix: (Units=1/GPa)
#
#
# Indices 1 2 3 4 5 6 
#
# 1 0.052484 -0.000470 0.001015 0.000000 0.000000 0.000000
# 2 -0.000470 0.014440 -0.000555 0.000000 0.000000 0.000000
# 3 0.001015 -0.000555 0.007010 0.000000 0.000000 0.000000
# 4 0.000000 0.000000 0.000000 0.058876 0.000000 0.000000
# 5 0.000000 0.000000 0.000000 0.000000 0.044125 0.000000
# 6 0.000000 0.000000 0.000000 0.000000 0.000000 0.072066
#
#
# Mechanical properties :
#
#
# Convention : Reuss Voigt Hill
#
# Bulk Modulus (GPa) = 13.52928 26.50090 20.01509
# Shear Modulus (GPa) = 18.27093 25.96183 22.11638
#
# Velocity S-wave (km/s) = 2.74279 3.26949 3.01765
# Velocity P-wave (km/s) = 3.94982 5.01640 4.51472
#
# Compressibility (1/GPa) = 0.07391377
#
# Stress axis : x y z
#
# Youngs Moduli (GPa) = 19.05330 69.25408 142.65942
#
# Poissons Ratio (x) = 0.03252 -0.14473
# Poissons Ratio (y) = 0.00895 0.07917
# Poissons Ratio (z) = -0.01933 0.03843
#
# Static dielectric constant tensor:
#      x y z
#    x 1.951330 0.000000 0.000000 
#    y 0.000000 1.912360 0.000000 
#    z 0.000000 0.000000 2.079290 
# 
# From -- ./inp_files/4997.got.cif
#   From: 2010.05.17/outbox.cif.g08.bks.cpg/sg19_3_cif.got.tgz:4997.got - 2010.06.03 22:46:19.
