data_PCOD9316340
_publ_section_title
;
Structure prediction by ZEFSAII (Michael W. Deem and Ramdas Pophale) SiO2 
 PCOD9316340
Probable space group: C 2 2 21
;
_chemical_formula_sum "Si O2"
_cell_formula_units_Z 56
_cell_length_a 25.771488
_cell_length_b 14.471167
_cell_length_c 9.330630
_cell_angle_alpha 90.000000
_cell_angle_beta 90.000000
_cell_angle_gamma 90.000000
_cell_volume 3479.797872
_symmetry_space_group_name_H-M "C 2 2 21"
_symmetry_group_IT_number 20
_symmetry_cell_setting 'orthorhombic'
loop_
_space_group_symop_operation_xyz
x,y,z
-x,-y,1/2+z
x,-y,-z
-x,y,1/2-z
1/2+x,1/2+y,z
1/2-x,1/2-y,1/2+z
1/2+x,1/2-y,-z
1/2-x,1/2+y,1/2-z
loop_
_atom_site_type_symbol
_atom_site_label
_atom_site_fract_x
_atom_site_fract_y
_atom_site_fract_z
Si Si1 0.753060 0.187479 0.170989
Si Si2 0.811921 0.905777 0.082214
Si Si3 0.848788 0.278144 0.829954
Si Si4 0.946847 0.392396 0.170971
Si Si5 0.247097 0.002386 0.835198
Si Si6 0.448089 0.889445 0.828740
Si Si7 0.668395 0.148979 0.645395
O O1 0.695442 0.222159 0.208151
O O2 0.794508 0.268512 0.199353
O O3 0.757550 0.100092 0.274821
O O4 0.767665 0.145438 0.014929
O O5 0.854042 0.826228 0.110209
O O6 0.788999 0.936664 0.233270
O O7 0.827636 0.000000 0.000000
O O8 0.900594 0.326888 0.778537
O O9 0.832829 0.336914 0.972370
O O10 0.939664 0.501780 0.201750
O O11 0.890547 0.347198 0.202347
O O12 0.000000 0.362257 0.250000
O O13 0.953989 0.381059 0.000230
O O14 0.303668 0.051224 0.824399
O O15 0.231928 0.000000 0.000000
O O16 0.500000 0.860552 0.750000
#
# Coordination Sequence:
#
# PCOD9316340 Si02
#       7
#     8   8   8   8   8   8   8
#     4  10  19  31  49  74 103 131 168 206 249 306
#     4   9  20  33  45  73 105 133 169 208 251 305
#     4  10  17  32  52  72 102 136 167 207 255 305
#     4   9  18  33  49  68  98 133 168 203 244 302
#     4  11  19  31  50  70 101 139 166 200 248 302
#     4   9  18  32  51  72  96 129 170 206 250 301
#     4  10  19  31  51  73 101 137 171 198 250 308
#
# _framework density 16.092889
#
# number of rings (size 3 to 8) (size 9 to 14) (size 15 to 20)
#    0.000    2.286    2.857    0.857    2.000    0.000 
#    2.571    0.000    0.000    0.000    0.000   17.000 
#    0.000    0.000    0.000    0.000    0.000    0.000 
#
# Total GULP energy -155868.572353 kJ/mol
# GULP energy per Si atom -5566.734727 kJ/mol
# Density = 1.605626 g / cm^3
# Si number density = 16.092889 Si / 1000 Ang^3
#
#
#
# Elastic Constant Matrix: (Units=GPa)
#
#
# Indices 1 2 3 4 5 6 
#
# 1 129.5382 59.8473 33.2451 0.0000 0.0000 0.0000
# 2 59.8473 83.7017 29.1557 0.0000 0.0000 0.0000
# 3 33.2451 29.1557 49.4576 0.0000 0.0000 0.0000
# 4 0.0000 0.0000 0.0000 16.8341 0.0000 0.0000
# 5 0.0000 0.0000 0.0000 0.0000 24.2701 0.0000
# 6 0.0000 0.0000 0.0000 0.0000 0.0000 22.0284
#
#
#
# Elastic Compliance Matrix: (Units=1/GPa)
#
#
# Indices 1 2 3 4 5 6 
#
# 1 0.012072 -0.007305 -0.003808 0.000000 0.000000 0.000000
# 2 -0.007305 0.019455 -0.006558 0.000000 0.000000 0.000000
# 3 -0.003808 -0.006558 0.026646 0.000000 0.000000 0.000000
# 4 0.000000 0.000000 0.000000 0.059403 0.000000 0.000000
# 5 0.000000 0.000000 0.000000 0.000000 0.041203 0.000000
# 6 0.000000 0.000000 0.000000 0.000000 0.000000 0.045396
#
#
# Mechanical properties :
#
#
# Convention : Reuss Voigt Hill
#
# Bulk Modulus (GPa) = 43.80433 56.35486 50.07959
# Shear Modulus (GPa) = 20.23244 21.98981 21.11113
#
# Velocity S-wave (km/s) = 3.54959 3.70054 3.62585
# Velocity P-wave (km/s) = 6.63914 7.30432 6.97966
#
# Compressibility (1/GPa) = 0.02282879
#
# Stress axis : x y z
#
# Youngs Moduli (GPa) = 82.83565 51.40108 37.52973
#
# Poissons Ratio (x) = 0.37549 0.14293
# Poissons Ratio (y) = 0.60512 0.24614
# Poissons Ratio (z) = 0.31547 0.33711
#
# Static dielectric constant tensor:
#      x y z
#    x 1.536370 0.000000 0.000000 
#    y 0.000000 1.567280 0.000000 
#    z 0.000000 0.000000 1.556960 
# 
# From -- ./inp_files/10197.got.cif
#   From: 2010.05.17/outbox.cif.g08.bks.cpg/sg20_6_cif.got.tgz:10197.got - 2010.06.03 22:52:26.
