data_PCOD9316291
_publ_section_title
;
Structure prediction by ZEFSAII (Michael W. Deem and Ramdas Pophale) SiO2 
 PCOD9316291
Probable space group: C 2 2 21
;
_chemical_formula_sum "Si O2"
_cell_formula_units_Z 40
_cell_length_a 10.125416
_cell_length_b 13.793640
_cell_length_c 15.923973
_cell_angle_alpha 90.000000
_cell_angle_beta 90.000000
_cell_angle_gamma 90.000000
_cell_volume 2224.043077
_symmetry_space_group_name_H-M "C 2 2 21"
_symmetry_group_IT_number 20
_symmetry_cell_setting 'orthorhombic'
loop_
_space_group_symop_operation_xyz
x,y,z
-x,-y,1/2+z
x,-y,-z
-x,y,1/2-z
1/2+x,1/2+y,z
1/2-x,1/2-y,1/2+z
1/2+x,1/2-y,-z
1/2-x,1/2+y,1/2-z
loop_
_atom_site_type_symbol
_atom_site_label
_atom_site_fract_x
_atom_site_fract_y
_atom_site_fract_z
Si Si1 0.212571 0.563599 0.414154
Si Si2 0.212569 0.436401 0.914154
Si Si3 0.500001 0.927098 0.341429
Si Si4 0.000002 0.698379 0.488836
Si Si5 0.499999 0.591800 0.061789
O O1 0.217218 0.500000 0.500000
O O2 0.126497 0.497536 0.352370
O O3 0.127343 0.658229 0.438807
O O4 0.361659 0.587814 0.388870
O O5 0.361656 0.412185 0.888870
O O6 0.126496 0.502465 0.852370
O O7 0.217216 0.500000 0.000000
O O8 0.127339 0.341772 0.938806
O O9 0.500000 0.880421 0.250000
O O10 0.500002 0.853731 0.419746
O O11 0.000001 0.811755 0.505082
O O12 0.499999 0.500000 0.000000
#
# Coordination Sequence:
#
# PCOD9316291 Si02
#       5
#     8   8   8   8   8
#     4   8  16  29  47  69  91 115 150 192 231 270
#     4   8  16  29  47  69  91 115 150 192 231 270
#     4   9  17  32  48  62  87 125 158 187 225 276
#     4   9  16  29  48  70  92 121 158 188 222 276
#     4  10  17  27  47  74  97 116 144 195 240 268
#
# _framework density 17.985264000000001
#
# number of rings (size 3 to 8) (size 9 to 14) (size 15 to 20)
#    0.000    3.200    0.000    3.600    0.000    0.000 
#    0.000    3.000    0.000    0.000    0.000    5.600 
#    0.000    0.000    0.000    0.000    0.000    0.000 
#
# Total GULP energy -111338.673948 kJ/mol
# GULP energy per Si atom -5566.933697 kJ/mol
# Density = 1.794433 g / cm^3
# Si number density = 17.985264 Si / 1000 Ang^3
#
#
#
# Elastic Constant Matrix: (Units=GPa)
#
#
# Indices 1 2 3 4 5 6 
#
# 1 163.2460 24.5724 8.3562 0.0000 0.0000 0.0000
# 2 24.5724 108.8468 -2.9000 0.0000 0.0000 0.0000
# 3 8.3562 -2.9000 48.3585 0.0000 0.0000 0.0000
# 4 0.0000 0.0000 0.0000 9.2690 0.0000 0.0000
# 5 0.0000 0.0000 0.0000 0.0000 -3.3212 0.0000
# 6 0.0000 0.0000 0.0000 0.0000 0.0000 6.3856
#
#
#
# Elastic Compliance Matrix: (Units=1/GPa)
#
#
# Indices 1 2 3 4 5 6 
#
# 1 0.006410 -0.001479 -0.001196 0.000000 0.000000 0.000000
# 2 -0.001479 0.009543 0.000828 0.000000 0.000000 0.000000
# 3 -0.001196 0.000828 0.020935 0.000000 0.000000 0.000000
# 4 0.000000 0.000000 0.000000 0.107886 0.000000 0.000000
# 5 0.000000 0.000000 0.000000 0.000000 -0.301100 0.000000
# 6 0.000000 0.000000 0.000000 0.000000 0.000000 0.156602
#
#
# Mechanical properties :
#
#
# Convention : Reuss Voigt Hill
#
# Bulk Modulus (GPa) = 30.12642 42.27871 36.20256
# Shear Modulus (GPa) = 332.56125 21.82821 177.19473
#
# Velocity S-wave (km/s) = 13.61283 3.48756 9.93660
# Velocity P-wave (km/s) = 16.24394 6.30681 12.32156
#
# Compressibility (1/GPa) = 0.03319346
#
# Stress axis : x y z
#
# Youngs Moduli (GPa) = 156.01693 104.78734 47.76634
#
# Poissons Ratio (x) = 0.15496 0.05714
# Poissons Ratio (y) = 0.23073 -0.03954
# Poissons Ratio (z) = 0.18663 -0.08675
#
# Static dielectric constant tensor:
#      x y z
#    x 1.683620 0.000000 0.000000 
#    y 0.000000 1.604480 0.000000 
#    z 0.000000 0.000000 1.588790 
# 
# From -- ./inp_files/19780.got.cif
#   From: 2010.05.17/outbox.cif.g08.bks.cpg/sg20_10_cif.got.tgz:19780.got - 2010.06.03 22:52:26.
