data_PCOD9316189
_publ_section_title
;
Structure prediction by ZEFSAII (Michael W. Deem and Ramdas Pophale) SiO2 
 PCOD9316189
Probable space group: C 2 2 21
;
_chemical_formula_sum "Si O2"
_cell_formula_units_Z 52
_cell_length_a 22.608701
_cell_length_b 14.030447
_cell_length_c 9.842514
_cell_angle_alpha 90.000000
_cell_angle_beta 90.000000
_cell_angle_gamma 90.000000
_cell_volume 3122.145649
_symmetry_space_group_name_H-M "C 2 2 21"
_symmetry_group_IT_number 20
_symmetry_cell_setting 'orthorhombic'
loop_
_space_group_symop_operation_xyz
x,y,z
-x,-y,1/2+z
x,-y,-z
-x,y,1/2-z
1/2+x,1/2+y,z
1/2-x,1/2-y,1/2+z
1/2+x,1/2-y,-z
1/2-x,1/2+y,1/2-z
loop_
_atom_site_type_symbol
_atom_site_label
_atom_site_fract_x
_atom_site_fract_y
_atom_site_fract_z
Si Si1 0.067069 0.924539 0.795983
Si Si2 0.154992 0.094370 0.430372
Si Si3 0.682028 0.210852 0.135859
Si Si4 0.274171 0.500000 0.500000
Si Si5 0.754978 0.815209 0.125585
Si Si6 0.725631 0.024379 0.217743
Si Si7 0.613647 0.616809 0.908076
O O1 0.109201 0.874395 0.684626
O O2 0.000000 0.915552 0.750000
O O3 0.084812 0.037061 0.810956
O O4 0.080359 0.885635 0.947328
O O5 0.183167 0.160944 0.546469
O O6 0.213532 0.059564 0.351524
O O7 0.128232 0.000000 0.500000
O O8 0.728403 0.248685 0.248984
O O9 0.676960 0.097561 0.161382
O O10 0.624489 0.277363 0.145879
O O11 0.710872 0.225089 0.987479
O O12 0.234063 0.535714 0.377925
O O13 0.319999 0.424015 0.436244
O O14 0.725003 0.913486 0.177944
#
# Coordination Sequence:
#
# PCOD9316189 Si02
#       7
#     8   8   8   4   8   8   8
#     4  10  20  32  50  71  97 142 177 216 273 315
#     4   9  16  28  44  63  98 131 168 207 243 308
#     4  11  20  32  48  72 103 146 175 214 256 304
#     4  10  14  30  48  64 104 134 168 212 244 298
#     4  10  21  30  49  75 103 145 184 203 255 316
#     4  10  18  31  47  72 102 143 177 203 250 312
#     4  10  19  32  48  70 100 136 177 221 260 310
#
# _framework density 16.655214000000001
#
# number of rings (size 3 to 8) (size 9 to 14) (size 15 to 20)
#    0.000    2.154    4.615    3.231    4.308    0.000 
#    0.000    0.000    0.000    0.000    0.000    0.000 
#    0.000    4.923    0.000    0.000    0.000    0.000 
#
# Total GULP energy -144798.281705 kJ/mol
# GULP energy per Si atom -5569.164681 kJ/mol
# Density = 1.661731 g / cm^3
# Si number density = 16.655214 Si / 1000 Ang^3
#
#
#
# Elastic Constant Matrix: (Units=GPa)
#
#
# Indices 1 2 3 4 5 6 
#
# 1 25.0198 7.0591 -1.6993 0.0000 0.0000 0.0000
# 2 7.0591 61.4467 6.7672 0.0000 0.0000 0.0000
# 3 -1.6993 6.7672 61.0489 0.0000 0.0000 0.0000
# 4 0.0000 0.0000 0.0000 20.3789 0.0000 0.0000
# 5 0.0000 0.0000 0.0000 0.0000 12.5222 0.0000
# 6 0.0000 0.0000 0.0000 0.0000 0.0000 10.8463
#
#
#
# Elastic Compliance Matrix: (Units=1/GPa)
#
#
# Indices 1 2 3 4 5 6 
#
# 1 0.041482 -0.004953 0.001704 0.000000 0.000000 0.000000
# 2 -0.004953 0.017067 -0.002030 0.000000 0.000000 0.000000
# 3 0.001704 -0.002030 0.016653 0.000000 0.000000 0.000000
# 4 0.000000 0.000000 0.000000 0.049070 0.000000 0.000000
# 5 0.000000 0.000000 0.000000 0.000000 0.079858 0.000000
# 6 0.000000 0.000000 0.000000 0.000000 0.000000 0.092198
#
#
# Mechanical properties :
#
#
# Convention : Reuss Voigt Hill
#
# Bulk Modulus (GPa) = 15.46963 19.08549 17.27756
# Shear Modulus (GPa) = 15.22379 17.77535 16.49957
#
# Velocity S-wave (km/s) = 3.02662 3.27043 3.15088
# Velocity P-wave (km/s) = 4.63920 5.07395 4.86144
#
# Compressibility (1/GPa) = 0.06464279
#
# Stress axis : x y z
#
# Youngs Moduli (GPa) = 24.10713 58.59321 60.05020
#
# Poissons Ratio (x) = 0.29022 -0.10231
# Poissons Ratio (y) = 0.11940 0.12188
# Poissons Ratio (z) = -0.04107 0.11893
#
# Static dielectric constant tensor:
#      x y z
#    x 1.532410 0.000000 0.000000 
#    y 0.000000 1.633440 0.000000 
#    z 0.000000 0.000000 1.633570 
# 
# From -- ./inp_files/10732.got.cif
#   From: 2010.05.17/outbox.cif.g08.bks.cpg/sg20_6_cif.got.tgz:10732.got - 2010.06.03 22:52:26.
