data_PCOD9316474
_publ_section_title
;
Structure prediction by ZEFSAII (Michael W. Deem and Ramdas Pophale) SiO2 
 PCOD9316474
Probable space group: C 2 2 21
;
_chemical_formula_sum "Si O2"
_cell_formula_units_Z 60
_cell_length_a 7.959711
_cell_length_b 14.940784
_cell_length_c 21.200428
_cell_angle_alpha 90.000000
_cell_angle_beta 90.000000
_cell_angle_gamma 90.000000
_cell_volume 2521.246542
_symmetry_space_group_name_H-M "C 2 2 21"
_symmetry_group_IT_number 20
_symmetry_cell_setting 'orthorhombic'
loop_
_space_group_symop_operation_xyz
x,y,z
-x,-y,1/2+z
x,-y,-z
-x,y,1/2-z
1/2+x,1/2+y,z
1/2-x,1/2-y,1/2+z
1/2+x,1/2-y,-z
1/2-x,1/2+y,1/2-z
loop_
_atom_site_type_symbol
_atom_site_label
_atom_site_fract_x
_atom_site_fract_y
_atom_site_fract_z
Si Si1 0.195459 0.358439 0.019962
Si Si2 0.186252 0.023048 0.728572
Si Si3 0.659512 0.574597 0.406129
Si Si4 0.739571 0.755727 0.342414
Si Si5 0.086715 0.176491 0.955999
Si Si6 0.694607 0.339972 0.776720
Si Si7 0.890688 0.332398 0.340804
Si Si8 0.116320 0.000000 0.000000
O O1 0.395006 0.349228 0.032518
O O2 0.125469 0.373733 0.089498
O O3 0.125537 0.263665 0.996518
O O4 0.192992 0.424393 0.959135
O O5 0.242127 0.944814 0.778337
O O6 0.000000 0.051582 0.750000
O O7 0.178805 0.973452 0.660437
O O8 0.301800 0.105900 0.710781
O O9 0.655730 0.679187 0.387242
O O10 0.299649 0.591722 0.522847
O O11 0.497771 0.533108 0.440659
O O12 0.881269 0.802078 0.383287
O O13 0.797798 0.706570 0.279536
O O14 0.587274 0.821397 0.328417
O O15 0.500000 0.342030 0.750000
O O16 0.688831 0.268690 0.833568
#
# Coordination Sequence:
#
# PCOD9316474 Si02
#       8
#     8   8   8   8   8   8   8   4
#     4  10  20  35  58  85 114 150 193 240 295 352
#     4  10  20  34  57  86 110 147 198 242 288 357
#     4   9  18  35  56  80 113 153 193 232 282 363
#     4   9  19  38  57  75 111 156 193 230 289 353
#     4  10  20  35  55  80 112 149 187 232 284 347
#     4   8  18  36  55  76 111 153 189 228 285 355
#     4  11  20  34  60  89 113 149 198 249 296 346
#     4  10  18  30  52  82 112 144 186 236 288 338
#
# _framework density 23.797751999999999
#
# number of rings (size 3 to 8) (size 9 to 14) (size 15 to 20)
#    0.000    2.400    0.000    4.800    0.000    2.133 
#    0.000    5.333    0.000   14.400    0.000    0.000 
#    0.000    0.000    0.000    0.000    0.000    0.000 
#
# Total GULP energy -167305.175375 kJ/mol
# GULP energy per Si atom -5576.839179 kJ/mol
# Density = 2.374359 g / cm^3
# Si number density = 23.797752 Si / 1000 Ang^3
#
#
#
# Elastic Constant Matrix: (Units=GPa)
#
#
# Indices 1 2 3 4 5 6 
#
# 1 27.1069 3.0443 7.4978 0.0000 0.0000 0.0000
# 2 3.0443 51.6288 16.5416 0.0000 0.0000 0.0000
# 3 7.4978 16.5416 95.1741 0.0000 0.0000 0.0000
# 4 0.0000 0.0000 0.0000 45.5028 0.0000 0.0000
# 5 0.0000 0.0000 0.0000 0.0000 35.9208 0.0000
# 6 0.0000 0.0000 0.0000 0.0000 0.0000 16.3117
#
#
#
# Elastic Compliance Matrix: (Units=1/GPa)
#
#
# Indices 1 2 3 4 5 6 
#
# 1 0.037801 -0.001350 -0.002743 0.000000 0.000000 0.000000
# 2 -0.001350 0.020559 -0.003467 0.000000 0.000000 0.000000
# 3 -0.002743 -0.003467 0.011326 0.000000 0.000000 0.000000
# 4 0.000000 0.000000 0.000000 0.021977 0.000000 0.000000
# 5 0.000000 0.000000 0.000000 0.000000 0.027839 0.000000
# 6 0.000000 0.000000 0.000000 0.000000 0.000000 0.061306
#
#
# Mechanical properties :
#
#
# Convention : Reuss Voigt Hill
#
# Bulk Modulus (GPa) = 18.32647 25.34194 21.83420
# Shear Modulus (GPa) = 23.35170 29.33547 26.34359
#
# Velocity S-wave (km/s) = 3.13590 3.51479 3.33074
# Velocity P-wave (km/s) = 4.56393 5.20996 4.89761
#
# Compressibility (1/GPa) = 0.05456590
#
# Stress axis : x y z
#
# Youngs Moduli (GPa) = 26.45404 48.63949 88.29438
#
# Poissons Ratio (x) = 0.06567 0.24222
# Poissons Ratio (y) = 0.03571 0.30611
# Poissons Ratio (z) = 0.07257 0.16863
#
# Static dielectric constant tensor:
#      x y z
#    x 1.913330 0.000000 0.000000 
#    y 0.000000 2.048450 0.000000 
#    z 0.000000 0.000000 1.956920 
# 
# From -- ./inp_files/28837.got.cif
#   From: 2010.05.17/outbox.cif.g08.bks.cpg/sg20_15_cif.got.tgz:28837.got - 2010.06.03 22:52:26.
