data_PCOD9316816
_publ_section_title
;
Structure prediction by ZEFSAII (Michael W. Deem and Ramdas Pophale) SiO2 
 PCOD9316816
Probable space group: C 2 2 21
;
_chemical_formula_sum "Si O2"
_cell_formula_units_Z 40
_cell_length_a 15.968665
_cell_length_b 10.995540
_cell_length_c 10.740764
_cell_angle_alpha 90.000000
_cell_angle_beta 90.000000
_cell_angle_gamma 90.000000
_cell_volume 1885.907324
_symmetry_space_group_name_H-M "C 2 2 21"
_symmetry_group_IT_number 20
_symmetry_cell_setting 'orthorhombic'
loop_
_space_group_symop_operation_xyz
x,y,z
-x,-y,1/2+z
x,-y,-z
-x,y,1/2-z
1/2+x,1/2+y,z
1/2-x,1/2-y,1/2+z
1/2+x,1/2-y,-z
1/2-x,1/2+y,1/2-z
loop_
_atom_site_type_symbol
_atom_site_label
_atom_site_fract_x
_atom_site_fract_y
_atom_site_fract_z
Si Si1 0.000000 0.400178 0.250000
Si Si2 0.267949 0.500000 0.500000
Si Si3 0.567174 0.500000 0.500000
Si Si4 0.948304 0.735483 0.998760
Si Si5 0.143604 0.421046 0.709506
Si Si6 0.126552 0.205982 0.879532
Si Si7 0.500000 0.549826 0.750000
O O1 0.963208 0.320999 0.136699
O O2 0.920775 0.487985 0.278483
O O3 0.216434 0.483088 0.628877
O O4 0.320257 0.378286 0.470764
O O5 0.603742 0.636698 0.503273
O O6 0.510479 0.481861 0.622048
O O7 0.907312 0.643497 0.096770
O O8 0.041895 0.756180 0.050038
O O9 0.169745 0.319610 0.810958
O O10 0.084863 0.125578 0.769316
#
# Coordination Sequence:
#
# PCOD9316816 Si02
#       7
#     4   4   4   8   8   8   4
#     4  12  22  40  78 104 136 188 250 288 346 444
#     4  12  29  44  64 110 157 178 240 314 387 410
#     4  10  19  34  62 104 135 162 236 300 339 404
#     4  11  21  40  72 103 134 183 243 287 344 441
#     4  12  23  46  70 103 147 187 234 308 359 437
#     4  11  22  45  69  96 140 194 228 300 359 426
#     4  10  18  38  66  98 128 178 236 282 336 438
#
# _framework density 21.209949999999999
#
# number of rings (size 3 to 8) (size 9 to 14) (size 15 to 20)
#    0.000    0.800    8.000    3.000    0.000    1.600 
#    3.600    0.000    0.000    0.000    0.000    0.000 
#    0.000    0.000    0.000    0.000    0.000    0.000 
#
# Total GULP energy -111349.230868 kJ/mol
# GULP energy per Si atom -5567.461543 kJ/mol
# Density = 2.116168 g / cm^3
# Si number density = 21.209950 Si / 1000 Ang^3
#
#
#
# Elastic Constant Matrix: (Units=GPa)
#
#
# Indices 1 2 3 4 5 6 
#
# 1 34.8225 1.8579 -15.7571 0.0000 0.0000 0.0000
# 2 1.8579 74.7778 12.1044 0.0000 0.0000 0.0000
# 3 -15.7571 12.1044 73.0230 0.0000 0.0000 0.0000
# 4 0.0000 0.0000 0.0000 71.3106 0.0000 0.0000
# 5 0.0000 0.0000 0.0000 0.0000 27.7504 0.0000
# 6 0.0000 0.0000 0.0000 0.0000 0.0000 77.6626
#
#
#
# Elastic Compliance Matrix: (Units=1/GPa)
#
#
# Indices 1 2 3 4 5 6 
#
# 1 0.032105 -0.001972 0.007255 0.000000 0.000000 0.000000
# 2 -0.001972 0.013863 -0.002723 0.000000 0.000000 0.000000
# 3 0.007255 -0.002723 0.015711 0.000000 0.000000 0.000000
# 4 0.000000 0.000000 0.000000 0.014023 0.000000 0.000000
# 5 0.000000 0.000000 0.000000 0.000000 0.036036 0.000000
# 6 0.000000 0.000000 0.000000 0.000000 0.000000 0.012876
#
#
# Mechanical properties :
#
#
# Convention : Reuss Voigt Hill
#
# Bulk Modulus (GPa) = 14.97066 19.89261 17.43163
# Shear Modulus (GPa) = 35.27057 47.63926 41.45492
#
# Velocity S-wave (km/s) = 4.08232 4.74442 4.42577
# Velocity P-wave (km/s) = 5.41240 6.27790 5.86115
#
# Compressibility (1/GPa) = 0.06679733
#
# Stress axis : x y z
#
# Youngs Moduli (GPa) = 31.14781 72.13559 63.64895
#
# Poissons Ratio (x) = 0.14225 -0.46175
# Poissons Ratio (y) = 0.06142 0.17334
# Poissons Ratio (z) = -0.22596 0.19646
#
# Static dielectric constant tensor:
#      x y z
#    x 1.709650 0.000000 0.000000 
#    y 0.000000 1.911210 0.000000 
#    z 0.000000 0.000000 1.778470 
# 
# From -- ./inp_files/13951.got.cif
#   From: 2010.05.17/outbox.cif.g08.bks.cpg/sg20_7_cif.got.tgz:13951.got - 2010.06.03 22:52:26.
