data_PCOD9316768
_publ_section_title
;
Structure prediction by ZEFSAII (Michael W. Deem and Ramdas Pophale) SiO2 
 PCOD9316768
Probable space group: C 2 2 21
;
_chemical_formula_sum "Si O2"
_cell_formula_units_Z 40
_cell_length_a 5.084017
_cell_length_b 13.261953
_cell_length_c 23.883248
_cell_angle_alpha 90.000000
_cell_angle_beta 90.000000
_cell_angle_gamma 90.000000
_cell_volume 1610.303982
_symmetry_space_group_name_H-M "C 2 2 21"
_symmetry_group_IT_number 20
_symmetry_cell_setting 'orthorhombic'
loop_
_space_group_symop_operation_xyz
x,y,z
-x,-y,1/2+z
x,-y,-z
-x,y,1/2-z
1/2+x,1/2+y,z
1/2-x,1/2-y,1/2+z
1/2+x,1/2-y,-z
1/2-x,1/2+y,1/2-z
loop_
_atom_site_type_symbol
_atom_site_label
_atom_site_fract_x
_atom_site_fract_y
_atom_site_fract_z
Si Si1 0.500000 0.140475 0.750000
Si Si2 0.245358 0.579949 0.641841
Si Si3 0.255906 0.492124 0.086808
Si Si4 0.104790 0.304468 0.874334
Si Si5 0.785096 0.786226 0.032540
Si Si6 0.500000 0.215875 0.250000
O O1 0.612752 0.070601 0.701531
O O2 0.252523 0.213124 0.736053
O O3 0.539006 0.539895 0.635505
O O4 0.242586 0.699257 0.630710
O O5 0.051490 0.528208 0.598356
O O6 0.256410 0.612395 0.089239
O O7 0.324747 0.407102 0.040653
O O8 0.057314 0.337558 0.809726
O O9 0.845391 0.269131 0.908197
O O10 0.504403 0.760472 0.007831
#
# Coordination Sequence:
#
# PCOD9316768 Si02
#       6
#     4   8   8   8   8   4
#     4  10  18  37  62  91 134 182 216 271 330 381
#     4  10  22  40  63  94 133 173 223 271 325 400
#     4  11  24  42  68  97 128 177 222 276 345 402
#     4  10  24  46  69 100 141 177 228 285 341 410
#     4  11  24  45  70  99 136 177 229 288 343 408
#     4  10  22  39  70  99 134 186 224 273 346 407
#
# _framework density 24.840029999999999
#
# number of rings (size 3 to 8) (size 9 to 14) (size 15 to 20)
#    0.000    1.600    0.000    6.000    0.000   11.200 
#    0.000   10.000    0.000    0.000    0.000    0.000 
#    0.000    0.000    0.000    0.000    0.000    0.000 
#
# Total GULP energy -111737.113521 kJ/mol
# GULP energy per Si atom -5586.855676 kJ/mol
# Density = 2.478349 g / cm^3
# Si number density = 24.840030 Si / 1000 Ang^3
#
#
#
# Elastic Constant Matrix: (Units=GPa)
#
#
# Indices 1 2 3 4 5 6 
#
# 1 76.3772 17.9838 6.9649 0.0000 0.0000 0.0000
# 2 17.9838 148.2095 14.5876 0.0000 0.0000 0.0000
# 3 6.9649 14.5876 99.6764 0.0000 0.0000 0.0000
# 4 0.0000 0.0000 0.0000 3.8258 0.0000 0.0000
# 5 0.0000 0.0000 0.0000 0.0000 42.6707 0.0000
# 6 0.0000 0.0000 0.0000 0.0000 0.0000 28.7618
#
#
#
# Elastic Compliance Matrix: (Units=1/GPa)
#
#
# Indices 1 2 3 4 5 6 
#
# 1 0.013528 -0.001571 -0.000715 0.000000 0.000000 0.000000
# 2 -0.001571 0.007028 -0.000919 0.000000 0.000000 0.000000
# 3 -0.000715 -0.000919 0.010217 0.000000 0.000000 0.000000
# 4 0.000000 0.000000 0.000000 0.261384 0.000000 0.000000
# 5 0.000000 0.000000 0.000000 0.000000 0.023435 0.000000
# 6 0.000000 0.000000 0.000000 0.000000 0.000000 0.034768
#
#
# Mechanical properties :
#
#
# Convention : Reuss Voigt Hill
#
# Bulk Modulus (GPa) = 41.04622 44.81507 42.93065
# Shear Modulus (GPa) = 13.70268 34.03344 23.86806
#
# Velocity S-wave (km/s) = 2.35124 3.70551 3.10315
# Velocity P-wave (km/s) = 4.89195 6.03228 5.49179
#
# Compressibility (1/GPa) = 0.02436278
#
# Stress axis : x y z
#
# Youngs Moduli (GPa) = 73.92035 142.28234 97.87691
#
# Poissons Ratio (x) = 0.22354 0.07002
# Poissons Ratio (y) = 0.11614 0.08993
# Poissons Ratio (z) = 0.05288 0.13073
#
# Static dielectric constant tensor:
#      x y z
#    x 1.901840 0.000000 0.000000 
#    y 0.000000 1.961710 0.000000 
#    z 0.000000 0.000000 2.109640 
# 
# From -- ./inp_files/28286.got.cif
#   From: 2010.05.17/outbox.cif.g08.bks.cpg/sg20_15_cif.got.tgz:28286.got - 2010.06.03 22:52:26.
