data_PCOD9316110
_publ_section_title
;
Structure prediction by ZEFSAII (Michael W. Deem and Ramdas Pophale) SiO2 
 PCOD9316110
Probable space group: P 21 21 21
;
_chemical_formula_sum "Si O2"
_cell_formula_units_Z 16
_cell_length_a 12.620650
_cell_length_b 9.059168
_cell_length_c 5.349526
_cell_angle_alpha 90.000000
_cell_angle_beta 90.000000
_cell_angle_gamma 90.000000
_cell_volume 611.625155
_symmetry_space_group_name_H-M "P 21 21 21"
_symmetry_group_IT_number 19
_symmetry_cell_setting 'orthorhombic'
loop_
_space_group_symop_operation_xyz
x,y,z
1/2-x,-y,1/2+z
1/2+x,1/2-y,-z
-x,1/2+y,1/2-z
loop_
_atom_site_type_symbol
_atom_site_label
_atom_site_fract_x
_atom_site_fract_y
_atom_site_fract_z
Si Si1 0.902725 0.092199 0.243337
Si Si2 0.998929 0.833561 0.930894
Si Si3 0.772463 0.408429 0.759320
Si Si4 0.829631 0.828627 0.551962
O O1 0.786287 0.143824 0.163669
O O2 0.969336 0.230034 0.337519
O O3 0.882196 0.982040 0.473847
O O4 0.957554 0.990040 0.036034
O O5 0.909214 0.762827 0.755170
O O6 0.107359 0.855908 0.777881
O O7 0.739978 0.495737 0.510873
O O8 0.695719 0.270130 0.811043
#
# Coordination Sequence:
#
# PCOD9316110 Si02
#       4
#     4   4   4   4
#     4  12  29  55  87 126 179 239 303 372 449 546
#     4  12  32  53  88 128 177 244 297 371 463 529
#     4  12  32  56  87 135 180 232 303 375 443 546
#     4  12  29  54  84 127 178 231 303 372 457 531
#
# _framework density 26.159813
#
# number of rings (size 3 to 8) (size 9 to 14) (size 15 to 20)
#    0.000    0.000    2.500    3.000   17.500    0.000 
#    0.000    0.000    0.000    0.000    0.000    0.000 
#    0.000    0.000    0.000    0.000    0.000    0.000 
#
# Total GULP energy -89961.701621 kJ/mol
# GULP energy per Si atom -5622.606351 kJ/mol
# Density = 2.610027 g / cm^3
# Si number density = 26.159813 Si / 1000 Ang^3
#
#
#
# Elastic Constant Matrix: (Units=GPa)
#
#
# Indices 1 2 3 4 5 6 
#
# 1 188.0799 61.8070 81.9037 0.0000 0.0000 0.0000
# 2 61.8070 85.8471 32.9870 0.0000 0.0000 0.0000
# 3 81.9037 32.9870 133.2928 0.0000 0.0000 0.0000
# 4 0.0000 0.0000 0.0000 64.0130 0.0000 0.0000
# 5 0.0000 0.0000 0.0000 0.0000 72.3396 0.0000
# 6 0.0000 0.0000 0.0000 0.0000 0.0000 19.6676
#
#
#
# Elastic Compliance Matrix: (Units=1/GPa)
#
#
# Indices 1 2 3 4 5 6 
#
# 1 0.008655 -0.004628 -0.004173 0.000000 0.000000 0.000000
# 2 -0.004628 0.015347 -0.000954 0.000000 0.000000 0.000000
# 3 -0.004173 -0.000954 0.010303 0.000000 0.000000 0.000000
# 4 0.000000 0.000000 0.000000 0.015622 0.000000 0.000000
# 5 0.000000 0.000000 0.000000 0.000000 0.013824 0.000000
# 6 0.000000 0.000000 0.000000 0.000000 0.000000 0.050845
#
#
# Mechanical properties :
#
#
# Convention : Reuss Voigt Hill
#
# Bulk Modulus (GPa) = 67.59296 84.51279 76.05287
# Shear Modulus (GPa) = 35.96174 46.57220 41.26697
#
# Velocity S-wave (km/s) = 3.71171 4.22393 3.97608
# Velocity P-wave (km/s) = 6.65309 7.49435 7.08622
#
# Compressibility (1/GPa) = 0.01479444
#
# Stress axis : x y z
#
# Youngs Moduli (GPa) = 115.54267 65.15841 97.06344
#
# Poissons Ratio (x) = 0.30154 0.40503
# Poissons Ratio (y) = 0.53470 0.09265
# Poissons Ratio (z) = 0.48214 0.06219
#
# Static dielectric constant tensor:
#      x y z
#    x 1.964090 0.000000 0.000000 
#    y 0.000000 2.065370 0.000000 
#    z 0.000000 0.000000 2.092920 
# 
# From -- ./inp_files/285.got.cif
#   From: 2010.05.17/outbox.cif.g08.bks.cpg/sg19_1_cif.got.tgz:285.got - 2010.06.03 22:46:19.
