data_PCOD9316864
_publ_section_title
;
Structure prediction by ZEFSAII (Michael W. Deem and Ramdas Pophale) SiO2 
 PCOD9316864
Probable space group: C 2 2 21
;
_chemical_formula_sum "Si O2"
_cell_formula_units_Z 40
_cell_length_a 9.526240
_cell_length_b 15.041810
_cell_length_c 14.332961
_cell_angle_alpha 90.000000
_cell_angle_beta 90.000000
_cell_angle_gamma 90.000000
_cell_volume 2053.797101
_symmetry_space_group_name_H-M "C 2 2 21"
_symmetry_group_IT_number 20
_symmetry_cell_setting 'orthorhombic'
loop_
_space_group_symop_operation_xyz
x,y,z
-x,-y,1/2+z
x,-y,-z
-x,y,1/2-z
1/2+x,1/2+y,z
1/2-x,1/2-y,1/2+z
1/2+x,1/2-y,-z
1/2-x,1/2+y,1/2-z
loop_
_atom_site_type_symbol
_atom_site_label
_atom_site_fract_x
_atom_site_fract_y
_atom_site_fract_z
Si Si1 0.279516 0.509088 0.293615
Si Si2 0.087403 0.193731 0.946581
Si Si3 0.645678 0.500000 0.000000
Si Si4 0.500000 0.056090 0.750000
Si Si5 0.500000 0.342524 0.750000
Si Si6 0.500000 0.642598 0.750000
Si Si7 0.920587 0.702034 0.903959
O O1 0.265237 0.504666 0.405519
O O2 0.373052 0.594576 0.278450
O O3 0.366940 0.423604 0.257143
O O4 0.134924 0.505329 0.240186
O O5 0.060906 0.093075 0.987681
O O6 0.257102 0.198322 0.934950
O O7 0.012803 0.196768 0.845417
O O8 0.022277 0.270519 0.010919
O O9 0.468326 0.117907 0.840531
O O10 0.442637 0.282308 0.832253
#
# Coordination Sequence:
#
# PCOD9316864 Si02
#       7
#     8   8   4   4   4   4   8
#     4  10  20  40  66  87 122 169 212 260 308 388
#     4  11  23  41  64  91 127 169 214 263 322 383
#     4  10  18  42  62  86 114 176 206 252 308 382
#     4  11  22  41  63  93 128 164 210 269 320 363
#     4  10  22  42  62  89 121 166 212 250 320 388
#     4   9  20  39  65  86 117 170 212 249 318 373
#     4  11  24  40  62  94 127 165 208 271 321 376
#
# _framework density 19.476120999999999
#
# number of rings (size 3 to 8) (size 9 to 14) (size 15 to 20)
#    0.000    1.600    6.000    0.000    2.800    0.000 
#    3.600    0.000    0.000    0.000    0.000    0.000 
#    0.000    0.000    0.000    0.000    0.000    0.000 
#
# Total GULP energy -111474.372439 kJ/mol
# GULP energy per Si atom -5573.718622 kJ/mol
# Density = 1.943179 g / cm^3
# Si number density = 19.476121 Si / 1000 Ang^3
#
#
#
# Elastic Constant Matrix: (Units=GPa)
#
#
# Indices 1 2 3 4 5 6 
#
# 1 114.9894 22.9454 49.6426 0.0000 0.0000 0.0000
# 2 22.9454 59.0553 24.0628 0.0000 0.0000 0.0000
# 3 49.6426 24.0628 103.9677 0.0000 0.0000 0.0000
# 4 0.0000 0.0000 0.0000 5.0867 0.0000 0.0000
# 5 0.0000 0.0000 0.0000 0.0000 26.6194 0.0000
# 6 0.0000 0.0000 0.0000 0.0000 0.0000 68.1459
#
#
#
# Elastic Compliance Matrix: (Units=1/GPa)
#
#
# Indices 1 2 3 4 5 6 
#
# 1 0.011257 -0.002411 -0.004817 0.000000 0.000000 0.000000
# 2 -0.002411 0.019213 -0.003295 0.000000 0.000000 0.000000
# 3 -0.004817 -0.003295 0.012681 0.000000 0.000000 0.000000
# 4 0.000000 0.000000 0.000000 0.196593 0.000000 0.000000
# 5 0.000000 0.000000 0.000000 0.000000 0.037567 0.000000
# 6 0.000000 0.000000 0.000000 0.000000 0.000000 0.014674
#
#
# Mechanical properties :
#
#
# Convention : Reuss Voigt Hill
#
# Bulk Modulus (GPa) = 45.24084 52.36827 48.80455
# Shear Modulus (GPa) = 15.60548 32.06117 23.83333
#
# Velocity S-wave (km/s) = 2.83373 4.06171 3.50197
# Velocity P-wave (km/s) = 5.82975 6.99596 6.43931
#
# Compressibility (1/GPa) = 0.02210392
#
# Stress axis : x y z
#
# Youngs Moduli (GPa) = 88.83233 52.04846 78.85728
#
# Poissons Ratio (x) = 0.12549 0.37986
# Poissons Ratio (y) = 0.21418 0.25987
# Poissons Ratio (z) = 0.42791 0.17152
#
# Static dielectric constant tensor:
#      x y z
#    x 1.617240 0.000000 0.000000 
#    y 0.000000 1.712550 0.000000 
#    z 0.000000 0.000000 1.683320 
# 
# From -- ./inp_files/14907.got.cif
#   From: 2010.05.17/outbox.cif.g08.bks.cpg/sg20_8_cif.got.tgz:14907.got - 2010.06.03 22:52:26.
