data_PCOD9316078
_publ_section_title
;
Structure prediction by ZEFSAII (Michael W. Deem and Ramdas Pophale) SiO2 
 PCOD9316078
Probable space group: P 21 21 21
;
_chemical_formula_sum "Si O2"
_cell_formula_units_Z 24
_cell_length_a 12.017233
_cell_length_b 8.415945
_cell_length_c 10.874877
_cell_angle_alpha 90.000000
_cell_angle_beta 90.000000
_cell_angle_gamma 90.000000
_cell_volume 1099.845606
_symmetry_space_group_name_H-M "P 21 21 21"
_symmetry_group_IT_number 19
_symmetry_cell_setting 'orthorhombic'
loop_
_space_group_symop_operation_xyz
x,y,z
1/2-x,-y,1/2+z
1/2+x,1/2-y,-z
-x,1/2+y,1/2-z
loop_
_atom_site_type_symbol
_atom_site_label
_atom_site_fract_x
_atom_site_fract_y
_atom_site_fract_z
Si Si1 0.081011 0.993114 0.406286
Si Si2 0.595846 0.221318 0.786893
Si Si3 0.792644 0.990626 0.091068
Si Si4 0.523666 0.999828 0.377934
Si Si5 0.068394 0.644431 0.883900
Si Si6 0.695925 0.321322 0.037635
O O1 0.205605 0.946204 0.442111
O O2 0.017452 0.841851 0.348251
O O3 0.079031 0.135732 0.308148
O O4 0.012719 0.049512 0.525023
O O5 0.647084 0.074296 0.711891
O O6 0.677408 0.277679 0.894981
O O7 0.692935 0.867451 0.062256
O O8 0.733630 0.160267 0.104533
O O9 0.881974 0.002708 0.982230
O O10 0.475568 0.177542 0.370523
O O11 0.569637 0.938327 0.248765
O O12 0.420610 0.887642 0.414496
#
# Coordination Sequence:
#
# PCOD9316078 Si02
#       6
#     4   4   4   4   4   4
#     4  12  27  49  77 112 150 205 254 317 387 457
#     4  12  26  51  75 113 155 199 258 319 379 468
#     4  12  26  50  77 110 155 200 257 321 383 453
#     4  12  28  52  78 114 157 202 259 317 387 461
#     4  12  28  49  78 111 151 204 258 314 385 457
#     4  12  27  47  79 110 154 202 252 316 391 450
#
# _framework density 21.821244
#
# number of rings (size 3 to 8) (size 9 to 14) (size 15 to 20)
#    0.000    0.000    3.333    6.000    7.000    0.000 
#    3.000    0.000    0.000    0.000    0.000    0.000 
#    0.000    0.000    0.000    0.000    0.000    0.000 
#
# Total GULP energy -134537.772793 kJ/mol
# GULP energy per Si atom -5605.740533 kJ/mol
# Density = 2.177158 g / cm^3
# Si number density = 21.821244 Si / 1000 Ang^3
#
#
#
# Elastic Constant Matrix: (Units=GPa)
#
#
# Indices 1 2 3 4 5 6 
#
# 1 156.3546 66.7586 64.0529 0.0000 0.0000 0.0000
# 2 66.7586 99.6227 58.8680 0.0000 0.0000 0.0000
# 3 64.0529 58.8680 135.8099 0.0000 0.0000 0.0000
# 4 0.0000 0.0000 0.0000 43.2041 0.0000 0.0000
# 5 0.0000 0.0000 0.0000 0.0000 24.8590 0.0000
# 6 0.0000 0.0000 0.0000 0.0000 0.0000 45.7756
#
#
#
# Elastic Compliance Matrix: (Units=1/GPa)
#
#
# Indices 1 2 3 4 5 6 
#
# 1 0.009467 -0.004982 -0.002306 0.000000 0.000000 0.000000
# 2 -0.004982 0.016116 -0.004636 0.000000 0.000000 0.000000
# 3 -0.002306 -0.004636 0.010460 0.000000 0.000000 0.000000
# 4 0.000000 0.000000 0.000000 0.023146 0.000000 0.000000
# 5 0.000000 0.000000 0.000000 0.000000 0.040227 0.000000
# 6 0.000000 0.000000 0.000000 0.000000 0.000000 0.021846
#
#
# Mechanical properties :
#
#
# Convention : Reuss Voigt Hill
#
# Bulk Modulus (GPa) = 81.99161 85.68293 83.83727
# Shear Modulus (GPa) = 33.51795 36.24160 34.87978
#
# Velocity S-wave (km/s) = 3.92347 4.07976 4.00238
# Velocity P-wave (km/s) = 7.62762 7.84498 7.73706
#
# Compressibility (1/GPa) = 0.01219637
#
# Stress axis : x y z
#
# Youngs Moduli (GPa) = 105.62625 62.05179 95.60048
#
# Poissons Ratio (x) = 0.30912 0.22043
# Poissons Ratio (y) = 0.52620 0.44319
# Poissons Ratio (z) = 0.24355 0.28767
#
# Static dielectric constant tensor:
#      x y z
#    x 1.790550 0.000000 0.000000 
#    y 0.000000 1.797120 0.000000 
#    z 0.000000 0.000000 1.761390 
# 
# From -- ./inp_files/2688.got.cif
#   From: 2010.05.17/outbox.cif.g08.bks.cpg/sg19_2_cif.got.tgz:2688.got - 2010.06.03 22:46:19.
