data_PCOD9316909
_publ_section_title
;
Structure prediction by ZEFSAII (Michael W. Deem and Ramdas Pophale) SiO2 
 PCOD9316909
Probable space group: C 2 2 21
;
_chemical_formula_sum "Si O2"
_cell_formula_units_Z 48
_cell_length_a 21.332378
_cell_length_b 5.315049
_cell_length_c 22.041731
_cell_angle_alpha 90.000000
_cell_angle_beta 90.000000
_cell_angle_gamma 90.000000
_cell_volume 2499.149527
_symmetry_space_group_name_H-M "C 2 2 21"
_symmetry_group_IT_number 20
_symmetry_cell_setting 'orthorhombic'
loop_
_space_group_symop_operation_xyz
x,y,z
-x,-y,1/2+z
x,-y,-z
-x,y,1/2-z
1/2+x,1/2+y,z
1/2-x,1/2-y,1/2+z
1/2+x,1/2-y,-z
1/2-x,1/2+y,1/2-z
loop_
_atom_site_type_symbol
_atom_site_label
_atom_site_fract_x
_atom_site_fract_y
_atom_site_fract_z
Si Si1 0.426045 0.602017 0.237588
Si Si2 0.812186 0.983777 0.304737
Si Si3 0.443771 0.036525 0.933317
Si Si4 0.755400 0.015971 0.831899
Si Si5 0.361140 0.464570 0.067609
Si Si6 0.047118 0.597679 0.306663
O O1 0.500000 0.633310 0.250000
O O2 0.386264 0.527667 0.296118
O O3 0.421112 0.369730 0.191468
O O4 0.405693 0.872229 0.211379
O O5 0.787287 0.987341 0.234909
O O6 0.791714 0.720201 0.332729
O O7 0.780571 0.220013 0.337183
O O8 0.413913 0.314338 0.928630
O O9 0.390736 0.816528 0.930321
O O10 0.481615 0.981228 0.871173
O O11 0.473714 0.000000 0.000000
O O12 0.807895 0.994318 0.882900
O O13 0.333902 0.500000 0.000000
O O14 0.000000 0.623381 0.250000
#
# Coordination Sequence:
#
# PCOD9316909 Si02
#       6
#     8   8   8   8   8   8
#     4  10  20  33  50  73 100 131 171 212 253 301
#     4  10  19  30  47  72  99 129 159 201 254 295
#     4  10  19  31  49  73 102 135 170 211 262 318
#     4  10  19  30  47  72 101 128 159 199 249 309
#     4  10  20  33  50  73 103 137 168 203 255 315
#     4  10  19  31  49  73 100 132 169 214 267 308
#
# _framework density 19.206533
#
# number of rings (size 3 to 8) (size 9 to 14) (size 15 to 20)
#    0.000    2.000    0.000    5.000    0.000    2.667 
#    0.000    0.000    0.000    0.000    0.000   28.000 
#    0.000    0.000    0.000    0.000    0.000    0.000 
#
# Total GULP energy -133759.364566 kJ/mol
# GULP energy per Si atom -5573.306857 kJ/mol
# Density = 1.916282 g / cm^3
# Si number density = 19.206533 Si / 1000 Ang^3
#
#
#
# Elastic Constant Matrix: (Units=GPa)
#
#
# Indices 1 2 3 4 5 6 
#
# 1 44.4246 -4.3992 7.5718 0.0000 0.0000 0.0000
# 2 -4.3992 126.2556 2.0492 0.0000 0.0000 0.0000
# 3 7.5718 2.0492 100.9260 0.0000 0.0000 0.0000
# 4 0.0000 0.0000 0.0000 23.8101 0.0000 0.0000
# 5 0.0000 0.0000 0.0000 0.0000 26.8584 0.0000
# 6 0.0000 0.0000 0.0000 0.0000 0.0000 11.0486
#
#
#
# Elastic Compliance Matrix: (Units=1/GPa)
#
#
# Indices 1 2 3 4 5 6 
#
# 1 0.022887 0.000826 -0.001734 0.000000 0.000000 0.000000
# 2 0.000826 0.007953 -0.000223 0.000000 0.000000 0.000000
# 3 -0.001734 -0.000223 0.010043 0.000000 0.000000 0.000000
# 4 0.000000 0.000000 0.000000 0.041999 0.000000 0.000000
# 5 0.000000 0.000000 0.000000 0.000000 0.037232 0.000000
# 6 0.000000 0.000000 0.000000 0.000000 0.000000 0.090509
#
#
# Mechanical properties :
#
#
# Convention : Reuss Voigt Hill
#
# Bulk Modulus (GPa) = 25.89351 31.33887 28.61619
# Shear Modulus (GPa) = 22.14739 30.10237 26.12488
#
# Velocity S-wave (km/s) = 3.39944 3.96321 3.69210
# Velocity P-wave (km/s) = 5.37765 6.10695 5.75387
#
# Compressibility (1/GPa) = 0.03861971
#
# Stress axis : x y z
#
# Youngs Moduli (GPa) = 43.69234 125.74130 99.57317
#
# Poissons Ratio (x) = -0.10381 0.17264
# Poissons Ratio (y) = -0.03607 0.02225
# Poissons Ratio (z) = 0.07576 0.02809
#
# Static dielectric constant tensor:
#      x y z
#    x 1.768190 0.000000 0.000000 
#    y 0.000000 1.745980 0.000000 
#    z 0.000000 0.000000 1.832720 
# 
# From -- ./inp_files/26047.got.cif
#   From: 2010.05.17/outbox.cif.g08.bks.cpg/sg20_14_cif.got.tgz:26047.got - 2010.06.03 22:52:26.
