data_PCOD9316994
_publ_section_title
;
Structure prediction by ZEFSAII (Michael W. Deem and Ramdas Pophale) SiO2 
 PCOD9316994
Probable space group: C 2 2 21
;
_chemical_formula_sum "Si O2"
_cell_formula_units_Z 60
_cell_length_a 32.086651
_cell_length_b 12.831192
_cell_length_c 8.515883
_cell_angle_alpha 90.000000
_cell_angle_beta 90.000000
_cell_angle_gamma 90.000000
_cell_volume 3506.074016
_symmetry_space_group_name_H-M "C 2 2 21"
_symmetry_group_IT_number 20
_symmetry_cell_setting 'orthorhombic'
loop_
_space_group_symop_operation_xyz
x,y,z
-x,-y,1/2+z
x,-y,-z
-x,y,1/2-z
1/2+x,1/2+y,z
1/2-x,1/2-y,1/2+z
1/2+x,1/2-y,-z
1/2-x,1/2+y,1/2-z
loop_
_atom_site_type_symbol
_atom_site_label
_atom_site_fract_x
_atom_site_fract_y
_atom_site_fract_z
Si Si1 0.756789 0.669845 0.546580
Si Si2 0.088334 0.619334 0.054972
Si Si3 0.906340 0.617331 0.064383
Si Si4 0.996557 0.381603 0.939020
Si Si5 0.839414 0.226879 0.546465
Si Si6 0.317304 0.500000 0.500000
Si Si7 0.318957 0.816048 0.890188
Si Si8 0.242852 0.523419 0.259685
O O1 0.797546 0.740629 0.542901
O O2 0.716441 0.742330 0.540173
O O3 0.760748 0.594237 0.696610
O O4 0.755357 0.596681 0.393557
O O5 0.092099 0.615509 0.244988
O O6 0.122603 0.699980 0.993611
O O7 0.041904 0.656862 0.006623
O O8 0.094913 0.500000 0.000000
O O9 0.951410 0.664765 0.015117
O O10 0.862596 0.670468 0.020110
O O11 0.904847 0.500000 0.000000
O O12 0.000000 0.381610 0.750000
O O13 0.995096 0.500000 0.000000
O O14 0.844011 0.103201 0.533364
O O15 0.830543 0.260585 0.725723
O O16 0.285236 0.524673 0.358410
O O17 0.296183 0.926674 0.853599
#
# Coordination Sequence:
#
# PCOD9316994 Si02
#       8
#     8   8   8   8   8   4   8   8
#     4  10  20  36  48  67  96 130 172 193 247 281
#     4   9  18  32  49  71 100 127 154 194 246 290
#     4   9  18  29  46  74  98 124 156 191 240 294
#     4   8  14  28  47  67  97 123 149 185 238 300
#     4  10  21  31  49  71  96 130 165 201 235 286
#     4  12  20  36  48  68  96 128 170 204 240 272
#     4  10  19  33  48  71  97 129 159 201 238 286
#     4  10  22  33  50  66  95 134 158 210 237 285
#
# _framework density 17.113159
#
# number of rings (size 3 to 8) (size 9 to 14) (size 15 to 20)
#    0.000    2.400    2.667    0.000    6.533    0.000 
#    2.400    0.000    0.000    0.000    0.000    1.867 
#    0.000    0.000    0.000    0.000    0.000    0.000 
#
# Total GULP energy -167048.719357 kJ/mol
# GULP energy per Si atom -5568.290645 kJ/mol
# Density = 1.707421 g / cm^3
# Si number density = 17.113159 Si / 1000 Ang^3
#
#
#
# Elastic Constant Matrix: (Units=GPa)
#
#
# Indices 1 2 3 4 5 6 
#
# 1 161.5359 65.2550 2.0240 0.0000 0.0000 0.0000
# 2 65.2550 92.7708 15.5599 0.0000 0.0000 0.0000
# 3 2.0240 15.5599 8.9195 0.0000 0.0000 0.0000
# 4 0.0000 0.0000 0.0000 11.3501 0.0000 0.0000
# 5 0.0000 0.0000 0.0000 0.0000 14.6670 0.0000
# 6 0.0000 0.0000 0.0000 0.0000 0.0000 22.4813
#
#
#
# Elastic Compliance Matrix: (Units=1/GPa)
#
#
# Indices 1 2 3 4 5 6 
#
# 1 0.009707 -0.009129 0.013723 0.000000 0.000000 0.000000
# 2 -0.009129 0.023824 -0.039489 0.000000 0.000000 0.000000
# 3 0.013723 -0.039489 0.177889 0.000000 0.000000 0.000000
# 4 0.000000 0.000000 0.000000 0.088105 0.000000 0.000000
# 5 0.000000 0.000000 0.000000 0.000000 0.068180 0.000000
# 6 0.000000 0.000000 0.000000 0.000000 0.000000 0.044481
#
#
# Mechanical properties :
#
#
# Convention : Reuss Voigt Hill
#
# Bulk Modulus (GPa) = 7.06070 47.65596 27.35833
# Shear Modulus (GPa) = 9.44849 21.72552 15.58701
#
# Velocity S-wave (km/s) = 2.35227 3.56690 3.02125
# Velocity P-wave (km/s) = 3.39299 6.69864 5.30962
#
# Compressibility (1/GPa) = 0.14162903
#
# Stress axis : x y z
#
# Youngs Moduli (GPa) = 103.02298 41.97428 5.62150
#
# Poissons Ratio (x) = 0.38320 -0.07715
# Poissons Ratio (y) = 0.94053 0.22199
# Poissons Ratio (z) = -1.41383 1.65753
#
# Static dielectric constant tensor:
#      x y z
#    x 1.634850 0.000000 0.000000 
#    y 0.000000 1.564750 0.000000 
#    z 0.000000 0.000000 1.636860 
# 
# From -- ./inp_files/11588.got.cif
#   From: 2010.05.17/outbox.cif.g08.bks.cpg/sg20_6_cif.got.tgz:11588.got - 2010.06.03 22:52:26.
