data_PCOD9316675
_publ_section_title
;
Structure prediction by ZEFSAII (Michael W. Deem and Ramdas Pophale) SiO2 
 PCOD9316675
Probable space group: C 2 2 21
;
_chemical_formula_sum "Si O2"
_cell_formula_units_Z 40
_cell_length_a 13.480490
_cell_length_b 21.594289
_cell_length_c 5.591193
_cell_angle_alpha 90.000000
_cell_angle_beta 90.000000
_cell_angle_gamma 90.000000
_cell_volume 1627.605211
_symmetry_space_group_name_H-M "C 2 2 21"
_symmetry_group_IT_number 20
_symmetry_cell_setting 'orthorhombic'
loop_
_space_group_symop_operation_xyz
x,y,z
-x,-y,1/2+z
x,-y,-z
-x,y,1/2-z
1/2+x,1/2+y,z
1/2-x,1/2-y,1/2+z
1/2+x,1/2-y,-z
1/2-x,1/2+y,1/2-z
loop_
_atom_site_type_symbol
_atom_site_label
_atom_site_fract_x
_atom_site_fract_y
_atom_site_fract_z
Si Si1 0.653720 0.712718 0.994240
Si Si2 0.177224 0.000000 0.000000
Si Si3 0.000000 0.053477 0.750000
Si Si4 0.658427 0.860514 0.008029
Si Si5 0.825191 0.615228 0.010180
Si Si6 0.611208 0.651622 0.491892
O O1 0.653811 0.786212 0.007772
O O2 0.761951 0.679744 0.000148
O O3 0.606229 0.687531 0.241107
O O4 0.610065 0.692677 0.736353
O O5 0.098137 0.014311 0.792821
O O6 0.245853 0.940261 0.977998
O O7 0.971370 0.099423 0.966462
O O8 0.619789 0.886929 0.257516
O O9 0.776854 0.876239 0.000059
O O10 0.616547 0.884286 0.757713
#
# Coordination Sequence:
#
# PCOD9316675 Si02
#       6
#     8   4   4   8   8   8
#     4  10  18  35  55  72  90 118 182 249 278 314
#     4  12  26  36  50  72 114 164 192 226 236 310
#     4  12  26  36  50  72 114 164 192 226 236 310
#     4  10  18  35  55  72  90 118 182 249 278 314
#     4  10  20  34  48  75  92 131 181 223 270 306
#     4  10  20  34  48  75  92 131 181 223 270 306
#
# _framework density 24.575983999999998
#
# number of rings (size 3 to 8) (size 9 to 14) (size 15 to 20)
#    0.000    1.600    4.000    6.000    5.600    1.600 
#    0.000    0.000    0.000    0.000    0.000    0.000 
#    0.000    0.000    0.000    0.000    0.000  144.000 
#
# Total GULP energy -111766.706348 kJ/mol
# GULP energy per Si atom -5588.335317 kJ/mol
# Density = 2.452005 g / cm^3
# Si number density = 24.575984 Si / 1000 Ang^3
#
#
#
# Elastic Constant Matrix: (Units=GPa)
#
#
# Indices 1 2 3 4 5 6 
#
# 1 72.9233 16.8555 22.5560 0.0000 0.0000 0.0000
# 2 16.8555 92.1454 62.1001 0.0000 0.0000 0.0000
# 3 22.5560 62.1001 269.7292 0.0000 0.0000 0.0000
# 4 0.0000 0.0000 0.0000 38.1162 0.0000 0.0000
# 5 0.0000 0.0000 0.0000 0.0000 3.8395 0.0000
# 6 0.0000 0.0000 0.0000 0.0000 0.0000 -3.7046
#
#
#
# Elastic Compliance Matrix: (Units=1/GPa)
#
#
# Indices 1 2 3 4 5 6 
#
# 1 0.014432 -0.002162 -0.000709 0.000000 0.000000 0.000000
# 2 -0.002162 0.013169 -0.002851 0.000000 0.000000 0.000000
# 3 -0.000709 -0.002851 0.004423 0.000000 0.000000 0.000000
# 4 0.000000 0.000000 0.000000 0.026236 0.000000 0.000000
# 5 0.000000 0.000000 0.000000 0.000000 0.260452 0.000000
# 6 0.000000 0.000000 0.000000 0.000000 0.000000 -0.269935
#
#
# Mechanical properties :
#
#
# Convention : Reuss Voigt Hill
#
# Bulk Modulus (GPa) = 48.59100 70.86900 59.73000
# Shear Modulus (GPa) = 74.53601 29.86930 52.20266
#
# Velocity S-wave (km/s) = 5.51313 3.49002 4.61383
# Velocity P-wave (km/s) = 7.76794 6.71860 7.26225
#
# Compressibility (1/GPa) = 0.02057994
#
# Stress axis : x y z
#
# Youngs Moduli (GPa) = 69.28991 75.93334 226.08279
#
# Poissons Ratio (x) = 0.16417 0.16032
# Poissons Ratio (y) = 0.14981 0.64461
# Poissons Ratio (z) = 0.04913 0.21650
#
# Static dielectric constant tensor:
#      x y z
#    x 1.935970 0.000000 0.000000 
#    y 0.000000 1.934770 0.000000 
#    z 0.000000 0.000000 2.090640 
# 
# From -- ./inp_files/2506.got.cif
#   From: 2010.05.17/outbox.cif.g08.bks.cpg/sg20_2_cif.got.tgz:2506.got - 2010.06.03 22:52:26.
