data_PCOD9316190
_publ_section_title
;
Structure prediction by ZEFSAII (Michael W. Deem and Ramdas Pophale) SiO2 
 PCOD9316190
Probable space group: C 2 2 21
;
_chemical_formula_sum "Si O2"
_cell_formula_units_Z 40
_cell_length_a 16.541384
_cell_length_b 8.947337
_cell_length_c 11.124604
_cell_angle_alpha 90.000000
_cell_angle_beta 90.000000
_cell_angle_gamma 90.000000
_cell_volume 1646.456267
_symmetry_space_group_name_H-M "C 2 2 21"
_symmetry_group_IT_number 20
_symmetry_cell_setting 'orthorhombic'
loop_
_space_group_symop_operation_xyz
x,y,z
-x,-y,1/2+z
x,-y,-z
-x,y,1/2-z
1/2+x,1/2+y,z
1/2-x,1/2-y,1/2+z
1/2+x,1/2-y,-z
1/2-x,1/2+y,1/2-z
loop_
_atom_site_type_symbol
_atom_site_label
_atom_site_fract_x
_atom_site_fract_y
_atom_site_fract_z
Si Si1 0.455590 0.248335 0.986763
Si Si2 0.821440 0.000000 0.000000
Si Si3 0.097941 0.059579 0.129487
Si Si4 0.500000 0.301719 0.250000
Si Si5 0.752434 0.164044 0.220280
Si Si6 0.671677 0.952846 0.370233
O O1 0.382016 0.361470 0.015947
O O2 0.488805 0.215666 0.121909
O O3 0.521837 0.334730 0.906310
O O4 0.413876 0.124125 0.902084
O O5 0.766473 0.053455 0.108836
O O6 0.170427 0.144441 0.192607
O O7 0.070131 0.922157 0.213789
O O8 0.122617 0.000000 0.000000
O O9 0.763461 0.333176 0.178772
O O10 0.674467 0.099347 0.287342
O O11 0.700897 0.000000 0.500000
#
# Coordination Sequence:
#
# PCOD9316190 Si02
#       6
#     8   4   8   4   8   8
#     4  10  19  36  66 102 141 179 251 303 366 417
#     4  10  18  34  64  94 132 194 230 298 354 418
#     4  10  18  34  66 105 135 188 246 299 354 443
#     4  10  14  30  62  98 142 182 236 302 358 424
#     4  11  24  42  69  96 149 185 250 296 367 433
#     4  11  27  45  68 102 140 194 241 300 371 455
#
# _framework density 24.294602999999999
#
# number of rings (size 3 to 8) (size 9 to 14) (size 15 to 20)
#    0.000    1.600    5.000    1.800    5.600    0.000 
#    0.000    2.000    0.000    0.000    2.600    0.000 
#    0.000    0.000    0.000    0.000    0.000    0.000 
#
# Total GULP energy -111739.235865 kJ/mol
# GULP energy per Si atom -5586.961793 kJ/mol
# Density = 2.423931 g / cm^3
# Si number density = 24.294603 Si / 1000 Ang^3
#
#
#
# Elastic Constant Matrix: (Units=GPa)
#
#
# Indices 1 2 3 4 5 6 
#
# 1 77.0084 29.2153 25.2460 0.0000 0.0000 0.0000
# 2 29.2153 92.4479 37.3465 0.0000 0.0000 0.0000
# 3 25.2460 37.3465 133.5239 0.0000 0.0000 0.0000
# 4 0.0000 0.0000 0.0000 57.9999 0.0000 0.0000
# 5 0.0000 0.0000 0.0000 0.0000 21.2142 0.0000
# 6 0.0000 0.0000 0.0000 0.0000 0.0000 31.5855
#
#
#
# Elastic Compliance Matrix: (Units=1/GPa)
#
#
# Indices 1 2 3 4 5 6 
#
# 1 0.015094 -0.004078 -0.001713 0.000000 0.000000 0.000000
# 2 -0.004078 0.013297 -0.002948 0.000000 0.000000 0.000000
# 3 -0.001713 -0.002948 0.008638 0.000000 0.000000 0.000000
# 4 0.000000 0.000000 0.000000 0.017241 0.000000 0.000000
# 5 0.000000 0.000000 0.000000 0.000000 0.047138 0.000000
# 6 0.000000 0.000000 0.000000 0.000000 0.000000 0.031660
#
#
# Mechanical properties :
#
#
# Convention : Reuss Voigt Hill
#
# Bulk Modulus (GPa) = 51.15067 54.06621 52.60844
# Shear Modulus (GPa) = 31.83422 36.23810 34.03616
#
# Velocity S-wave (km/s) = 3.62379 3.86633 3.74702
# Velocity P-wave (km/s) = 6.21363 6.49877 6.35780
#
# Compressibility (1/GPa) = 0.01955008
#
# Stress axis : x y z
#
# Youngs Moduli (GPa) = 66.24983 75.20763 115.77029
#
# Poissons Ratio (x) = 0.30669 0.19836
# Poissons Ratio (y) = 0.27016 0.34129
# Poissons Ratio (z) = 0.11351 0.22171
#
# Static dielectric constant tensor:
#      x y z
#    x 1.960390 0.000000 0.000000 
#    y 0.000000 1.975610 0.000000 
#    z 0.000000 0.000000 1.942960 
# 
# From -- ./inp_files/15593.got.cif
#   From: 2010.05.17/outbox.cif.g08.bks.cpg/sg20_8_cif.got.tgz:15593.got - 2010.06.03 22:52:26.
