data_PCOD9316890
_publ_section_title
;
Structure prediction by ZEFSAII (Michael W. Deem and Ramdas Pophale) SiO2 
 PCOD9316890
Probable space group: C 2 2 21
;
_chemical_formula_sum "Si O2"
_cell_formula_units_Z 44
_cell_length_a 7.386844
_cell_length_b 24.741403
_cell_length_c 9.511857
_cell_angle_alpha 90.000000
_cell_angle_beta 90.000000
_cell_angle_gamma 90.000000
_cell_volume 1738.395397
_symmetry_space_group_name_H-M "C 2 2 21"
_symmetry_group_IT_number 20
_symmetry_cell_setting 'orthorhombic'
loop_
_space_group_symop_operation_xyz
x,y,z
-x,-y,1/2+z
x,-y,-z
-x,y,1/2-z
1/2+x,1/2+y,z
1/2-x,1/2-y,1/2+z
1/2+x,1/2-y,-z
1/2-x,1/2+y,1/2-z
loop_
_atom_site_type_symbol
_atom_site_label
_atom_site_fract_x
_atom_site_fract_y
_atom_site_fract_z
Si Si1 0.262595 0.083892 0.854181
Si Si2 0.348612 0.057672 0.564180
Si Si3 0.785182 0.800027 0.665818
Si Si4 0.501110 0.410188 0.901911
Si Si5 0.500000 0.325866 0.250000
Si Si6 0.076588 0.728087 0.057433
O O1 0.465735 0.089821 0.911088
O O2 0.727836 0.045397 0.780448
O O3 0.170971 0.136366 0.781644
O O4 0.131412 0.065979 0.978777
O O5 0.198834 0.088185 0.469978
O O6 0.394558 0.000000 0.500000
O O7 0.907529 0.851639 0.630883
O O8 0.271918 0.790881 0.671088
O O9 0.867894 0.745226 0.598249
O O10 0.597562 0.808872 0.580954
O O11 0.500000 0.437799 0.750000
O O12 0.503675 0.285089 0.120438
#
# Coordination Sequence:
#
# PCOD9316890 Si02
#       6
#     8   8   8   8   4   8
#     4  11  23  49  80 110 148 199 258 312 386 475
#     4  11  27  48  78 114 148 198 255 323 387 474
#     4  10  23  43  63 105 142 203 252 319 367 445
#     4  12  27  46  75 109 161 202 252 322 385 461
#     4  10  18  46  72 104 146 204 248 308 386 448
#     4  10  23  40  71 102 156 196 269 306 371 451
#
# _framework density 25.310697000000001
#
# number of rings (size 3 to 8) (size 9 to 14) (size 15 to 20)
#    0.000    1.455    3.636    0.000    2.545    8.727 
#   13.091    0.000    0.000    0.000    0.000    0.000 
#    0.000    0.000    0.000    0.000    0.000    0.000 
#
# Total GULP energy -122926.945918 kJ/mol
# GULP energy per Si atom -5587.588451 kJ/mol
# Density = 2.525309 g / cm^3
# Si number density = 25.310697 Si / 1000 Ang^3
#
#
#
# Elastic Constant Matrix: (Units=GPa)
#
#
# Indices 1 2 3 4 5 6 
#
# 1 195.9170 55.3279 60.7475 0.0000 0.0000 0.0000
# 2 55.3279 94.1099 29.0117 0.0000 0.0000 0.0000
# 3 60.7475 29.0117 140.7775 0.0000 0.0000 0.0000
# 4 0.0000 0.0000 0.0000 172.5113 0.0000 0.0000
# 5 0.0000 0.0000 0.0000 0.0000 46.9569 0.0000
# 6 0.0000 0.0000 0.0000 0.0000 0.0000 -22.4395
#
#
#
# Elastic Compliance Matrix: (Units=1/GPa)
#
#
# Indices 1 2 3 4 5 6 
#
# 1 0.006715 -0.003262 -0.002226 0.000000 0.000000 0.000000
# 2 -0.003262 0.012931 -0.001257 0.000000 0.000000 0.000000
# 3 -0.002226 -0.001257 0.008323 0.000000 0.000000 0.000000
# 4 0.000000 0.000000 0.000000 0.005797 0.000000 0.000000
# 5 0.000000 0.000000 0.000000 0.000000 0.021296 0.000000
# 6 0.000000 0.000000 0.000000 0.000000 0.000000 -0.044564
#
#
# Mechanical properties :
#
#
# Convention : Reuss Voigt Hill
#
# Bulk Modulus (GPa) = 69.06151 80.10870 74.58511
# Shear Modulus (GPa) = 173.52346 58.45357 115.98851
#
# Velocity S-wave (km/s) = 8.28892 4.81088 6.77683
# Velocity P-wave (km/s) = 10.90656 7.91064 9.52710
#
# Compressibility (1/GPa) = 0.01447985
#
# Stress axis : x y z
#
# Youngs Moduli (GPa) = 148.90959 77.33224 120.15064
#
# Poissons Ratio (x) = 0.25226 0.26741
# Poissons Ratio (y) = 0.48574 0.15106
# Poissons Ratio (z) = 0.33141 0.09723
#
# Static dielectric constant tensor:
#      x y z
#    x 1.062480 0.000000 0.000000 
#    y 0.000000 2.005660 0.000000 
#    z 0.000000 0.000000 2.833310 
# 
# From -- ./inp_files/17723.got.cif
#   From: 2010.05.17/outbox.cif.g08.bks.cpg/sg20_9_cif.got.tgz:17723.got - 2010.06.03 22:52:26.
