data_PCOD9316086
_publ_section_title
;
Structure prediction by ZEFSAII (Michael W. Deem and Ramdas Pophale) SiO2 
 PCOD9316086
Probable space group: P 21 21 21
;
_chemical_formula_sum "Si O2"
_cell_formula_units_Z 16
_cell_length_a 8.351078
_cell_length_b 7.518365
_cell_length_c 9.167359
_cell_angle_alpha 90.000000
_cell_angle_beta 90.000000
_cell_angle_gamma 90.000000
_cell_volume 575.585951
_symmetry_space_group_name_H-M "P 21 21 21"
_symmetry_group_IT_number 19
_symmetry_cell_setting 'orthorhombic'
loop_
_space_group_symop_operation_xyz
x,y,z
1/2-x,-y,1/2+z
1/2+x,1/2-y,-z
-x,1/2+y,1/2-z
loop_
_atom_site_type_symbol
_atom_site_label
_atom_site_fract_x
_atom_site_fract_y
_atom_site_fract_z
Si Si1 0.058421 0.201927 0.526695
Si Si2 0.920848 0.817378 0.288165
Si Si3 0.760681 0.384968 0.027254
Si Si4 0.854427 0.923850 0.717693
O O1 0.011132 0.246521 0.363152
O O2 0.079047 0.378421 0.622738
O O3 0.227058 0.096022 0.497716
O O4 0.951711 0.064485 0.620182
O O5 0.790292 0.693650 0.370447
O O6 0.065253 0.847917 0.400123
O O7 0.817904 0.987407 0.239207
O O8 0.653826 0.267841 0.137550
#
# Coordination Sequence:
#
# PCOD9316086 Si02
#       4
#     4   4   4   4
#     4  12  28  53  87 128 174 235 285 369 436 523
#     4  12  28  52  86 127 178 229 290 367 439 528
#     4  12  26  53  81 128 167 229 290 358 439 523
#     4  12  28  54  84 129 175 227 305 356 444 526
#
# _framework density 27.797761000000001
#
# number of rings (size 3 to 8) (size 9 to 14) (size 15 to 20)
#    0.000    0.000    2.500    6.000    3.500    0.000 
#    0.000    0.000    0.000    0.000    0.000    0.000 
#    0.000    0.000    0.000    0.000    0.000    0.000 
#
# Total GULP energy -89622.977139 kJ/mol
# GULP energy per Si atom -5601.436071 kJ/mol
# Density = 2.773449 g / cm^3
# Si number density = 27.797761 Si / 1000 Ang^3
#
#
#
# Elastic Constant Matrix: (Units=GPa)
#
#
# Indices 1 2 3 4 5 6 
#
# 1 113.5803 60.8391 94.4892 0.0000 0.0000 0.0000
# 2 60.8391 84.9436 50.5942 0.0000 0.0000 0.0000
# 3 94.4892 50.5942 221.9972 0.0000 0.0000 0.0000
# 4 0.0000 0.0000 0.0000 47.8477 0.0000 0.0000
# 5 0.0000 0.0000 0.0000 0.0000 46.4612 0.0000
# 6 0.0000 0.0000 0.0000 0.0000 0.0000 65.2862
#
#
#
# Elastic Compliance Matrix: (Units=1/GPa)
#
#
# Indices 1 2 3 4 5 6 
#
# 1 0.019113 -0.010233 -0.005803 0.000000 0.000000 0.000000
# 2 -0.010233 0.019100 0.000003 0.000000 0.000000 0.000000
# 3 -0.005803 0.000003 0.006974 0.000000 0.000000 0.000000
# 4 0.000000 0.000000 0.000000 0.020900 0.000000 0.000000
# 5 0.000000 0.000000 0.000000 0.000000 0.021523 0.000000
# 6 0.000000 0.000000 0.000000 0.000000 0.000000 0.015317
#
#
# Mechanical properties :
#
#
# Convention : Reuss Voigt Hill
#
# Bulk Modulus (GPa) = 76.21826 92.48513 84.35169
# Shear Modulus (GPa) = 35.87608 46.22559 41.05083
#
# Velocity S-wave (km/s) = 3.59640 4.08232 3.84704
# Velocity P-wave (km/s) = 6.68759 7.45409 7.08122
#
# Compressibility (1/GPa) = 0.01312022
#
# Stress axis : x y z
#
# Youngs Moduli (GPa) = 52.31935 52.35527 143.39007
#
# Poissons Ratio (x) = 0.53576 0.83211
# Poissons Ratio (y) = 0.53539 -0.00036
# Poissons Ratio (z) = 0.30361 -0.00013
#
# Static dielectric constant tensor:
#      x y z
#    x 2.190250 0.000000 0.000000 
#    y 0.000000 2.282080 0.000000 
#    z 0.000000 0.000000 2.078070 
# 
# From -- ./inp_files/2533.got.cif
#   From: 2010.05.17/outbox.cif.g08.bks.cpg/sg19_2_cif.got.tgz:2533.got - 2010.06.03 22:46:19.
