data_PCOD9316399
_publ_section_title
;
Structure prediction by ZEFSAII (Michael W. Deem and Ramdas Pophale) SiO2 
 PCOD9316399
Probable space group: C 2 2 21
;
_chemical_formula_sum "Si O2"
_cell_formula_units_Z 60
_cell_length_a 12.324240
_cell_length_b 19.961375
_cell_length_c 12.475977
_cell_angle_alpha 90.000000
_cell_angle_beta 90.000000
_cell_angle_gamma 90.000000
_cell_volume 3069.199834
_symmetry_space_group_name_H-M "C 2 2 21"
_symmetry_group_IT_number 20
_symmetry_cell_setting 'orthorhombic'
loop_
_space_group_symop_operation_xyz
x,y,z
-x,-y,1/2+z
x,-y,-z
-x,y,1/2-z
1/2+x,1/2+y,z
1/2-x,1/2-y,1/2+z
1/2+x,1/2-y,-z
1/2-x,1/2+y,1/2-z
loop_
_atom_site_type_symbol
_atom_site_label
_atom_site_fract_x
_atom_site_fract_y
_atom_site_fract_z
Si Si1 0.621850 0.091593 0.287488
Si Si2 0.716107 0.955837 0.257586
Si Si3 0.784860 0.381675 0.007549
Si Si4 0.822926 0.740310 0.293550
Si Si5 0.098223 0.131722 0.669507
Si Si6 0.500000 0.886662 0.250000
Si Si7 0.096812 0.728711 0.612025
Si Si8 0.438317 0.681288 0.507404
O O1 0.500000 0.074766 0.250000
O O2 0.640804 0.086962 0.415766
O O3 0.643787 0.166472 0.243699
O O4 0.707468 0.035458 0.249844
O O5 0.722727 0.924125 0.380245
O O6 0.810954 0.923145 0.188926
O O7 0.601219 0.929795 0.213896
O O8 0.835025 0.306534 0.017586
O O9 0.660528 0.366588 0.974589
O O10 0.851189 0.796802 0.205443
O O11 0.693892 0.741906 0.316134
O O12 0.889122 0.768918 0.398686
O O13 0.000000 0.116735 0.750000
O O14 0.038038 0.139783 0.557878
O O15 0.456993 0.836916 0.161003
O O16 0.998236 0.776230 0.582700
#
# Coordination Sequence:
#
# PCOD9316399 Si02
#       8
#     8   8   8   8   8   4   8   8
#     4  12  24  38  63  90 124 158 205 257 322 372
#     4  11  21  40  61  90 121 172 206 250 311 387
#     4  10  21  39  59  91 120 163 211 255 308 381
#     4  10  20  36  57  91 120 153 204 257 309 370
#     4  10  17  38  64  84 116 158 213 248 309 368
#     4  10  20  36  56  86 126 166 202 244 310 382
#     4  10  20  34  59  90 123 156 205 257 322 354
#     4  10  20  36  66  90 121 162 208 267 309 364
#
# _framework density 19.549068999999999
#
# number of rings (size 3 to 8) (size 9 to 14) (size 15 to 20)
#    0.000    1.600    6.000    3.200    1.867    2.133 
#    0.000    1.333    0.000    0.000    0.000    0.000 
#    0.000    0.000    0.000    0.000    0.000    0.000 
#
# Total GULP energy -167039.365779 kJ/mol
# GULP energy per Si atom -5567.978859 kJ/mol
# Density = 1.950457 g / cm^3
# Si number density = 19.549069 Si / 1000 Ang^3
#
#
#
# Elastic Constant Matrix: (Units=GPa)
#
#
# Indices 1 2 3 4 5 6 
#
# 1 103.9729 39.0092 23.8620 0.0000 0.0000 0.0000
# 2 39.0092 78.2858 -2.5088 0.0000 0.0000 0.0000
# 3 23.8620 -2.5088 21.3648 0.0000 0.0000 0.0000
# 4 0.0000 0.0000 0.0000 13.9031 0.0000 0.0000
# 5 0.0000 0.0000 0.0000 0.0000 25.7044 0.0000
# 6 0.0000 0.0000 0.0000 0.0000 0.0000 27.5880
#
#
#
# Elastic Compliance Matrix: (Units=1/GPa)
#
#
# Indices 1 2 3 4 5 6 
#
# 1 0.018213 -0.009764 -0.021488 0.000000 0.000000 0.000000
# 2 -0.009764 0.018056 0.013025 0.000000 0.000000 0.000000
# 3 -0.021488 0.013025 0.072335 0.000000 0.000000 0.000000
# 4 0.000000 0.000000 0.000000 0.071926 0.000000 0.000000
# 5 0.000000 0.000000 0.000000 0.000000 0.038904 0.000000
# 6 0.000000 0.000000 0.000000 0.000000 0.000000 0.036248
#
#
# Mechanical properties :
#
#
# Convention : Reuss Voigt Hill
#
# Bulk Modulus (GPa) = 13.85977 36.03870 24.94924
# Shear Modulus (GPa) = 15.81349 22.98983 19.40166
#
# Velocity S-wave (km/s) = 2.84722 3.43302 3.15375
# Velocity P-wave (km/s) = 4.23250 5.84715 5.10408
#
# Compressibility (1/GPa) = 0.07215127
#
# Stress axis : x y z
#
# Youngs Moduli (GPa) = 54.90673 55.38214 13.82452
#
# Poissons Ratio (x) = 0.54074 0.29706
# Poissons Ratio (y) = 0.53610 -0.18007
# Poissons Ratio (z) = 1.17984 -0.72137
#
# Static dielectric constant tensor:
#      x y z
#    x 1.683580 0.000000 0.000000 
#    y 0.000000 1.696530 0.000000 
#    z 0.000000 0.000000 1.730850 
# 
# From -- ./inp_files/14384.got.cif
#   From: 2010.05.17/outbox.cif.g08.bks.cpg/sg20_8_cif.got.tgz:14384.got - 2010.06.03 22:52:26.
