data_PCOD9316977
_publ_section_title
;
Structure prediction by ZEFSAII (Michael W. Deem and Ramdas Pophale) SiO2 
 PCOD9316977
Probable space group: C 2 2 21
;
_chemical_formula_sum "Si O2"
_cell_formula_units_Z 48
_cell_length_a 21.432415
_cell_length_b 13.898127
_cell_length_c 8.842155
_cell_angle_alpha 90.000000
_cell_angle_beta 90.000000
_cell_angle_gamma 90.000000
_cell_volume 2633.816473
_symmetry_space_group_name_H-M "C 2 2 21"
_symmetry_group_IT_number 20
_symmetry_cell_setting 'orthorhombic'
loop_
_space_group_symop_operation_xyz
x,y,z
-x,-y,1/2+z
x,-y,-z
-x,y,1/2-z
1/2+x,1/2+y,z
1/2-x,1/2-y,1/2+z
1/2+x,1/2-y,-z
1/2-x,1/2+y,1/2-z
loop_
_atom_site_type_symbol
_atom_site_label
_atom_site_fract_x
_atom_site_fract_y
_atom_site_fract_z
Si Si1 0.718196 0.476888 0.173736
Si Si2 0.678649 0.327910 0.700425
Si Si3 0.740691 0.311499 0.396462
Si Si4 0.868021 0.494806 0.169737
Si Si5 0.929775 0.699368 0.696575
Si Si6 0.132476 0.390349 0.944487
O O1 0.688699 0.559085 0.279253
O O2 0.710238 0.376424 0.263671
O O3 0.793365 0.482499 0.170857
O O4 0.697638 0.500000 0.000000
O O5 0.692861 0.292370 0.531141
O O6 0.729036 0.279453 0.813886
O O7 0.612011 0.288510 0.751060
O O8 0.799455 0.360777 0.488331
O O9 0.899097 0.398167 0.235260
O O10 0.876329 0.592355 0.266657
O O11 0.891207 0.500000 0.000000
O O12 0.917287 0.681017 0.518810
O O13 0.000000 0.707274 0.750000
O O14 0.123170 0.500000 0.000000
#
# Coordination Sequence:
#
# PCOD9316977 Si02
#       6
#     8   8   8   8   8   8
#     4  11  20  34  54  86 119 143 187 238 296 344
#     4  11  21  32  59  81 115 153 180 245 286 338
#     4  11  19  33  52  85 114 142 190 229 300 330
#     4  10  19  32  54  83 114 150 190 233 281 349
#     4  10  22  37  52  79 117 157 196 221 281 348
#     4   9  15  32  52  72 108 146 176 231 274 325
#
# _framework density 18.224504
#
# number of rings (size 3 to 8) (size 9 to 14) (size 15 to 20)
#    0.000    1.667    6.667    1.500    2.333    2.000 
#    0.000    0.000    0.000    2.000    0.000    0.000 
#    0.000    0.000    0.000    0.000    0.000    0.000 
#
# Total GULP energy -133668.982965 kJ/mol
# GULP energy per Si atom -5569.540957 kJ/mol
# Density = 1.818302 g / cm^3
# Si number density = 18.224504 Si / 1000 Ang^3
#
#
#
# Elastic Constant Matrix: (Units=GPa)
#
#
# Indices 1 2 3 4 5 6 
#
# 1 51.8163 9.8306 1.2651 0.0000 0.0000 0.0000
# 2 9.8306 25.3986 -17.2137 0.0000 0.0000 0.0000
# 3 1.2651 -17.2137 85.8721 0.0000 0.0000 0.0000
# 4 0.0000 0.0000 0.0000 26.0399 0.0000 0.0000
# 5 0.0000 0.0000 0.0000 0.0000 7.7630 0.0000
# 6 0.0000 0.0000 0.0000 0.0000 0.0000 15.5194
#
#
#
# Elastic Compliance Matrix: (Units=1/GPa)
#
#
# Indices 1 2 3 4 5 6 
#
# 1 0.021202 -0.009742 -0.002265 0.000000 0.000000 0.000000
# 2 -0.009742 0.050038 0.010174 0.000000 0.000000 0.000000
# 3 -0.002265 0.010174 0.013718 0.000000 0.000000 0.000000
# 4 0.000000 0.000000 0.000000 0.038403 0.000000 0.000000
# 5 0.000000 0.000000 0.000000 0.000000 0.128816 0.000000
# 6 0.000000 0.000000 0.000000 0.000000 0.000000 0.064436
#
#
# Mechanical properties :
#
#
# Convention : Reuss Voigt Hill
#
# Bulk Modulus (GPa) = 12.30117 16.76123 14.53120
# Shear Modulus (GPa) = 14.39363 21.14480 17.76921
#
# Velocity S-wave (km/s) = 2.81338 3.40992 3.12591
# Velocity P-wave (km/s) = 4.16148 4.97197 4.58467
#
# Compressibility (1/GPa) = 0.08129311
#
# Stress axis : x y z
#
# Youngs Moduli (GPa) = 47.16431 19.98473 72.89660
#
# Poissons Ratio (x) = 0.19469 0.16512
# Poissons Ratio (y) = 0.45946 -0.74165
# Poissons Ratio (z) = 0.10684 -0.20333
#
# Static dielectric constant tensor:
#      x y z
#    x 1.599250 0.000000 0.000000 
#    y 0.000000 1.631210 0.000000 
#    z 0.000000 0.000000 1.801300 
# 
# From -- ./inp_files/10054.got.cif
#   From: 2010.05.17/outbox.cif.g08.bks.cpg/sg20_6_cif.got.tgz:10054.got - 2010.06.03 22:52:26.
