data_PCOD9316224
_publ_section_title
;
Structure prediction by ZEFSAII (Michael W. Deem and Ramdas Pophale) SiO2 
 PCOD9316224
Probable space group: C 2 2 21
;
_chemical_formula_sum "Si O2"
_cell_formula_units_Z 52
_cell_length_a 14.746530
_cell_length_b 9.093257
_cell_length_c 16.177725
_cell_angle_alpha 90.000000
_cell_angle_beta 90.000000
_cell_angle_gamma 90.000000
_cell_volume 2169.335648
_symmetry_space_group_name_H-M "C 2 2 21"
_symmetry_group_IT_number 20
_symmetry_cell_setting 'orthorhombic'
loop_
_space_group_symop_operation_xyz
x,y,z
-x,-y,1/2+z
x,-y,-z
-x,y,1/2-z
1/2+x,1/2+y,z
1/2-x,1/2-y,1/2+z
1/2+x,1/2-y,-z
1/2-x,1/2+y,1/2-z
loop_
_atom_site_type_symbol
_atom_site_label
_atom_site_fract_x
_atom_site_fract_y
_atom_site_fract_z
Si Si1 0.874615 0.508002 0.096858
Si Si2 0.040691 0.876133 0.619612
Si Si3 0.431017 0.874077 0.356805
Si Si4 0.411725 0.832083 0.697581
Si Si5 0.690984 0.000000 0.000000
Si Si6 0.540132 0.290234 0.424843
Si Si7 0.269484 0.267377 0.865748
O O1 0.966775 0.436711 0.131651
O O2 0.879583 0.684137 0.109916
O O3 0.790239 0.402538 0.112799
O O4 0.889918 0.500000 0.000000
O O5 0.952417 0.795920 0.656815
O O6 0.045323 0.817820 0.523315
O O7 0.133922 0.829846 0.662998
O O8 0.036989 0.050226 0.615403
O O9 0.394236 0.992718 0.291354
O O10 0.369181 0.905113 0.436148
O O11 0.500000 0.788189 0.750000
O O12 0.448482 0.792110 0.604918
O O13 0.312263 0.766655 0.699199
O O14 0.745076 0.880677 0.942275
#
# Coordination Sequence:
#
# PCOD9316224 Si02
#       7
#     8   8   8   8   4   8   8
#     4  10  16  31  52  81 110 143 177 221 289 347
#     4  10  18  34  54  89 110 134 190 234 303 336
#     4   9  16  32  57  72 105 148 180 218 282 339
#     4  10  22  40  54  76 112 158 194 222 276 343
#     4  10  16  30  50  84 114 142 168 232 292 322
#     4  10  19  34  58  80 117 153 174 238 294 348
#     4  10  20  30  54  82 114 137 185 237 276 337
#
# _framework density 23.970472999999998
#
# number of rings (size 3 to 8) (size 9 to 14) (size 15 to 20)
#    0.000    2.154    3.846    2.769    0.000    0.000 
#    5.538    5.385    0.000    0.000    0.000    0.000 
#    0.000    0.000    0.000    0.000    0.000    0.000 
#
# Total GULP energy -144834.157525 kJ/mol
# GULP energy per Si atom -5570.544520 kJ/mol
# Density = 2.391591 g / cm^3
# Si number density = 23.970473 Si / 1000 Ang^3
#
#
#
# Elastic Constant Matrix: (Units=GPa)
#
#
# Indices 1 2 3 4 5 6 
#
# 1 42.3533 12.5523 13.3324 0.0000 0.0000 0.0000
# 2 12.5523 174.2666 6.2761 0.0000 0.0000 0.0000
# 3 13.3324 6.2761 54.5775 0.0000 0.0000 0.0000
# 4 0.0000 0.0000 0.0000 10.0653 0.0000 0.0000
# 5 0.0000 0.0000 0.0000 0.0000 33.1284 0.0000
# 6 0.0000 0.0000 0.0000 0.0000 0.0000 39.4990
#
#
#
# Elastic Compliance Matrix: (Units=1/GPa)
#
#
# Indices 1 2 3 4 5 6 
#
# 1 0.026044 -0.001654 -0.006172 0.000000 0.000000 0.000000
# 2 -0.001654 0.005867 -0.000271 0.000000 0.000000 0.000000
# 3 -0.006172 -0.000271 0.019861 0.000000 0.000000 0.000000
# 4 0.000000 0.000000 0.000000 0.099351 0.000000 0.000000
# 5 0.000000 0.000000 0.000000 0.000000 0.030186 0.000000
# 6 0.000000 0.000000 0.000000 0.000000 0.000000 0.025317
#
#
# Mechanical properties :
#
#
# Convention : Reuss Voigt Hill
#
# Bulk Modulus (GPa) = 28.10580 37.27990 32.69285
# Shear Modulus (GPa) = 21.30573 32.47431 26.89002
#
# Velocity S-wave (km/s) = 2.98456 3.68470 3.35296
# Velocity P-wave (km/s) = 4.86081 5.80421 5.35333
#
# Compressibility (1/GPa) = 0.03557985
#
# Stress axis : x y z
#
# Youngs Moduli (GPa) = 38.39678 170.43915 50.34892
#
# Poissons Ratio (x) = 0.28185 0.31075
# Poissons Ratio (y) = 0.06349 0.01363
# Poissons Ratio (z) = 0.23698 0.04614
#
# Static dielectric constant tensor:
#      x y z
#    x 1.883450 0.000000 0.000000 
#    y 0.000000 2.052110 0.000000 
#    z 0.000000 0.000000 2.075760 
# 
# From -- ./inp_files/27507.got.cif
#   From: 2010.05.17/outbox.cif.g08.bks.cpg/sg20_14_cif.got.tgz:27507.got - 2010.06.03 22:52:26.
