data_PCOD9316222
_publ_section_title
;
Structure prediction by ZEFSAII (Michael W. Deem and Ramdas Pophale) SiO2 
 PCOD9316222
Probable space group: C 2 2 21
;
_chemical_formula_sum "Si O2"
_cell_formula_units_Z 52
_cell_length_a 8.494981
_cell_length_b 16.228097
_cell_length_c 20.509669
_cell_angle_alpha 90.000000
_cell_angle_beta 90.000000
_cell_angle_gamma 90.000000
_cell_volume 2827.409144
_symmetry_space_group_name_H-M "C 2 2 21"
_symmetry_group_IT_number 20
_symmetry_cell_setting 'orthorhombic'
loop_
_space_group_symop_operation_xyz
x,y,z
-x,-y,1/2+z
x,-y,-z
-x,y,1/2-z
1/2+x,1/2+y,z
1/2-x,1/2-y,1/2+z
1/2+x,1/2-y,-z
1/2-x,1/2+y,1/2-z
loop_
_atom_site_type_symbol
_atom_site_label
_atom_site_fract_x
_atom_site_fract_y
_atom_site_fract_z
Si Si1 0.469543 0.772518 0.072580
Si Si2 0.855819 0.684084 0.437840
Si Si3 0.650744 0.481870 0.571551
Si Si4 0.447963 0.938555 0.383705
Si Si5 0.169334 0.500000 0.500000
Si Si6 0.141708 0.102273 0.104476
Si Si7 0.954361 0.607202 0.177688
O O1 0.283868 0.751114 0.068686
O O2 0.506401 0.843789 0.125364
O O3 0.563297 0.689964 0.091103
O O4 0.540358 0.798886 0.001953
O O5 0.762765 0.597123 0.440540
O O6 0.966169 0.668493 0.375220
O O7 0.586073 0.500000 0.500000
O O8 0.764701 0.552422 0.597885
O O9 0.504849 0.458845 0.616755
O O10 0.556303 0.961408 0.445825
O O11 0.484304 0.013001 0.334130
O O12 0.269073 0.432675 0.540112
O O13 0.269869 0.105698 0.161168
O O14 0.000000 0.632326 0.250000
#
# Coordination Sequence:
#
# PCOD9316222 Si02
#       7
#     8   8   8   8   4   8   8
#     4  11  19  33  55  95 118 138 183 244 313 341
#     4  10  20  32  57  86 120 151 179 235 297 353
#     4  10  16  31  51  83 114 148 172 219 289 346
#     4  10  18  32  55  76 110 144 180 233 285 331
#     4  10  16  30  48  78 108 148 182 216 272 340
#     4  10  21  31  55  84 113 147 190 234 284 349
#     4  10  22  42  56  71 108 164 208 230 274 347
#
# _framework density 18.391394999999999
#
# number of rings (size 3 to 8) (size 9 to 14) (size 15 to 20)
#    0.000    1.846    3.077    3.692    0.000    0.000 
#    0.000    8.462    0.000    0.000    0.000    0.000 
#    0.000    0.000    0.000    0.000    0.000    0.000 
#
# Total GULP energy -144901.103099 kJ/mol
# GULP energy per Si atom -5573.119350 kJ/mol
# Density = 1.834953 g / cm^3
# Si number density = 18.391395 Si / 1000 Ang^3
#
#
#
# Elastic Constant Matrix: (Units=GPa)
#
#
# Indices 1 2 3 4 5 6 
#
# 1 100.4444 32.5851 3.7148 0.0000 0.0000 0.0000
# 2 32.5851 59.6832 4.9342 0.0000 0.0000 0.0000
# 3 3.7148 4.9342 25.7451 0.0000 0.0000 0.0000
# 4 0.0000 0.0000 0.0000 13.7250 0.0000 0.0000
# 5 0.0000 0.0000 0.0000 0.0000 5.5387 0.0000
# 6 0.0000 0.0000 0.0000 0.0000 0.0000 19.5955
#
#
#
# Elastic Compliance Matrix: (Units=1/GPa)
#
#
# Indices 1 2 3 4 5 6 
#
# 1 0.012105 -0.006568 -0.000488 0.000000 0.000000 0.000000
# 2 -0.006568 0.020589 -0.002998 0.000000 0.000000 0.000000
# 3 -0.000488 -0.002998 0.039487 0.000000 0.000000 0.000000
# 4 0.000000 0.000000 0.000000 0.072860 0.000000 0.000000
# 5 0.000000 0.000000 0.000000 0.000000 0.180547 0.000000
# 6 0.000000 0.000000 0.000000 0.000000 0.000000 0.051032
#
#
# Mechanical properties :
#
#
# Convention : Reuss Voigt Hill
#
# Bulk Modulus (GPa) = 19.20405 29.81567 24.50986
# Shear Modulus (GPa) = 12.07476 17.41441 14.74459
#
# Velocity S-wave (km/s) = 2.56509 3.08048 2.83452
# Velocity P-wave (km/s) = 4.38605 5.37582 4.90596
#
# Compressibility (1/GPa) = 0.05207234
#
# Stress axis : x y z
#
# Youngs Moduli (GPa) = 82.61281 48.56921 25.32452
#
# Poissons Ratio (x) = 0.31902 0.01235
# Poissons Ratio (y) = 0.54264 0.07593
# Poissons Ratio (z) = 0.04029 0.14563
#
# Static dielectric constant tensor:
#      x y z
#    x 1.660350 0.000000 0.000000 
#    y 0.000000 1.686180 0.000000 
#    z 0.000000 0.000000 1.622260 
# 
# From -- ./inp_files/26633.got.cif
#   From: 2010.05.17/outbox.cif.g08.bks.cpg/sg20_14_cif.got.tgz:26633.got - 2010.06.03 22:52:26.
