data_PCOD9316818
_publ_section_title
;
Structure prediction by ZEFSAII (Michael W. Deem and Ramdas Pophale) SiO2 
 PCOD9316818
Probable space group: C 2 2 21
;
_chemical_formula_sum "Si O2"
_cell_formula_units_Z 48
_cell_length_a 18.055437
_cell_length_b 14.924774
_cell_length_c 8.844102
_cell_angle_alpha 90.000000
_cell_angle_beta 90.000000
_cell_angle_gamma 90.000000
_cell_volume 2383.249499
_symmetry_space_group_name_H-M "C 2 2 21"
_symmetry_group_IT_number 20
_symmetry_cell_setting 'orthorhombic'
loop_
_space_group_symop_operation_xyz
x,y,z
-x,-y,1/2+z
x,-y,-z
-x,y,1/2-z
1/2+x,1/2+y,z
1/2-x,1/2-y,1/2+z
1/2+x,1/2-y,-z
1/2-x,1/2+y,1/2-z
loop_
_atom_site_type_symbol
_atom_site_label
_atom_site_fract_x
_atom_site_fract_y
_atom_site_fract_z
Si Si1 0.349732 0.078058 0.374778
Si Si2 0.933070 0.260679 0.466983
Si Si3 0.431534 0.043939 0.854349
Si Si4 0.101413 0.270499 0.389615
Si Si5 0.062723 0.073492 0.119825
Si Si6 0.176237 0.081204 0.379546
O O1 0.391471 0.166567 0.433432
O O2 0.388471 0.033665 0.231627
O O3 0.263087 0.095356 0.350521
O O4 0.354314 0.000000 0.500000
O O5 0.907901 0.266994 0.291973
O O6 0.918486 0.156296 0.490882
O O7 0.021677 0.270101 0.471182
O O8 0.500000 0.075760 0.750000
O O9 0.376967 0.124743 0.904149
O O10 0.467797 0.000000 0.000000
O O11 0.144411 0.179325 0.431442
O O12 0.133326 0.054269 0.225705
O O13 0.000000 0.093351 0.250000
O O14 0.036846 0.000000 0.000000
O O15 0.166537 0.000000 0.500000
#
# Coordination Sequence:
#
# PCOD9316818 Si02
#       6
#     8   8   8   8   8   8
#     4  11  22  42  65  94 133 174 220 268 339 408
#     4  10  18  38  68  89 120 171 218 268 326 390
#     4  12  23  40  65  95 126 165 220 277 326 397
#     4  10  18  38  67  88 123 171 214 266 331 378
#     4  11  22  41  68  96 133 179 230 284 336 399
#     4  10  23  43  66  95 134 179 216 270 342 406
#
# _framework density 20.140567999999998
#
# number of rings (size 3 to 8) (size 9 to 14) (size 15 to 20)
#    0.000    1.333    6.667    2.000    0.000    0.667 
#   12.000    0.833    0.000    0.000    0.000    0.000 
#    0.000    0.000    0.000    0.000    0.000    0.000 
#
# Total GULP energy -133669.633976 kJ/mol
# GULP energy per Si atom -5569.568082 kJ/mol
# Density = 2.009473 g / cm^3
# Si number density = 20.140568 Si / 1000 Ang^3
#
#
#
# Elastic Constant Matrix: (Units=GPa)
#
#
# Indices 1 2 3 4 5 6 
#
# 1 112.4546 46.1516 29.3395 0.0000 0.0000 0.0000
# 2 46.1516 151.9442 41.2080 0.0000 0.0000 0.0000
# 3 29.3395 41.2080 49.0924 0.0000 0.0000 0.0000
# 4 0.0000 0.0000 0.0000 26.1703 0.0000 0.0000
# 5 0.0000 0.0000 0.0000 0.0000 17.8701 0.0000
# 6 0.0000 0.0000 0.0000 0.0000 0.0000 20.3385
#
#
#
# Elastic Compliance Matrix: (Units=1/GPa)
#
#
# Indices 1 2 3 4 5 6 
#
# 1 0.010992 -0.002016 -0.004877 0.000000 0.000000 0.000000
# 2 -0.002016 0.008891 -0.006258 0.000000 0.000000 0.000000
# 3 -0.004877 -0.006258 0.028538 0.000000 0.000000 0.000000
# 4 0.000000 0.000000 0.000000 0.038211 0.000000 0.000000
# 5 0.000000 0.000000 0.000000 0.000000 0.055959 0.000000
# 6 0.000000 0.000000 0.000000 0.000000 0.000000 0.049168
#
#
# Mechanical properties :
#
#
# Convention : Reuss Voigt Hill
#
# Bulk Modulus (GPa) = 45.21179 60.76549 52.98864
# Shear Modulus (GPa) = 22.17936 25.99525 24.08731
#
# Velocity S-wave (km/s) = 3.32208 3.59652 3.46202
# Velocity P-wave (km/s) = 6.10015 6.89077 6.50748
#
# Compressibility (1/GPa) = 0.02211812
#
# Stress axis : x y z
#
# Youngs Moduli (GPa) = 90.97248 112.47344 35.04153
#
# Poissons Ratio (x) = 0.22676 0.17090
# Poissons Ratio (y) = 0.18341 0.21930
# Poissons Ratio (z) = 0.44368 0.70388
#
# Static dielectric constant tensor:
#      x y z
#    x 1.716730 0.000000 0.000000 
#    y 0.000000 1.850650 0.000000 
#    z 0.000000 0.000000 1.777930 
# 
# From -- ./inp_files/9360.got.cif
#   From: 2010.05.17/outbox.cif.g08.bks.cpg/sg20_5_cif.got.tgz:9360.got - 2010.06.03 22:52:26.
