data_PCOD9316436
_publ_section_title
;
Structure prediction by ZEFSAII (Michael W. Deem and Ramdas Pophale) SiO2 
 PCOD9316436
Probable space group: C 2 2 21
;
_chemical_formula_sum "Si O2"
_cell_formula_units_Z 56
_cell_length_a 10.267745
_cell_length_b 30.598736
_cell_length_c 7.449205
_cell_angle_alpha 90.000000
_cell_angle_beta 90.000000
_cell_angle_gamma 90.000000
_cell_volume 2340.391365
_symmetry_space_group_name_H-M "C 2 2 21"
_symmetry_group_IT_number 20
_symmetry_cell_setting 'orthorhombic'
loop_
_space_group_symop_operation_xyz
x,y,z
-x,-y,1/2+z
x,-y,-z
-x,y,1/2-z
1/2+x,1/2+y,z
1/2-x,1/2-y,1/2+z
1/2+x,1/2-y,-z
1/2-x,1/2+y,1/2-z
loop_
_atom_site_type_symbol
_atom_site_label
_atom_site_fract_x
_atom_site_fract_y
_atom_site_fract_z
Si Si1 0.667008 0.215468 0.465784
Si Si2 0.000000 0.783135 0.466005
Si Si3 0.217561 0.617024 0.471556
Si Si4 0.332992 0.215468 0.465784
Si Si5 0.500000 0.382397 0.549438
Si Si6 0.500000 0.948904 0.535878
Si Si7 0.282439 0.117024 0.471556
O O1 0.500000 0.226877 0.510416
O O2 0.673302 0.165307 0.533353
O O3 0.662175 0.213022 0.250000
O O4 0.666820 0.272058 0.501028
O O5 1.000000 0.829677 0.561929
O O6 0.000000 0.790419 0.250000
O O7 0.833180 0.772058 0.501028
O O8 0.362790 0.607116 0.535873
O O9 0.220002 0.619056 0.250000
O O10 0.123442 0.578520 0.529101
O O11 0.326698 0.165307 0.533353
O O12 0.500000 0.401353 0.750000
O O13 0.637210 0.392884 0.464127
O O14 0.500000 0.944170 0.750000
O O15 0.376558 0.921480 0.470899
O O16 0.500000 0.000000 0.500000
#
# Coordination Sequence:
#
# PCOD9316436 Si02
#       7
#     8   8   8   8   8   8   8
#     4  10  18  29  46  72 106 147 183 213 251 309
#     4  10  19  28  42  69 108 145 177 215 260 299
#     4   9  18  33  55  78 105 141 182 221 266 323
#     4  10  18  29  46  72 106 147 183 213 251 309
#     4  10  18  31  52  78 103 136 178 214 250 313
#     4  10  21  41  63  81 102 137 182 233 284 334
#     4   9  18  33  55  78 105 141 182 221 266 323
#
# _framework density 23.927620000000001
#
# number of rings (size 3 to 8) (size 9 to 14) (size 15 to 20)
#    0.000    2.286    2.857    0.857    0.000    3.429 
#    0.000    3.571    0.000    1.714    0.000    0.000 
#    0.000    0.000    0.000    0.000    0.000    0.000 
#
# Total GULP energy -156150.198844 kJ/mol
# GULP energy per Si atom -5576.792816 kJ/mol
# Density = 2.387316 g / cm^3
# Si number density = 23.927620 Si / 1000 Ang^3
#
#
#
# Elastic Constant Matrix: (Units=GPa)
#
#
# Indices 1 2 3 4 5 6 
#
# 1 260.5304 131.2800 15.9560 0.0000 0.0000 0.0000
# 2 131.2800 192.6671 -3.7124 0.0000 0.0000 0.0000
# 3 15.9560 -3.7124 80.3251 0.0000 0.0000 0.0000
# 4 0.0000 0.0000 0.0000 22.6931 0.0000 0.0000
# 5 0.0000 0.0000 0.0000 0.0000 22.0007 0.0000
# 6 0.0000 0.0000 0.0000 0.0000 0.0000 29.2589
#
#
#
# Elastic Compliance Matrix: (Units=1/GPa)
#
#
# Indices 1 2 3 4 5 6 
#
# 1 0.005994 -0.004111 -0.001381 0.000000 0.000000 0.000000
# 2 -0.004111 0.008014 0.001187 0.000000 0.000000 0.000000
# 3 -0.001381 0.001187 0.012779 0.000000 0.000000 0.000000
# 4 0.000000 0.000000 0.000000 0.044066 0.000000 0.000000
# 5 0.000000 0.000000 0.000000 0.000000 0.045453 0.000000
# 6 0.000000 0.000000 0.000000 0.000000 0.000000 0.034178
#
#
# Mechanical properties :
#
#
# Convention : Reuss Voigt Hill
#
# Bulk Modulus (GPa) = 55.01233 91.17443 73.09338
# Shear Modulus (GPa) = 30.27490 40.79048 35.53269
#
# Velocity S-wave (km/s) = 3.56092 4.13333 3.85776
# Velocity P-wave (km/s) = 6.32044 7.80809 7.10332
#
# Compressibility (1/GPa) = 0.01817774
#
# Stress axis : x y z
#
# Youngs Moduli (GPa) = 166.82061 124.77505 78.25619
#
# Poissons Ratio (x) = 0.51297 0.10805
# Poissons Ratio (y) = 0.68582 -0.09289
# Poissons Ratio (z) = 0.23034 -0.14811
#
# Static dielectric constant tensor:
#      x y z
#    x 2.233740 0.000000 0.000000 
#    y 0.000000 1.826820 0.000000 
#    z 0.000000 0.000000 1.844890 
# 
# From -- ./inp_files/14321.got.cif
#   From: 2010.05.17/outbox.cif.g08.bks.cpg/sg20_8_cif.got.tgz:14321.got - 2010.06.03 22:52:26.
