data_PCOD9316854
_publ_section_title
;
Structure prediction by ZEFSAII (Michael W. Deem and Ramdas Pophale) SiO2 
 PCOD9316854
Probable space group: C 2 2 21
;
_chemical_formula_sum "Si O2"
_cell_formula_units_Z 44
_cell_length_a 12.656211
_cell_length_b 18.801502
_cell_length_c 10.067727
_cell_angle_alpha 90.000000
_cell_angle_beta 90.000000
_cell_angle_gamma 90.000000
_cell_volume 2395.673795
_symmetry_space_group_name_H-M "C 2 2 21"
_symmetry_group_IT_number 20
_symmetry_cell_setting 'orthorhombic'
loop_
_space_group_symop_operation_xyz
x,y,z
-x,-y,1/2+z
x,-y,-z
-x,y,1/2-z
1/2+x,1/2+y,z
1/2-x,1/2-y,1/2+z
1/2+x,1/2-y,-z
1/2-x,1/2+y,1/2-z
loop_
_atom_site_type_symbol
_atom_site_label
_atom_site_fract_x
_atom_site_fract_y
_atom_site_fract_z
Si Si1 0.244235 0.094801 0.190045
Si Si2 0.597665 0.023996 0.653795
Si Si3 0.406314 0.500000 0.500000
Si Si4 0.719517 0.835497 0.430108
Si Si5 0.033467 0.143786 0.896057
Si Si6 0.096458 0.804969 0.645799
O O1 0.176303 0.133920 0.301838
O O2 0.337178 0.040069 0.223123
O O3 0.165387 0.046243 0.100224
O O4 0.292104 0.153421 0.088975
O O5 0.500000 0.040317 0.750000
O O6 0.671568 0.093220 0.635904
O O7 0.572055 0.000000 0.500000
O O8 0.470250 0.441490 0.418793
O O9 0.845151 0.832387 0.411045
O O10 0.660540 0.767668 0.372498
O O11 0.000000 0.163178 0.750000
O O12 0.958445 0.176103 0.007339
O O13 0.000000 0.798645 0.750000
#
# Coordination Sequence:
#
# PCOD9316854 Si02
#       6
#     8   8   4   8   8   8
#     4  10  20  43  65  89 125 166 212 261 313 376
#     4  10  20  43  66  91 123 168 209 257 314 369
#     4  10  18  40  66  84 120 158 204 262 314 366
#     4  10  22  42  63  88 132 161 206 261 320 372
#     4  11  25  39  64  93 126 162 209 264 323 371
#     4  12  24  41  65  95 124 172 211 255 324 389
#
# _framework density 18.366440000000001
#
# number of rings (size 3 to 8) (size 9 to 14) (size 15 to 20)
#    0.000    1.455    8.182    0.545    5.091    0.000 
#    9.818    0.000    0.000    0.000    0.000    0.000 
#    0.000    0.000    0.000    0.000    0.000    0.000 
#
# Total GULP energy -122697.713259 kJ/mol
# GULP energy per Si atom -5577.168784 kJ/mol
# Density = 1.832464 g / cm^3
# Si number density = 18.366440 Si / 1000 Ang^3
#
#
#
# Elastic Constant Matrix: (Units=GPa)
#
#
# Indices 1 2 3 4 5 6 
#
# 1 89.9492 39.4213 44.7897 0.0000 0.0000 0.0000
# 2 39.4213 84.8162 41.0216 0.0000 0.0000 0.0000
# 3 44.7897 41.0216 96.7387 0.0000 0.0000 0.0000
# 4 0.0000 0.0000 0.0000 21.1101 0.0000 0.0000
# 5 0.0000 0.0000 0.0000 0.0000 33.3323 0.0000
# 6 0.0000 0.0000 0.0000 0.0000 0.0000 25.8145
#
#
#
# Elastic Compliance Matrix: (Units=1/GPa)
#
#
# Indices 1 2 3 4 5 6 
#
# 1 0.015867 -0.004808 -0.005308 0.000000 0.000000 0.000000
# 2 -0.004808 0.016289 -0.004681 0.000000 0.000000 0.000000
# 3 -0.005308 -0.004681 0.014780 0.000000 0.000000 0.000000
# 4 0.000000 0.000000 0.000000 0.047371 0.000000 0.000000
# 5 0.000000 0.000000 0.000000 0.000000 0.030001 0.000000
# 6 0.000000 0.000000 0.000000 0.000000 0.000000 0.038738
#
#
# Mechanical properties :
#
#
# Convention : Reuss Voigt Hill
#
# Bulk Modulus (GPa) = 57.66257 57.99659 57.82958
# Shear Modulus (GPa) = 25.19904 25.80281 25.50092
#
# Velocity S-wave (km/s) = 3.70809 3.75225 3.73024
# Velocity P-wave (km/s) = 7.05670 7.10060 7.07869
#
# Compressibility (1/GPa) = 0.01734227
#
# Stress axis : x y z
#
# Youngs Moduli (GPa) = 63.02198 61.39155 67.66030
#
# Poissons Ratio (x) = 0.29516 0.35913
# Poissons Ratio (y) = 0.30300 0.31673
# Poissons Ratio (z) = 0.33451 0.28739
#
# Static dielectric constant tensor:
#      x y z
#    x 1.685740 0.000000 0.000000 
#    y 0.000000 1.636460 0.000000 
#    z 0.000000 0.000000 1.608310 
# 
# From -- ./inp_files/14026.got.cif
#   From: 2010.05.17/outbox.cif.g08.bks.cpg/sg20_8_cif.got.tgz:14026.got - 2010.06.03 22:52:26.
