data_PCOD9316019
_publ_section_title
;
Structure prediction by ZEFSAII (Michael W. Deem and Ramdas Pophale) SiO2 
 PCOD9316019
Probable space group: P 21 21 21
;
_chemical_formula_sum "Si O2"
_cell_formula_units_Z 24
_cell_length_a 6.914066
_cell_length_b 5.773342
_cell_length_c 23.943262
_cell_angle_alpha 90.000000
_cell_angle_beta 90.000000
_cell_angle_gamma 90.000000
_cell_volume 955.749597
_symmetry_space_group_name_H-M "P 21 21 21"
_symmetry_group_IT_number 19
_symmetry_cell_setting 'orthorhombic'
loop_
_space_group_symop_operation_xyz
x,y,z
1/2-x,-y,1/2+z
1/2+x,1/2-y,-z
-x,1/2+y,1/2-z
loop_
_atom_site_type_symbol
_atom_site_label
_atom_site_fract_x
_atom_site_fract_y
_atom_site_fract_z
Si Si1 0.606981 0.622677 0.761301
Si Si2 0.260888 0.473664 0.507090
Si Si3 0.106444 0.856918 0.431543
Si Si4 0.477234 0.279940 0.413716
Si Si5 0.584154 0.439967 0.167207
Si Si6 0.755100 0.617310 0.367195
O O1 0.508906 0.878925 0.754216
O O2 0.796104 0.615377 0.722054
O O3 0.666079 0.575992 0.824837
O O4 0.207990 0.720755 0.481758
O O5 0.465214 0.458755 0.538713
O O6 0.289650 0.324703 0.450664
O O7 0.102293 0.404291 0.552014
O O8 0.271638 0.888583 0.385084
O O9 0.940529 0.716666 0.398069
O O10 0.608517 0.505671 0.410954
O O11 0.447381 0.208107 0.349329
O O12 0.380020 0.306059 0.164463
#
# Coordination Sequence:
#
# PCOD9316019 Si02
#       6
#     4   4   4   4   4   4
#     4  12  32  54  88 118 158 208 264 334 410 478
#     4  12  24  44  74 110 154 206 260 314 386 468
#     4  12  24  50  72 110 158 200 262 322 392 462
#     4  12  26  44  76 112 150 206 258 320 386 470
#     4  12  28  51  78 112 156 201 264 331 399 471
#     4  12  28  51  78 112 156 201 264 331 399 471
#
# _framework density 25.111180999999998
#
# number of rings (size 3 to 8) (size 9 to 14) (size 15 to 20)
#    0.000    0.000    5.000    4.000   11.667    0.000 
#    0.000    0.000    0.000    0.000    0.000    0.000 
#    0.000    0.000    0.000    0.000    0.000    0.000 
#
# Total GULP energy -134139.299149 kJ/mol
# GULP energy per Si atom -5589.137465 kJ/mol
# Density = 2.505403 g / cm^3
# Si number density = 25.111181 Si / 1000 Ang^3
#
#
#
# Elastic Constant Matrix: (Units=GPa)
#
#
# Indices 1 2 3 4 5 6 
#
# 1 116.6814 28.3723 5.4181 0.0000 0.0000 0.0000
# 2 28.3723 46.5728 -2.2040 0.0000 0.0000 0.0000
# 3 5.4181 -2.2040 62.1778 0.0000 0.0000 0.0000
# 4 0.0000 0.0000 0.0000 37.6797 0.0000 0.0000
# 5 0.0000 0.0000 0.0000 0.0000 59.3209 0.0000
# 6 0.0000 0.0000 0.0000 0.0000 0.0000 48.8478
#
#
#
# Elastic Compliance Matrix: (Units=1/GPa)
#
#
# Indices 1 2 3 4 5 6 
#
# 1 0.010136 -0.006227 -0.001104 0.000000 0.000000 0.000000
# 2 -0.006227 0.025333 0.001441 0.000000 0.000000 0.000000
# 3 -0.001104 0.001441 0.016230 0.000000 0.000000 0.000000
# 4 0.000000 0.000000 0.000000 0.026539 0.000000 0.000000
# 5 0.000000 0.000000 0.000000 0.000000 0.016857 0.000000
# 6 0.000000 0.000000 0.000000 0.000000 0.000000 0.020472
#
#
# Mechanical properties :
#
#
# Convention : Reuss Voigt Hill
#
# Bulk Modulus (GPa) = 25.05093 32.06721 28.55907
# Shear Modulus (GPa) = 35.54800 42.09274 38.82037
#
# Velocity S-wave (km/s) = 3.76656 4.09865 3.93611
# Velocity P-wave (km/s) = 5.37714 5.93266 5.66171
#
# Compressibility (1/GPa) = 0.03991868
#
# Stress axis : x y z
#
# Youngs Moduli (GPa) = 98.66064 39.47355 61.61368
#
# Poissons Ratio (x) = 0.24580 0.06802
# Poissons Ratio (y) = 0.61436 -0.08876
# Poissons Ratio (z) = 0.10892 -0.05686
#
# Static dielectric constant tensor:
#      x y z
#    x 1.964870 0.000000 0.000000 
#    y 0.000000 2.137990 0.000000 
#    z 0.000000 0.000000 1.926200 
# 
# From -- ./inp_files/190.got.cif
#   From: 2010.05.17/outbox.cif.g08.bks.cpg/sg19_1_cif.got.tgz:190.got - 2010.06.03 22:46:19.
