data_PCOD9316278
_publ_section_title
;
Structure prediction by ZEFSAII (Michael W. Deem and Ramdas Pophale) SiO2 
 PCOD9316278
Probable space group: C 2 2 21
;
_chemical_formula_sum "Si O2"
_cell_formula_units_Z 52
_cell_length_a 12.235806
_cell_length_b 15.483134
_cell_length_c 12.865178
_cell_angle_alpha 90.000000
_cell_angle_beta 90.000000
_cell_angle_gamma 90.000000
_cell_volume 2437.290268
_symmetry_space_group_name_H-M "C 2 2 21"
_symmetry_group_IT_number 20
_symmetry_cell_setting 'orthorhombic'
loop_
_space_group_symop_operation_xyz
x,y,z
-x,-y,1/2+z
x,-y,-z
-x,y,1/2-z
1/2+x,1/2+y,z
1/2-x,1/2-y,1/2+z
1/2+x,1/2-y,-z
1/2-x,1/2+y,1/2-z
loop_
_atom_site_type_symbol
_atom_site_label
_atom_site_fract_x
_atom_site_fract_y
_atom_site_fract_z
Si Si1 0.283731 0.832507 0.753804
Si Si2 0.877997 0.313830 0.292179
Si Si3 0.000000 0.243405 0.750000
Si Si4 0.645558 0.422494 0.064336
Si Si5 0.743514 0.737264 0.027149
Si Si6 0.585485 0.626424 0.558895
Si Si7 0.284526 0.473743 0.215908
O O1 0.188223 0.762769 0.734262
O O2 0.399479 0.801088 0.710226
O O3 0.293234 0.822151 0.879481
O O4 0.141145 0.046742 0.816978
O O5 0.857604 0.285070 0.413132
O O6 0.813978 0.404076 0.278830
O O7 0.000000 0.318406 0.250000
O O8 0.150479 0.047871 0.611201
O O9 0.707337 0.331958 0.056472
O O10 0.699618 0.500000 0.000000
O O11 0.527920 0.404223 0.011198
O O12 0.830653 0.811225 0.999434
O O13 0.453274 0.684120 0.841832
O O14 0.753989 0.428376 0.721867
#
# Coordination Sequence:
#
# PCOD9316278 Si02
#       7
#     8   8   4   8   8   8   8
#     4   9  19  33  54  80 115 135 188 234 275 337
#     4   9  19  36  53  81 113 141 184 231 284 329
#     4  10  16  38  58  80 102 160 190 228 274 340
#     4  12  20  34  55  83 111 150 188 236 298 327
#     4   8  20  36  50  79 115 135 187 232 279 340
#     4  10  20  38  59  78 110 154 197 230 278 350
#     4  11  20  35  56  84 109 148 192 238 272 352
#
# _framework density 21.335170000000002
#
# number of rings (size 3 to 8) (size 9 to 14) (size 15 to 20)
#    0.923    1.231    4.615    0.000    1.077    3.692 
#    0.000    1.538    0.000    0.000    0.000    0.000 
#    0.000    0.000    0.000    0.000    0.000    0.000 
#
# Total GULP energy -144977.549610 kJ/mol
# GULP energy per Si atom -5576.059600 kJ/mol
# Density = 2.128661 g / cm^3
# Si number density = 21.335170 Si / 1000 Ang^3
#
#
#
# Elastic Constant Matrix: (Units=GPa)
#
#
# Indices 1 2 3 4 5 6 
#
# 1 87.8893 34.6009 -6.6560 0.0000 0.0000 0.0000
# 2 34.6009 141.3197 9.6323 0.0000 0.0000 0.0000
# 3 -6.6560 9.6323 44.9590 0.0000 0.0000 0.0000
# 4 0.0000 0.0000 0.0000 21.2769 0.0000 0.0000
# 5 0.0000 0.0000 0.0000 0.0000 12.6671 0.0000
# 6 0.0000 0.0000 0.0000 0.0000 0.0000 27.5918
#
#
#
# Elastic Compliance Matrix: (Units=1/GPa)
#
#
# Indices 1 2 3 4 5 6 
#
# 1 0.012889 -0.003335 0.002623 0.000000 0.000000 0.000000
# 2 -0.003335 0.008044 -0.002217 0.000000 0.000000 0.000000
# 3 0.002623 -0.002217 0.023106 0.000000 0.000000 0.000000
# 4 0.000000 0.000000 0.000000 0.046999 0.000000 0.000000
# 5 0.000000 0.000000 0.000000 0.000000 0.078944 0.000000
# 6 0.000000 0.000000 0.000000 0.000000 0.000000 0.036243
#
#
# Mechanical properties :
#
#
# Convention : Reuss Voigt Hill
#
# Bulk Modulus (GPa) = 26.19113 38.81361 32.50237
# Shear Modulus (GPa) = 22.24098 28.07987 25.16043
#
# Velocity S-wave (km/s) = 3.23221 3.63179 3.43781
# Velocity P-wave (km/s) = 5.12175 5.98484 5.57004
#
# Compressibility (1/GPa) = 0.03818086
#
# Stress axis : x y z
#
# Youngs Moduli (GPa) = 77.58335 124.32058 43.27931
#
# Poissons Ratio (x) = 0.41456 -0.11351
# Poissons Ratio (y) = 0.25871 0.09595
# Poissons Ratio (z) = -0.20347 0.27562
#
# Static dielectric constant tensor:
#      x y z
#    x 1.804510 0.000000 0.000000 
#    y 0.000000 1.754860 0.000000 
#    z 0.000000 0.000000 1.833790 
# 
# From -- ./inp_files/24385.got.cif
#   From: 2010.05.17/outbox.cif.g08.bks.cpg/sg20_13_cif.got.tgz:24385.got - 2010.06.03 22:52:26.
