data_PCOD9316849
_publ_section_title
;
Structure prediction by ZEFSAII (Michael W. Deem and Ramdas Pophale) SiO2 
 PCOD9316849
Probable space group: C 2 2 21
;
_chemical_formula_sum "Si O2"
_cell_formula_units_Z 56
_cell_length_a 20.866602
_cell_length_b 9.090732
_cell_length_c 14.825126
_cell_angle_alpha 90.000000
_cell_angle_beta 90.000000
_cell_angle_gamma 90.000000
_cell_volume 2812.217979
_symmetry_space_group_name_H-M "C 2 2 21"
_symmetry_group_IT_number 20
_symmetry_cell_setting 'orthorhombic'
loop_
_space_group_symop_operation_xyz
x,y,z
-x,-y,1/2+z
x,-y,-z
-x,y,1/2-z
1/2+x,1/2+y,z
1/2-x,1/2-y,1/2+z
1/2+x,1/2-y,-z
1/2-x,1/2+y,1/2-z
loop_
_atom_site_type_symbol
_atom_site_label
_atom_site_fract_x
_atom_site_fract_y
_atom_site_fract_z
Si Si1 0.186656 0.113558 0.183530
Si Si2 0.131687 0.000000 0.000000
Si Si3 0.574885 0.614224 0.581948
Si Si4 0.101986 0.368727 0.816921
Si Si5 0.694384 0.315426 0.291957
Si Si6 0.500000 0.371905 0.250000
Si Si7 0.456358 0.777399 0.512923
Si Si8 0.564740 0.191138 0.801553
O O1 0.240227 0.239575 0.177157
O O2 0.120560 0.190699 0.214105
O O3 0.202734 0.976579 0.248388
O O4 0.173436 0.048803 0.084565
O O5 0.083843 0.871323 0.027732
O O6 0.584105 0.500000 0.500000
O O7 0.640912 0.668265 0.628471
O O8 0.531813 0.547575 0.664746
O O9 0.529226 0.746522 0.545164
O O10 0.168107 0.297148 0.785232
O O11 0.053830 0.241150 0.783978
O O12 0.089270 0.527915 0.774622
O O13 0.083061 0.384645 0.921498
O O14 0.452017 0.807975 0.407662
O O15 0.500000 0.224069 0.750000
#
# Coordination Sequence:
#
# PCOD9316849 Si02
#       8
#     8   4   8   8   8   4   8   8
#     4  11  25  45  66  95 129 176 222 273 331 398
#     4  10  20  42  66  94 128 168 220 276 332 392
#     4  10  21  37  63 101 131 166 218 268 329 392
#     4  10  18  40  62  92 127 173 213 261 326 393
#     4  11  24  44  69  90 131 178 223 270 329 394
#     4   8  18  32  62  86 134 174 196 266 336 374
#     4  10  20  36  65  97 131 166 213 271 330 394
#     4  11  24  38  65 101 135 165 217 274 332 389
#
# _framework density 19.913108999999999
#
# number of rings (size 3 to 8) (size 9 to 14) (size 15 to 20)
#    0.000    1.714    2.857    1.286    2.000    0.000 
#    3.857    2.857    0.000    0.000    0.000    0.000 
#    0.000    0.000    0.000    0.000    0.000    0.000 
#
# Total GULP energy -156185.175841 kJ/mol
# GULP energy per Si atom -5578.041994 kJ/mol
# Density = 1.986779 g / cm^3
# Si number density = 19.913109 Si / 1000 Ang^3
#
#
#
# Elastic Constant Matrix: (Units=GPa)
#
#
# Indices 1 2 3 4 5 6 
#
# 1 98.1917 53.1427 50.4034 0.0000 0.0000 0.0000
# 2 53.1427 114.5239 49.5695 0.0000 0.0000 0.0000
# 3 50.4034 49.5695 97.8960 0.0000 0.0000 0.0000
# 4 0.0000 0.0000 0.0000 27.5688 0.0000 0.0000
# 5 0.0000 0.0000 0.0000 0.0000 21.9646 0.0000
# 6 0.0000 0.0000 0.0000 0.0000 0.0000 -25.4685
#
#
#
# Elastic Compliance Matrix: (Units=1/GPa)
#
#
# Indices 1 2 3 4 5 6 
#
# 1 0.015696 -0.004848 -0.005627 0.000000 0.000000 0.000000
# 2 -0.004848 0.012680 -0.003924 0.000000 0.000000 0.000000
# 3 -0.005627 -0.003924 0.015099 0.000000 0.000000 0.000000
# 4 0.000000 0.000000 0.000000 0.036273 0.000000 0.000000
# 5 0.000000 0.000000 0.000000 0.000000 0.045528 0.000000
# 6 0.000000 0.000000 0.000000 0.000000 0.000000 -0.039264
#
#
# Mechanical properties :
#
#
# Convention : Reuss Voigt Hill
#
# Bulk Modulus (GPa) = 68.13384 68.53808 68.33596
# Shear Modulus (GPa) = 41.77018 15.31272 28.54145
#
# Velocity S-wave (km/s) = 4.58495 2.77605 3.79000
# Velocity P-wave (km/s) = 7.89423 6.69093 7.31736
#
# Compressibility (1/GPa) = 0.01467700
#
# Stress axis : x y z
#
# Youngs Moduli (GPa) = 63.70913 78.86359 66.22955
#
# Poissons Ratio (x) = 0.38235 0.37265
# Poissons Ratio (y) = 0.30888 0.25991
# Poissons Ratio (z) = 0.35847 0.30949
#
# Static dielectric constant tensor:
#      x y z
#    x 1.737070 0.000000 0.000000 
#    y 0.000000 1.818850 0.000000 
#    z 0.000000 0.000000 1.763570 
# 
# From -- ./inp_files/21794.got.cif
#   From: 2010.05.17/outbox.cif.g08.bks.cpg/sg20_11_cif.got.tgz:21794.got - 2010.06.03 22:52:26.
