data_PCOD9316087
_publ_section_title
;
Structure prediction by ZEFSAII (Michael W. Deem and Ramdas Pophale) SiO2 
 PCOD9316087
Probable space group: P 21 21 21
;
_chemical_formula_sum "Si O2"
_cell_formula_units_Z 20
_cell_length_a 7.163283
_cell_length_b 14.618696
_cell_length_c 7.117246
_cell_angle_alpha 90.000000
_cell_angle_beta 90.000000
_cell_angle_gamma 90.000000
_cell_volume 745.302746
_symmetry_space_group_name_H-M "P 21 21 21"
_symmetry_group_IT_number 19
_symmetry_cell_setting 'orthorhombic'
loop_
_space_group_symop_operation_xyz
x,y,z
1/2-x,-y,1/2+z
1/2+x,1/2-y,-z
-x,1/2+y,1/2-z
loop_
_atom_site_type_symbol
_atom_site_label
_atom_site_fract_x
_atom_site_fract_y
_atom_site_fract_z
Si Si1 0.856588 0.370404 0.347438
Si Si2 0.892277 0.707553 0.263575
Si Si3 0.988442 0.016725 0.420801
Si Si4 0.460462 0.749818 0.302659
Si Si5 0.928697 0.950842 0.812963
O O1 0.998587 0.285385 0.347753
O O2 0.942129 0.607865 0.184132
O O3 0.922663 0.433253 0.521511
O O4 0.905949 0.430404 0.166182
O O5 0.338518 0.818628 0.178949
O O6 0.947073 0.716342 0.482783
O O7 0.764935 0.008242 0.387838
O O8 0.878393 0.852097 0.723008
O O9 0.012720 0.009944 0.644502
O O10 0.675598 0.735166 0.250464
#
# Coordination Sequence:
#
# PCOD9316087 Si02
#       5
#     4   4   4   4   4
#     4  12  28  54  89 135 184 252 300 384 468 559
#     4  12  26  54  95 132 189 246 304 382 474 553
#     4  12  26  55  89 141 186 245 307 389 463 564
#     4  12  26  56  90 132 184 244 307 381 464 557
#     4  12  26  53  87 130 195 237 312 380 463 551
#
# _framework density 26.834733
#
# number of rings (size 3 to 8) (size 9 to 14) (size 15 to 20)
#    0.000    0.000    8.000    0.000    2.800    0.000 
#   14.400    0.000    0.000    0.000    0.000    0.000 
#    0.000    0.000    0.000    0.000    0.000    0.000 
#
# Total GULP energy -112401.211807 kJ/mol
# GULP energy per Si atom -5620.060590 kJ/mol
# Density = 2.677366 g / cm^3
# Si number density = 26.834733 Si / 1000 Ang^3
#
#
#
# Elastic Constant Matrix: (Units=GPa)
#
#
# Indices 1 2 3 4 5 6 
#
# 1 159.4312 64.5803 67.5953 0.0000 0.0000 0.0000
# 2 64.5803 157.1712 27.4330 0.0000 0.0000 0.0000
# 3 67.5953 27.4330 151.2810 0.0000 0.0000 0.0000
# 4 0.0000 0.0000 0.0000 63.8236 0.0000 0.0000
# 5 0.0000 0.0000 0.0000 0.0000 49.5070 0.0000
# 6 0.0000 0.0000 0.0000 0.0000 0.0000 52.9705
#
#
#
# Elastic Compliance Matrix: (Units=1/GPa)
#
#
# Indices 1 2 3 4 5 6 
#
# 1 0.008990 -0.003090 -0.003456 0.000000 0.000000 0.000000
# 2 -0.003090 0.007633 -0.000003 0.000000 0.000000 0.000000
# 3 -0.003456 -0.000003 0.008155 0.000000 0.000000 0.000000
# 4 0.000000 0.000000 0.000000 0.015668 0.000000 0.000000
# 5 0.000000 0.000000 0.000000 0.000000 0.020199 0.000000
# 6 0.000000 0.000000 0.000000 0.000000 0.000000 0.018878
#
#
# Mechanical properties :
#
#
# Convention : Reuss Voigt Hill
#
# Bulk Modulus (GPa) = 85.63419 87.45562 86.54491
# Shear Modulus (GPa) = 51.80497 53.81187 52.80842
#
# Velocity S-wave (km/s) = 4.39853 4.48292 4.44093
# Velocity P-wave (km/s) = 7.60113 7.71082 7.65617
#
# Compressibility (1/GPa) = 0.01167758
#
# Stress axis : x y z
#
# Youngs Moduli (GPa) = 111.24067 131.01183 122.62209
#
# Poissons Ratio (x) = 0.40489 0.42382
# Poissons Ratio (y) = 0.34378 0.00040
# Poissons Ratio (z) = 0.38448 0.00043
#
# Static dielectric constant tensor:
#      x y z
#    x 2.102590 0.000000 0.000000 
#    y 0.000000 2.033800 0.000000 
#    z 0.000000 0.000000 2.136390 
# 
# From -- ./inp_files/2735.got.cif
#   From: 2010.05.17/outbox.cif.g08.bks.cpg/sg19_2_cif.got.tgz:2735.got - 2010.06.03 22:46:19.
