data_PCOD9316172
_publ_section_title
;
Structure prediction by ZEFSAII (Michael W. Deem and Ramdas Pophale) SiO2 
 PCOD9316172
Probable space group: P 21 21 21
;
_chemical_formula_sum "Si O2"
_cell_formula_units_Z 28
_cell_length_a 18.000000
_cell_length_b 6.000000
_cell_length_c 12.000000
_cell_angle_alpha 90.000000
_cell_angle_beta 90.000000
_cell_angle_gamma 90.000000
_cell_volume 1296.000000
_symmetry_space_group_name_H-M "P 21 21 21"
_symmetry_group_IT_number 19
_symmetry_cell_setting 'orthorhombic'
loop_
_space_group_symop_operation_xyz
x,y,z
1/2-x,-y,1/2+z
1/2+x,1/2-y,-z
-x,1/2+y,1/2-z
loop_
_atom_site_type_symbol
_atom_site_label
_atom_site_fract_x
_atom_site_fract_y
_atom_site_fract_z
Si Si1 0.359755 0.586006 0.959190
Si Si2 0.594145 0.040122 0.136297
Si Si3 0.833122 0.839372 0.411218
Si Si4 0.540310 0.256046 0.740187
Si Si5 0.242371 0.650860 0.275102
Si Si6 0.069580 0.737324 0.646242
Si Si7 0.783520 0.526691 0.901347
O O1 0.416212 0.716392 0.876640
O O2 0.311451 0.417756 0.878852
O O3 0.405802 0.453536 0.055625
O O4 0.304970 0.765708 0.018189
O O5 0.670333 0.129566 0.194675
O O6 0.515758 0.177894 0.127256
O O7 0.573415 0.844611 0.224539
O O8 0.627197 0.018759 0.010194
O O9 0.900234 0.734415 0.340229
O O10 0.775269 0.649495 0.453106
O O11 0.785075 0.982755 0.322729
O O12 0.500746 0.506274 0.741301
O O13 0.241861 0.887873 0.211431
O O14 0.136531 0.915900 0.628535
#
# Coordination Sequence:
#
# PCOD9316172 Si02
#       7
#     4   4   4   4   4   4   4
#     4  11  27  49  79 108 162 200 271 338 396 494
#     4  12  25  48  72 107 158 196 255 326 393 493
#     4  11  27  47  78 113 155 208 269 331 404 488
#     4  11  28  51  81 120 162 211 269 340 417 488
#     4  11  24  50  73 112 148 200 266 329 393 477
#     4  12  27  49  73 115 155 210 259 325 417 479
#     4  12  24  50  78 113 148 211 267 329 412 485
#
# _framework density 21.604938000000001
#
# number of rings (size 3 to 8) (size 9 to 14) (size 15 to 20)
#    0.000    0.571    2.857    3.429    8.000    3.429 
#   10.286    0.000    0.000    0.000    0.000    0.000 
#    0.000    0.000    0.000    0.000    0.000    0.000 
#
# Total GULP energy -156285.461068 kJ/mol
# GULP energy per Si atom -5581.623610 kJ/mol
# Density = 2.155576 g / cm^3
# Si number density = 21.604938 Si / 1000 Ang^3
#
#
#
# Elastic Constant Matrix: (Units=GPa)
#
#
# Indices 1 2 3 4 5 6 
#
# 1 149.3061 45.7902 41.9998 0.0000 0.0000 0.0000
# 2 45.7902 81.7223 36.3360 0.0000 0.0000 0.0000
# 3 41.9998 36.3360 133.0413 0.0000 0.0000 0.0000
# 4 0.0000 0.0000 0.0000 41.0832 0.0000 0.0000
# 5 0.0000 0.0000 0.0000 0.0000 59.2930 0.0000
# 6 0.0000 0.0000 0.0000 0.0000 0.0000 48.1460
#
#
#
# Elastic Compliance Matrix: (Units=1/GPa)
#
#
# Indices 1 2 3 4 5 6 
#
# 1 0.008358 -0.003995 -0.001547 0.000000 0.000000 0.000000
# 2 -0.003995 0.015838 -0.003064 0.000000 0.000000 0.000000
# 3 -0.001547 -0.003064 0.008842 0.000000 0.000000 0.000000
# 4 0.000000 0.000000 0.000000 0.024341 0.000000 0.000000
# 5 0.000000 0.000000 0.000000 0.000000 0.016865 0.000000
# 6 0.000000 0.000000 0.000000 0.000000 0.000000 0.020770
#
#
# Mechanical properties :
#
#
# Convention : Reuss Voigt Hill
#
# Bulk Modulus (GPa) = 63.19577 68.03575 65.61576
# Shear Modulus (GPa) = 42.55226 45.70070 44.12648
#
# Velocity S-wave (km/s) = 4.44279 4.60422 4.52422
# Velocity P-wave (km/s) = 7.45868 7.73462 7.59790
#
# Compressibility (1/GPa) = 0.01582384
#
# Stress axis : x y z
#
# Youngs Moduli (GPa) = 119.64270 63.14084 113.09805
#
# Poissons Ratio (x) = 0.25226 0.17501
# Poissons Ratio (y) = 0.47800 0.34657
# Poissons Ratio (z) = 0.18514 0.19348
#
# Static dielectric constant tensor:
#      x y z
#    x 1.774260 0.000000 0.000000 
#    y 0.000000 1.833420 0.000000 
#    z 0.000000 0.000000 1.821470 
# 
# From -- ./inp_files/5341.got.cif
#   From: 2010.05.17/outbox.ucp.g08.bks.cvg/sg19_3_cif.got.tgz:5341.got - 2010.06.11 13:13:52.
