data_PCOD9316847
_publ_section_title
;
Structure prediction by ZEFSAII (Michael W. Deem and Ramdas Pophale) SiO2 
 PCOD9316847
Probable space group: C 2 2 21
;
_chemical_formula_sum "Si O2"
_cell_formula_units_Z 52
_cell_length_a 11.053629
_cell_length_b 15.239638
_cell_length_c 14.620890
_cell_angle_alpha 90.000000
_cell_angle_beta 90.000000
_cell_angle_gamma 90.000000
_cell_volume 2462.937236
_symmetry_space_group_name_H-M "C 2 2 21"
_symmetry_group_IT_number 20
_symmetry_cell_setting 'orthorhombic'
loop_
_space_group_symop_operation_xyz
x,y,z
-x,-y,1/2+z
x,-y,-z
-x,y,1/2-z
1/2+x,1/2+y,z
1/2-x,1/2-y,1/2+z
1/2+x,1/2-y,-z
1/2-x,1/2+y,1/2-z
loop_
_atom_site_type_symbol
_atom_site_label
_atom_site_fract_x
_atom_site_fract_y
_atom_site_fract_z
Si Si1 0.745929 0.449530 0.222275
Si Si2 0.754036 0.157531 0.245187
Si Si3 0.080131 0.301383 0.341019
Si Si4 0.000000 0.258444 0.750000
Si Si5 0.850000 0.854955 0.105724
Si Si6 0.084681 0.921281 0.060615
Si Si7 0.351196 0.738285 0.438717
O O1 0.753096 0.552371 0.245121
O O2 0.842467 0.392281 0.162093
O O3 0.733490 0.399552 0.317832
O O4 0.624300 0.437106 0.163952
O O5 0.838485 0.213728 0.175613
O O6 0.617537 0.186685 0.222506
O O7 0.804883 0.191563 0.344215
O O8 0.000000 0.309044 0.250000
O O9 0.980924 0.284183 0.419877
O O10 0.056074 0.204513 0.664880
O O11 0.758666 0.803558 0.041359
O O12 0.940244 0.918674 0.054746
O O13 0.134301 0.832613 0.017111
O O14 0.135177 0.000000 0.000000
#
# Coordination Sequence:
#
# PCOD9316847 Si02
#       7
#     8   8   8   4   8   8   8
#     4  12  22  39  66  93 122 167 215 254 305 387
#     4  10  21  35  63  91 125 156 211 257 305 371
#     4  10  20  40  62  90 124 162 208 257 317 368
#     4  10  18  40  60  92 118 162 212 260 298 364
#     4  11  22  42  64  87 122 168 214 256 309 384
#     4  12  25  39  59  91 127 165 208 260 323 366
#     4  10  23  41  57  89 126 161 207 258 322 377
#
# _framework density 21.113002999999999
#
# number of rings (size 3 to 8) (size 9 to 14) (size 15 to 20)
#    0.000    1.231    7.692    0.000    5.385    1.231 
#    0.000    0.000    0.000    0.923    0.000    0.000 
#    0.000    0.000    0.000    0.000    0.000    0.000 
#
# Total GULP energy -144954.112791 kJ/mol
# GULP energy per Si atom -5575.158184 kJ/mol
# Density = 2.106495 g / cm^3
# Si number density = 21.113003 Si / 1000 Ang^3
#
#
#
# Elastic Constant Matrix: (Units=GPa)
#
#
# Indices 1 2 3 4 5 6 
#
# 1 129.2331 61.8092 3.6612 0.0000 0.0000 0.0000
# 2 61.8092 129.0243 11.1121 0.0000 0.0000 0.0000
# 3 3.6612 11.1121 28.7889 0.0000 0.0000 0.0000
# 4 0.0000 0.0000 0.0000 10.8438 0.0000 0.0000
# 5 0.0000 0.0000 0.0000 0.0000 19.4576 0.0000
# 6 0.0000 0.0000 0.0000 0.0000 0.0000 14.4675
#
#
#
# Elastic Compliance Matrix: (Units=1/GPa)
#
#
# Indices 1 2 3 4 5 6 
#
# 1 0.010048 -0.004865 0.000600 0.000000 0.000000 0.000000
# 2 -0.004865 0.010373 -0.003385 0.000000 0.000000 0.000000
# 3 0.000600 -0.003385 0.035966 0.000000 0.000000 0.000000
# 4 0.000000 0.000000 0.000000 0.092219 0.000000 0.000000
# 5 0.000000 0.000000 0.000000 0.000000 0.051394 0.000000
# 6 0.000000 0.000000 0.000000 0.000000 0.000000 0.069120
#
#
# Mechanical properties :
#
#
# Convention : Reuss Voigt Hill
#
# Bulk Modulus (GPa) = 24.33909 48.91237 36.62573
# Shear Modulus (GPa) = 16.77207 22.98471 19.87839
#
# Velocity S-wave (km/s) = 2.82156 3.30305 3.07175
# Velocity P-wave (km/s) = 4.70829 6.14525 5.47412
#
# Compressibility (1/GPa) = 0.04108618
#
# Stress axis : x y z
#
# Youngs Moduli (GPa) = 99.52418 96.40761 27.80420
#
# Poissons Ratio (x) = 0.46903 -0.01668
# Poissons Ratio (y) = 0.48419 0.09412
# Poissons Ratio (z) = -0.05972 0.32634
#
# Static dielectric constant tensor:
#      x y z
#    x 1.800710 0.000000 0.000000 
#    y 0.000000 1.847460 0.000000 
#    z 0.000000 0.000000 1.752180 
# 
# From -- ./inp_files/24383.got.cif
#   From: 2010.05.17/outbox.cif.g08.bks.cpg/sg20_13_cif.got.tgz:24383.got - 2010.06.03 22:52:26.
