data_PCOD9316692
_publ_section_title
;
Structure prediction by ZEFSAII (Michael W. Deem and Ramdas Pophale) SiO2 
 PCOD9316692
Probable space group: C 2 2 21
;
_chemical_formula_sum "Si O2"
_cell_formula_units_Z 44
_cell_length_a 11.377985
_cell_length_b 17.626559
_cell_length_c 12.623086
_cell_angle_alpha 90.000000
_cell_angle_beta 90.000000
_cell_angle_gamma 90.000000
_cell_volume 2531.619528
_symmetry_space_group_name_H-M "C 2 2 21"
_symmetry_group_IT_number 20
_symmetry_cell_setting 'orthorhombic'
loop_
_space_group_symop_operation_xyz
x,y,z
-x,-y,1/2+z
x,-y,-z
-x,y,1/2-z
1/2+x,1/2+y,z
1/2-x,1/2-y,1/2+z
1/2+x,1/2-y,-z
1/2-x,1/2+y,1/2-z
loop_
_atom_site_type_symbol
_atom_site_label
_atom_site_fract_x
_atom_site_fract_y
_atom_site_fract_z
Si Si1 0.179048 0.482009 0.376446
Si Si2 0.662127 0.155159 0.329800
Si Si3 0.875089 0.871764 0.286302
Si Si4 0.500000 0.120100 0.750000
Si Si5 0.300810 0.204412 0.621939
Si Si6 0.413633 0.212638 0.397084
O O1 0.171428 0.500000 0.500000
O O2 0.181213 0.566150 0.330135
O O3 0.291439 0.432289 0.342660
O O4 0.069506 0.433934 0.331565
O O5 0.770406 0.206832 0.366808
O O6 0.548891 0.183064 0.399516
O O7 0.636263 0.175034 0.208611
O O8 0.808000 0.838140 0.181564
O O9 0.903219 0.801796 0.366395
O O10 0.000000 0.903841 0.250000
O O11 0.409806 0.173930 0.689234
O O12 0.337480 0.191989 0.499974
#
# Coordination Sequence:
#
# PCOD9316692 Si02
#       6
#     8   8   8   4   8   8
#     4  11  22  37  59  84 118 155 189 239 298 344
#     4  10  20  36  55  88 110 147 198 234 280 352
#     4  10  20  41  58  84 121 157 191 235 299 361
#     4  10  22  36  56  88 120 140 198 246 282 342
#     4  10  20  36  60  87 111 150 194 245 285 338
#     4  10  18  35  62  80 112 153 195 234 287 347
#
# _framework density 17.380179999999999
#
# number of rings (size 3 to 8) (size 9 to 14) (size 15 to 20)
#    0.000    1.818    3.636    3.273    0.000    2.909 
#    1.636    4.545    0.000    0.000    0.000    0.000 
#    0.000    0.000    0.000    0.000    0.000    0.000 
#
# Total GULP energy -122563.398230 kJ/mol
# GULP energy per Si atom -5571.063556 kJ/mol
# Density = 1.734062 g / cm^3
# Si number density = 17.380180 Si / 1000 Ang^3
#
#
#
# Elastic Constant Matrix: (Units=GPa)
#
#
# Indices 1 2 3 4 5 6 
#
# 1 104.0673 43.2230 35.2400 0.0000 0.0000 0.0000
# 2 43.2230 95.6228 4.1971 0.0000 0.0000 0.0000
# 3 35.2400 4.1971 80.7668 0.0000 0.0000 0.0000
# 4 0.0000 0.0000 0.0000 51.9284 0.0000 0.0000
# 5 0.0000 0.0000 0.0000 0.0000 16.2226 0.0000
# 6 0.0000 0.0000 0.0000 0.0000 0.0000 21.0738
#
#
#
# Elastic Compliance Matrix: (Units=1/GPa)
#
#
# Indices 1 2 3 4 5 6 
#
# 1 0.014138 -0.006134 -0.005850 0.000000 0.000000 0.000000
# 2 -0.006134 0.013143 0.001993 0.000000 0.000000 0.000000
# 3 -0.005850 0.001993 0.014830 0.000000 0.000000 0.000000
# 4 0.000000 0.000000 0.000000 0.019257 0.000000 0.000000
# 5 0.000000 0.000000 0.000000 0.000000 0.061642 0.000000
# 6 0.000000 0.000000 0.000000 0.000000 0.000000 0.047452
#
#
# Mechanical properties :
#
#
# Convention : Reuss Voigt Hill
#
# Bulk Modulus (GPa) = 45.18721 49.53079 47.35900
# Shear Modulus (GPa) = 25.27560 31.03143 28.15351
#
# Velocity S-wave (km/s) = 3.81764 4.23004 4.02912
# Velocity P-wave (km/s) = 6.74449 7.24003 6.99665
#
# Compressibility (1/GPa) = 0.02213016
#
# Stress axis : x y z
#
# Youngs Moduli (GPa) = 70.73354 76.08751 67.43048
#
# Poissons Ratio (x) = 0.46669 0.39445
# Poissons Ratio (y) = 0.43385 -0.13440
# Poissons Ratio (z) = 0.41377 -0.15166
#
# Static dielectric constant tensor:
#      x y z
#    x 1.614450 0.000000 0.000000 
#    y 0.000000 1.623260 0.000000 
#    z 0.000000 0.000000 1.537640 
# 
# From -- ./inp_files/14037.got.cif
#   From: 2010.05.17/outbox.cif.g08.bks.cpg/sg20_8_cif.got.tgz:14037.got - 2010.06.03 22:52:26.
