data_PCOD9316220
_publ_section_title
;
Structure prediction by ZEFSAII (Michael W. Deem and Ramdas Pophale) SiO2 
 PCOD9316220
Probable space group: C 2 2 21
;
_chemical_formula_sum "Si O2"
_cell_formula_units_Z 40
_cell_length_a 9.990937
_cell_length_b 24.841638
_cell_length_c 7.963305
_cell_angle_alpha 90.000000
_cell_angle_beta 90.000000
_cell_angle_gamma 90.000000
_cell_volume 1976.422544
_symmetry_space_group_name_H-M "C 2 2 21"
_symmetry_group_IT_number 20
_symmetry_cell_setting 'orthorhombic'
loop_
_space_group_symop_operation_xyz
x,y,z
-x,-y,1/2+z
x,-y,-z
-x,y,1/2-z
1/2+x,1/2+y,z
1/2-x,1/2-y,1/2+z
1/2+x,1/2-y,-z
1/2-x,1/2+y,1/2-z
loop_
_atom_site_type_symbol
_atom_site_label
_atom_site_fract_x
_atom_site_fract_y
_atom_site_fract_z
Si Si1 0.429899 0.385966 0.995720
Si Si2 0.641839 0.817322 0.341713
Si Si3 0.200817 0.920887 0.148240
Si Si4 0.150471 0.978978 0.689934
Si Si5 0.117007 0.772597 0.385684
O O1 0.578747 0.411084 0.018344
O O2 0.358709 0.400771 0.172155
O O3 0.428989 0.321810 0.992725
O O4 0.351284 0.415105 0.844853
O O5 0.500000 0.816944 0.250000
O O6 0.683567 0.878390 0.388152
O O7 0.751752 0.791910 0.214931
O O8 0.640092 0.780092 0.505480
O O9 0.235467 0.983417 0.185238
O O10 0.000000 0.992307 0.750000
O O11 0.171413 0.000000 0.500000
O O12 0.000000 0.765262 0.250000
#
# Coordination Sequence:
#
# PCOD9316220 Si02
#       5
#     8   8   8   8   8
#     4   9  16  31  55  81 112 151 190 258 305 346
#     4  11  23  36  61  89 122 177 205 258 328 380
#     4   9  16  33  51  81 119 150 193 248 310 365
#     4  10  16  28  53  86 112 145 192 259 310 354
#     4  11  21  41  60  87 126 163 221 269 305 380
#
# _framework density 20.238588
#
# number of rings (size 3 to 8) (size 9 to 14) (size 15 to 20)
#    0.000    2.000    8.000    1.200    0.000    0.800 
#    0.000    0.000    0.000    0.000   26.000    0.000 
#    0.000    0.000    0.000    0.000    0.000    0.000 
#
# Total GULP energy -111417.562843 kJ/mol
# GULP energy per Si atom -5570.878142 kJ/mol
# Density = 2.019252 g / cm^3
# Si number density = 20.238588 Si / 1000 Ang^3
#
#
#
# Elastic Constant Matrix: (Units=GPa)
#
#
# Indices 1 2 3 4 5 6 
#
# 1 88.1552 32.4973 28.4264 0.0000 0.0000 0.0000
# 2 32.4973 138.9763 66.7771 0.0000 0.0000 0.0000
# 3 28.4264 66.7771 81.9837 0.0000 0.0000 0.0000
# 4 0.0000 0.0000 0.0000 23.7518 0.0000 0.0000
# 5 0.0000 0.0000 0.0000 0.0000 16.2539 0.0000
# 6 0.0000 0.0000 0.0000 0.0000 0.0000 31.3010
#
#
#
# Elastic Compliance Matrix: (Units=1/GPa)
#
#
# Indices 1 2 3 4 5 6 
#
# 1 0.012942 -0.001430 -0.003323 0.000000 0.000000 0.000000
# 2 -0.001430 0.011980 -0.009262 0.000000 0.000000 0.000000
# 3 -0.003323 -0.009262 0.020894 0.000000 0.000000 0.000000
# 4 0.000000 0.000000 0.000000 0.042102 0.000000 0.000000
# 5 0.000000 0.000000 0.000000 0.000000 0.061524 0.000000
# 6 0.000000 0.000000 0.000000 0.000000 0.000000 0.031948
#
#
# Mechanical properties :
#
#
# Convention : Reuss Voigt Hill
#
# Bulk Modulus (GPa) = 56.22258 62.72409 59.47333
# Shear Modulus (GPa) = 23.21806 26.35561 24.78684
#
# Velocity S-wave (km/s) = 3.39073 3.61258 3.50341
# Velocity P-wave (km/s) = 6.57036 6.96136 6.76869
#
# Compressibility (1/GPa) = 0.01778645
#
# Stress axis : x y z
#
# Youngs Moduli (GPa) = 77.26672 83.47021 47.86019
#
# Poissons Ratio (x) = 0.11933 0.15904
# Poissons Ratio (y) = 0.11046 0.44330
# Poissons Ratio (z) = 0.25676 0.77314
#
# Static dielectric constant tensor:
#      x y z
#    x 1.684300 0.000000 0.000000 
#    y 0.000000 1.839680 0.000000 
#    z 0.000000 0.000000 1.758940 
# 
# From -- ./inp_files/6341.got.cif
#   From: 2010.05.17/outbox.cif.g08.bks.cpg/sg20_4_cif.got.tgz:6341.got - 2010.06.03 22:52:26.
