data_PCOD9316114
_publ_section_title
;
Structure prediction by ZEFSAII (Michael W. Deem and Ramdas Pophale) SiO2 
 PCOD9316114
Probable space group: P 21 21 21
;
_chemical_formula_sum "Si O2"
_cell_formula_units_Z 20
_cell_length_a 11.604575
_cell_length_b 7.781040
_cell_length_c 8.770322
_cell_angle_alpha 90.000000
_cell_angle_beta 90.000000
_cell_angle_gamma 90.000000
_cell_volume 791.922033
_symmetry_space_group_name_H-M "P 21 21 21"
_symmetry_group_IT_number 19
_symmetry_cell_setting 'orthorhombic'
loop_
_space_group_symop_operation_xyz
x,y,z
1/2-x,-y,1/2+z
1/2+x,1/2-y,-z
-x,1/2+y,1/2-z
loop_
_atom_site_type_symbol
_atom_site_label
_atom_site_fract_x
_atom_site_fract_y
_atom_site_fract_z
Si Si1 0.014621 0.478954 0.506781
Si Si2 0.385669 0.267837 0.699588
Si Si3 0.393868 0.980545 0.919249
Si Si4 0.997008 0.146836 0.708090
Si Si5 0.251879 0.650084 0.927582
O O1 0.983404 0.638282 0.611756
O O2 0.135275 0.470168 0.414608
O O3 0.915039 0.404463 0.401707
O O4 0.024400 0.332683 0.637658
O O5 0.371784 0.171473 0.859240
O O6 0.496037 0.388705 0.664786
O O7 0.283204 0.353459 0.606266
O O8 0.293368 0.842909 0.888363
O O9 0.423719 0.971905 0.098914
O O10 0.862919 0.110282 0.666426
#
# Coordination Sequence:
#
# PCOD9316114 Si02
#       5
#     4   4   4   4   4
#     4   9  19  35  52  72 100 131 163 201 244 290
#     4   9  19  35  52  72 100 131 163 201 244 290
#     4   9  19  35  52  72 100 131 163 201 244 290
#     4   9  19  35  52  72 100 131 163 201 244 290
#     4   8  18  32  52  74 100 128 162 204 244 286
#
# _framework density 25.255012000000001
#
# number of rings (size 3 to 8) (size 9 to 14) (size 15 to 20)
#    0.000    4.000    0.000    0.000    0.000   14.400 
#    0.000    0.000    0.000    0.000    0.000    0.000 
#    0.000    0.000    0.000    0.000    0.000    0.000 
#
# Total GULP energy -111579.420343 kJ/mol
# GULP energy per Si atom -5578.971017 kJ/mol
# Density = 2.519753 g / cm^3
# Si number density = 25.255012 Si / 1000 Ang^3
#
#
#
# Elastic Constant Matrix: (Units=GPa)
#
#
# Indices 1 2 3 4 5 6 
#
# 1 71.8120 -14.2471 -0.1304 0.0000 0.0000 0.0000
# 2 -14.2471 66.6634 -2.1755 0.0000 0.0000 0.0000
# 3 -0.1304 -2.1755 33.2352 0.0000 0.0000 0.0000
# 4 0.0000 0.0000 0.0000 52.4758 0.0000 0.0000
# 5 0.0000 0.0000 0.0000 0.0000 34.4470 0.0000
# 6 0.0000 0.0000 0.0000 0.0000 0.0000 16.5987
#
#
#
# Elastic Compliance Matrix: (Units=1/GPa)
#
#
# Indices 1 2 3 4 5 6 
#
# 1 0.014544 0.003117 0.000261 0.000000 0.000000 0.000000
# 2 0.003117 0.015701 0.001040 0.000000 0.000000 0.000000
# 3 0.000261 0.001040 0.030158 0.000000 0.000000 0.000000
# 4 0.000000 0.000000 0.000000 0.019056 0.000000 0.000000
# 5 0.000000 0.000000 0.000000 0.000000 0.029030 0.000000
# 6 0.000000 0.000000 0.000000 0.000000 0.000000 0.060246
#
#
# Mechanical properties :
#
#
# Convention : Reuss Voigt Hill
#
# Bulk Modulus (GPa) = 14.44288 15.40052 14.92170
# Shear Modulus (GPa) = 27.32559 33.25519 30.29039
#
# Velocity S-wave (km/s) = 3.29293 3.63268 3.46697
# Velocity P-wave (km/s) = 4.49322 4.86892 4.68484
#
# Compressibility (1/GPa) = 0.06923829
#
# Stress axis : x y z
#
# Youngs Moduli (GPa) = 68.75648 63.69103 33.15905
#
# Poissons Ratio (x) = -0.19852 -0.00866
# Poissons Ratio (y) = -0.21430 -0.03448
# Poissons Ratio (z) = -0.01795 -0.06624
#
# Static dielectric constant tensor:
#      x y z
#    x 1.980340 0.000000 0.000000 
#    y 0.000000 2.091670 0.000000 
#    z 0.000000 0.000000 2.210960 
# 
# From -- ./inp_files/3300.got.cif
#   From: 2010.05.17/outbox.cif.g08.bks.cpg/sg19_2_cif.got.tgz:3300.got - 2010.06.03 22:46:19.
