data_PCOD9316507
_publ_section_title
;
Structure prediction by ZEFSAII (Michael W. Deem and Ramdas Pophale) SiO2 
 PCOD9316507
Probable space group: C 2 2 21
;
_chemical_formula_sum "Si O2"
_cell_formula_units_Z 56
_cell_length_a 14.950881
_cell_length_b 32.143336
_cell_length_c 5.257403
_cell_angle_alpha 90.000000
_cell_angle_beta 90.000000
_cell_angle_gamma 90.000000
_cell_volume 2526.556424
_symmetry_space_group_name_H-M "C 2 2 21"
_symmetry_group_IT_number 20
_symmetry_cell_setting 'orthorhombic'
loop_
_space_group_symop_operation_xyz
x,y,z
-x,-y,1/2+z
x,-y,-z
-x,y,1/2-z
1/2+x,1/2+y,z
1/2-x,1/2-y,1/2+z
1/2+x,1/2-y,-z
1/2-x,1/2+y,1/2-z
loop_
_atom_site_type_symbol
_atom_site_label
_atom_site_fract_x
_atom_site_fract_y
_atom_site_fract_z
Si Si1 0.748442 0.725178 0.040984
Si Si2 0.659109 0.514914 0.748229
Si Si3 0.407827 0.167632 0.839657
Si Si4 0.639353 0.021626 0.247232
Si Si5 0.338362 0.352302 0.768685
Si Si6 0.101168 0.103915 0.767848
Si Si7 0.134147 0.381068 0.826139
O O1 0.714646 0.751908 0.797307
O O2 0.827018 0.698740 0.903122
O O3 0.674514 0.694721 0.167249
O O4 0.609597 0.500000 0.500000
O O5 0.753527 0.489475 0.748050
O O6 0.667982 0.564616 0.741722
O O7 0.611654 0.500000 0.000000
O O8 0.500000 0.188785 0.750000
O O9 0.385616 0.136150 0.608066
O O10 0.418131 0.142195 0.100359
O O11 0.623521 0.070173 0.218055
O O12 0.604803 0.000000 0.500000
O O13 0.601526 0.000000 0.000000
O O14 0.387554 0.376499 0.544406
O O15 0.237867 0.369898 0.780869
O O16 0.379931 0.362676 0.043739
O O17 0.000000 0.088124 0.750000
#
# Coordination Sequence:
#
# PCOD9316507 Si02
#       7
#     8   8   8   8   8   8   8
#     4  11  23  43  71 101 129 161 207 258 313 390
#     4  10  20  33  52  80 118 161 215 269 315 359
#     4  11  24  43  69 101 131 163 206 260 323 380
#     4  10  18  31  54  86 117 156 215 267 309 359
#     4  11  22  41  64  89 122 167 218 260 311 383
#     4  12  24  39  59  88 131 175 220 273 321 372
#     4  11  21  38  67  93 123 169 218 265 308 379
#
# _framework density 22.164553000000002
#
# number of rings (size 3 to 8) (size 9 to 14) (size 15 to 20)
#    0.000    1.143    0.000   10.286    0.000    0.571 
#    0.000    2.857    0.000    8.571    0.000    0.000 
#    0.000    0.000    0.000    0.000    0.000    0.000 
#
# Total GULP energy -156347.972228 kJ/mol
# GULP energy per Si atom -5583.856151 kJ/mol
# Density = 2.211411 g / cm^3
# Si number density = 22.164553 Si / 1000 Ang^3
#
#
#
# Elastic Constant Matrix: (Units=GPa)
#
#
# Indices 1 2 3 4 5 6 
#
# 1 61.2598 -2.2799 9.0442 0.0000 0.0000 0.0000
# 2 -2.2799 75.1451 26.7845 0.0000 0.0000 0.0000
# 3 9.0442 26.7845 190.3940 0.0000 0.0000 0.0000
# 4 0.0000 0.0000 0.0000 -80.8773 0.0000 0.0000
# 5 0.0000 0.0000 0.0000 0.0000 22.2425 0.0000
# 6 0.0000 0.0000 0.0000 0.0000 0.0000 -0.4813
#
#
#
# Elastic Compliance Matrix: (Units=1/GPa)
#
#
# Indices 1 2 3 4 5 6 
#
# 1 0.016487 0.000821 -0.000899 0.000000 0.000000 0.000000
# 2 0.000821 0.014051 -0.002016 0.000000 0.000000 0.000000
# 3 -0.000899 -0.002016 0.005579 0.000000 0.000000 0.000000
# 4 0.000000 0.000000 0.000000 -0.012364 0.000000 0.000000
# 5 0.000000 0.000000 0.000000 0.000000 0.044959 0.000000
# 6 0.000000 0.000000 0.000000 0.000000 0.000000 -2.077589
#
#
# Mechanical properties :
#
#
# Convention : Reuss Voigt Hill
#
# Bulk Modulus (GPa) = 31.31940 43.76628 37.54284
# Shear Modulus (GPa) = -2.50746 7.72680 2.60967
#
# Velocity S-wave (km/s) = -1.06478 1.86914 1.08626
# Velocity P-wave (km/s) = 3.55660 4.94441 4.30677
#
# Compressibility (1/GPa) = 0.03192910
#
# Stress axis : x y z
#
# Youngs Moduli (GPa) = 60.65337 71.16966 179.25925
#
# Poissons Ratio (x) = -0.05840 0.16109
# Poissons Ratio (y) = -0.04977 0.36132
# Poissons Ratio (z) = 0.05450 0.14345
#
# Static dielectric constant tensor:
#      x y z
#    x 2.002180 0.000000 0.000000 
#    y 0.000000 1.859880 0.000000 
#    z 0.000000 0.000000 1.845600 
# 
# From -- ./inp_files/2242.got.cif
#   From: 2010.05.17/outbox.cif.g08.bks.cpg/sg20_2_cif.got.tgz:2242.got - 2010.06.03 22:52:26.
