data_PCOD9316463
_publ_section_title
;
Structure prediction by ZEFSAII (Michael W. Deem and Ramdas Pophale) SiO2 
 PCOD9316463
Probable space group: C 2 2 21
;
_chemical_formula_sum "Si O2"
_cell_formula_units_Z 48
_cell_length_a 9.182090
_cell_length_b 22.348497
_cell_length_c 13.247963
_cell_angle_alpha 90.000000
_cell_angle_beta 90.000000
_cell_angle_gamma 90.000000
_cell_volume 2718.560314
_symmetry_space_group_name_H-M "C 2 2 21"
_symmetry_group_IT_number 20
_symmetry_cell_setting 'orthorhombic'
loop_
_space_group_symop_operation_xyz
x,y,z
-x,-y,1/2+z
x,-y,-z
-x,y,1/2-z
1/2+x,1/2+y,z
1/2-x,1/2-y,1/2+z
1/2+x,1/2-y,-z
1/2-x,1/2+y,1/2-z
loop_
_atom_site_type_symbol
_atom_site_label
_atom_site_fract_x
_atom_site_fract_y
_atom_site_fract_z
Si Si1 0.670549 0.623550 0.730364
Si Si2 0.667433 0.763232 0.712923
Si Si3 0.810704 0.432930 0.466371
Si Si4 0.953013 0.727871 0.004161
Si Si5 0.423157 0.882391 0.140827
Si Si6 0.743702 0.682681 0.412483
O O1 0.500000 0.621070 0.750000
O O2 0.714051 0.693644 0.713758
O O3 0.717296 0.587754 0.630780
O O4 0.759898 0.600994 0.827911
O O5 0.500000 0.763270 0.750000
O O6 0.652200 0.786309 0.599159
O O7 0.755054 0.802426 0.793667
O O8 0.782091 0.500000 0.500000
O O9 0.777265 0.384804 0.554315
O O10 0.978234 0.424822 0.429063
O O11 0.119009 0.720630 0.041416
O O12 0.926833 0.680924 0.915377
O O13 0.902302 0.792286 0.964197
O O14 0.500000 0.878650 0.250000
#
# Coordination Sequence:
#
# PCOD9316463 Si02
#       6
#     8   8   8   8   8   8
#     4  10  18  33  59  82 104 140 191 235 275 337
#     4   9  17  29  48  81 110 135 175 229 289 320
#     4  10  21  37  54  79 115 156 187 219 277 345
#     4  10  18  30  49  78 111 135 180 231 283 321
#     4   9  19  34  54  81 106 144 188 229 276 333
#     4  10  19  31  53  79 111 140 180 230 278 323
#
# _framework density 17.656403000000001
#
# number of rings (size 3 to 8) (size 9 to 14) (size 15 to 20)
#    0.000    2.333    3.333    0.000    0.000    0.000 
#    0.000   13.333    0.000    3.000    0.000    0.000 
#    0.000    0.000    0.000    0.000    0.000    0.000 
#
# Total GULP energy -133707.494335 kJ/mol
# GULP energy per Si atom -5571.145597 kJ/mol
# Density = 1.761622 g / cm^3
# Si number density = 17.656403 Si / 1000 Ang^3
#
#
#
# Elastic Constant Matrix: (Units=GPa)
#
#
# Indices 1 2 3 4 5 6 
#
# 1 51.4763 14.9248 -7.0476 0.0000 0.0000 0.0000
# 2 14.9248 95.2275 33.1903 0.0000 0.0000 0.0000
# 3 -7.0476 33.1903 56.5673 0.0000 0.0000 0.0000
# 4 0.0000 0.0000 0.0000 20.2837 0.0000 0.0000
# 5 0.0000 0.0000 0.0000 0.0000 14.1075 0.0000
# 6 0.0000 0.0000 0.0000 0.0000 0.0000 14.0128
#
#
#
# Elastic Compliance Matrix: (Units=1/GPa)
#
#
# Indices 1 2 3 4 5 6 
#
# 1 0.021833 -0.005493 0.005943 0.000000 0.000000 0.000000
# 2 -0.005493 0.014583 -0.009241 0.000000 0.000000 0.000000
# 3 0.005943 -0.009241 0.023840 0.000000 0.000000 0.000000
# 4 0.000000 0.000000 0.000000 0.049301 0.000000 0.000000
# 5 0.000000 0.000000 0.000000 0.000000 0.070884 0.000000
# 6 0.000000 0.000000 0.000000 0.000000 0.000000 0.071363
#
#
# Mechanical properties :
#
#
# Convention : Reuss Voigt Hill
#
# Bulk Modulus (GPa) = 23.43317 31.71177 27.57247
# Shear Modulus (GPa) = 17.62981 20.49439 19.06210
#
# Velocity S-wave (km/s) = 3.16332 3.41065 3.28931
# Velocity P-wave (km/s) = 5.16166 5.78874 5.48417
#
# Compressibility (1/GPa) = 0.04267455
#
# Stress axis : x y z
#
# Youngs Moduli (GPa) = 45.80271 68.57372 41.94553
#
# Poissons Ratio (x) = 0.37669 -0.24929
# Poissons Ratio (y) = 0.25160 0.38761
# Poissons Ratio (z) = -0.27221 0.63367
#
# Static dielectric constant tensor:
#      x y z
#    x 1.659780 0.000000 0.000000 
#    y 0.000000 1.568280 0.000000 
#    z 0.000000 0.000000 1.643920 
# 
# From -- ./inp_files/18908.got.cif
#   From: 2010.05.17/outbox.cif.g08.bks.cpg/sg20_10_cif.got.tgz:18908.got - 2010.06.03 22:52:26.
