data_PCOD9316777
_publ_section_title
;
Structure prediction by ZEFSAII (Michael W. Deem and Ramdas Pophale) SiO2 
 PCOD9316777
Probable space group: C 2 2 21
;
_chemical_formula_sum "Si O2"
_cell_formula_units_Z 56
_cell_length_a 8.136352
_cell_length_b 21.702602
_cell_length_c 13.202545
_cell_angle_alpha 90.000000
_cell_angle_beta 90.000000
_cell_angle_gamma 90.000000
_cell_volume 2331.305517
_symmetry_space_group_name_H-M "C 2 2 21"
_symmetry_group_IT_number 20
_symmetry_cell_setting 'orthorhombic'
loop_
_space_group_symop_operation_xyz
x,y,z
-x,-y,1/2+z
x,-y,-z
-x,y,1/2-z
1/2+x,1/2+y,z
1/2-x,1/2-y,1/2+z
1/2+x,1/2-y,-z
1/2-x,1/2+y,1/2-z
loop_
_atom_site_type_symbol
_atom_site_label
_atom_site_fract_x
_atom_site_fract_y
_atom_site_fract_z
Si Si1 0.328930 0.513593 0.293705
Si Si2 0.993461 0.000000 0.500000
Si Si3 0.490272 0.728154 0.529099
Si Si4 0.730432 0.615403 0.487558
Si Si5 0.142150 0.660574 0.568612
Si Si6 0.000000 0.782879 0.250000
Si Si7 0.781478 0.615264 0.715976
Si Si8 0.959153 0.441969 0.922062
O O1 0.500000 0.544026 0.250000
O O2 0.384456 0.489183 0.402666
O O3 0.289759 0.453609 0.228124
O O4 0.154060 0.544019 0.324313
O O5 0.101370 0.939788 0.515442
O O6 0.624831 0.678320 0.489514
O O7 0.316995 0.693977 0.544540
O O8 0.510256 0.785510 0.454668
O O9 0.509792 0.753671 0.644706
O O10 0.819979 0.614914 0.596874
O O11 0.867419 0.593960 0.406635
O O12 0.121215 0.630730 0.680173
O O13 0.141641 0.606595 0.487854
O O14 0.852561 0.830865 0.231050
O O15 0.989227 0.500000 0.000000
#
# Coordination Sequence:
#
# PCOD9316777 Si02
#       8
#     8   4   8   8   8   4   8   8
#     4  12  21  39  69 100 139 193 238 294 352 430
#     4  12  20  36  68 100 144 184 238 288 366 426
#     4  10  21  40  70  99 138 190 238 299 364 430
#     4  11  23  40  66 104 139 187 233 296 365 430
#     4  11  22  41  69  99 138 185 241 303 358 435
#     4   8  16  34  64  98 128 178 238 288 342 428
#     4  10  18  37  66  99 134 180 245 285 342 425
#     4  12  24  40  63 100 149 178 231 302 361 426
#
# _framework density 24.020875
#
# number of rings (size 3 to 8) (size 9 to 14) (size 15 to 20)
#    0.000    1.143    5.000    3.429    0.000    0.571 
#    0.000    3.571   25.143    0.000    0.000    0.000 
#    0.000    0.000    0.000    0.000    0.000    0.000 
#
# Total GULP energy -156131.489537 kJ/mol
# GULP energy per Si atom -5576.124626 kJ/mol
# Density = 2.396620 g / cm^3
# Si number density = 24.020875 Si / 1000 Ang^3
#
#
#
# Elastic Constant Matrix: (Units=GPa)
#
#
# Indices 1 2 3 4 5 6 
#
# 1 97.3784 32.0619 28.7461 0.0000 0.0000 0.0000
# 2 32.0619 99.4862 28.9230 0.0000 0.0000 0.0000
# 3 28.7461 28.9230 66.4332 0.0000 0.0000 0.0000
# 4 0.0000 0.0000 0.0000 30.4562 0.0000 0.0000
# 5 0.0000 0.0000 0.0000 0.0000 40.7898 0.0000
# 6 0.0000 0.0000 0.0000 0.0000 0.0000 33.7355
#
#
#
# Elastic Compliance Matrix: (Units=1/GPa)
#
#
# Indices 1 2 3 4 5 6 
#
# 1 0.012416 -0.002793 -0.004156 0.000000 0.000000 0.000000
# 2 -0.002793 0.012137 -0.004075 0.000000 0.000000 0.000000
# 3 -0.004156 -0.004075 0.018626 0.000000 0.000000 0.000000
# 4 0.000000 0.000000 0.000000 0.032834 0.000000 0.000000
# 5 0.000000 0.000000 0.000000 0.000000 0.024516 0.000000
# 6 0.000000 0.000000 0.000000 0.000000 0.000000 0.029642
#
#
# Mechanical properties :
#
#
# Convention : Reuss Voigt Hill
#
# Bulk Modulus (GPa) = 47.32969 49.19553 48.26261
# Shear Modulus (GPa) = 31.39473 32.56742 31.98107
#
# Velocity S-wave (km/s) = 3.61914 3.68611 3.65278
# Velocity P-wave (km/s) = 6.10004 6.21621 6.15840
#
# Compressibility (1/GPa) = 0.02112839
#
# Stress axis : x y z
#
# Youngs Moduli (GPa) = 80.54275 82.39583 53.68978
#
# Poissons Ratio (x) = 0.23012 0.22316
# Poissons Ratio (y) = 0.22495 0.21881
# Poissons Ratio (z) = 0.33477 0.33579
#
# Static dielectric constant tensor:
#      x y z
#    x 2.157720 0.000000 0.000000 
#    y 0.000000 1.895900 0.000000 
#    z 0.000000 0.000000 1.947940 
# 
# From -- ./inp_files/19259.got.cif
#   From: 2010.05.17/outbox.cif.g08.bks.cpg/sg20_10_cif.got.tgz:19259.got - 2010.06.03 22:52:26.
