data_PCOD9316888
_publ_section_title
;
Structure prediction by ZEFSAII (Michael W. Deem and Ramdas Pophale) SiO2 
 PCOD9316888
Probable space group: C 2 2 21
;
_chemical_formula_sum "Si O2"
_cell_formula_units_Z 40
_cell_length_a 7.219910
_cell_length_b 13.121969
_cell_length_c 18.704410
_cell_angle_alpha 90.000000
_cell_angle_beta 90.000000
_cell_angle_gamma 90.000000
_cell_volume 1772.045239
_symmetry_space_group_name_H-M "C 2 2 21"
_symmetry_group_IT_number 20
_symmetry_cell_setting 'orthorhombic'
loop_
_space_group_symop_operation_xyz
x,y,z
-x,-y,1/2+z
x,-y,-z
-x,y,1/2-z
1/2+x,1/2+y,z
1/2-x,1/2-y,1/2+z
1/2+x,1/2-y,-z
1/2-x,1/2+y,1/2-z
loop_
_atom_site_type_symbol
_atom_site_label
_atom_site_fract_x
_atom_site_fract_y
_atom_site_fract_z
Si Si1 0.254712 0.505069 0.649371
Si Si2 0.061159 0.000000 0.000000
Si Si3 0.000000 0.132786 0.750000
Si Si4 0.243532 0.786489 0.824582
Si Si5 0.587406 0.800447 0.396214
Si Si6 0.998698 0.776593 0.454177
O O1 0.316327 0.474796 0.569438
O O2 0.427210 0.561910 0.686523
O O3 0.213321 0.403243 0.692766
O O4 0.092861 0.587135 0.638060
O O5 0.963530 0.106622 0.979825
O O6 0.171198 0.205653 0.729894
O O7 0.351792 0.760178 0.897775
O O8 0.027739 0.770814 0.842913
O O9 0.498454 0.792460 0.475065
O O10 0.800553 0.773504 0.414109
#
# Coordination Sequence:
#
# PCOD9316888 Si02
#       6
#     8   4   4   8   8   8
#     4  11  25  47  75 107 144 191 250 302 363 449
#     4  10  18  44  74 100 142 178 234 314 356 412
#     4  12  28  48  70 106 150 196 252 298 368 454
#     4  12  25  48  72 100 151 188 239 308 358 441
#     4  11  22  42  76 104 140 184 236 297 369 421
#     4  11  21  43  72 112 141 178 240 306 364 437
#
# _framework density 22.572786000000001
#
# number of rings (size 3 to 8) (size 9 to 14) (size 15 to 20)
#    0.000    0.800    8.000    1.200    0.000    4.000 
#    7.200    1.000    0.000    0.000    0.000    0.000 
#    0.000    0.000    0.000    0.000    0.000    0.000 
#
# Total GULP energy -111743.747990 kJ/mol
# GULP energy per Si atom -5587.187400 kJ/mol
# Density = 2.252141 g / cm^3
# Si number density = 22.572786 Si / 1000 Ang^3
#
#
#
# Elastic Constant Matrix: (Units=GPa)
#
#
# Indices 1 2 3 4 5 6 
#
# 1 78.3306 36.3597 13.2188 0.0000 0.0000 0.0000
# 2 36.3597 137.7747 12.3651 0.0000 0.0000 0.0000
# 3 13.2188 12.3651 66.2628 0.0000 0.0000 0.0000
# 4 0.0000 0.0000 0.0000 29.9436 0.0000 0.0000
# 5 0.0000 0.0000 0.0000 0.0000 25.8648 0.0000
# 6 0.0000 0.0000 0.0000 0.0000 0.0000 28.8865
#
#
#
# Elastic Compliance Matrix: (Units=1/GPa)
#
#
# Indices 1 2 3 4 5 6 
#
# 1 0.014878 -0.003722 -0.002273 0.000000 0.000000 0.000000
# 2 -0.003722 0.008313 -0.000809 0.000000 0.000000 0.000000
# 3 -0.002273 -0.000809 0.015696 0.000000 0.000000 0.000000
# 4 0.000000 0.000000 0.000000 0.033396 0.000000 0.000000
# 5 0.000000 0.000000 0.000000 0.000000 0.038663 0.000000
# 6 0.000000 0.000000 0.000000 0.000000 0.000000 0.034618
#
#
# Mechanical properties :
#
#
# Convention : Reuss Voigt Hill
#
# Bulk Modulus (GPa) = 39.56004 45.13944 42.34974
# Shear Modulus (GPa) = 29.83316 31.63395 30.73356
#
# Velocity S-wave (km/s) = 3.63938 3.74762 3.69390
# Velocity P-wave (km/s) = 5.93496 6.22630 6.08238
#
# Compressibility (1/GPa) = 0.02527803
#
# Stress axis : x y z
#
# Youngs Moduli (GPa) = 67.21382 120.29118 63.71106
#
# Poissons Ratio (x) = 0.44777 0.14484
# Poissons Ratio (y) = 0.25019 0.05152
# Poissons Ratio (z) = 0.15280 0.09728
#
# Static dielectric constant tensor:
#      x y z
#    x 1.834780 0.000000 0.000000 
#    y 0.000000 1.878390 0.000000 
#    z 0.000000 0.000000 1.904290 
# 
# From -- ./inp_files/26511.got.cif
#   From: 2010.05.17/outbox.cif.g08.bks.cpg/sg20_14_cif.got.tgz:26511.got - 2010.06.03 22:52:26.
