data_PCOD9316066
_publ_section_title
;
Structure prediction by ZEFSAII (Michael W. Deem and Ramdas Pophale) SiO2 
 PCOD9316066
Probable space group: P 21 21 21
;
_chemical_formula_sum "Si O2"
_cell_formula_units_Z 32
_cell_length_a 12.501790
_cell_length_b 10.975006
_cell_length_c 9.211532
_cell_angle_alpha 90.000000
_cell_angle_beta 90.000000
_cell_angle_gamma 90.000000
_cell_volume 1263.888700
_symmetry_space_group_name_H-M "P 21 21 21"
_symmetry_group_IT_number 19
_symmetry_cell_setting 'orthorhombic'
loop_
_space_group_symop_operation_xyz
x,y,z
1/2-x,-y,1/2+z
1/2+x,1/2-y,-z
-x,1/2+y,1/2-z
loop_
_atom_site_type_symbol
_atom_site_label
_atom_site_fract_x
_atom_site_fract_y
_atom_site_fract_z
Si Si1 0.940423 0.204629 0.948486
Si Si2 0.009393 0.711016 0.880858
Si Si3 0.781919 0.838030 0.837703
Si Si4 0.910844 0.340620 0.346637
Si Si5 0.111951 0.986790 0.558180
Si Si6 0.887226 0.773372 0.349943
Si Si7 0.755314 0.956075 0.541235
Si Si8 0.223080 0.053668 0.279183
O O1 0.911371 0.346780 0.977777
O O2 0.858831 0.110219 0.018542
O O3 0.941274 0.190699 0.776214
O O4 0.055904 0.194706 0.023062
O O5 0.891823 0.766732 0.853887
O O6 0.986954 0.579161 0.953797
O O7 0.069161 0.805008 0.986022
O O8 0.685138 0.748734 0.798903
O O9 0.791480 0.933555 0.705411
O O10 0.755824 0.907070 0.986823
O O11 0.868975 0.471996 0.298528
O O12 0.021173 0.310224 0.264026
O O13 0.202250 0.034197 0.447875
O O14 0.163268 0.988496 0.717960
O O15 0.833763 0.886134 0.430854
O O16 0.800026 0.690756 0.270151
#
# Coordination Sequence:
#
# PCOD9316066 Si02
#       8
#     4   4   4   4   4   4   4   4
#     4  12  28  48  75 106 145 195 241 296 364 428
#     4  12  30  47  76 110 146 190 247 297 361 432
#     4  12  29  51  72 108 149 191 241 306 359 434
#     4  12  28  48  75 107 148 192 242 297 363 434
#     4  12  27  49  74 106 146 190 246 303 357 427
#     4  12  26  47  76 104 144 197 238 290 366 430
#     4  12  29  49  74 107 151 190 244 300 365 431
#     4  12  27  47  76 104 147 191 243 303 359 428
#
# _framework density 25.318686
#
# number of rings (size 3 to 8) (size 9 to 14) (size 15 to 20)
#    0.000    0.000    7.500    0.000   14.000    0.000 
#    0.000    0.000    0.000    0.000    0.000    0.000 
#    0.000    0.000    0.000    0.000    0.000    0.000 
#
# Total GULP energy -179557.925727 kJ/mol
# GULP energy per Si atom -5611.185179 kJ/mol
# Density = 2.526106 g / cm^3
# Si number density = 25.318686 Si / 1000 Ang^3
#
#
#
# Elastic Constant Matrix: (Units=GPa)
#
#
# Indices 1 2 3 4 5 6 
#
# 1 62.1399 17.3476 -11.8645 0.0000 0.0000 0.0000
# 2 17.3476 64.8331 4.7944 0.0000 0.0000 0.0000
# 3 -11.8645 4.7944 94.0135 0.0000 0.0000 0.0000
# 4 0.0000 0.0000 0.0000 37.0017 0.0000 0.0000
# 5 0.0000 0.0000 0.0000 0.0000 47.5888 0.0000
# 6 0.0000 0.0000 0.0000 0.0000 0.0000 34.1296
#
#
#
# Elastic Compliance Matrix: (Units=1/GPa)
#
#
# Indices 1 2 3 4 5 6 
#
# 1 0.017969 -0.004994 0.002522 0.000000 0.000000 0.000000
# 2 -0.004994 0.016871 -0.001491 0.000000 0.000000 0.000000
# 3 0.002522 -0.001491 0.011031 0.000000 0.000000 0.000000
# 4 0.000000 0.000000 0.000000 0.027026 0.000000 0.000000
# 5 0.000000 0.000000 0.000000 0.000000 0.021013 0.000000
# 6 0.000000 0.000000 0.000000 0.000000 0.000000 0.029300
#
#
# Mechanical properties :
#
#
# Convention : Reuss Voigt Hill
#
# Bulk Modulus (GPa) = 26.35393 26.83796 26.59595
# Shear Modulus (GPa) = 34.77448 37.79130 36.28289
#
# Velocity S-wave (km/s) = 3.71006 3.86764 3.78967
# Velocity P-wave (km/s) = 5.36509 5.52883 5.44757
#
# Compressibility (1/GPa) = 0.03794500
#
# Stress axis : x y z
#
# Youngs Moduli (GPa) = 55.65264 59.27391 90.65271
#
# Poissons Ratio (x) = 0.29604 -0.22866
# Poissons Ratio (y) = 0.27795 0.13513
# Poissons Ratio (z) = -0.14037 0.08836
#
# Static dielectric constant tensor:
#      x y z
#    x 1.961200 0.000000 0.000000 
#    y 0.000000 1.954090 0.000000 
#    z 0.000000 0.000000 1.983440 
# 
# From -- ./inp_files/3916.got.cif
#   From: 2010.05.17/outbox.cif.g08.bks.cpg/sg19_2_cif.got.tgz:3916.got - 2010.06.03 22:46:19.
