data_PCOD9316246
_publ_section_title
;
Structure prediction by ZEFSAII (Michael W. Deem and Ramdas Pophale) SiO2 
 PCOD9316246
Probable space group: C 2 2 21
;
_chemical_formula_sum "Si O2"
_cell_formula_units_Z 48
_cell_length_a 13.458356
_cell_length_b 12.405361
_cell_length_c 16.375359
_cell_angle_alpha 90.000000
_cell_angle_beta 90.000000
_cell_angle_gamma 90.000000
_cell_volume 2733.960583
_symmetry_space_group_name_H-M "C 2 2 21"
_symmetry_group_IT_number 20
_symmetry_cell_setting 'orthorhombic'
loop_
_space_group_symop_operation_xyz
x,y,z
-x,-y,1/2+z
x,-y,-z
-x,y,1/2-z
1/2+x,1/2+y,z
1/2-x,1/2-y,1/2+z
1/2+x,1/2-y,-z
1/2-x,1/2+y,1/2-z
loop_
_atom_site_type_symbol
_atom_site_label
_atom_site_fract_x
_atom_site_fract_y
_atom_site_fract_z
Si Si1 0.661940 0.466836 0.843183
Si Si2 0.214253 0.755036 0.927678
Si Si3 0.020209 0.625709 0.979425
Si Si4 0.564826 0.693225 0.588263
Si Si5 0.692432 0.099008 0.564397
Si Si6 0.477801 0.500000 0.500000
Si Si7 0.000000 0.075374 0.750000
O O1 0.696477 0.345024 0.857659
O O2 0.751589 0.550689 0.857806
O O3 0.590953 0.483094 0.921900
O O4 0.595405 0.499737 0.766704
O O5 0.117807 0.681961 0.942495
O O6 0.316923 0.698434 0.904331
O O7 0.241911 0.814318 0.014313
O O8 0.921162 0.634156 0.922822
O O9 0.038700 0.500000 0.000000
O O10 0.983190 0.694157 0.058675
O O11 0.540043 0.606400 0.517973
O O12 0.518079 0.649751 0.671599
O O13 0.685182 0.000000 0.500000
#
# Coordination Sequence:
#
# PCOD9316246 Si02
#       7
#     8   8   8   8   8   4   4
#     4  10  16  34  57  78 103 145 188 230 268 333
#     4  10  17  31  53  79 110 135 177 234 276 323
#     4  10  19  32  54  88 110 140 179 233 284 338
#     4  10  21  35  56  84 112 147 187 241 280 333
#     4   8  15  29  53  77 102 140 179 219 272 324
#     4  10  16  32  58  80 100 132 194 242 262 300
#     4  10  22  36  56  78 110 150 194 230 286 328
#
# _framework density 17.556946
#
# number of rings (size 3 to 8) (size 9 to 14) (size 15 to 20)
#    0.000    2.333    4.167    2.000    1.167    0.000 
#    0.000    3.333    0.000    1.000    0.000    0.000 
#    0.000    0.000    0.000    0.000    0.000    0.000 
#
# Total GULP energy -133623.247633 kJ/mol
# GULP energy per Si atom -5567.635318 kJ/mol
# Density = 1.751699 g / cm^3
# Si number density = 17.556946 Si / 1000 Ang^3
#
#
#
# Elastic Constant Matrix: (Units=GPa)
#
#
# Indices 1 2 3 4 5 6 
#
# 1 122.2010 54.1713 12.0312 0.0000 0.0000 0.0000
# 2 54.1713 97.2226 17.8205 0.0000 0.0000 0.0000
# 3 12.0312 17.8205 30.4677 0.0000 0.0000 0.0000
# 4 0.0000 0.0000 0.0000 13.4450 0.0000 0.0000
# 5 0.0000 0.0000 0.0000 0.0000 15.5142 0.0000
# 6 0.0000 0.0000 0.0000 0.0000 0.0000 36.0233
#
#
#
# Elastic Compliance Matrix: (Units=1/GPa)
#
#
# Indices 1 2 3 4 5 6 
#
# 1 0.010887 -0.005912 -0.000841 0.000000 0.000000 0.000000
# 2 -0.005912 0.014731 -0.006282 0.000000 0.000000 0.000000
# 3 -0.000841 -0.006282 0.036828 0.000000 0.000000 0.000000
# 4 0.000000 0.000000 0.000000 0.074377 0.000000 0.000000
# 5 0.000000 0.000000 0.000000 0.000000 0.064457 0.000000
# 6 0.000000 0.000000 0.000000 0.000000 0.000000 0.027760
#
#
# Mechanical properties :
#
#
# Convention : Reuss Voigt Hill
#
# Bulk Modulus (GPa) = 27.49035 46.43749 36.96392
# Shear Modulus (GPa) = 18.71016 24.05439 21.38227
#
# Velocity S-wave (km/s) = 3.26802 3.70547 3.49360
# Velocity P-wave (km/s) = 5.47099 6.69436 6.11335
#
# Compressibility (1/GPa) = 0.03637640
#
# Stress axis : x y z
#
# Youngs Moduli (GPa) = 91.85495 67.88375 27.15323
#
# Poissons Ratio (x) = 0.40131 0.02284
# Poissons Ratio (y) = 0.54303 0.17057
# Poissons Ratio (z) = 0.07727 0.42643
#
# Static dielectric constant tensor:
#      x y z
#    x 1.639490 0.000000 0.000000 
#    y 0.000000 1.663590 0.000000 
#    z 0.000000 0.000000 1.590490 
# 
# From -- ./inp_files/20681.got.cif
#   From: 2010.05.17/outbox.cif.g08.bks.cpg/sg20_11_cif.got.tgz:20681.got - 2010.06.03 22:52:26.
