data_PCOD9316154
_publ_section_title
;
Structure prediction by ZEFSAII (Michael W. Deem and Ramdas Pophale) SiO2 
 PCOD9316154
Probable space group: P 21 21 21
;
_chemical_formula_sum "Si O2"
_cell_formula_units_Z 24
_cell_length_a 15.000000
_cell_length_b 12.000000
_cell_length_c 6.000000
_cell_angle_alpha 90.000000
_cell_angle_beta 90.000000
_cell_angle_gamma 90.000000
_cell_volume 1080.000000
_symmetry_space_group_name_H-M "P 21 21 21"
_symmetry_group_IT_number 19
_symmetry_cell_setting 'orthorhombic'
loop_
_space_group_symop_operation_xyz
x,y,z
1/2-x,-y,1/2+z
1/2+x,1/2-y,-z
-x,1/2+y,1/2-z
loop_
_atom_site_type_symbol
_atom_site_label
_atom_site_fract_x
_atom_site_fract_y
_atom_site_fract_z
Si Si1 0.916222 0.618795 0.755106
Si Si2 0.787542 0.035323 0.069199
Si Si3 0.005051 0.477045 0.403153
Si Si4 0.235299 0.766708 0.217817
Si Si5 0.077914 0.757235 0.873570
Si Si6 0.390404 0.092291 0.981100
O O1 0.840840 0.711653 0.796948
O O2 0.947610 0.579473 0.508350
O O3 0.008317 0.656163 0.873443
O O4 0.871188 0.508711 0.856114
O O5 0.775929 0.166035 0.111093
O O6 0.749043 0.990730 0.315011
O O7 0.891215 0.000455 0.067192
O O8 0.973449 0.363826 0.524113
O O9 0.976168 0.449182 0.153463
O O10 0.189501 0.877764 0.316653
O O11 0.171592 0.739537 0.003660
O O12 0.091494 0.797155 0.621538
#
# Coordination Sequence:
#
# PCOD9316154 Si02
#       6
#     4   4   4   4   4   4
#     4  11  24  42  73 101 146 193 250 311 389 454
#     4  12  29  49  77 111 153 200 259 319 386 468
#     4  10  24  45  70 103 141 199 245 315 386 458
#     4  11  26  43  72 108 144 200 249 318 380 460
#     4  10  23  45  69 106 145 194 249 318 381 465
#     4  10  24  42  71  99 151 182 256 309 384 451
#
# _framework density 22.222221999999999
#
# number of rings (size 3 to 8) (size 9 to 14) (size 15 to 20)
#    0.000    1.333    0.000    3.000   18.667    1.333 
#    0.000    0.000    0.000    0.000    0.000    0.000 
#    0.000    0.000    0.000    0.000    0.000    0.000 
#
# Total GULP energy -133784.826950 kJ/mol
# GULP energy per Si atom -5574.367790 kJ/mol
# Density = 2.217164 g / cm^3
# Si number density = 22.222222 Si / 1000 Ang^3
#
#
#
# Elastic Constant Matrix: (Units=GPa)
#
#
# Indices 1 2 3 4 5 6 
#
# 1 127.0192 21.6680 60.9891 0.0000 0.0000 0.0000
# 2 21.6680 79.4225 27.7161 0.0000 0.0000 0.0000
# 3 60.9891 27.7161 96.4192 0.0000 0.0000 0.0000
# 4 0.0000 0.0000 0.0000 35.5571 0.0000 0.0000
# 5 0.0000 0.0000 0.0000 0.0000 23.1168 0.0000
# 6 0.0000 0.0000 0.0000 0.0000 0.0000 36.5489
#
#
#
# Elastic Compliance Matrix: (Units=1/GPa)
#
#
# Indices 1 2 3 4 5 6 
#
# 1 0.011338 -0.000656 -0.006983 0.000000 0.000000 0.000000
# 2 -0.000656 0.014033 -0.003619 0.000000 0.000000 0.000000
# 3 -0.006983 -0.003619 0.015829 0.000000 0.000000 0.000000
# 4 0.000000 0.000000 0.000000 0.028124 0.000000 0.000000
# 5 0.000000 0.000000 0.000000 0.000000 0.043259 0.000000
# 6 0.000000 0.000000 0.000000 0.000000 0.000000 0.027361
#
#
# Mechanical properties :
#
#
# Convention : Reuss Voigt Hill
#
# Bulk Modulus (GPa) = 53.52376 58.17859 55.85117
# Shear Modulus (GPa) = 29.64098 31.87707 30.75903
#
# Velocity S-wave (km/s) = 3.65615 3.79155 3.72446
# Velocity P-wave (km/s) = 6.47774 6.73832 6.60932
#
# Compressibility (1/GPa) = 0.01868329
#
# Stress axis : x y z
#
# Youngs Moduli (GPa) = 88.20159 71.26187 63.17704
#
# Poissons Ratio (x) = 0.04677 0.44116
# Poissons Ratio (y) = 0.05789 0.22861
# Poissons Ratio (z) = 0.61590 0.25787
#
# Static dielectric constant tensor:
#      x y z
#    x 1.828330 0.000000 0.000000 
#    y 0.000000 1.857920 0.000000 
#    z 0.000000 0.000000 1.931790 
# 
# From -- ./inp_files/924.got.cif
#   From: 2010.05.17/outbox.ucp.g08.bks.cvg/sg19_1_cif.got.tgz:924.got - 2010.06.11 13:13:52.
