data_PCOD9316453
_publ_section_title
;
Structure prediction by ZEFSAII (Michael W. Deem and Ramdas Pophale) SiO2 
 PCOD9316453
Probable space group: C 2 2 21
;
_chemical_formula_sum "Si O2"
_cell_formula_units_Z 60
_cell_length_a 29.294306
_cell_length_b 7.276057
_cell_length_c 14.753795
_cell_angle_alpha 90.000000
_cell_angle_beta 90.000000
_cell_angle_gamma 90.000000
_cell_volume 3144.727736
_symmetry_space_group_name_H-M "C 2 2 21"
_symmetry_group_IT_number 20
_symmetry_cell_setting 'orthorhombic'
loop_
_space_group_symop_operation_xyz
x,y,z
-x,-y,1/2+z
x,-y,-z
-x,y,1/2-z
1/2+x,1/2+y,z
1/2-x,1/2-y,1/2+z
1/2+x,1/2-y,-z
1/2-x,1/2+y,1/2-z
loop_
_atom_site_type_symbol
_atom_site_label
_atom_site_fract_x
_atom_site_fract_y
_atom_site_fract_z
Si Si1 0.285567 0.605882 0.785917
Si Si2 0.452948 0.906959 0.698479
Si Si3 0.119635 0.916748 0.202009
Si Si4 0.207015 0.685315 0.648266
Si Si5 0.643586 0.713148 0.067830
Si Si6 0.428124 0.000000 0.500000
Si Si7 0.245981 0.285224 0.028737
Si Si8 0.619365 0.186407 0.738763
O O1 0.332523 0.666370 0.737695
O O2 0.244762 0.599664 0.714039
O O3 0.294180 0.399270 0.820410
O O4 0.269401 0.720729 0.872926
O O5 0.500000 0.873213 0.750000
O O6 0.420212 0.729508 0.700546
O O7 0.456014 0.970203 0.592943
O O8 0.425426 0.066624 0.751110
O O9 0.108166 0.095671 0.264346
O O10 0.128599 0.013065 0.104244
O O11 0.224714 0.683611 0.546812
O O12 0.155508 0.620502 0.664801
O O13 0.694182 0.715349 0.029625
O O14 0.645795 0.825952 0.164094
O O15 0.605659 0.825443 0.013183
O O16 0.243545 0.500000 0.000000
#
# Coordination Sequence:
#
# PCOD9316453 Si02
#       8
#     8   8   8   8   8   4   8   8
#     4  10  19  34  50  83 124 164 201 245 294 369
#     4  11  24  43  68  89 116 161 206 264 325 366
#     4   9  21  37  62  86 121 159 199 253 311 361
#     4  10  20  31  54  82 121 170 203 241 304 361
#     4   9  17  36  55  90 122 154 195 256 304 348
#     4  10  22  40  66  92 124 148 202 260 314 360
#     4  10  18  29  55  87 125 171 215 237 292 368
#     4   8  19  40  57  84 124 161 199 255 306 364
#
# _framework density 19.079554000000002
#
# number of rings (size 3 to 8) (size 9 to 14) (size 15 to 20)
#    0.800    1.600    2.000    0.000    3.733    1.067 
#    0.000    3.333    0.000    0.000    0.000    0.000 
#    0.000    0.000    0.000    0.000    0.000    0.000 
#
# Total GULP energy -167379.205827 kJ/mol
# GULP energy per Si atom -5579.306861 kJ/mol
# Density = 1.903613 g / cm^3
# Si number density = 19.079554 Si / 1000 Ang^3
#
#
#
# Elastic Constant Matrix: (Units=GPa)
#
#
# Indices 1 2 3 4 5 6 
#
# 1 101.0558 35.2719 45.6907 0.0000 0.0000 0.0000
# 2 35.2719 54.2267 34.0205 0.0000 0.0000 0.0000
# 3 45.6907 34.0205 81.3886 0.0000 0.0000 0.0000
# 4 0.0000 0.0000 0.0000 14.6776 0.0000 0.0000
# 5 0.0000 0.0000 0.0000 0.0000 25.7386 0.0000
# 6 0.0000 0.0000 0.0000 0.0000 0.0000 25.5979
#
#
#
# Elastic Compliance Matrix: (Units=1/GPa)
#
#
# Indices 1 2 3 4 5 6 
#
# 1 0.014521 -0.005870 -0.005698 0.000000 0.000000 0.000000
# 2 -0.005870 0.027369 -0.008145 0.000000 0.000000 0.000000
# 3 -0.005698 -0.008145 0.018890 0.000000 0.000000 0.000000
# 4 0.000000 0.000000 0.000000 0.068131 0.000000 0.000000
# 5 0.000000 0.000000 0.000000 0.000000 0.038852 0.000000
# 6 0.000000 0.000000 0.000000 0.000000 0.000000 0.039066
#
#
# Mechanical properties :
#
#
# Convention : Reuss Voigt Hill
#
# Bulk Modulus (GPa) = 46.82999 51.84859 49.33929
# Shear Modulus (GPa) = 19.73373 21.31535 20.52454
#
# Velocity S-wave (km/s) = 3.21952 3.34605 3.28340
# Velocity P-wave (km/s) = 6.19825 6.49323 6.34745
#
# Compressibility (1/GPa) = 0.02135384
#
# Stress axis : x y z
#
# Youngs Moduli (GPa) = 68.86727 36.53718 52.93778
#
# Poissons Ratio (x) = 0.21448 0.30164
# Poissons Ratio (y) = 0.40427 0.43117
# Poissons Ratio (z) = 0.39240 0.29759
#
# Static dielectric constant tensor:
#      x y z
#    x 1.614020 0.000000 0.000000 
#    y 0.000000 1.726720 0.000000 
#    z 0.000000 0.000000 1.707690 
# 
# From -- ./inp_files/19403.got.cif
#   From: 2010.05.17/outbox.cif.g08.bks.cpg/sg20_10_cif.got.tgz:19403.got - 2010.06.03 22:52:26.
