data_PCOD9316545
_publ_section_title
;
Structure prediction by ZEFSAII (Michael W. Deem and Ramdas Pophale) SiO2 
 PCOD9316545
Probable space group: C 2 2 21
;
_chemical_formula_sum "Si O2"
_cell_formula_units_Z 60
_cell_length_a 5.259876
_cell_length_b 18.130199
_cell_length_c 30.767127
_cell_angle_alpha 90.000000
_cell_angle_beta 90.000000
_cell_angle_gamma 90.000000
_cell_volume 2934.033182
_symmetry_space_group_name_H-M "C 2 2 21"
_symmetry_group_IT_number 20
_symmetry_cell_setting 'orthorhombic'
loop_
_space_group_symop_operation_xyz
x,y,z
-x,-y,1/2+z
x,-y,-z
-x,y,1/2-z
1/2+x,1/2+y,z
1/2-x,1/2-y,1/2+z
1/2+x,1/2-y,-z
1/2-x,1/2+y,1/2-z
loop_
_atom_site_type_symbol
_atom_site_label
_atom_site_fract_x
_atom_site_fract_y
_atom_site_fract_z
Si Si1 0.898434 0.123198 0.806948
Si Si2 0.500000 0.959851 0.250000
Si Si3 0.952888 0.504738 0.551508
Si Si4 0.562547 0.874702 0.115696
Si Si5 0.235977 0.506870 0.672716
Si Si6 0.953623 0.069050 0.407104
Si Si7 0.993637 0.291038 0.800080
Si Si8 0.017302 0.207165 0.357806
O O1 0.829524 0.121405 0.858336
O O2 0.013973 0.201780 0.797316
O O3 0.656032 0.100781 0.779076
O O4 0.090061 0.057863 0.797426
O O5 0.452420 0.018733 0.209944
O O6 0.928518 0.500000 0.500000
O O7 0.713222 0.465290 0.574817
O O8 0.939395 0.590274 0.567847
O O9 0.213030 0.462957 0.566167
O O10 0.468208 0.792352 0.125710
O O11 0.398782 0.936631 0.140323
O O12 0.399045 0.454766 0.642817
O O13 0.978276 0.156435 0.400386
O O14 0.725926 0.301142 0.825555
O O15 0.000000 0.316831 0.750000
O O16 0.228824 0.314100 0.830944
#
# Coordination Sequence:
#
# PCOD9316545 Si02
#       8
#     8   4   8   8   8   8   8   8
#     4  10  18  32  54  85 116 160 210 268 290 349
#     4  10  20  28  50  88 120 156 216 266 310 320
#     4  11  23  44  71  96 120 155 204 262 318 394
#     4   9  20  36  61  88 117 159 210 243 310 378
#     4  10  18  35  55  82 117 163 208 260 293 369
#     4  11  24  43  64  91 128 159 199 251 329 380
#     4  11  22  36  57  86 121 168 220 254 287 345
#     4  11  23  40  61  87 125 171 200 254 311 368
#
# _framework density 20.449666000000001
#
# number of rings (size 3 to 8) (size 9 to 14) (size 15 to 20)
#    0.000    1.600    2.667    2.800    3.733    0.000 
#    1.200    2.667    0.000    0.000    0.000    0.000 
#    0.000    0.000    0.000    0.000    0.000    0.000 
#
# Total GULP energy -167017.332066 kJ/mol
# GULP energy per Si atom -5567.244402 kJ/mol
# Density = 2.040312 g / cm^3
# Si number density = 20.449666 Si / 1000 Ang^3
#
#
#
# Elastic Constant Matrix: (Units=GPa)
#
#
# Indices 1 2 3 4 5 6 
#
# 1 70.5082 23.3097 17.0651 0.0000 0.0000 0.0000
# 2 23.3097 58.8410 31.3851 0.0000 0.0000 0.0000
# 3 17.0651 31.3851 98.4235 0.0000 0.0000 0.0000
# 4 0.0000 0.0000 0.0000 19.9972 0.0000 0.0000
# 5 0.0000 0.0000 0.0000 0.0000 20.1265 0.0000
# 6 0.0000 0.0000 0.0000 0.0000 0.0000 19.5994
#
#
#
# Elastic Compliance Matrix: (Units=1/GPa)
#
#
# Indices 1 2 3 4 5 6 
#
# 1 0.016390 -0.005997 -0.000929 0.000000 0.000000 0.000000
# 2 -0.005997 0.022672 -0.006190 0.000000 0.000000 0.000000
# 3 -0.000929 -0.006190 0.012295 0.000000 0.000000 0.000000
# 4 0.000000 0.000000 0.000000 0.050007 0.000000 0.000000
# 5 0.000000 0.000000 0.000000 0.000000 0.049686 0.000000
# 6 0.000000 0.000000 0.000000 0.000000 0.000000 0.051022
#
#
# Mechanical properties :
#
#
# Convention : Reuss Voigt Hill
#
# Bulk Modulus (GPa) = 39.80146 41.25473 40.52810
# Shear Modulus (GPa) = 21.12551 22.34547 21.73549
#
# Velocity S-wave (km/s) = 3.21759 3.30920 3.26372
# Velocity P-wave (km/s) = 5.77142 5.90073 5.83643
#
# Compressibility (1/GPa) = 0.02512470
#
# Stress axis : x y z
#
# Youngs Moduli (GPa) = 61.01144 44.10660 81.33294
#
# Poissons Ratio (x) = 0.26452 0.07559
# Poissons Ratio (y) = 0.36590 0.50344
# Poissons Ratio (z) = 0.05671 0.27301
#
# Static dielectric constant tensor:
#      x y z
#    x 1.032970 0.000000 0.000000 
#    y 0.000000 1.777430 0.000000 
#    z 0.000000 0.000000 1.685540 
# 
# From -- ./inp_files/29941.got.cif
#   From: 2010.05.17/outbox.cif.g08.bks.cpg/sg20_15_cif.got.tgz:29941.got - 2010.06.03 22:52:26.
