data_PCOD9316902
_publ_section_title
;
Structure prediction by ZEFSAII (Michael W. Deem and Ramdas Pophale) SiO2 
 PCOD9316902
Probable space group: C 2 2 21
;
_chemical_formula_sum "Si O2"
_cell_formula_units_Z 52
_cell_length_a 22.918514
_cell_length_b 15.280910
_cell_length_c 7.950111
_cell_angle_alpha 90.000000
_cell_angle_beta 90.000000
_cell_angle_gamma 90.000000
_cell_volume 2784.254085
_symmetry_space_group_name_H-M "C 2 2 21"
_symmetry_group_IT_number 20
_symmetry_cell_setting 'orthorhombic'
loop_
_space_group_symop_operation_xyz
x,y,z
-x,-y,1/2+z
x,-y,-z
-x,y,1/2-z
1/2+x,1/2+y,z
1/2-x,1/2-y,1/2+z
1/2+x,1/2-y,-z
1/2-x,1/2+y,1/2-z
loop_
_atom_site_type_symbol
_atom_site_label
_atom_site_fract_x
_atom_site_fract_y
_atom_site_fract_z
Si Si1 0.931440 0.263484 0.776850
Si Si2 0.773248 0.322922 0.994841
Si Si3 0.696700 0.084869 0.841768
Si Si4 0.354160 0.739586 0.453271
Si Si5 0.135800 0.560683 0.333785
Si Si6 0.362269 0.321054 0.922150
Si Si7 0.692301 0.500000 0.500000
O O1 0.897775 0.230396 0.609132
O O2 0.912718 0.365128 0.807869
O O3 0.000000 0.256520 0.750000
O O4 0.909661 0.208901 0.939784
O O5 0.792754 0.367836 0.165491
O O6 0.803767 0.228393 0.009123
O O7 0.704731 0.316465 0.975873
O O8 0.804981 0.381748 0.856297
O O9 0.668925 0.160255 0.955321
O O10 0.650639 0.007441 0.811904
O O11 0.760282 0.047101 0.881663
O O12 0.376451 0.714712 0.265553
O O13 0.125183 0.500000 0.500000
O O14 0.347413 0.423645 0.921502
#
# Coordination Sequence:
#
# PCOD9316902 Si02
#       7
#     8   8   8   8   8   8   4
#     4  11  25  45  63  81 121 174 213 252 299 368
#     4   9  18  34  56  89 130 158 183 243 311 381
#     4  10  19  29  56  93 130 158 188 243 308 373
#     4  11  21  37  62  93 124 168 198 242 310 374
#     4   9  19  37  57  90 128 156 200 255 306 354
#     4  10  23  37  61  92 122 158 208 251 306 369
#     4  12  18  32  58  96 128 152 196 258 312 374
#
# _framework density 18.676456999999999
#
# number of rings (size 3 to 8) (size 9 to 14) (size 15 to 20)
#    0.000    1.846    1.538    3.692    6.462    0.615 
#    2.769    2.308    3.385    0.000    0.000    0.000 
#    0.000    0.000    0.000    0.000    0.000    0.000 
#
# Total GULP energy -144966.724065 kJ/mol
# GULP energy per Si atom -5575.643233 kJ/mol
# Density = 1.863395 g / cm^3
# Si number density = 18.676457 Si / 1000 Ang^3
#
#
#
# Elastic Constant Matrix: (Units=GPa)
#
#
# Indices 1 2 3 4 5 6 
#
# 1 119.2194 22.5554 50.7683 0.0000 0.0000 0.0000
# 2 22.5554 94.3434 28.6787 0.0000 0.0000 0.0000
# 3 50.7683 28.6787 103.2443 0.0000 0.0000 0.0000
# 4 0.0000 0.0000 0.0000 18.0989 0.0000 0.0000
# 5 0.0000 0.0000 0.0000 0.0000 21.3103 0.0000
# 6 0.0000 0.0000 0.0000 0.0000 0.0000 16.3835
#
#
#
# Elastic Compliance Matrix: (Units=1/GPa)
#
#
# Indices 1 2 3 4 5 6 
#
# 1 0.010703 -0.001047 -0.004972 0.000000 0.000000 0.000000
# 2 -0.001047 0.011680 -0.002729 0.000000 0.000000 0.000000
# 3 -0.004972 -0.002729 0.012889 0.000000 0.000000 0.000000
# 4 0.000000 0.000000 0.000000 0.055252 0.000000 0.000000
# 5 0.000000 0.000000 0.000000 0.000000 0.046926 0.000000
# 6 0.000000 0.000000 0.000000 0.000000 0.000000 0.061037
#
#
# Mechanical properties :
#
#
# Convention : Reuss Voigt Hill
#
# Bulk Modulus (GPa) = 56.26180 57.86800 57.06490
# Shear Modulus (GPa) = 22.53174 25.47885 24.00530
#
# Velocity S-wave (km/s) = 3.47713 3.69755 3.58903
# Velocity P-wave (km/s) = 6.80518 7.02003 6.91344
#
# Compressibility (1/GPa) = 0.01777405
#
# Stress axis : x y z
#
# Youngs Moduli (GPa) = 93.42781 85.61899 77.58626
#
# Poissons Ratio (x) = 0.08968 0.38578
# Poissons Ratio (y) = 0.09786 0.21175
# Poissons Ratio (z) = 0.46455 0.23367
#
# Static dielectric constant tensor:
#      x y z
#    x 1.608390 0.000000 0.000000 
#    y 0.000000 1.676180 0.000000 
#    z 0.000000 0.000000 1.617710 
# 
# From -- ./inp_files/10129.got.cif
#   From: 2010.05.17/outbox.cif.g08.bks.cpg/sg20_6_cif.got.tgz:10129.got - 2010.06.03 22:52:26.
