data_PCOD9316652
_publ_section_title
;
Structure prediction by ZEFSAII (Michael W. Deem and Ramdas Pophale) SiO2 
 PCOD9316652
Probable space group: C 2 2 21
;
_chemical_formula_sum "Si O2"
_cell_formula_units_Z 48
_cell_length_a 9.060115
_cell_length_b 14.162650
_cell_length_c 17.705399
_cell_angle_alpha 90.000000
_cell_angle_beta 90.000000
_cell_angle_gamma 90.000000
_cell_volume 2271.872481
_symmetry_space_group_name_H-M "C 2 2 21"
_symmetry_group_IT_number 20
_symmetry_cell_setting 'orthorhombic'
loop_
_space_group_symop_operation_xyz
x,y,z
-x,-y,1/2+z
x,-y,-z
-x,y,1/2-z
1/2+x,1/2+y,z
1/2-x,1/2-y,1/2+z
1/2+x,1/2-y,-z
1/2-x,1/2+y,1/2-z
loop_
_atom_site_type_symbol
_atom_site_label
_atom_site_fract_x
_atom_site_fract_y
_atom_site_fract_z
Si Si1 0.500000 0.970746 0.250000
Si Si2 0.422293 0.451338 0.371466
Si Si3 0.500000 0.297190 0.250000
Si Si4 0.409756 0.921530 0.091338
Si Si5 0.000000 0.100873 0.250000
Si Si6 0.926029 0.382764 0.546519
Si Si7 0.805955 0.352032 0.703199
Si Si8 0.152814 0.000000 0.500000
O O1 0.631149 0.044053 0.226130
O O2 0.454617 0.907503 0.178554
O O3 0.470154 0.363771 0.320415
O O4 0.266180 0.430752 0.410968
O O5 0.415292 0.537357 0.312056
O O6 0.549162 0.475742 0.430417
O O7 0.635771 0.225942 0.261074
O O8 0.482621 0.024649 0.074627
O O9 0.479673 0.853099 0.027378
O O10 0.130457 0.151376 0.295391
O O11 0.884325 0.328292 0.622944
O O12 0.765994 0.415606 0.517309
#
# Coordination Sequence:
#
# PCOD9316652 Si02
#       8
#     4   8   4   8   4   8   8   4
#     4   9  16  29  59  84 113 156 206 257 306 363
#     4  11  21  37  61  97 117 158 208 275 297 369
#     4  10  26  40  60  85 135 154 202 256 326 364
#     4   9  17  30  53  90 118 149 204 258 302 354
#     4  11  20  35  69  89 116 166 232 249 306 375
#     4   9  19  33  59  92 119 162 199 254 309 378
#     4  10  19  40  58  86 122 172 204 252 317 386
#     4  10  18  34  60  92 124 146 212 264 308 348
#
# _framework density 21.127946000000001
#
# number of rings (size 3 to 8) (size 9 to 14) (size 15 to 20)
#    0.000    2.333    3.333    1.000    0.000    0.000 
#    0.000    5.833    0.000    0.000    0.000    0.000 
#    0.000    0.000    0.000    0.000    0.000    0.000 
#
# Total GULP energy -133730.579854 kJ/mol
# GULP energy per Si atom -5572.107494 kJ/mol
# Density = 2.107986 g / cm^3
# Si number density = 21.127946 Si / 1000 Ang^3
#
#
#
# Elastic Constant Matrix: (Units=GPa)
#
#
# Indices 1 2 3 4 5 6 
#
# 1 156.4785 14.0729 60.2295 0.0000 0.0000 0.0000
# 2 14.0729 22.5905 9.7292 0.0000 0.0000 0.0000
# 3 60.2295 9.7292 119.0214 0.0000 0.0000 0.0000
# 4 0.0000 0.0000 0.0000 118.1985 0.0000 0.0000
# 5 0.0000 0.0000 0.0000 0.0000 43.0859 0.0000
# 6 0.0000 0.0000 0.0000 0.0000 0.0000 -5.5857
#
#
#
# Elastic Compliance Matrix: (Units=1/GPa)
#
#
# Indices 1 2 3 4 5 6 
#
# 1 0.008186 -0.003436 -0.003862 0.000000 0.000000 0.000000
# 2 -0.003436 0.047324 -0.002129 0.000000 0.000000 0.000000
# 3 -0.003862 -0.002129 0.010530 0.000000 0.000000 0.000000
# 4 0.000000 0.000000 0.000000 0.008460 0.000000 0.000000
# 5 0.000000 0.000000 0.000000 0.000000 0.023209 0.000000
# 6 0.000000 0.000000 0.000000 0.000000 0.000000 -0.179028
#
#
# Mechanical properties :
#
#
# Convention : Reuss Voigt Hill
#
# Bulk Modulus (GPa) = 21.19303 51.79486 36.49395
# Shear Modulus (GPa) = -106.98776 45.41033 -30.78871
#
# Velocity S-wave (km/s) = -7.12376 4.64109 -3.82154
# Velocity P-wave (km/s) = 7.59022 7.29984 1.47033
#
# Compressibility (1/GPa) = 0.04718532
#
# Stress axis : x y z
#
# Youngs Moduli (GPa) = 122.15908 21.13084 94.96662
#
# Poissons Ratio (x) = 0.07262 0.36672
# Poissons Ratio (y) = 0.41980 0.20223
# Poissons Ratio (z) = 0.47172 0.04500
#
# Static dielectric constant tensor:
#      x y z
#    x 1.754610 0.000000 0.000000 
#    y 0.000000 1.752200 0.000000 
#    z 0.000000 0.000000 1.856740 
# 
# From -- ./inp_files/23538.got.cif
#   From: 2010.05.17/outbox.cif.g08.bks.cpg/sg20_12_cif.got.tgz:23538.got - 2010.06.03 22:52:26.
