data_PCOD9316551
_publ_section_title
;
Structure prediction by ZEFSAII (Michael W. Deem and Ramdas Pophale) SiO2 
 PCOD9316551
Probable space group: C 2 2 21
;
_chemical_formula_sum "Si O2"
_cell_formula_units_Z 48
_cell_length_a 11.760287
_cell_length_b 13.874581
_cell_length_c 16.173780
_cell_angle_alpha 90.000000
_cell_angle_beta 90.000000
_cell_angle_gamma 90.000000
_cell_volume 2639.060391
_symmetry_space_group_name_H-M "C 2 2 21"
_symmetry_group_IT_number 20
_symmetry_cell_setting 'orthorhombic'
loop_
_space_group_symop_operation_xyz
x,y,z
-x,-y,1/2+z
x,-y,-z
-x,y,1/2-z
1/2+x,1/2+y,z
1/2-x,1/2-y,1/2+z
1/2+x,1/2-y,-z
1/2-x,1/2+y,1/2-z
loop_
_atom_site_type_symbol
_atom_site_label
_atom_site_fract_x
_atom_site_fract_y
_atom_site_fract_z
Si Si1 0.620653 0.121411 0.295953
Si Si2 0.521371 0.965468 0.405879
Si Si3 0.478024 0.756245 0.350347
Si Si4 0.903110 0.900147 0.966305
Si Si5 0.269585 0.986783 0.661154
Si Si6 0.786649 0.810837 0.128046
O O1 0.500000 0.126078 0.250000
O O2 0.719381 0.089828 0.233626
O O3 0.643462 0.223477 0.335329
O O4 0.609917 0.034007 0.359921
O O5 0.540284 0.853361 0.384559
O O6 0.519456 0.000000 0.500000
O O7 0.396970 0.988600 0.368298
O O8 0.500000 0.747849 0.250000
O O9 0.522393 0.666388 0.405129
O O10 0.344690 0.774897 0.371620
O O11 0.798631 0.939826 0.912743
O O12 0.845502 0.840763 0.041421
O O13 0.960300 0.000000 0.000000
O O14 0.214144 0.090073 0.680943
#
# Coordination Sequence:
#
# PCOD9316551 Si02
#       6
#     8   8   8   8   8   8
#     4  10  20  34  54  82 109 135 177 227 268 312
#     4  10  18  32  55  81 108 139 177 223 270 320
#     4  11  21  36  58  84 111 144 185 230 276 326
#     4  10  21  38  57  76 106 148 186 218 270 338
#     4   9  18  34  54  74 104 146 181 211 262 337
#     4  10  20  36  56  81 109 142 183 225 272 327
#
# _framework density 18.188289999999999
#
# number of rings (size 3 to 8) (size 9 to 14) (size 15 to 20)
#    0.000    2.000    0.000    7.000    0.000    1.333 
#    0.000    9.167    0.000    0.000    0.000    0.000 
#    0.000    0.000    0.000    0.000    0.000    0.000 
#
# Total GULP energy -133681.036959 kJ/mol
# GULP energy per Si atom -5570.043207 kJ/mol
# Density = 1.814689 g / cm^3
# Si number density = 18.188290 Si / 1000 Ang^3
#
#
#
# Elastic Constant Matrix: (Units=GPa)
#
#
# Indices 1 2 3 4 5 6 
#
# 1 25.9394 28.2023 15.3694 0.0000 0.0000 0.0000
# 2 28.2023 158.4622 82.5090 0.0000 0.0000 0.0000
# 3 15.3694 82.5090 77.6884 0.0000 0.0000 0.0000
# 4 0.0000 0.0000 0.0000 40.5666 0.0000 0.0000
# 5 0.0000 0.0000 0.0000 0.0000 13.0965 0.0000
# 6 0.0000 0.0000 0.0000 0.0000 0.0000 -1.9429
#
#
#
# Elastic Compliance Matrix: (Units=1/GPa)
#
#
# Indices 1 2 3 4 5 6 
#
# 1 0.047832 -0.008022 -0.000943 0.000000 0.000000 0.000000
# 2 -0.008022 0.015463 -0.014835 0.000000 0.000000 0.000000
# 3 -0.000943 -0.014835 0.028815 0.000000 0.000000 0.000000
# 4 0.000000 0.000000 0.000000 0.024651 0.000000 0.000000
# 5 0.000000 0.000000 0.000000 0.000000 0.076356 0.000000
# 6 0.000000 0.000000 0.000000 0.000000 0.000000 -0.514683
#
#
# Mechanical properties :
#
#
# Convention : Reuss Voigt Hill
#
# Bulk Modulus (GPa) = 22.46764 57.13906 39.80335
# Shear Modulus (GPa) = -19.29533 19.41131 0.05799
#
# Velocity S-wave (km/s) = -3.26063 3.27041 0.17875
# Velocity P-wave (km/s) = 1.34013 6.76345 4.68766
#
# Compressibility (1/GPa) = 0.04450846
#
# Stress axis : x y z
#
# Youngs Moduli (GPa) = 20.90655 64.67087 34.70474
#
# Poissons Ratio (x) = 0.51877 0.03274
# Poissons Ratio (y) = 0.16771 0.51486
# Poissons Ratio (z) = 0.01972 0.95942
#
# Static dielectric constant tensor:
#      x y z
#    x 1.614060 0.000000 0.000000 
#    y 0.000000 1.641180 0.000000 
#    z 0.000000 0.000000 1.704790 
# 
# From -- ./inp_files/19911.got.cif
#   From: 2010.05.17/outbox.cif.g08.bks.cpg/sg20_10_cif.got.tgz:19911.got - 2010.06.03 22:52:26.
