data_PCOD9316905
_publ_section_title
;
Structure prediction by ZEFSAII (Michael W. Deem and Ramdas Pophale) SiO2 
 PCOD9316905
Probable space group: C 2 2 21
;
_chemical_formula_sum "Si O2"
_cell_formula_units_Z 48
_cell_length_a 19.620033
_cell_length_b 19.620039
_cell_length_c 5.421885
_cell_angle_alpha 90.000000
_cell_angle_beta 90.000000
_cell_angle_gamma 90.000000
_cell_volume 2087.131927
_symmetry_space_group_name_H-M "C 2 2 21"
_symmetry_group_IT_number 20
_symmetry_cell_setting 'orthorhombic'
loop_
_space_group_symop_operation_xyz
x,y,z
-x,-y,1/2+z
x,-y,-z
-x,y,1/2-z
1/2+x,1/2+y,z
1/2-x,1/2-y,1/2+z
1/2+x,1/2-y,-z
1/2-x,1/2+y,1/2-z
loop_
_atom_site_type_symbol
_atom_site_label
_atom_site_fract_x
_atom_site_fract_y
_atom_site_fract_z
Si Si1 0.768847 0.567230 0.128823
Si Si2 0.588478 0.385066 0.380526
Si Si3 0.614934 0.588478 0.130526
Si Si4 0.567230 0.768847 0.621177
Si Si5 0.752475 0.642843 0.630598
Si Si6 0.642843 0.752475 0.119402
O O1 0.687918 0.553270 0.156005
O O2 0.784364 0.598481 0.400972
O O3 0.801028 0.500000 0.000000
O O4 0.774726 0.618931 0.901894
O O5 0.574314 0.425686 0.625000
O O6 0.553270 0.312082 0.406005
O O7 0.670989 0.367778 0.381147
O O8 0.577853 0.422147 0.125000
O O9 0.632222 0.670989 0.131146
O O10 0.500000 0.801028 0.750000
O O11 0.598481 0.784363 0.349027
O O12 0.618931 0.774726 0.848105
O O13 0.780281 0.719719 0.625000
#
# Coordination Sequence:
#
# PCOD9316905 Si02
#       6
#     8   8   8   8   8   8
#     4  10  19  30  44  66  98 128 154 191 237 285
#     4   8  16  27  42  63  89 121 156 184 221 274
#     4   8  16  27  42  63  89 121 156 184 221 274
#     4  10  19  30  44  66  98 128 154 191 237 285
#     4  10  19  31  48  69  95 127 161 193 232 287
#     4  10  19  31  48  69  95 127 161 193 232 287
#
# _framework density 22.998069000000001
#
# number of rings (size 3 to 8) (size 9 to 14) (size 15 to 20)
#    0.000    2.667    0.000    2.000    0.000   12.000 
#    0.000    0.000    0.000    0.000    0.000    0.000 
#    0.000  253.333    0.000    3.000    0.000    0.000 
#
# Total GULP energy -133656.467723 kJ/mol
# GULP energy per Si atom -5569.019488 kJ/mol
# Density = 2.294572 g / cm^3
# Si number density = 22.998069 Si / 1000 Ang^3
#
#
#
# Elastic Constant Matrix: (Units=GPa)
#
#
# Indices 1 2 3 4 5 6 
#
# 1 35.0322 21.4624 12.4789 0.0000 0.0000 0.0000
# 2 21.4624 35.0322 12.4789 0.0000 0.0000 0.0000
# 3 12.4789 12.4789 229.1127 0.0000 0.0000 0.0000
# 4 0.0000 0.0000 0.0000 16.6324 0.0000 0.0000
# 5 0.0000 0.0000 0.0000 0.0000 16.6323 0.0000
# 6 0.0000 0.0000 0.0000 0.0000 0.0000 1.1924
#
#
#
# Elastic Compliance Matrix: (Units=1/GPa)
#
#
# Indices 1 2 3 4 5 6 
#
# 1 0.045915 -0.027778 -0.000988 0.000000 0.000000 0.000000
# 2 -0.027778 0.045915 -0.000988 0.000000 0.000000 0.000000
# 3 -0.000988 -0.000988 0.004472 0.000000 0.000000 0.000000
# 4 0.000000 0.000000 0.000000 0.060123 0.000000 0.000000
# 5 0.000000 0.000000 0.000000 0.000000 0.060124 0.000000
# 6 0.000000 0.000000 0.000000 0.000000 0.000000 0.838622
#
#
# Mechanical properties :
#
#
# Convention : Reuss Voigt Hill
#
# Bulk Modulus (GPa) = 27.17740 43.55749 35.36744
# Shear Modulus (GPa) = 4.43678 23.74190 14.08934
#
# Velocity S-wave (km/s) = 1.39046 3.21650 2.47782
# Velocity P-wave (km/s) = 3.79747 5.72496 4.85778
#
# Compressibility (1/GPa) = 0.03679528
#
# Stress axis : x y z
#
# Youngs Moduli (GPa) = 21.77934 21.77939 223.59980
#
# Poissons Ratio (x) = 0.60498 0.22089
# Poissons Ratio (y) = 0.60498 0.22089
# Poissons Ratio (z) = 0.02152 0.02152
#
# Static dielectric constant tensor:
#      x y z
#    x 1.939320 0.000000 0.000000 
#    y 0.000000 1.939320 0.000000 
#    z 0.000000 0.000000 1.981560 
# 
# From -- ./inp_files/3177.got.cif
#   From: 2010.05.17/outbox.cif.g08.bks.cpg/sg20_2_cif.got.tgz:3177.got - 2010.06.03 22:52:26.
