data_PCOD9316726
_publ_section_title
;
Structure prediction by ZEFSAII (Michael W. Deem and Ramdas Pophale) SiO2 
 PCOD9316726
Probable space group: C 2 2 21
;
_chemical_formula_sum "Si O2"
_cell_formula_units_Z 48
_cell_length_a 18.769755
_cell_length_b 18.686313
_cell_length_c 5.239092
_cell_angle_alpha 90.000000
_cell_angle_beta 90.000000
_cell_angle_gamma 90.000000
_cell_volume 1837.546119
_symmetry_space_group_name_H-M "C 2 2 21"
_symmetry_group_IT_number 20
_symmetry_cell_setting 'orthorhombic'
loop_
_space_group_symop_operation_xyz
x,y,z
-x,-y,1/2+z
x,-y,-z
-x,y,1/2-z
1/2+x,1/2+y,z
1/2-x,1/2-y,1/2+z
1/2+x,1/2-y,-z
1/2-x,1/2+y,1/2-z
loop_
_atom_site_type_symbol
_atom_site_label
_atom_site_fract_x
_atom_site_fract_y
_atom_site_fract_z
Si Si1 0.120710 0.160332 0.540274
Si Si2 0.076132 0.297693 0.842351
Si Si3 0.500000 0.949432 0.250000
Si Si4 0.000000 0.195614 0.250000
Si Si5 0.736893 0.798310 0.836789
Si Si6 0.304269 0.548569 0.744162
Si Si7 0.850329 0.550495 0.749375
O O1 0.099620 0.239750 0.628764
O O2 0.193153 0.153630 0.378251
O O3 0.136651 0.108930 0.771677
O O4 0.050872 0.141642 0.395660
O O5 0.156427 0.332247 0.862106
O O6 0.000000 0.334177 0.750000
O O7 0.049983 0.247940 0.077068
O O8 0.498731 0.000000 0.500000
O O9 0.574542 0.907349 0.246627
O O10 0.752611 0.757924 0.570403
O O11 0.307006 0.500000 0.500000
O O12 0.225984 0.586276 0.733790
O O13 0.310019 0.500000 0.000000
O O14 0.849406 0.500000 0.500000
O O15 0.854612 0.500000 0.000000
#
# Coordination Sequence:
#
# PCOD9316726 Si02
#       7
#     8   8   4   4   8   8   8
#     4  10  21  35  61  86 120 158 209 253 299 377
#     4   9  19  34  58  89 123 158 192 245 309 379
#     4   8  12  20  40  63  88 114 158 214 267 320
#     4  10  18  36  60  85 118 156 200 242 311 366
#     4  10  19  34  57  92 118 152 200 244 307 375
#     4  10  22  36  56  80 113 155 206 256 299 342
#     4   8  14  26  42  69  92 126 173 227 279 327
#
# _framework density 26.121791000000002
#
# number of rings (size 3 to 8) (size 9 to 14) (size 15 to 20)
#    0.000    2.667    1.667    0.000    2.333    0.000 
#    0.000    0.000    5.500    1.000   28.167    0.000 
#    0.000    0.000    0.000    0.000    0.000    0.000 
#
# Total GULP energy -133941.045833 kJ/mol
# GULP energy per Si atom -5580.876910 kJ/mol
# Density = 2.606234 g / cm^3
# Si number density = 26.121791 Si / 1000 Ang^3
#
#
#
# Elastic Constant Matrix: (Units=GPa)
#
#
# Indices 1 2 3 4 5 6 
#
# 1 167.3429 52.9598 26.6741 0.0000 0.0000 0.0000
# 2 52.9598 52.1313 14.3853 0.0000 0.0000 0.0000
# 3 26.6741 14.3853 130.9448 0.0000 0.0000 0.0000
# 4 0.0000 0.0000 0.0000 18.9881 0.0000 0.0000
# 5 0.0000 0.0000 0.0000 0.0000 39.9307 0.0000
# 6 0.0000 0.0000 0.0000 0.0000 0.0000 796.6970
#
#
#
# Elastic Compliance Matrix: (Units=1/GPa)
#
#
# Indices 1 2 3 4 5 6 
#
# 1 0.008897 -0.008805 -0.000845 0.000000 0.000000 0.000000
# 2 -0.008805 0.028496 -0.001337 0.000000 0.000000 0.000000
# 3 -0.000845 -0.001337 0.007956 0.000000 0.000000 0.000000
# 4 0.000000 0.000000 0.000000 0.052665 0.000000 0.000000
# 5 0.000000 0.000000 0.000000 0.000000 0.025043 0.000000
# 6 0.000000 0.000000 0.000000 0.000000 0.000000 0.001255
#
#
# Mechanical properties :
#
#
# Convention : Reuss Voigt Hill
#
# Bulk Modulus (GPa) = 42.78090 59.82861 51.30476
# Shear Modulus (GPa) = 32.45095 188.21648 110.33372
#
# Velocity S-wave (km/s) = 3.52844 8.49764 6.50614
# Velocity P-wave (km/s) = 5.74569 10.91940 8.72485
#
# Compressibility (1/GPa) = 0.02337491
#
# Stress axis : x y z
#
# Youngs Moduli (GPa) = 112.39604 35.09209 125.69428
#
# Poissons Ratio (x) = 0.30900 0.10622
# Poissons Ratio (y) = 0.98968 0.16804
# Poissons Ratio (z) = 0.09498 0.04691
#
# Static dielectric constant tensor:
#      x y z
#    x 2.136660 0.000000 0.000000 
#    y 0.000000 2.110780 0.000000 
#    z 0.000000 0.000000 1.027060 
# 
# From -- ./inp_files/2752.got.cif
#   From: 2010.05.17/outbox.cif.g08.bks.cpg/sg20_2_cif.got.tgz:2752.got - 2010.06.03 22:52:26.
