data_PCOD9316820
_publ_section_title
;
Structure prediction by ZEFSAII (Michael W. Deem and Ramdas Pophale) SiO2 
 PCOD9316820
Probable space group: C 2 2 21
;
_chemical_formula_sum "Si O2"
_cell_formula_units_Z 56
_cell_length_a 31.276175
_cell_length_b 14.212874
_cell_length_c 5.168393
_cell_angle_alpha 90.000000
_cell_angle_beta 90.000000
_cell_angle_gamma 90.000000
_cell_volume 2297.476459
_symmetry_space_group_name_H-M "C 2 2 21"
_symmetry_group_IT_number 20
_symmetry_cell_setting 'orthorhombic'
loop_
_space_group_symop_operation_xyz
x,y,z
-x,-y,1/2+z
x,-y,-z
-x,y,1/2-z
1/2+x,1/2+y,z
1/2-x,1/2-y,1/2+z
1/2+x,1/2-y,-z
1/2-x,1/2+y,1/2-z
loop_
_atom_site_type_symbol
_atom_site_label
_atom_site_fract_x
_atom_site_fract_y
_atom_site_fract_z
Si Si1 0.559449 0.092717 0.606677
Si Si2 0.874452 0.500000 0.500000
Si Si3 0.047863 0.197115 0.250104
Si Si4 0.159576 0.000000 0.000000
Si Si5 0.642271 0.851040 0.632000
Si Si6 0.770503 0.126107 0.245362
Si Si7 0.894366 0.838490 0.247445
Si Si8 0.715032 0.849978 0.258100
O O1 0.592179 0.055978 0.820654
O O2 0.541519 0.191146 0.699117
O O3 0.591928 0.126503 0.384701
O O4 0.534599 0.000000 0.500000
O O5 0.844675 0.571467 0.339311
O O6 0.078559 0.159669 0.480962
O O7 0.000000 0.154554 0.250000
O O8 0.072835 0.184722 0.980863
O O9 0.188902 0.060994 0.196407
O O10 0.130101 0.068118 0.829360
O O11 0.642065 0.743387 0.721039
O O12 0.666828 0.866375 0.363945
O O13 0.742154 0.114147 0.987213
O O14 0.783317 0.236254 0.252939
O O15 0.740828 0.113885 0.494122
#
# Coordination Sequence:
#
# PCOD9316820 Si02
#       8
#     8   4   8   4   8   8   8   8
#     4   9  20  38  61 107 147 202 254 302 372 465
#     4  10  18  38  68 102 148 187 265 300 360 458
#     4  11  24  49  75 114 162 201 254 330 406 473
#     4  12  30  52  84 114 152 203 281 326 376 488
#     4  10  22  40  74 103 152 200 256 313 370 473
#     4  10  26  46  72 106 145 191 247 328 386 450
#     4  11  27  46  82 116 147 210 263 322 395 458
#     4  10  24  46  73 103 147 194 241 315 406 432
#
# _framework density 24.374569000000001
#
# number of rings (size 3 to 8) (size 9 to 14) (size 15 to 20)
#    0.000    1.714    1.429    0.429   12.000    2.286 
#    5.143    1.429    0.000    0.000    0.000    0.000 
#    0.000    0.000    0.000    0.000    0.000    0.000 
#
# Total GULP energy -156425.239922 kJ/mol
# GULP energy per Si atom -5586.615711 kJ/mol
# Density = 2.431909 g / cm^3
# Si number density = 24.374569 Si / 1000 Ang^3
#
#
#
# Elastic Constant Matrix: (Units=GPa)
#
#
# Indices 1 2 3 4 5 6 
#
# 1 112.5877 46.2159 46.3920 0.0000 0.0000 0.0000
# 2 46.2159 118.5717 36.7766 0.0000 0.0000 0.0000
# 3 46.3920 36.7766 158.4659 0.0000 0.0000 0.0000
# 4 0.0000 0.0000 0.0000 30.8467 0.0000 0.0000
# 5 0.0000 0.0000 0.0000 0.0000 59.2738 0.0000
# 6 0.0000 0.0000 0.0000 0.0000 0.0000 16.6314
#
#
#
# Elastic Compliance Matrix: (Units=1/GPa)
#
#
# Indices 1 2 3 4 5 6 
#
# 1 0.011417 -0.003678 -0.002489 0.000000 0.000000 0.000000
# 2 -0.003678 0.010273 -0.001307 0.000000 0.000000 0.000000
# 3 -0.002489 -0.001307 0.007343 0.000000 0.000000 0.000000
# 4 0.000000 0.000000 0.000000 0.032418 0.000000 0.000000
# 5 0.000000 0.000000 0.000000 0.000000 0.016871 0.000000
# 6 0.000000 0.000000 0.000000 0.000000 0.000000 0.060127
#
#
# Mechanical properties :
#
#
# Convention : Reuss Voigt Hill
#
# Bulk Modulus (GPa) = 71.00258 72.04383 71.52320
# Shear Modulus (GPa) = 31.62700 38.69976 35.16338
#
# Velocity S-wave (km/s) = 3.60605 3.98893 3.80231
# Velocity P-wave (km/s) = 6.82137 7.12998 6.97738
#
# Compressibility (1/GPa) = 0.01408400
#
# Stress axis : x y z
#
# Youngs Moduli (GPa) = 87.58580 97.34395 136.19265
#
# Poissons Ratio (x) = 0.35805 0.33897
# Poissons Ratio (y) = 0.32216 0.17804
# Poissons Ratio (z) = 0.21799 0.12726
#
# Static dielectric constant tensor:
#      x y z
#    x 2.029060 0.000000 0.000000 
#    y 0.000000 1.987860 0.000000 
#    z 0.000000 0.000000 1.824390 
# 
# From -- ./inp_files/4724.got.cif
#   From: 2010.05.17/outbox.cif.g08.bks.cpg/sg20_3_cif.got.tgz:4724.got - 2010.06.03 22:52:26.
