data_PCOD9316886
_publ_section_title
;
Structure prediction by ZEFSAII (Michael W. Deem and Ramdas Pophale) SiO2 
 PCOD9316886
Probable space group: C 2 2 21
;
_chemical_formula_sum "Si O2"
_cell_formula_units_Z 48
_cell_length_a 8.805687
_cell_length_b 18.532025
_cell_length_c 12.868092
_cell_angle_alpha 90.000000
_cell_angle_beta 90.000000
_cell_angle_gamma 90.000000
_cell_volume 2099.908052
_symmetry_space_group_name_H-M "C 2 2 21"
_symmetry_group_IT_number 20
_symmetry_cell_setting 'orthorhombic'
loop_
_space_group_symop_operation_xyz
x,y,z
-x,-y,1/2+z
x,-y,-z
-x,y,1/2-z
1/2+x,1/2+y,z
1/2-x,1/2-y,1/2+z
1/2+x,1/2-y,-z
1/2-x,1/2+y,1/2-z
loop_
_atom_site_type_symbol
_atom_site_label
_atom_site_fract_x
_atom_site_fract_y
_atom_site_fract_z
Si Si1 0.687237 0.669494 0.993411
Si Si2 0.654405 0.688712 0.580149
Si Si3 0.729468 0.644044 0.362602
Si Si4 0.740263 0.527949 0.110504
Si Si5 0.500000 0.080392 0.250000
Si Si6 0.670568 0.808949 0.288485
Si Si7 0.500000 0.534294 0.250000
O O1 0.525451 0.691141 0.943136
O O2 0.791715 0.649594 0.894908
O O3 0.765774 0.735520 0.052450
O O4 0.676021 0.607352 0.079083
O O5 0.715043 0.638156 0.486737
O O6 0.711583 0.672500 0.696043
O O7 0.684190 0.724139 0.322773
O O8 0.621994 0.584978 0.308325
O O9 0.900185 0.629394 0.326125
O O10 0.598044 0.490238 0.166599
O O11 0.882647 0.533593 0.184852
O O12 0.786674 0.500000 0.000000
O O13 0.500000 0.821742 0.250000
#
# Coordination Sequence:
#
# PCOD9316886 Si02
#       7
#     8   8   8   8   4   8   4
#     4  11  24  38  65  94 133 170 204 269 317 388
#     4  11  21  37  60  97 135 166 206 255 330 388
#     4  10  20  35  63  89 128 162 216 246 308 385
#     4  11  25  48  66  93 126 167 226 267 312 382
#     4  10  24  38  70  92 116 176 210 262 312 376
#     4  11  23  35  56  97 139 172 198 259 327 386
#     4  10  18  44  68  88 112 170 214 262 300 372
#
# _framework density 22.858143999999999
#
# number of rings (size 3 to 8) (size 9 to 14) (size 15 to 20)
#    0.000    1.333    2.500    4.500   11.667    0.000 
#    4.500    3.333    0.000    0.000    0.000    0.000 
#    0.000    0.000    0.000    0.000    0.000    0.000 
#
# Total GULP energy -134189.554002 kJ/mol
# GULP energy per Si atom -5591.231417 kJ/mol
# Density = 2.280612 g / cm^3
# Si number density = 22.858144 Si / 1000 Ang^3
#
#
#
# Elastic Constant Matrix: (Units=GPa)
#
#
# Indices 1 2 3 4 5 6 
#
# 1 130.5773 0.5201 29.2422 0.0000 0.0000 0.0000
# 2 0.5201 11.6737 -3.3046 0.0000 0.0000 0.0000
# 3 29.2422 -3.3046 136.0567 0.0000 0.0000 0.0000
# 4 0.0000 0.0000 0.0000 16.0729 0.0000 0.0000
# 5 0.0000 0.0000 0.0000 0.0000 49.0852 0.0000
# 6 0.0000 0.0000 0.0000 0.0000 0.0000 2.8186
#
#
#
# Elastic Compliance Matrix: (Units=1/GPa)
#
#
# Indices 1 2 3 4 5 6 
#
# 1 0.008054 -0.000855 -0.001752 0.000000 0.000000 0.000000
# 2 -0.000855 0.086346 0.002281 0.000000 0.000000 0.000000
# 3 -0.001752 0.002281 0.007782 0.000000 0.000000 0.000000
# 4 0.000000 0.000000 0.000000 0.062216 0.000000 0.000000
# 5 0.000000 0.000000 0.000000 0.000000 0.020373 0.000000
# 6 0.000000 0.000000 0.000000 0.000000 0.000000 0.354790
#
#
# Mechanical properties :
#
#
# Convention : Reuss Voigt Hill
#
# Bulk Modulus (GPa) = 9.84922 36.80258 23.32590
# Shear Modulus (GPa) = 8.70996 30.38533 19.54764
#
# Velocity S-wave (km/s) = 1.95415 3.64991 2.92750
# Velocity P-wave (km/s) = 3.06754 5.82219 4.65337
#
# Compressibility (1/GPa) = 0.10153084
#
# Stress axis : x y z
#
# Youngs Moduli (GPa) = 124.16180 11.58128 128.50528
#
# Poissons Ratio (x) = 0.00990 0.22511
# Poissons Ratio (y) = 0.10612 -0.29311
# Poissons Ratio (z) = 0.21750 -0.02642
#
# Static dielectric constant tensor:
#      x y z
#    x 1.833500 0.000000 0.000000 
#    y 0.000000 1.899740 0.000000 
#    z 0.000000 0.000000 1.877710 
# 
# From -- ./inp_files/13145.got.cif
#   From: 2010.05.17/outbox.cif.g08.bks.cpg/sg20_7_cif.got.tgz:13145.got - 2010.06.03 22:52:26.
