data_PCOD9316884
_publ_section_title
;
Structure prediction by ZEFSAII (Michael W. Deem and Ramdas Pophale) SiO2 
 PCOD9316884
Probable space group: C 2 2 21
;
_chemical_formula_sum "Si O2"
_cell_formula_units_Z 48
_cell_length_a 10.637967
_cell_length_b 19.826454
_cell_length_c 11.934287
_cell_angle_alpha 90.000000
_cell_angle_beta 90.000000
_cell_angle_gamma 90.000000
_cell_volume 2517.098224
_symmetry_space_group_name_H-M "C 2 2 21"
_symmetry_group_IT_number 20
_symmetry_cell_setting 'orthorhombic'
loop_
_space_group_symop_operation_xyz
x,y,z
-x,-y,1/2+z
x,-y,-z
-x,y,1/2-z
1/2+x,1/2+y,z
1/2-x,1/2-y,1/2+z
1/2+x,1/2-y,-z
1/2-x,1/2+y,1/2-z
loop_
_atom_site_type_symbol
_atom_site_label
_atom_site_fract_x
_atom_site_fract_y
_atom_site_fract_z
Si Si1 0.291161 0.061050 0.194574
Si Si2 0.887161 0.818088 0.661131
Si Si3 0.966049 0.500000 0.000000
Si Si4 0.213233 0.808609 0.287790
Si Si5 0.529162 0.715417 0.911054
Si Si6 0.500000 0.162024 0.250000
Si Si7 0.125434 0.561608 0.822867
O O1 0.171901 0.106332 0.159808
O O2 0.381142 0.114056 0.255997
O O3 0.280601 0.996975 0.277838
O O4 0.372661 0.035633 0.088083
O O5 0.781386 0.763189 0.696021
O O6 0.935974 0.794807 0.539105
O O7 0.000000 0.815574 0.750000
O O8 0.064608 0.551884 0.944408
O O9 0.142422 0.810639 0.168205
O O10 0.313573 0.866890 0.301749
O O11 0.102427 0.819522 0.378568
O O12 0.503816 0.790070 0.859503
O O13 0.000000 0.553703 0.750000
#
# Coordination Sequence:
#
# PCOD9316884 Si02
#       7
#     8   8   4   8   8   4   8
#     4  11  22  43  62  96 134 164 222 273 322 396
#     4  12  27  40  67 101 129 173 224 269 334 397
#     4  10  22  36  68  96 122 178 208 270 334 370
#     4  10  23  43  65  92 131 167 216 275 320 396
#     4  10  24  42  66  93 128 179 209 266 344 376
#     4  10  18  44  66  90 130 178 210 276 326 376
#     4  10  22  38  64  97 123 165 225 264 323 389
#
# _framework density 19.069578
#
# number of rings (size 3 to 8) (size 9 to 14) (size 15 to 20)
#    0.000    1.667    5.833    0.500    9.333    1.333 
#    3.000    0.000    0.000    0.000    0.000    0.000 
#    0.000    0.000    0.000    0.000    0.000    0.000 
#
# Total GULP energy -133733.593247 kJ/mol
# GULP energy per Si atom -5572.233052 kJ/mol
# Density = 1.902617 g / cm^3
# Si number density = 19.069578 Si / 1000 Ang^3
#
#
#
# Elastic Constant Matrix: (Units=GPa)
#
#
# Indices 1 2 3 4 5 6 
#
# 1 75.8173 37.6076 50.0137 0.0000 0.0000 0.0000
# 2 37.6076 60.9663 9.8931 0.0000 0.0000 0.0000
# 3 50.0137 9.8931 93.9674 0.0000 0.0000 0.0000
# 4 0.0000 0.0000 0.0000 12.7761 0.0000 0.0000
# 5 0.0000 0.0000 0.0000 0.0000 15.2013 0.0000
# 6 0.0000 0.0000 0.0000 0.0000 0.0000 8.7617
#
#
#
# Elastic Compliance Matrix: (Units=1/GPa)
#
#
# Indices 1 2 3 4 5 6 
#
# 1 0.031504 -0.017003 -0.014978 0.000000 0.000000 0.000000
# 2 -0.017003 0.025864 0.006327 0.000000 0.000000 0.000000
# 3 -0.014978 0.006327 0.017948 0.000000 0.000000 0.000000
# 4 0.000000 0.000000 0.000000 0.078271 0.000000 0.000000
# 5 0.000000 0.000000 0.000000 0.000000 0.065784 0.000000
# 6 0.000000 0.000000 0.000000 0.000000 0.000000 0.114133
#
#
# Mechanical properties :
#
#
# Convention : Reuss Voigt Hill
#
# Bulk Modulus (GPa) = 41.65285 47.30887 44.48086
# Shear Modulus (GPa) = 12.72869 16.23026 14.47948
#
# Velocity S-wave (km/s) = 2.58638 2.92054 2.75852
# Velocity P-wave (km/s) = 5.55060 6.01956 5.78983
#
# Compressibility (1/GPa) = 0.02400796
#
# Stress axis : x y z
#
# Youngs Moduli (GPa) = 31.74241 38.66347 55.71760
#
# Poissons Ratio (x) = 0.65739 0.83451
# Poissons Ratio (y) = 0.53971 -0.35250
# Poissons Ratio (z) = 0.47542 -0.24461
#
# Static dielectric constant tensor:
#      x y z
#    x 1.662280 0.000000 0.000000 
#    y 0.000000 1.670170 0.000000 
#    z 0.000000 0.000000 1.792050 
# 
# From -- ./inp_files/14278.got.cif
#   From: 2010.05.17/outbox.cif.g08.bks.cpg/sg20_8_cif.got.tgz:14278.got - 2010.06.03 22:52:26.
