data_PCOD9316390
_publ_section_title
;
Structure prediction by ZEFSAII (Michael W. Deem and Ramdas Pophale) SiO2 
 PCOD9316390
Probable space group: C 2 2 21
;
_chemical_formula_sum "Si O2"
_cell_formula_units_Z 56
_cell_length_a 9.324079
_cell_length_b 21.721974
_cell_length_c 15.150243
_cell_angle_alpha 90.000000
_cell_angle_beta 90.000000
_cell_angle_gamma 90.000000
_cell_volume 3068.490851
_symmetry_space_group_name_H-M "C 2 2 21"
_symmetry_group_IT_number 20
_symmetry_cell_setting 'orthorhombic'
loop_
_space_group_symop_operation_xyz
x,y,z
-x,-y,1/2+z
x,-y,-z
-x,y,1/2-z
1/2+x,1/2+y,z
1/2-x,1/2-y,1/2+z
1/2+x,1/2-y,-z
1/2-x,1/2+y,1/2-z
loop_
_atom_site_type_symbol
_atom_site_label
_atom_site_fract_x
_atom_site_fract_y
_atom_site_fract_z
Si Si1 0.659903 0.545898 0.253915
Si Si2 0.315502 0.662886 0.116214
Si Si3 0.572957 0.128683 0.973744
Si Si4 0.940763 0.745687 0.649772
Si Si5 0.416313 0.025547 0.669187
Si Si6 0.852966 0.719622 0.229634
Si Si7 0.883736 0.592735 0.128908
O O1 0.500000 0.522758 0.250000
O O2 0.659396 0.604539 0.319676
O O3 0.764276 0.495892 0.295157
O O4 0.729536 0.566746 0.160259
O O5 0.467854 0.698099 0.105884
O O6 0.220903 0.708665 0.176165
O O7 0.212749 0.643208 0.035122
O O8 0.542636 0.186171 0.910552
O O9 0.597308 0.068565 0.914544
O O10 0.432664 0.114340 0.032944
O O11 0.770723 0.756608 0.664365
O O12 0.000000 0.738792 0.750000
O O13 0.500000 0.057783 0.750000
O O14 0.505299 0.962602 0.650397
O O15 0.897929 0.654027 0.187364
O O16 0.000000 0.755388 0.250000
#
# Coordination Sequence:
#
# PCOD9316390 Si02
#       7
#     8   8   8   8   8   8   8
#     4  10  19  37  64  87 117 153 203 253 303 355
#     4  10  20  34  58  86 113 154 197 255 289 333
#     4  12  22  35  62  88 127 155 207 246 296 362
#     4  10  24  39  56  86 125 162 195 244 312 360
#     4  10  21  38  62  85 118 162 199 236 305 368
#     4  10  17  36  61  84 109 152 202 242 291 357
#     4  10  19  34  62  91 110 153 203 249 290 349
#
# _framework density 18.250014
#
# number of rings (size 3 to 8) (size 9 to 14) (size 15 to 20)
#    0.000    1.714    2.857    4.286    2.000    0.000 
#    0.000    0.714   22.000    0.000    0.000    0.000 
#    0.000    0.000    0.000    0.000    0.000    0.000 
#
# Total GULP energy -155941.900199 kJ/mol
# GULP energy per Si atom -5569.353579 kJ/mol
# Density = 1.820848 g / cm^3
# Si number density = 18.250014 Si / 1000 Ang^3
#
#
#
# Elastic Constant Matrix: (Units=GPa)
#
#
# Indices 1 2 3 4 5 6 
#
# 1 141.6879 39.3919 44.7266 0.0000 0.0000 0.0000
# 2 39.3919 63.0073 48.0345 0.0000 0.0000 0.0000
# 3 44.7266 48.0345 84.4832 0.0000 0.0000 0.0000
# 4 0.0000 0.0000 0.0000 39.3648 0.0000 0.0000
# 5 0.0000 0.0000 0.0000 0.0000 19.0446 0.0000
# 6 0.0000 0.0000 0.0000 0.0000 0.0000 1.8648
#
#
#
# Elastic Compliance Matrix: (Units=1/GPa)
#
#
# Indices 1 2 3 4 5 6 
#
# 1 0.008885 -0.003475 -0.002728 0.000000 0.000000 0.000000
# 2 -0.003475 0.029373 -0.014861 0.000000 0.000000 0.000000
# 3 -0.002728 -0.014861 0.021730 0.000000 0.000000 0.000000
# 4 0.000000 0.000000 0.000000 0.025403 0.000000 0.000000
# 5 0.000000 0.000000 0.000000 0.000000 0.052508 0.000000
# 6 0.000000 0.000000 0.000000 0.000000 0.000000 0.536239
#
#
# Mechanical properties :
#
#
# Convention : Reuss Voigt Hill
#
# Bulk Modulus (GPa) = 55.98941 61.49826 58.74383
# Shear Modulus (GPa) = 6.92309 22.52320 14.72314
#
# Velocity S-wave (km/s) = 1.94980 3.51685 2.84341
# Velocity P-wave (km/s) = 5.98453 7.08956 6.56035
#
# Compressibility (1/GPa) = 0.01786052
#
# Stress axis : x y z
#
# Youngs Moduli (GPa) = 112.54825 34.04452 46.01850
#
# Poissons Ratio (x) = 0.11831 0.12554
# Poissons Ratio (y) = 0.39113 0.68388
# Poissons Ratio (z) = 0.30703 0.50593
#
# Static dielectric constant tensor:
#      x y z
#    x 1.679850 0.000000 0.000000 
#    y 0.000000 1.618630 0.000000 
#    z 0.000000 0.000000 1.669980 
# 
# From -- ./inp_files/19182.got.cif
#   From: 2010.05.17/outbox.cif.g08.bks.cpg/sg20_10_cif.got.tgz:19182.got - 2010.06.03 22:52:26.
