data_PCOD9316635
_publ_section_title
;
Structure prediction by ZEFSAII (Michael W. Deem and Ramdas Pophale) SiO2 
 PCOD9316635
Probable space group: C 2 2 21
;
_chemical_formula_sum "Si O2"
_cell_formula_units_Z 52
_cell_length_a 14.446776
_cell_length_b 17.946713
_cell_length_c 9.281600
_cell_angle_alpha 90.000000
_cell_angle_beta 90.000000
_cell_angle_gamma 90.000000
_cell_volume 2406.460319
_symmetry_space_group_name_H-M "C 2 2 21"
_symmetry_group_IT_number 20
_symmetry_cell_setting 'orthorhombic'
loop_
_space_group_symop_operation_xyz
x,y,z
-x,-y,1/2+z
x,-y,-z
-x,y,1/2-z
1/2+x,1/2+y,z
1/2-x,1/2-y,1/2+z
1/2+x,1/2-y,-z
1/2-x,1/2+y,1/2-z
loop_
_atom_site_type_symbol
_atom_site_label
_atom_site_fract_x
_atom_site_fract_y
_atom_site_fract_z
Si Si1 0.500000 0.451062 0.750000
Si Si2 0.304972 0.573525 0.281162
Si Si3 0.333694 0.883994 0.211637
Si Si4 0.819873 0.198402 0.517561
Si Si5 0.772450 0.139675 0.970512
Si Si6 0.000000 0.715701 0.750000
Si Si7 0.162383 0.500000 0.500000
Si Si8 0.978118 0.831449 0.000665
O O1 0.604003 0.480154 0.774079
O O2 0.487375 0.403793 0.897422
O O3 0.326125 0.651552 0.366991
O O4 0.227836 0.536934 0.379890
O O5 0.275949 0.597662 0.122594
O O6 0.257286 0.839765 0.117949
O O7 0.275491 0.911047 0.349131
O O8 0.411943 0.833620 0.280228
O O9 0.385098 0.937847 0.097372
O O10 0.783237 0.282210 0.492192
O O11 0.924507 0.186338 0.578711
O O12 0.878425 0.159900 0.926129
O O13 0.971710 0.765097 0.885381
#
# Coordination Sequence:
#
# PCOD9316635 Si02
#       8
#     4   8   8   8   8   4   4   8
#     4   7  14  30  54  82 106 150 173 234 292 358
#     4   9  19  36  57  80 116 151 201 236 297 344
#     4  11  23  37  62  84 121 160 202 240 303 348
#     4  10  18  34  57  92 123 155 179 242 308 368
#     4  11  19  33  60  94 115 154 192 248 301 373
#     4  11  18  36  60  88 112 162 193 240 306 364
#     4  10  24  44  54  76 114 168 208 254 274 344
#     4   9  17  30  56  90 127 140 182 232 311 372
#
# _framework density 21.608499999999999
#
# number of rings (size 3 to 8) (size 9 to 14) (size 15 to 20)
#    0.000    2.154    3.077    1.846    0.000    1.231 
#    0.000    7.692    0.000    2.769    0.000    0.000 
#    0.000    0.000    0.000    0.000    0.000    0.000 
#
# Total GULP energy -144803.402453 kJ/mol
# GULP energy per Si atom -5569.361633 kJ/mol
# Density = 2.155932 g / cm^3
# Si number density = 21.608500 Si / 1000 Ang^3
#
#
#
# Elastic Constant Matrix: (Units=GPa)
#
#
# Indices 1 2 3 4 5 6 
#
# 1 74.1924 -7.5455 14.2440 0.0000 0.0000 0.0000
# 2 -7.5455 25.4712 10.8129 0.0000 0.0000 0.0000
# 3 14.2440 10.8129 102.8489 0.0000 0.0000 0.0000
# 4 0.0000 0.0000 0.0000 26.2708 0.0000 0.0000
# 5 0.0000 0.0000 0.0000 0.0000 20.8487 0.0000
# 6 0.0000 0.0000 0.0000 0.0000 0.0000 18.3578
#
#
#
# Elastic Compliance Matrix: (Units=1/GPa)
#
#
# Indices 1 2 3 4 5 6 
#
# 1 0.014522 0.005397 -0.002579 0.000000 0.000000 0.000000
# 2 0.005397 0.043100 -0.005279 0.000000 0.000000 0.000000
# 3 -0.002579 -0.005279 0.010635 0.000000 0.000000 0.000000
# 4 0.000000 0.000000 0.000000 0.038065 0.000000 0.000000
# 5 0.000000 0.000000 0.000000 0.000000 0.047965 0.000000
# 6 0.000000 0.000000 0.000000 0.000000 0.000000 0.054473
#
#
# Mechanical properties :
#
#
# Convention : Reuss Voigt Hill
#
# Bulk Modulus (GPa) = 15.78880 26.39281 21.09080
# Shear Modulus (GPa) = 21.29538 25.42887 23.36213
#
# Velocity S-wave (km/s) = 3.14269 3.43417 3.29166
# Velocity P-wave (km/s) = 4.52673 5.28822 4.92222
#
# Compressibility (1/GPa) = 0.06333604
#
# Stress axis : x y z
#
# Youngs Moduli (GPa) = 68.85918 23.20204 94.02828
#
# Poissons Ratio (x) = -0.12522 0.24247
# Poissons Ratio (y) = -0.37162 0.49634
# Poissons Ratio (z) = 0.17756 0.12248
#
# Static dielectric constant tensor:
#      x y z
#    x 1.760270 0.000000 0.000000 
#    y 0.000000 1.867370 0.000000 
#    z 0.000000 0.000000 1.790740 
# 
# From -- ./inp_files/8684.got.cif
#   From: 2010.05.17/outbox.cif.g08.bks.cpg/sg20_5_cif.got.tgz:8684.got - 2010.06.03 22:52:26.
