data_PCOD9316120
_publ_section_title
;
Structure prediction by ZEFSAII (Michael W. Deem and Ramdas Pophale) SiO2 
 PCOD9316120
Probable space group: P 21 21 21
;
_chemical_formula_sum "Si O2"
_cell_formula_units_Z 24
_cell_length_a 9.000000
_cell_length_b 9.000000
_cell_length_c 15.000000
_cell_angle_alpha 90.000000
_cell_angle_beta 90.000000
_cell_angle_gamma 90.000000
_cell_volume 1215.000000
_symmetry_space_group_name_H-M "P 21 21 21"
_symmetry_group_IT_number 19
_symmetry_cell_setting 'orthorhombic'
loop_
_space_group_symop_operation_xyz
x,y,z
1/2-x,-y,1/2+z
1/2+x,1/2-y,-z
-x,1/2+y,1/2-z
loop_
_atom_site_type_symbol
_atom_site_label
_atom_site_fract_x
_atom_site_fract_y
_atom_site_fract_z
Si Si1 0.205492 0.258380 0.271505
Si Si2 0.190204 0.825438 0.105779
Si Si3 0.843459 0.857003 0.045810
Si Si4 0.432171 0.443074 0.692953
Si Si5 0.332970 0.146530 0.104336
Si Si6 0.630291 0.111445 0.990034
O O1 0.244698 0.276837 0.373881
O O2 0.129774 0.417770 0.247985
O O3 0.333098 0.226609 0.200605
O O4 0.086160 0.123097 0.269950
O O5 0.166600 0.707169 0.186132
O O6 0.020338 0.851621 0.067822
O O7 0.268548 0.982251 0.119761
O O8 0.299716 0.738107 0.039593
O O9 0.765691 0.016783 0.032991
O O10 0.434888 0.511238 0.592239
O O11 0.491881 0.143033 0.055207
O O12 0.209517 0.241407 0.049078
#
# Coordination Sequence:
#
# PCOD9316120 Si02
#       6
#     4   4   4   4   4   4
#     4  10  19  34  55  84 114 144 185 235 276 321
#     4  10  19  35  59  81 111 152 187 227 275 337
#     4  10  20  37  57  81 112 146 188 229 276 331
#     4   9  19  34  55  81 112 150 187 220 274 341
#     4  11  21  37  59  82 111 146 188 231 279 332
#     4  10  22  39  57  81 110 150 191 226 278 342
#
# _framework density 19.753086
#
# number of rings (size 3 to 8) (size 9 to 14) (size 15 to 20)
#    0.000    2.000    0.000    6.000    0.000    1.333 
#    0.000   11.667    0.000    0.000    0.000    0.000 
#    0.000    0.000    0.000    0.000    0.000    0.000 
#
# Total GULP energy -133791.780745 kJ/mol
# GULP energy per Si atom -5574.657531 kJ/mol
# Density = 1.970813 g / cm^3
# Si number density = 19.753086 Si / 1000 Ang^3
#
#
#
# Elastic Constant Matrix: (Units=GPa)
#
#
# Indices 1 2 3 4 5 6 
#
# 1 29.8451 -2.0333 -26.4754 0.0000 0.0000 0.0000
# 2 -2.0333 96.4745 -23.8026 0.0000 0.0000 0.0000
# 3 -26.4754 -23.8026 -11.4023 0.0000 0.0000 0.0000
# 4 0.0000 0.0000 0.0000 22.4166 0.0000 0.0000
# 5 0.0000 0.0000 0.0000 0.0000 24.6195 0.0000
# 6 0.0000 0.0000 0.0000 0.0000 0.0000 23.6511
#
#
#
# Elastic Compliance Matrix: (Units=1/GPa)
#
#
# Indices 1 2 3 4 5 6 
#
# 1 0.013902 -0.005063 -0.021710 0.000000 0.000000 0.000000
# 2 -0.005063 0.008686 -0.006375 0.000000 0.000000 0.000000
# 3 -0.021710 -0.006375 -0.023984 0.000000 0.000000 0.000000
# 4 0.000000 0.000000 0.000000 0.044610 0.000000 0.000000
# 5 0.000000 0.000000 0.000000 0.000000 0.040618 0.000000
# 6 0.000000 0.000000 0.000000 0.000000 0.000000 0.042281
#
#
# Mechanical properties :
#
#
# Convention : Reuss Voigt Hill
#
# Bulk Modulus (GPa) = -14.77261 1.14384 -6.81438
# Shear Modulus (GPa) = 29.43829 25.28600 27.36214
#
# Velocity S-wave (km/s) = 3.86465 3.58174 3.72588
# Velocity P-wave (km/s) = 3.52408 4.20540 3.87973
#
# Compressibility (1/GPa) = -0.06769287
#
# Stress axis : x y z
#
# Youngs Moduli (GPa) = 71.93023 115.12967 -41.69478
#
# Poissons Ratio (x) = 0.58295 -0.90520
# Poissons Ratio (y) = 0.36421 -0.26580
# Poissons Ratio (z) = 1.56162 0.73395
#
# Static dielectric constant tensor:
#      x y z
#    x 1.652690 0.000000 0.000000 
#    y 0.000000 1.723010 0.000000 
#    z 0.000000 0.000000 1.744710 
# 
# From -- ./inp_files/2741.got.cif
#   From: 2010.05.17/outbox.ucp.g08.bks.cvg/sg19_2_cif.got.tgz:2741.got - 2010.06.11 13:13:52.
