data_PCOD9316874
_publ_section_title
;
Structure prediction by ZEFSAII (Michael W. Deem and Ramdas Pophale) SiO2 
 PCOD9316874
Probable space group: C 2 2 21
;
_chemical_formula_sum "Si O2"
_cell_formula_units_Z 48
_cell_length_a 18.284621
_cell_length_b 8.654362
_cell_length_c 15.061595
_cell_angle_alpha 90.000000
_cell_angle_beta 90.000000
_cell_angle_gamma 90.000000
_cell_volume 2383.372837
_symmetry_space_group_name_H-M "C 2 2 21"
_symmetry_group_IT_number 20
_symmetry_cell_setting 'orthorhombic'
loop_
_space_group_symop_operation_xyz
x,y,z
-x,-y,1/2+z
x,-y,-z
-x,y,1/2-z
1/2+x,1/2+y,z
1/2-x,1/2-y,1/2+z
1/2+x,1/2-y,-z
1/2-x,1/2+y,1/2-z
loop_
_atom_site_type_symbol
_atom_site_label
_atom_site_fract_x
_atom_site_fract_y
_atom_site_fract_z
Si Si1 0.818418 0.500000 0.000000
Si Si2 0.019964 0.786485 0.345559
Si Si3 0.953734 0.535960 0.603896
Si Si4 0.310621 0.189165 0.160931
Si Si5 0.821695 0.612219 0.717982
Si Si6 0.592392 0.764731 0.377700
Si Si7 0.043567 0.000000 0.500000
O O1 0.779814 0.388011 0.929878
O O2 0.868627 0.609140 0.940019
O O3 0.106684 0.749982 0.352881
O O4 0.000000 0.859571 0.250000
O O5 0.978118 0.623235 0.349309
O O6 0.000429 0.888232 0.432080
O O7 0.959226 0.500000 0.500000
O O8 0.873749 0.585069 0.634284
O O9 0.010623 0.669072 0.632296
O O10 0.256421 0.320396 0.193358
O O11 0.314616 0.050789 0.231747
O O12 0.863807 0.728057 0.785879
O O13 0.589596 0.606763 0.432478
#
# Coordination Sequence:
#
# PCOD9316874 Si02
#       7
#     4   8   8   8   8   8   4
#     4  10  18  42  71  85 132 182 228 274 340 414
#     4  12  23  45  75  98 135 182 238 289 342 412
#     4  12  20  46  72  96 127 186 242 279 339 425
#     4  11  23  45  65 101 133 184 231 283 345 419
#     4  11  26  41  69  98 139 181 228 286 353 413
#     4  11  20  40  70  96 127 180 233 276 336 416
#     4  12  24  38  67 107 136 164 230 296 338 404
#
# _framework density 20.139526
#
# number of rings (size 3 to 8) (size 9 to 14) (size 15 to 20)
#    0.000    0.667    9.167    0.500    2.333    1.333 
#    7.500    0.833    0.000    0.000    0.000    0.000 
#    0.000    0.000    0.000    0.000    0.000    0.000 
#
# Total GULP energy -134047.289776 kJ/mol
# GULP energy per Si atom -5585.303741 kJ/mol
# Density = 2.009369 g / cm^3
# Si number density = 20.139526 Si / 1000 Ang^3
#
#
#
# Elastic Constant Matrix: (Units=GPa)
#
#
# Indices 1 2 3 4 5 6 
#
# 1 46.3484 10.2322 5.8485 0.0000 0.0000 0.0000
# 2 10.2322 69.3392 4.2163 0.0000 0.0000 0.0000
# 3 5.8485 4.2163 83.4401 0.0000 0.0000 0.0000
# 4 0.0000 0.0000 0.0000 35.8844 0.0000 0.0000
# 5 0.0000 0.0000 0.0000 0.0000 10.0676 0.0000
# 6 0.0000 0.0000 0.0000 0.0000 0.0000 21.5524
#
#
#
# Elastic Compliance Matrix: (Units=1/GPa)
#
#
# Indices 1 2 3 4 5 6 
#
# 1 0.022467 -0.003230 -0.001412 0.000000 0.000000 0.000000
# 2 -0.003230 0.014931 -0.000528 0.000000 0.000000 0.000000
# 3 -0.001412 -0.000528 0.012110 0.000000 0.000000 0.000000
# 4 0.000000 0.000000 0.000000 0.027867 0.000000 0.000000
# 5 0.000000 0.000000 0.000000 0.000000 0.099328 0.000000
# 6 0.000000 0.000000 0.000000 0.000000 0.000000 0.046399
#
#
# Mechanical properties :
#
#
# Convention : Reuss Voigt Hill
#
# Bulk Modulus (GPa) = 25.53022 26.63574 26.08298
# Shear Modulus (GPa) = 20.28427 25.42293 22.85360
#
# Velocity S-wave (km/s) = 3.17706 3.55680 3.37228
# Velocity P-wave (km/s) = 5.11493 5.48836 5.30493
#
# Compressibility (1/GPa) = 0.03916927
#
# Stress axis : x y z
#
# Youngs Moduli (GPa) = 44.51006 66.97683 82.57450
#
# Poissons Ratio (x) = 0.21630 0.11656
# Poissons Ratio (y) = 0.14375 0.04361
# Poissons Ratio (z) = 0.06283 0.03537
#
# Static dielectric constant tensor:
#      x y z
#    x 1.664170 0.000000 0.000000 
#    y 0.000000 1.744170 0.000000 
#    z 0.000000 0.000000 1.760430 
# 
# From -- ./inp_files/21333.got.cif
#   From: 2010.05.17/outbox.cif.g08.bks.cpg/sg20_11_cif.got.tgz:21333.got - 2010.06.03 22:52:26.
