data_PCOD9316483
_publ_section_title
;
Structure prediction by ZEFSAII (Michael W. Deem and Ramdas Pophale) SiO2 
 PCOD9316483
Probable space group: C 2 2 21
;
_chemical_formula_sum "Si O2"
_cell_formula_units_Z 52
_cell_length_a 18.331619
_cell_length_b 13.333980
_cell_length_c 9.123647
_cell_angle_alpha 90.000000
_cell_angle_beta 90.000000
_cell_angle_gamma 90.000000
_cell_volume 2230.124432
_symmetry_space_group_name_H-M "C 2 2 21"
_symmetry_group_IT_number 20
_symmetry_cell_setting 'orthorhombic'
loop_
_space_group_symop_operation_xyz
x,y,z
-x,-y,1/2+z
x,-y,-z
-x,y,1/2-z
1/2+x,1/2+y,z
1/2-x,1/2-y,1/2+z
1/2+x,1/2-y,-z
1/2-x,1/2+y,1/2-z
loop_
_atom_site_type_symbol
_atom_site_label
_atom_site_fract_x
_atom_site_fract_y
_atom_site_fract_z
Si Si1 0.393876 0.106529 0.831326
Si Si2 0.500000 0.061478 0.250000
Si Si3 0.618340 0.560304 0.358989
Si Si4 0.411204 0.270033 0.035197
Si Si5 0.778494 0.478599 0.670380
Si Si6 0.430295 0.293006 0.614902
Si Si7 0.376905 0.207244 0.339850
O O1 0.420994 0.195704 0.721060
O O2 0.449756 0.015814 0.835073
O O3 0.320775 0.058380 0.769225
O O4 0.391189 0.158243 0.988240
O O5 0.553321 0.130487 0.152655
O O6 0.583261 0.500000 0.500000
O O7 0.643181 0.659653 0.446673
O O8 0.692417 0.508778 0.309569
O O9 0.579474 0.607514 0.215167
O O10 0.400143 0.278762 0.206390
O O11 0.491696 0.294749 0.970013
O O12 0.796568 0.500000 0.500000
O O13 0.809414 0.365818 0.695453
O O14 0.372056 0.271331 0.487248
#
# Coordination Sequence:
#
# PCOD9316483 Si02
#       7
#     8   4   8   8   8   8   8
#     4  10  19  33  63  95 137 176 209 271 334 422
#     4  10  18  30  56 100 146 166 212 250 352 414
#     4  10  24  45  67  86 125 182 242 286 327 399
#     4  11  22  41  65 106 134 169 225 281 351 400
#     4  10  21  38  61  94 136 183 226 260 338 412
#     4  11  20  41  67 101 130 178 222 282 356 394
#     4  11  22  34  63 102 142 174 206 279 342 427
#
# _framework density 23.317086
#
# number of rings (size 3 to 8) (size 9 to 14) (size 15 to 20)
#    0.000    1.538    4.615    1.385    0.000    4.923 
#    2.769    3.846    6.769    0.000    0.000    0.000 
#    0.000    0.000    0.000    0.000    0.000    0.000 
#
# Total GULP energy -145031.139480 kJ/mol
# GULP energy per Si atom -5578.120749 kJ/mol
# Density = 2.326401 g / cm^3
# Si number density = 23.317086 Si / 1000 Ang^3
#
#
#
# Elastic Constant Matrix: (Units=GPa)
#
#
# Indices 1 2 3 4 5 6 
#
# 1 59.7133 27.0943 20.4394 0.0000 0.0000 0.0000
# 2 27.0943 64.0043 26.7860 0.0000 0.0000 0.0000
# 3 20.4394 26.7860 121.6579 0.0000 0.0000 0.0000
# 4 0.0000 0.0000 0.0000 48.2210 0.0000 0.0000
# 5 0.0000 0.0000 0.0000 0.0000 21.7075 0.0000
# 6 0.0000 0.0000 0.0000 0.0000 0.0000 17.5102
#
#
#
# Elastic Compliance Matrix: (Units=1/GPa)
#
#
# Indices 1 2 3 4 5 6 
#
# 1 0.021055 -0.008187 -0.001735 0.000000 0.000000 0.000000
# 2 -0.008187 0.020393 -0.003115 0.000000 0.000000 0.000000
# 3 -0.001735 -0.003115 0.009197 0.000000 0.000000 0.000000
# 4 0.000000 0.000000 0.000000 0.020738 0.000000 0.000000
# 5 0.000000 0.000000 0.000000 0.000000 0.046067 0.000000
# 6 0.000000 0.000000 0.000000 0.000000 0.000000 0.057110
#
#
# Mechanical properties :
#
#
# Convention : Reuss Voigt Hill
#
# Bulk Modulus (GPa) = 40.69600 43.77943 42.23771
# Shear Modulus (GPa) = 23.94363 28.89145 26.41754
#
# Velocity S-wave (km/s) = 3.20796 3.52386 3.36961
# Velocity P-wave (km/s) = 5.58682 5.94754 5.77000
#
# Compressibility (1/GPa) = 0.02457244
#
# Stress axis : x y z
#
# Youngs Moduli (GPa) = 47.49392 49.03610 108.73124
#
# Poissons Ratio (x) = 0.40146 0.18863
# Poissons Ratio (y) = 0.38884 0.33865
# Poissons Ratio (z) = 0.08240 0.15273
#
# Static dielectric constant tensor:
#      x y z
#    x 1.932270 0.000000 0.000000 
#    y 0.000000 1.958620 0.000000 
#    z 0.000000 0.000000 1.903870 
# 
# From -- ./inp_files/10126.got.cif
#   From: 2010.05.17/outbox.cif.g08.bks.cpg/sg20_6_cif.got.tgz:10126.got - 2010.06.03 22:52:26.
