data_PCOD9316885
_publ_section_title
;
Structure prediction by ZEFSAII (Michael W. Deem and Ramdas Pophale) SiO2 
 PCOD9316885
Probable space group: C 2 2 21
;
_chemical_formula_sum "Si O2"
_cell_formula_units_Z 52
_cell_length_a 9.719344
_cell_length_b 13.975487
_cell_length_c 18.183857
_cell_angle_alpha 90.000000
_cell_angle_beta 90.000000
_cell_angle_gamma 90.000000
_cell_volume 2469.959951
_symmetry_space_group_name_H-M "C 2 2 21"
_symmetry_group_IT_number 20
_symmetry_cell_setting 'orthorhombic'
loop_
_space_group_symop_operation_xyz
x,y,z
-x,-y,1/2+z
x,-y,-z
-x,y,1/2-z
1/2+x,1/2+y,z
1/2-x,1/2-y,1/2+z
1/2+x,1/2-y,-z
1/2-x,1/2+y,1/2-z
loop_
_atom_site_type_symbol
_atom_site_label
_atom_site_fract_x
_atom_site_fract_y
_atom_site_fract_z
Si Si1 0.180867 0.647082 0.615651
Si Si2 0.838295 0.502012 0.240017
Si Si3 0.696244 0.845730 0.619534
Si Si4 0.654327 0.000000 0.500000
Si Si5 0.490652 0.315654 0.604644
Si Si6 0.989067 0.811470 0.430961
Si Si7 0.577483 0.483815 0.327300
O O1 0.211636 0.580843 0.684875
O O2 0.096855 0.580209 0.556669
O O3 0.092145 0.737544 0.637283
O O4 0.324750 0.682227 0.581115
O O5 0.821077 0.602060 0.197032
O O6 0.738897 0.498335 0.309733
O O7 0.000000 0.487051 0.250000
O O8 0.562783 0.785212 0.597348
O O9 0.833799 0.783902 0.618161
O O10 0.725507 0.929856 0.559230
O O11 0.517862 0.320921 0.517431
O O12 0.515395 0.418232 0.640928
O O13 0.051264 0.898823 0.384227
O O14 0.500000 0.464226 0.250000
#
# Coordination Sequence:
#
# PCOD9316885 Si02
#       7
#     8   8   8   4   8   8   8
#     4  11  24  42  74  96 139 181 224 285 346 406
#     4  11  27  48  66  99 138 189 229 285 340 415
#     4  11  24  42  74  96 139 181 224 285 346 406
#     4  10  18  44  66  96 130 178 218 266 352 396
#     4  12  24  44  70 108 135 181 232 290 347 412
#     4  12  24  44  70 108 135 181 232 290 347 412
#     4  12  25  45  70 100 138 190 233 272 349 415
#
# _framework density 21.052973999999999
#
# number of rings (size 3 to 8) (size 9 to 14) (size 15 to 20)
#    0.000    0.615    6.154    1.385    4.308    2.462 
#    0.000    0.000    0.000    0.000    0.000    0.000 
#    0.000    0.000    0.000    0.000    0.000    0.000 
#
# Total GULP energy -145193.728332 kJ/mol
# GULP energy per Si atom -5584.374167 kJ/mol
# Density = 2.100506 g / cm^3
# Si number density = 21.052974 Si / 1000 Ang^3
#
#
#
# Elastic Constant Matrix: (Units=GPa)
#
#
# Indices 1 2 3 4 5 6 
#
# 1 84.9132 17.3208 3.1597 0.0000 0.0000 0.0000
# 2 17.3208 81.5198 10.4898 0.0000 0.0000 0.0000
# 3 3.1597 10.4898 25.2465 0.0000 0.0000 0.0000
# 4 0.0000 0.0000 0.0000 9.9694 0.0000 0.0000
# 5 0.0000 0.0000 0.0000 0.0000 27.2709 0.0000
# 6 0.0000 0.0000 0.0000 0.0000 0.0000 21.0587
#
#
#
# Elastic Compliance Matrix: (Units=1/GPa)
#
#
# Indices 1 2 3 4 5 6 
#
# 1 0.012316 -0.002555 -0.000480 0.000000 0.000000 0.000000
# 2 -0.002555 0.013490 -0.005285 0.000000 0.000000 0.000000
# 3 -0.000480 -0.005285 0.041865 0.000000 0.000000 0.000000
# 4 0.000000 0.000000 0.000000 0.100307 0.000000 0.000000
# 5 0.000000 0.000000 0.000000 0.000000 0.036669 0.000000
# 6 0.000000 0.000000 0.000000 0.000000 0.000000 0.047486
#
#
# Mechanical properties :
#
#
# Convention : Reuss Voigt Hill
#
# Bulk Modulus (GPa) = 19.59588 28.18001 23.88794
# Shear Modulus (GPa) = 17.49576 22.37375 19.93475
#
# Velocity S-wave (km/s) = 2.88590 3.26350 3.08049
# Velocity P-wave (km/s) = 4.52025 5.25499 4.90140
#
# Compressibility (1/GPa) = 0.05103114
#
# Stress axis : x y z
#
# Youngs Moduli (GPa) = 81.19672 74.12937 23.88604
#
# Poissons Ratio (x) = 0.18940 0.01146
# Poissons Ratio (y) = 0.20746 0.12624
# Poissons Ratio (z) = 0.03895 0.39179
#
# Static dielectric constant tensor:
#      x y z
#    x 1.766950 0.000000 0.000000 
#    y 0.000000 1.735550 0.000000 
#    z 0.000000 0.000000 1.761010 
# 
# From -- ./inp_files/26642.got.cif
#   From: 2010.05.17/outbox.cif.g08.bks.cpg/sg20_14_cif.got.tgz:26642.got - 2010.06.03 22:52:26.
