data_PCOD9316733
_publ_section_title
;
Structure prediction by ZEFSAII (Michael W. Deem and Ramdas Pophale) SiO2 
 PCOD9316733
Probable space group: C 2 2 21
;
_chemical_formula_sum "Si O2"
_cell_formula_units_Z 60
_cell_length_a 11.863785
_cell_length_b 12.042458
_cell_length_c 21.072737
_cell_angle_alpha 90.000000
_cell_angle_beta 90.000000
_cell_angle_gamma 90.000000
_cell_volume 3010.643656
_symmetry_space_group_name_H-M "C 2 2 21"
_symmetry_group_IT_number 20
_symmetry_cell_setting 'orthorhombic'
loop_
_space_group_symop_operation_xyz
x,y,z
-x,-y,1/2+z
x,-y,-z
-x,y,1/2-z
1/2+x,1/2+y,z
1/2-x,1/2-y,1/2+z
1/2+x,1/2-y,-z
1/2-x,1/2+y,1/2-z
loop_
_atom_site_type_symbol
_atom_site_label
_atom_site_fract_x
_atom_site_fract_y
_atom_site_fract_z
Si Si1 0.294122 0.250908 0.735797
Si Si2 0.185415 0.374998 0.626658
Si Si3 0.122580 0.476087 0.259966
Si Si4 0.196087 0.368094 0.849191
Si Si5 0.500000 0.404569 0.750000
Si Si6 0.594845 0.506835 0.625406
Si Si7 0.090160 0.107285 0.043391
Si Si8 0.507192 0.259747 0.072430
O O1 0.203721 0.287398 0.683814
O O2 0.274668 0.286399 0.808537
O O3 0.405708 0.323273 0.719810
O O4 0.295503 0.119575 0.737056
O O5 0.151719 0.482268 0.669368
O O6 0.301185 0.379381 0.587763
O O7 0.088481 0.334077 0.579471
O O8 0.127184 0.572885 0.207715
O O9 0.000000 0.424779 0.250000
O O10 0.275937 0.462347 0.881209
O O11 0.113096 0.293511 0.890477
O O12 0.558255 0.482520 0.697723
O O13 0.519021 0.422943 0.584229
O O14 0.552141 0.628320 0.601899
O O15 0.054824 0.206306 0.996305
O O16 0.114830 0.000000 0.000000
#
# Coordination Sequence:
#
# PCOD9316733 Si02
#       8
#     8   8   8   8   4   8   8   8
#     4  10  21  34  64  93 129 169 194 267 339 394
#     4  11  23  42  63  94 129 166 218 268 327 398
#     4  11  21  38  59  94 136 155 204 268 335 401
#     4  10  23  38  61  96 124 167 213 261 325 400
#     4  10  18  36  60  96 124 162 212 260 328 398
#     4  10  22  41  62  92 125 161 219 267 319 389
#     4  10  24  43  65  87 124 174 222 271 316 386
#     4  11  24  41  66  90 127 177 215 266 325 382
#
# _framework density 19.929293000000001
#
# number of rings (size 3 to 8) (size 9 to 14) (size 15 to 20)
#    0.000    1.600    3.333    0.800    5.600    2.133 
#    0.000    1.333    0.000    0.000    0.000    0.000 
#    0.000    0.000    0.000    0.000    0.000    0.000 
#
# Total GULP energy -167071.118915 kJ/mol
# GULP energy per Si atom -5569.037297 kJ/mol
# Density = 1.988393 g / cm^3
# Si number density = 19.929293 Si / 1000 Ang^3
#
#
#
# Elastic Constant Matrix: (Units=GPa)
#
#
# Indices 1 2 3 4 5 6 
#
# 1 79.9741 -0.4388 20.7021 0.0000 0.0000 0.0000
# 2 -0.4388 43.2631 12.4870 0.0000 0.0000 0.0000
# 3 20.7021 12.4870 64.9133 0.0000 0.0000 0.0000
# 4 0.0000 0.0000 0.0000 19.0007 0.0000 0.0000
# 5 0.0000 0.0000 0.0000 0.0000 32.7116 0.0000
# 6 0.0000 0.0000 0.0000 0.0000 0.0000 58.3784
#
#
#
# Elastic Compliance Matrix: (Units=1/GPa)
#
#
# Indices 1 2 3 4 5 6 
#
# 1 0.013719 0.001484 -0.004661 0.000000 0.000000 0.000000
# 2 0.001484 0.024634 -0.005212 0.000000 0.000000 0.000000
# 3 -0.004661 -0.005212 0.017894 0.000000 0.000000 0.000000
# 4 0.000000 0.000000 0.000000 0.052630 0.000000 0.000000
# 5 0.000000 0.000000 0.000000 0.000000 0.030570 0.000000
# 6 0.000000 0.000000 0.000000 0.000000 0.000000 0.017130
#
#
# Mechanical properties :
#
#
# Convention : Reuss Voigt Hill
#
# Bulk Modulus (GPa) = 25.33579 28.18345 26.75962
# Shear Modulus (GPa) = 26.80831 32.37816 29.59324
#
# Velocity S-wave (km/s) = 3.67164 4.03507 3.85764
# Velocity P-wave (km/s) = 5.54211 5.99011 5.77046
#
# Compressibility (1/GPa) = 0.03946986
#
# Stress axis : x y z
#
# Youngs Moduli (GPa) = 72.89342 40.59465 55.88418
#
# Poissons Ratio (x) = -0.06026 0.26046
# Poissons Ratio (y) = -0.10820 0.29127
# Poissons Ratio (z) = 0.33973 0.21158
#
# Static dielectric constant tensor:
#      x y z
#    x 1.782200 0.000000 0.000000 
#    y 0.000000 1.753420 0.000000 
#    z 0.000000 0.000000 1.701600 
# 
# From -- ./inp_files/27254.got.cif
#   From: 2010.05.17/outbox.cif.g08.bks.cpg/sg20_14_cif.got.tgz:27254.got - 2010.06.03 22:52:26.
