data_PCOD9316008
_publ_section_title
;
Structure prediction by ZEFSAII (Michael W. Deem and Ramdas Pophale) SiO2 
 PCOD9316008
Probable space group: P 21 21 21
;
_chemical_formula_sum "Si O2"
_cell_formula_units_Z 16
_cell_length_a 8.156731
_cell_length_b 5.056774
_cell_length_c 16.257849
_cell_angle_alpha 90.000000
_cell_angle_beta 90.000000
_cell_angle_gamma 90.000000
_cell_volume 670.583356
_symmetry_space_group_name_H-M "P 21 21 21"
_symmetry_group_IT_number 19
_symmetry_cell_setting 'orthorhombic'
loop_
_space_group_symop_operation_xyz
x,y,z
1/2-x,-y,1/2+z
1/2+x,1/2-y,-z
-x,1/2+y,1/2-z
loop_
_atom_site_type_symbol
_atom_site_label
_atom_site_fract_x
_atom_site_fract_y
_atom_site_fract_z
Si Si1 0.609232 0.523134 0.253572
Si Si2 0.834386 0.402236 0.938669
Si Si3 0.450980 0.980207 0.803525
Si Si4 0.643706 0.911175 0.974761
O O1 0.537208 0.229272 0.260093
O O2 0.688333 0.597640 0.340975
O O3 0.754626 0.549234 0.187939
O O4 0.709882 0.615200 0.976681
O O5 0.795887 0.113820 0.973623
O O6 0.017110 0.502966 0.955654
O O7 0.481445 0.255835 0.757561
O O8 0.543778 0.955995 0.889731
#
# Coordination Sequence:
#
# PCOD9316008 Si02
#       4
#     4   4   4   4
#     4  12  26  43  71 101 136 173 231 282 330 392
#     4  12  27  47  67 103 138 179 225 277 336 409
#     4  12  23  46  71  95 131 183 223 277 332 398
#     4  12  26  46  69  99 139 179 225 276 342 403
#
# _framework density 23.859822999999999
#
# number of rings (size 3 to 8) (size 9 to 14) (size 15 to 20)
#    0.000    0.000    5.000    4.500    7.000    0.000 
#    0.000    0.000    0.000    0.000    0.000    0.000 
#    0.000    0.000    0.000    0.000    0.000    0.000 
#
# Total GULP energy -89719.712308 kJ/mol
# GULP energy per Si atom -5607.482019 kJ/mol
# Density = 2.380552 g / cm^3
# Si number density = 23.859823 Si / 1000 Ang^3
#
#
#
# Elastic Constant Matrix: (Units=GPa)
#
#
# Indices 1 2 3 4 5 6 
#
# 1 68.1447 2.8715 -12.2640 0.0000 0.0000 0.0000
# 2 2.8715 35.4419 -3.9255 0.0000 0.0000 0.0000
# 3 -12.2640 -3.9255 38.9572 0.0000 0.0000 0.0000
# 4 0.0000 0.0000 0.0000 18.4045 0.0000 0.0000
# 5 0.0000 0.0000 0.0000 0.0000 36.6736 0.0000
# 6 0.0000 0.0000 0.0000 0.0000 0.0000 54.3891
#
#
#
# Elastic Compliance Matrix: (Units=1/GPa)
#
#
# Indices 1 2 3 4 5 6 
#
# 1 0.015574 -0.000727 0.004830 0.000000 0.000000 0.000000
# 2 -0.000727 0.028568 0.002650 0.000000 0.000000 0.000000
# 3 0.004830 0.002650 0.027457 0.000000 0.000000 0.000000
# 4 0.000000 0.000000 0.000000 0.054335 0.000000 0.000000
# 5 0.000000 0.000000 0.000000 0.000000 0.027268 0.000000
# 6 0.000000 0.000000 0.000000 0.000000 0.000000 0.018386
#
#
# Mechanical properties :
#
#
# Convention : Reuss Voigt Hill
#
# Bulk Modulus (GPa) = 11.75033 12.87862 12.31448
# Shear Modulus (GPa) = 26.81688 32.28421 29.55054
#
# Velocity S-wave (km/s) = 3.35615 3.68241 3.52306
# Velocity P-wave (km/s) = 4.46696 4.84660 4.66065
#
# Compressibility (1/GPa) = 0.08510396
#
# Stress axis : x y z
#
# Youngs Moduli (GPa) = 64.20752 35.00470 36.42103
#
# Poissons Ratio (x) = 0.02544 -0.17590
# Poissons Ratio (y) = 0.04667 -0.09651
# Poissons Ratio (z) = -0.31010 -0.09275
#
# Static dielectric constant tensor:
#      x y z
#    x 1.926760 0.000000 0.000000 
#    y 0.000000 1.836820 0.000000 
#    z 0.000000 0.000000 1.881180 
# 
# From -- ./inp_files/98.got.cif
#   From: 2010.05.17/outbox.cif.g08.bks.cpg/sg19_1_cif.got.tgz:98.got - 2010.06.03 22:46:19.
