data_PCOD9316184
_publ_section_title
;
Structure prediction by ZEFSAII (Michael W. Deem and Ramdas Pophale) SiO2 
 PCOD9316184
Probable space group: C 2 2 21
;
_chemical_formula_sum "Si O2"
_cell_formula_units_Z 48
_cell_length_a 20.841709
_cell_length_b 14.557737
_cell_length_c 8.258784
_cell_angle_alpha 90.000000
_cell_angle_beta 90.000000
_cell_angle_gamma 90.000000
_cell_volume 2505.782112
_symmetry_space_group_name_H-M "C 2 2 21"
_symmetry_group_IT_number 20
_symmetry_cell_setting 'orthorhombic'
loop_
_space_group_symop_operation_xyz
x,y,z
-x,-y,1/2+z
x,-y,-z
-x,y,1/2-z
1/2+x,1/2+y,z
1/2-x,1/2-y,1/2+z
1/2+x,1/2-y,-z
1/2-x,1/2+y,1/2-z
loop_
_atom_site_type_symbol
_atom_site_label
_atom_site_fract_x
_atom_site_fract_y
_atom_site_fract_z
Si Si1 0.135651 0.161707 0.291148
Si Si2 0.937642 0.101705 0.521517
Si Si3 0.000000 0.248556 0.750000
Si Si4 0.327336 0.500000 0.000000
Si Si5 0.625525 0.796873 0.574952
Si Si6 0.812676 0.129831 0.732622
Si Si7 0.746836 0.897084 0.566542
O O1 0.123094 0.255026 0.391980
O O2 0.205577 0.141618 0.205696
O O3 0.130167 0.078508 0.418593
O O4 0.086212 0.143348 0.147356
O O5 0.874784 0.090197 0.637225
O O6 0.978986 0.178254 0.609247
O O7 0.966061 0.000000 0.500000
O O8 0.058270 0.304486 0.669249
O O9 0.288812 0.446825 0.140506
O O10 0.664007 0.716970 0.669211
O O11 0.671832 0.883898 0.595652
O O12 0.763705 0.160365 0.595219
O O13 0.760885 0.000000 0.500000
#
# Coordination Sequence:
#
# PCOD9316184 Si02
#       7
#     8   8   4   4   8   8   8
#     4  10  19  32  58  82 114 139 169 223 285 340
#     4  10  18  34  52  78 108 144 181 217 269 331
#     4  10  24  38  50  74 110 156 198 226 252 324
#     4  10  14  28  50  84 112 138 156 204 270 334
#     4  10  22  35  55  77 112 151 185 224 273 323
#     4   9  17  31  52  80 114 137 172 214 281 342
#     4  11  19  35  56  86 109 141 180 232 283 335
#
# _framework density 19.155697
#
# number of rings (size 3 to 8) (size 9 to 14) (size 15 to 20)
#    0.000    2.000    3.333    2.000    0.000    2.000 
#    3.000    0.000    0.000    2.000    0.000    0.000 
#    0.000    0.000    0.000    0.000    0.000    0.000 
#
# Total GULP energy -133667.106440 kJ/mol
# GULP energy per Si atom -5569.462768 kJ/mol
# Density = 1.911210 g / cm^3
# Si number density = 19.155697 Si / 1000 Ang^3
#
#
#
# Elastic Constant Matrix: (Units=GPa)
#
#
# Indices 1 2 3 4 5 6 
#
# 1 66.8425 1.4045 9.1078 0.0000 0.0000 0.0000
# 2 1.4045 16.1175 -0.2393 0.0000 0.0000 0.0000
# 3 9.1078 -0.2393 84.6800 0.0000 0.0000 0.0000
# 4 0.0000 0.0000 0.0000 12.8431 0.0000 0.0000
# 5 0.0000 0.0000 0.0000 0.0000 16.7911 0.0000
# 6 0.0000 0.0000 0.0000 0.0000 0.0000 23.6695
#
#
#
# Elastic Compliance Matrix: (Units=1/GPa)
#
#
# Indices 1 2 3 4 5 6 
#
# 1 0.015212 -0.001350 -0.001640 0.000000 0.000000 0.000000
# 2 -0.001350 0.062167 0.000321 0.000000 0.000000 0.000000
# 3 -0.001640 0.000321 0.011986 0.000000 0.000000 0.000000
# 4 0.000000 0.000000 0.000000 0.077863 0.000000 0.000000
# 5 0.000000 0.000000 0.000000 0.000000 0.059555 0.000000
# 6 0.000000 0.000000 0.000000 0.000000 0.000000 0.042248
#
#
# Mechanical properties :
#
#
# Convention : Reuss Voigt Hill
#
# Bulk Modulus (GPa) = 11.90085 20.90955 16.40520
# Shear Modulus (GPa) = 16.53549 21.15187 18.84368
#
# Velocity S-wave (km/s) = 2.94124 3.32657 3.13982
# Velocity P-wave (km/s) = 4.21435 5.06893 4.66126
#
# Compressibility (1/GPa) = 0.08402760
#
# Stress axis : x y z
#
# Youngs Moduli (GPa) = 65.73602 16.08575 83.42747
#
# Poissons Ratio (x) = 0.02171 0.13682
# Poissons Ratio (y) = 0.08874 -0.02677
# Poissons Ratio (z) = 0.10781 -0.00516
#
# Static dielectric constant tensor:
#      x y z
#    x 1.710170 0.000000 0.000000 
#    y 0.000000 1.711900 0.000000 
#    z 0.000000 0.000000 1.755060 
# 
# From -- ./inp_files/10101.got.cif
#   From: 2010.05.17/outbox.cif.g08.bks.cpg/sg20_6_cif.got.tgz:10101.got - 2010.06.03 22:52:26.
