data_PCOD9316770
_publ_section_title
;
Structure prediction by ZEFSAII (Michael W. Deem and Ramdas Pophale) SiO2 
 PCOD9316770
Probable space group: C 2 2 21
;
_chemical_formula_sum "Si O2"
_cell_formula_units_Z 48
_cell_length_a 10.300140
_cell_length_b 13.826637
_cell_length_c 16.551928
_cell_angle_alpha 90.000000
_cell_angle_beta 90.000000
_cell_angle_gamma 90.000000
_cell_volume 2357.264291
_symmetry_space_group_name_H-M "C 2 2 21"
_symmetry_group_IT_number 20
_symmetry_cell_setting 'orthorhombic'
loop_
_space_group_symop_operation_xyz
x,y,z
-x,-y,1/2+z
x,-y,-z
-x,y,1/2-z
1/2+x,1/2+y,z
1/2-x,1/2-y,1/2+z
1/2+x,1/2-y,-z
1/2-x,1/2+y,1/2-z
loop_
_atom_site_type_symbol
_atom_site_label
_atom_site_fract_x
_atom_site_fract_y
_atom_site_fract_z
Si Si1 0.000000 0.237281 0.250000
Si Si2 0.192425 0.721302 0.885970
Si Si3 0.384205 0.903834 0.542782
Si Si4 0.905331 0.092973 0.463634
Si Si5 0.135632 0.066077 0.344533
Si Si6 0.990503 0.780197 0.110663
Si Si7 0.500000 0.594367 0.750000
O O1 0.913892 0.294807 0.315676
O O2 0.900733 0.166188 0.201236
O O3 0.341326 0.707147 0.865111
O O4 0.177402 0.833987 0.910404
O O5 0.167392 0.658464 0.966349
O O6 0.268087 0.930952 0.604887
O O7 0.476054 0.830603 0.591914
O O8 0.439230 0.000000 0.500000
O O9 0.021032 0.051832 0.409383
O O10 0.972391 0.159846 0.531087
O O11 0.834263 0.000000 0.500000
O O12 0.111046 0.978639 0.282973
O O13 0.061791 0.835127 0.183044
#
# Coordination Sequence:
#
# PCOD9316770 Si02
#       7
#     4   8   8   8   8   8   4
#     4   9  22  38  65  98 126 166 217 270 335 374
#     4  10  22  40  66  90 129 167 218 274 320 394
#     4  11  23  41  65  90 129 178 216 258 328 399
#     4  10  18  37  63  90 118 162 224 262 311 385
#     4  10  19  38  65  91 120 168 217 266 312 394
#     4  11  23  37  60  96 126 164 214 271 326 382
#     4  11  22  36  61  94 126 164 219 270 317 372
#
# _framework density 20.362587999999999
#
# number of rings (size 3 to 8) (size 9 to 14) (size 15 to 20)
#    0.000    1.667    3.333    1.500    2.333    0.667 
#    0.000    0.833   11.000    0.000    0.000    0.000 
#    0.000    0.000    0.000    0.000    0.000    0.000 
#
# Total GULP energy -133831.083363 kJ/mol
# GULP energy per Si atom -5576.295140 kJ/mol
# Density = 2.031624 g / cm^3
# Si number density = 20.362588 Si / 1000 Ang^3
#
#
#
# Elastic Constant Matrix: (Units=GPa)
#
#
# Indices 1 2 3 4 5 6 
#
# 1 54.5241 29.8674 36.6367 0.0000 0.0000 0.0000
# 2 29.8674 83.0926 16.1598 0.0000 0.0000 0.0000
# 3 36.6367 16.1598 96.3883 0.0000 0.0000 0.0000
# 4 0.0000 0.0000 0.0000 44.1429 0.0000 0.0000
# 5 0.0000 0.0000 0.0000 0.0000 25.9325 0.0000
# 6 0.0000 0.0000 0.0000 0.0000 0.0000 19.2060
#
#
#
# Elastic Compliance Matrix: (Units=1/GPa)
#
#
# Indices 1 2 3 4 5 6 
#
# 1 0.029765 -0.008785 -0.009841 0.000000 0.000000 0.000000
# 2 -0.008785 0.015033 0.000819 0.000000 0.000000 0.000000
# 3 -0.009841 0.000819 0.013978 0.000000 0.000000 0.000000
# 4 0.000000 0.000000 0.000000 0.022654 0.000000 0.000000
# 5 0.000000 0.000000 0.000000 0.000000 0.038562 0.000000
# 6 0.000000 0.000000 0.000000 0.000000 0.000000 0.052067
#
#
# Mechanical properties :
#
#
# Convention : Reuss Voigt Hill
#
# Bulk Modulus (GPa) = 43.17388 44.37033 43.77210
# Shear Modulus (GPa) = 23.21328 27.94569 25.57949
#
# Velocity S-wave (km/s) = 3.38005 3.70862 3.54814
# Velocity P-wave (km/s) = 6.03999 6.33844 6.19102
#
# Compressibility (1/GPa) = 0.02316215
#
# Stress axis : x y z
#
# Youngs Moduli (GPa) = 33.59619 66.51879 71.54174
#
# Poissons Ratio (x) = 0.58438 0.70403
# Poissons Ratio (y) = 0.29515 -0.05858
# Poissons Ratio (z) = 0.33061 -0.05447
#
# Static dielectric constant tensor:
#      x y z
#    x 1.693700 0.000000 0.000000 
#    y 0.000000 1.789980 0.000000 
#    z 0.000000 0.000000 1.540800 
# 
# From -- ./inp_files/23518.got.cif
#   From: 2010.05.17/outbox.cif.g08.bks.cpg/sg20_12_cif.got.tgz:23518.got - 2010.06.03 22:52:26.
