data_PCOD9316615
_publ_section_title
;
Structure prediction by ZEFSAII (Michael W. Deem and Ramdas Pophale) SiO2 
 PCOD9316615
Probable space group: C 2 2 21
;
_chemical_formula_sum "Si O2"
_cell_formula_units_Z 64
_cell_length_a 18.931788
_cell_length_b 25.032057
_cell_length_c 7.697465
_cell_angle_alpha 90.000000
_cell_angle_beta 90.000000
_cell_angle_gamma 90.000000
_cell_volume 3647.840951
_symmetry_space_group_name_H-M "C 2 2 21"
_symmetry_group_IT_number 20
_symmetry_cell_setting 'orthorhombic'
loop_
_space_group_symop_operation_xyz
x,y,z
-x,-y,1/2+z
x,-y,-z
-x,y,1/2-z
1/2+x,1/2+y,z
1/2-x,1/2-y,1/2+z
1/2+x,1/2-y,-z
1/2-x,1/2+y,1/2-z
loop_
_atom_site_type_symbol
_atom_site_label
_atom_site_fract_x
_atom_site_fract_y
_atom_site_fract_z
Si Si1 0.001730 0.770867 0.452154
Si Si2 0.868584 0.932756 0.629476
Si Si3 0.906999 0.127437 0.043803
Si Si4 0.348473 0.250715 0.611243
Si Si5 0.222648 0.181844 0.610012
Si Si6 0.238812 0.145577 0.998824
Si Si7 0.860033 0.281383 0.984390
Si Si8 0.078206 0.040927 0.763643
O O1 0.927070 0.755825 0.535720
O O2 0.000000 0.785052 0.250000
O O3 0.040041 0.822648 0.533458
O O4 0.056596 0.721673 0.463140
O O5 0.792934 0.908043 0.578773
O O6 0.912226 0.931395 0.450113
O O7 0.909003 0.897527 0.768316
O O8 0.867714 0.991611 0.716001
O O9 0.826756 0.148239 0.015942
O O10 0.916398 0.083157 0.892109
O O11 0.297345 0.203513 0.539546
O O12 0.310160 0.306310 0.570065
O O13 0.347226 0.238434 0.817200
O O14 0.230816 0.149848 0.789788
O O15 0.176376 0.236238 0.637606
O O16 0.318422 0.163716 0.041021
O O17 0.000000 0.016544 0.750000
#
# Coordination Sequence:
#
# PCOD9316615 Si02
#       8
#     8   8   8   8   8   8   8   8
#     4  11  22  33  47  76 108 142 177 226 257 319
#     4  11  25  37  59  72  97 148 178 230 276 320
#     4  11  22  39  55  76 104 143 186 220 272 323
#     4  10  19  31  51  73 103 136 179 213 266 324
#     4   9  18  34  50  73 103 133 171 229 261 315
#     4  10  18  34  52  73  98 137 180 220 264 326
#     4   9  19  32  48  71 104 136 173 218 267 316
#     4  11  26  42  51  76 107 135 183 237 273 311
#
# _framework density 17.544625
#
# number of rings (size 3 to 8) (size 9 to 14) (size 15 to 20)
#    0.000    1.750    1.250    4.125    5.250    3.000 
#    2.250    0.000    0.000    0.000    0.000    0.000 
#    0.000    0.000   25.500    0.000    1.250    0.000 
#
# Total GULP energy -178538.885645 kJ/mol
# GULP energy per Si atom -5579.340176 kJ/mol
# Density = 1.750469 g / cm^3
# Si number density = 17.544625 Si / 1000 Ang^3
#
#
#
# Elastic Constant Matrix: (Units=GPa)
#
#
# Indices 1 2 3 4 5 6 
#
# 1 117.6329 54.5576 25.4187 0.0000 0.0000 0.0000
# 2 54.5576 73.6426 28.0878 0.0000 0.0000 0.0000
# 3 25.4187 28.0878 60.2513 0.0000 0.0000 0.0000
# 4 0.0000 0.0000 0.0000 23.4761 0.0000 0.0000
# 5 0.0000 0.0000 0.0000 0.0000 19.5663 0.0000
# 6 0.0000 0.0000 0.0000 0.0000 0.0000 25.7658
#
#
#
# Elastic Compliance Matrix: (Units=1/GPa)
#
#
# Indices 1 2 3 4 5 6 
#
# 1 0.013023 -0.009186 -0.001212 0.000000 0.000000 0.000000
# 2 -0.009186 0.022995 -0.006844 0.000000 0.000000 0.000000
# 3 -0.001212 -0.006844 0.020299 0.000000 0.000000 0.000000
# 4 0.000000 0.000000 0.000000 0.042596 0.000000 0.000000
# 5 0.000000 0.000000 0.000000 0.000000 0.051108 0.000000
# 6 0.000000 0.000000 0.000000 0.000000 0.000000 0.038811
#
#
# Mechanical properties :
#
#
# Convention : Reuss Voigt Hill
#
# Bulk Modulus (GPa) = 45.80264 51.96167 48.88216
# Shear Modulus (GPa) = 21.68297 23.32581 22.50439
#
# Velocity S-wave (km/s) = 3.51932 3.65020 3.58536
# Velocity P-wave (km/s) = 6.53278 6.88814 6.71281
#
# Compressibility (1/GPa) = 0.02183280
#
# Stress axis : x y z
#
# Youngs Moduli (GPa) = 76.78518 43.48771 49.26317
#
# Poissons Ratio (x) = 0.39948 0.05970
# Poissons Ratio (y) = 0.70535 0.33718
# Poissons Ratio (z) = 0.09306 0.29765
#
# Static dielectric constant tensor:
#      x y z
#    x 1.632920 0.000000 0.000000 
#    y 0.000000 1.637330 0.000000 
#    z 0.000000 0.000000 1.658840 
# 
# From -- ./inp_files/9730.got.cif
#   From: 2010.05.17/outbox.cif.g08.bks.cpg/sg20_5_cif.got.tgz:9730.got - 2010.06.03 22:52:26.
