data_PCOD9316187
_publ_section_title
;
Structure prediction by ZEFSAII (Michael W. Deem and Ramdas Pophale) SiO2 
 PCOD9316187
Probable space group: C 2 2 21
;
_chemical_formula_sum "Si O2"
_cell_formula_units_Z 48
_cell_length_a 8.250227
_cell_length_b 20.957491
_cell_length_c 14.913239
_cell_angle_alpha 90.000000
_cell_angle_beta 90.000000
_cell_angle_gamma 90.000000
_cell_volume 2578.559543
_symmetry_space_group_name_H-M "C 2 2 21"
_symmetry_group_IT_number 20
_symmetry_cell_setting 'orthorhombic'
loop_
_space_group_symop_operation_xyz
x,y,z
-x,-y,1/2+z
x,-y,-z
-x,y,1/2-z
1/2+x,1/2+y,z
1/2-x,1/2-y,1/2+z
1/2+x,1/2-y,-z
1/2-x,1/2+y,1/2-z
loop_
_atom_site_type_symbol
_atom_site_label
_atom_site_fract_x
_atom_site_fract_y
_atom_site_fract_z
Si Si1 0.446061 0.872101 0.535717
Si Si2 0.441971 0.760396 0.648078
Si Si3 0.252322 0.000000 0.500000
Si Si4 0.541411 0.566678 0.650304
Si Si5 0.273921 0.141043 0.903673
Si Si6 0.243574 0.807284 0.381290
Si Si7 0.000000 0.675888 0.750000
O O1 0.419124 0.834754 0.628438
O O2 0.627646 0.870485 0.495199
O O3 0.344161 0.828618 0.466431
O O4 0.366189 0.941377 0.529775
O O5 0.500000 0.748381 0.750000
O O6 0.302588 0.711686 0.615292
O O7 0.602392 0.740428 0.592918
O O8 0.138202 0.021190 0.582885
O O9 0.500000 0.542362 0.750000
O O10 0.374762 0.592572 0.607169
O O11 0.654837 0.629863 0.658805
O O12 0.405220 0.133975 0.823467
O O13 0.369304 0.783967 0.306134
#
# Coordination Sequence:
#
# PCOD9316187 Si02
#       7
#     8   8   4   8   8   8   4
#     4  10  22  36  57  81 121 157 192 240 289 342
#     4  11  19  35  56  86 122 146 181 233 308 367
#     4  10  24  42  56  82 122 156 208 252 270 350
#     4  10  18  37  62  83 110 150 199 248 296 337
#     4  10  19  33  62  88 109 143 194 243 303 342
#     4   9  17  31  56  86 112 141 189 238 291 342
#     4  10  14  28  52  92 110 130 174 244 278 340
#
# _framework density 18.615044000000001
#
# number of rings (size 3 to 8) (size 9 to 14) (size 15 to 20)
#    0.000    2.000    3.333    2.000    0.000    0.667 
#    0.000    3.333    1.833    0.000    0.000    0.000 
#    0.000    0.000    0.000    0.000    0.000    0.000 
#
# Total GULP energy -133680.286789 kJ/mol
# GULP energy per Si atom -5570.011950 kJ/mol
# Density = 1.857268 g / cm^3
# Si number density = 18.615044 Si / 1000 Ang^3
#
#
#
# Elastic Constant Matrix: (Units=GPa)
#
#
# Indices 1 2 3 4 5 6 
#
# 1 105.2422 35.0569 28.5131 0.0000 0.0000 0.0000
# 2 35.0569 88.6791 40.3091 0.0000 0.0000 0.0000
# 3 28.5131 40.3091 64.0902 0.0000 0.0000 0.0000
# 4 0.0000 0.0000 0.0000 24.2290 0.0000 0.0000
# 5 0.0000 0.0000 0.0000 0.0000 29.4168 0.0000
# 6 0.0000 0.0000 0.0000 0.0000 0.0000 12.2830
#
#
#
# Elastic Compliance Matrix: (Units=1/GPa)
#
#
# Indices 1 2 3 4 5 6 
#
# 1 0.011373 -0.003075 -0.003126 0.000000 0.000000 0.000000
# 2 -0.003075 0.016623 -0.009086 0.000000 0.000000 0.000000
# 3 -0.003126 -0.009086 0.022708 0.000000 0.000000 0.000000
# 4 0.000000 0.000000 0.000000 0.041273 0.000000 0.000000
# 5 0.000000 0.000000 0.000000 0.000000 0.033994 0.000000
# 6 0.000000 0.000000 0.000000 0.000000 0.000000 0.081413
#
#
# Mechanical properties :
#
#
# Convention : Reuss Voigt Hill
#
# Bulk Modulus (GPa) = 49.67866 51.75218 50.71542
# Shear Modulus (GPa) = 20.43578 23.46126 21.94852
#
# Velocity S-wave (km/s) = 3.31692 3.55398 3.43749
# Velocity P-wave (km/s) = 6.43541 6.68600 6.56190
#
# Compressibility (1/GPa) = 0.02012937
#
# Stress axis : x y z
#
# Youngs Moduli (GPa) = 87.92668 60.15897 44.03652
#
# Poissons Ratio (x) = 0.18501 0.13764
# Poissons Ratio (y) = 0.27040 0.40014
# Poissons Ratio (z) = 0.27482 0.54663
#
# Static dielectric constant tensor:
#      x y z
#    x 1.694290 0.000000 0.000000 
#    y 0.000000 1.626760 0.000000 
#    z 0.000000 0.000000 1.710640 
# 
# From -- ./inp_files/19049.got.cif
#   From: 2010.05.17/outbox.cif.g08.bks.cpg/sg20_10_cif.got.tgz:19049.got - 2010.06.03 22:52:26.
