data_PCOD9316443
_publ_section_title
;
Structure prediction by ZEFSAII (Michael W. Deem and Ramdas Pophale) SiO2 
 PCOD9316443
Probable space group: C 2 2 21
;
_chemical_formula_sum "Si O2"
_cell_formula_units_Z 60
_cell_length_a 12.930053
_cell_length_b 6.548410
_cell_length_c 27.244535
_cell_angle_alpha 90.000000
_cell_angle_beta 90.000000
_cell_angle_gamma 90.000000
_cell_volume 2306.829879
_symmetry_space_group_name_H-M "C 2 2 21"
_symmetry_group_IT_number 20
_symmetry_cell_setting 'orthorhombic'
loop_
_space_group_symop_operation_xyz
x,y,z
-x,-y,1/2+z
x,-y,-z
-x,y,1/2-z
1/2+x,1/2+y,z
1/2-x,1/2-y,1/2+z
1/2+x,1/2-y,-z
1/2-x,1/2+y,1/2-z
loop_
_atom_site_type_symbol
_atom_site_label
_atom_site_fract_x
_atom_site_fract_y
_atom_site_fract_z
Si Si1 0.427934 0.870124 0.349816
Si Si2 0.626941 0.862642 0.046921
Si Si3 0.319222 0.572031 0.218918
Si Si4 0.665889 0.187580 0.416476
Si Si5 0.285837 0.845042 0.814812
Si Si6 0.592416 0.269298 0.515704
Si Si7 0.500000 0.124587 0.750000
Si Si8 0.361794 0.344276 0.882190
O O1 0.399766 0.977852 0.401456
O O2 0.324181 0.747266 0.334104
O O3 0.466017 0.985391 0.300438
O O4 0.523574 0.720242 0.363610
O O5 0.720163 0.712673 0.060551
O O6 0.525303 0.739537 0.032667
O O7 0.652468 0.000000 0.000000
O O8 0.353187 0.344471 0.204833
O O9 0.241369 0.540672 0.264447
O O10 0.408226 0.720254 0.236687
O O11 0.286150 0.661451 0.165468
O O12 0.664414 0.066486 0.364674
O O13 0.598897 0.143421 0.464709
O O14 0.636976 0.416652 0.397910
O O15 0.617639 0.500000 0.500000
O O16 0.660060 0.234646 0.565357
#
# Coordination Sequence:
#
# PCOD9316443 Si02
#       8
#     8   8   8   8   8   8   4   8
#     4   8  15  27  46  69  91 119 163 200 234 282
#     4  10  18  29  48  73  98 123 158 206 251 288
#     4   9  16  28  48  70  93 121 160 198 240 285
#     4   9  17  31  51  70  95 130 167 198 238 295
#     4   9  17  29  48  72  96 124 159 202 240 285
#     4   9  17  31  49  68  92 127 165 197 236 296
#     4   8  14  28  48  64  84 126 164 188 222 296
#     4   8  14  27  50  69  86 123 170 198 225 289
#
# _framework density 26.009720999999999
#
# number of rings (size 3 to 8) (size 9 to 14) (size 15 to 20)
#    0.000    3.200    0.000    1.200    0.000    0.000 
#    0.000    6.000    0.000   67.200    0.000    0.000 
#    0.000    0.000    0.000    0.000    0.000    0.000 
#
# Total GULP energy -167306.736728 kJ/mol
# GULP energy per Si atom -5576.891224 kJ/mol
# Density = 2.595052 g / cm^3
# Si number density = 26.009721 Si / 1000 Ang^3
#
#
#
# Elastic Constant Matrix: (Units=GPa)
#
#
# Indices 1 2 3 4 5 6 
#
# 1 95.0299 20.7221 53.6103 0.0000 0.0000 0.0000
# 2 20.7221 32.9975 45.3627 0.0000 0.0000 0.0000
# 3 53.6103 45.3627 266.9789 0.0000 0.0000 0.0000
# 4 0.0000 0.0000 0.0000 56.4221 0.0000 0.0000
# 5 0.0000 0.0000 0.0000 0.0000 51.4344 0.0000
# 6 0.0000 0.0000 0.0000 0.0000 0.0000 20.3511
#
#
#
# Elastic Compliance Matrix: (Units=1/GPa)
#
#
# Indices 1 2 3 4 5 6 
#
# 1 0.012669 -0.005818 -0.001556 0.000000 0.000000 0.000000
# 2 -0.005818 0.042213 -0.006004 0.000000 0.000000 0.000000
# 3 -0.001556 -0.006004 0.005078 0.000000 0.000000 0.000000
# 4 0.000000 0.000000 0.000000 0.017724 0.000000 0.000000
# 5 0.000000 0.000000 0.000000 0.000000 0.019442 0.000000
# 6 0.000000 0.000000 0.000000 0.000000 0.000000 0.049137
#
#
# Mechanical properties :
#
#
# Convention : Reuss Voigt Hill
#
# Bulk Modulus (GPa) = 30.11560 70.48851 50.30206
# Shear Modulus (GPa) = 27.16109 43.99560 35.57834
#
# Velocity S-wave (km/s) = 3.23502 4.11725 3.70251
# Velocity P-wave (km/s) = 5.05544 7.05422 6.13676
#
# Compressibility (1/GPa) = 0.03320538
#
# Stress axis : x y z
#
# Youngs Moduli (GPa) = 78.93197 23.68938 196.92188
#
# Poissons Ratio (x) = 0.13782 0.30631
# Poissons Ratio (y) = 0.45920 1.18237
# Poissons Ratio (z) = 0.12278 0.14224
#
# Static dielectric constant tensor:
#      x y z
#    x 2.026380 0.000000 0.000000 
#    y 0.000000 2.155760 0.000000 
#    z 0.000000 0.000000 2.176370 
# 
# From -- ./inp_files/30196.got.cif
#   From: 2010.05.17/outbox.cif.g08.bks.cpg/sg20_16_cif.got.tgz:30196.got - 2010.06.03 22:52:26.
