data_PCOD9316857
_publ_section_title
;
Structure prediction by ZEFSAII (Michael W. Deem and Ramdas Pophale) SiO2 
 PCOD9316857
Probable space group: C 2 2 21
;
_chemical_formula_sum "Si O2"
_cell_formula_units_Z 48
_cell_length_a 8.941238
_cell_length_b 23.295960
_cell_length_c 11.555367
_cell_angle_alpha 90.000000
_cell_angle_beta 90.000000
_cell_angle_gamma 90.000000
_cell_volume 2406.921966
_symmetry_space_group_name_H-M "C 2 2 21"
_symmetry_group_IT_number 20
_symmetry_cell_setting 'orthorhombic'
loop_
_space_group_symop_operation_xyz
x,y,z
-x,-y,1/2+z
x,-y,-z
-x,y,1/2-z
1/2+x,1/2+y,z
1/2-x,1/2-y,1/2+z
1/2+x,1/2-y,-z
1/2-x,1/2+y,1/2-z
loop_
_atom_site_type_symbol
_atom_site_label
_atom_site_fract_x
_atom_site_fract_y
_atom_site_fract_z
Si Si1 0.836932 0.452092 0.307267
Si Si2 0.677824 0.080849 0.219037
Si Si3 0.252528 0.147453 0.069862
Si Si4 0.841753 0.263752 0.311494
Si Si5 0.600108 0.861112 0.000454
Si Si6 0.152503 0.855340 0.179495
O O1 0.780793 0.516936 0.320841
O O2 0.859672 0.417477 0.425437
O O3 0.737544 0.412147 0.224237
O O4 0.000000 0.454928 0.250000
O O5 0.500000 0.079942 0.250000
O O6 0.765252 0.098157 0.334344
O O7 0.686798 0.129304 0.119814
O O8 0.231811 0.206726 0.138381
O O9 0.422558 0.142291 0.022928
O O10 0.144821 0.143934 0.959151
O O11 0.859880 0.307064 0.420285
O O12 0.745496 0.299320 0.218502
O O13 0.000000 0.251814 0.250000
O O14 0.000000 0.852714 0.250000
#
# Coordination Sequence:
#
# PCOD9316857 Si02
#       6
#     8   8   8   8   8   8
#     4  10  18  40  67  91 128 163 217 272 329 396
#     4   9  21  34  64  98 121 165 215 271 325 391
#     4  11  23  39  62  96 132 161 221 281 329 392
#     4  11  24  41  65  86 129 177 215 274 328 395
#     4  10  19  39  64  97 122 166 217 276 326 392
#     4  11  24  40  64  93 127 181 219 267 339 401
#
# _framework density 19.942481999999998
#
# number of rings (size 3 to 8) (size 9 to 14) (size 15 to 20)
#    0.000    1.667    3.333    1.500    4.667    1.333 
#    3.000    0.833    7.333    0.000    0.000    0.000 
#    0.000    0.000    0.000    0.000    0.000    0.000 
#
# Total GULP energy -133989.295596 kJ/mol
# GULP energy per Si atom -5582.887317 kJ/mol
# Density = 1.989709 g / cm^3
# Si number density = 19.942482 Si / 1000 Ang^3
#
#
#
# Elastic Constant Matrix: (Units=GPa)
#
#
# Indices 1 2 3 4 5 6 
#
# 1 15.8762 9.4487 14.8912 0.0000 0.0000 0.0000
# 2 9.4487 109.9381 42.5062 0.0000 0.0000 0.0000
# 3 14.8912 42.5062 121.6239 0.0000 0.0000 0.0000
# 4 0.0000 0.0000 0.0000 8.2677 0.0000 0.0000
# 5 0.0000 0.0000 0.0000 0.0000 28.5413 0.0000
# 6 0.0000 0.0000 0.0000 0.0000 0.0000 -7.7377
#
#
#
# Elastic Compliance Matrix: (Units=1/GPa)
#
#
# Indices 1 2 3 4 5 6 
#
# 1 0.072132 -0.003220 -0.007706 0.000000 0.000000 0.000000
# 2 -0.003220 0.010661 -0.003332 0.000000 0.000000 0.000000
# 3 -0.007706 -0.003332 0.010330 0.000000 0.000000 0.000000
# 4 0.000000 0.000000 0.000000 0.120953 0.000000 0.000000
# 5 0.000000 0.000000 0.000000 0.000000 0.035037 0.000000
# 6 0.000000 0.000000 0.000000 0.000000 0.000000 -0.129237
#
#
# Mechanical properties :
#
#
# Convention : Reuss Voigt Hill
#
# Bulk Modulus (GPa) = 15.47814 42.34781 28.91298
# Shear Modulus (GPa) = 29.42435 17.85373 23.63904
#
# Velocity S-wave (km/s) = 3.84534 2.99534 3.44664
# Velocity P-wave (km/s) = 5.24345 5.76574 5.51079
#
# Compressibility (1/GPa) = 0.06460725
#
# Stress axis : x y z
#
# Youngs Moduli (GPa) = 13.86347 93.80074 96.80576
#
# Poissons Ratio (x) = 0.30203 0.74601
# Poissons Ratio (y) = 0.04464 0.32252
# Poissons Ratio (z) = 0.10684 0.31251
#
# Static dielectric constant tensor:
#      x y z
#    x 1.682210 0.000000 0.000000 
#    y 0.000000 1.696510 0.000000 
#    z 0.000000 0.000000 1.724530 
# 
# From -- ./inp_files/13083.got.cif
#   From: 2010.05.17/outbox.cif.g08.bks.cpg/sg20_7_cif.got.tgz:13083.got - 2010.06.03 22:52:26.
