data_PCOD9316773
_publ_section_title
;
Structure prediction by ZEFSAII (Michael W. Deem and Ramdas Pophale) SiO2 
 PCOD9316773
Probable space group: C 2 2 21
;
_chemical_formula_sum "Si O2"
_cell_formula_units_Z 48
_cell_length_a 8.112063
_cell_length_b 32.542202
_cell_length_c 7.879329
_cell_angle_alpha 90.000000
_cell_angle_beta 90.000000
_cell_angle_gamma 90.000000
_cell_volume 2080.019882
_symmetry_space_group_name_H-M "C 2 2 21"
_symmetry_group_IT_number 20
_symmetry_cell_setting 'orthorhombic'
loop_
_space_group_symop_operation_xyz
x,y,z
-x,-y,1/2+z
x,-y,-z
-x,y,1/2-z
1/2+x,1/2+y,z
1/2-x,1/2-y,1/2+z
1/2+x,1/2-y,-z
1/2-x,1/2+y,1/2-z
loop_
_atom_site_type_symbol
_atom_site_label
_atom_site_fract_x
_atom_site_fract_y
_atom_site_fract_z
Si Si1 0.536431 0.769910 0.444465
Si Si2 0.688878 0.073917 0.058235
Si Si3 0.382566 0.311581 0.532826
Si Si4 0.336484 0.953252 0.951404
Si Si5 0.978480 0.096835 0.459450
Si Si6 0.830413 0.331928 0.646931
O O1 0.500000 0.764675 0.250000
O O2 0.513276 0.723842 0.514899
O O3 0.708289 0.793919 0.462058
O O4 0.387614 0.796460 0.522301
O O5 0.675251 0.054304 0.247083
O O6 0.516477 0.060031 0.979763
O O7 0.696529 0.123490 0.069699
O O8 0.869475 0.068097 0.979800
O O9 0.455017 0.355857 0.482544
O O10 0.317297 0.319005 0.727986
O O11 0.191432 0.924092 0.013832
O O12 0.308354 0.000000 0.000000
O O13 0.000000 0.096830 0.250000
O O14 0.000000 0.338426 0.750000
#
# Coordination Sequence:
#
# PCOD9316773 Si02
#       6
#     8   8   8   8   8   8
#     4  11  24  35  56  95 134 170 222 288 332 367
#     4  10  19  37  65  93 116 170 216 259 322 403
#     4  11  21  38  61  93 125 176 232 273 321 391
#     4  10  19  34  60  98 125 146 203 278 325 384
#     4  10  19  35  64  92 122 162 222 270 314 388
#     4  10  18  37  64  87 122 172 229 260 316 399
#
# _framework density 23.076703999999999
#
# number of rings (size 3 to 8) (size 9 to 14) (size 15 to 20)
#    0.000    1.667    5.000    2.500    2.333    0.667 
#    0.000    0.000   14.667    0.000    0.000    0.000 
#    0.000    0.000    0.000    0.000    0.000    0.000 
#
# Total GULP energy -133818.542230 kJ/mol
# GULP energy per Si atom -5575.772593 kJ/mol
# Density = 2.302418 g / cm^3
# Si number density = 23.076704 Si / 1000 Ang^3
#
#
#
# Elastic Constant Matrix: (Units=GPa)
#
#
# Indices 1 2 3 4 5 6 
#
# 1 72.5728 146.4788 168.9621 0.0000 0.0000 0.0000
# 2 146.4788 -2.0033 -210.5472 0.0000 0.0000 0.0000
# 3 168.9621 -210.5472 -325.0141 0.0000 0.0000 0.0000
# 4 0.0000 0.0000 0.0000 -45.3338 0.0000 0.0000
# 5 0.0000 0.0000 0.0000 0.0000 6.3411 0.0000
# 6 0.0000 0.0000 0.0000 0.0000 0.0000 25.0879
#
#
#
# Elastic Compliance Matrix: (Units=1/GPa)
#
#
# Indices 1 2 3 4 5 6 
#
# 1 0.006657 -0.001834 0.004649 0.000000 0.000000 0.000000
# 2 -0.001834 0.007946 -0.006101 0.000000 0.000000 0.000000
# 3 0.004649 -0.006101 0.003292 0.000000 0.000000 0.000000
# 4 0.000000 0.000000 0.000000 -0.022059 0.000000 0.000000
# 5 0.000000 0.000000 0.000000 0.000000 0.157702 0.000000
# 6 0.000000 0.000000 0.000000 0.000000 0.000000 0.039860
#
#
# Mechanical properties :
#
#
# Convention : Reuss Voigt Hill
#
# Bulk Modulus (GPa) = 88.31020 -4.96194 41.67413
# Shear Modulus (GPa) = 24.54037 -26.73684 -1.09824
#
# Velocity S-wave (km/s) = 3.26456 -3.40752 -0.69061
# Velocity P-wave (km/s) = 7.24990 4.19958 4.17879
#
# Compressibility (1/GPa) = 0.01132372
#
# Stress axis : x y z
#
# Youngs Moduli (GPa) = 150.20988 125.84585 303.73101
#
# Poissons Ratio (x) = 0.23081 -1.41205
# Poissons Ratio (y) = 0.27549 1.85309
# Poissons Ratio (z) = -0.69833 0.76780
#
# Static dielectric constant tensor:
#      x y z
#    x 2.013760 0.000000 0.000000 
#    y 0.000000 2.109120 0.000000 
#    z 0.000000 0.000000 1.963150 
# 
# From -- ./inp_files/6557.got.cif
#   From: 2010.05.17/outbox.cif.g08.bks.cpg/sg20_4_cif.got.tgz:6557.got - 2010.06.03 22:52:26.
