data_PCOD9316193
_publ_section_title
;
Structure prediction by ZEFSAII (Michael W. Deem and Ramdas Pophale) SiO2 
 PCOD9316193
Probable space group: C 2 2 21
;
_chemical_formula_sum "Si O2"
_cell_formula_units_Z 64
_cell_length_a 26.269254
_cell_length_b 25.043827
_cell_length_c 5.285742
_cell_angle_alpha 90.000000
_cell_angle_beta 90.000000
_cell_angle_gamma 90.000000
_cell_volume 3477.397968
_symmetry_space_group_name_H-M "C 2 2 21"
_symmetry_group_IT_number 20
_symmetry_cell_setting 'orthorhombic'
loop_
_space_group_symop_operation_xyz
x,y,z
-x,-y,1/2+z
x,-y,-z
-x,y,1/2-z
1/2+x,1/2+y,z
1/2-x,1/2-y,1/2+z
1/2+x,1/2-y,-z
1/2-x,1/2+y,1/2-z
loop_
_atom_site_type_symbol
_atom_site_label
_atom_site_fract_x
_atom_site_fract_y
_atom_site_fract_z
Si Si1 0.747225 0.714540 0.741526
Si Si2 0.945570 0.444794 0.796869
Si Si3 0.053515 0.374049 0.202478
Si Si4 0.623933 0.479591 0.250158
Si Si5 0.692810 0.612586 0.741400
Si Si6 0.163672 0.558482 0.207741
Si Si7 0.838176 0.630405 0.792750
Si Si8 0.774020 0.946450 0.741694
O O1 0.750810 0.746706 0.481349
O O2 0.697839 0.675897 0.748692
O O3 0.794021 0.673127 0.760759
O O4 0.946090 0.398769 0.579464
O O5 0.890338 0.471202 0.748489
O O6 0.000000 0.473070 0.750000
O O7 0.945929 0.420345 0.079247
O O8 0.105984 0.343989 0.252627
O O9 0.000000 0.345236 0.250000
O O10 0.597440 0.500000 0.500000
O O11 0.638506 0.417554 0.253074
O O12 0.679058 0.511959 0.248945
O O13 0.597508 0.500000 0.000000
O O14 0.718455 0.591732 0.482829
O O15 0.720489 0.588197 0.988107
O O16 0.163725 0.602953 0.431368
O O17 0.217608 0.529036 0.244064
O O18 0.164630 0.586456 0.932771
#
# Coordination Sequence:
#
# PCOD9316193 Si02
#       8
#     8   8   8   8   8   8   8   8
#     4  12  22  30  40  54  75 107 136 152 181 221
#     4   8  14  21  31  50  72  91 112 137 174 229
#     4   8  14  24  38  52  67  89 116 149 192 227
#     4   8  16  25  40  56  70  87 109 151 196 227
#     4  10  18  30  39  52  75  92 121 158 186 219
#     4  10  15  24  40  53  72  95 115 149 192 225
#     4  10  18  28  38  53  75  98 123 157 188 221
#     4  10  15  26  42  58  71  89 116 147 199 229
#
# _framework density 18.404567
#
# number of rings (size 3 to 8) (size 9 to 14) (size 15 to 20)
#    0.000    2.500    2.500    1.500    0.000    0.000 
#    0.000    0.000    0.000    0.000    0.000    0.000 
#    0.000   10.000    0.000    0.000    0.000   10.000 
#
# Total GULP energy -178340.422222 kJ/mol
# GULP energy per Si atom -5573.138194 kJ/mol
# Density = 1.836268 g / cm^3
# Si number density = 18.404567 Si / 1000 Ang^3
#
#
#
# Elastic Constant Matrix: (Units=GPa)
#
#
# Indices 1 2 3 4 5 6 
#
# 1 26.8275 -11.4749 -6.5655 0.0000 0.0000 0.0000
# 2 -11.4749 48.9693 20.3958 0.0000 0.0000 0.0000
# 3 -6.5655 20.3958 136.2873 0.0000 0.0000 0.0000
# 4 0.0000 0.0000 0.0000 29.2283 0.0000 0.0000
# 5 0.0000 0.0000 0.0000 0.0000 11.4046 0.0000
# 6 0.0000 0.0000 0.0000 0.0000 0.0000 3.4409
#
#
#
# Elastic Compliance Matrix: (Units=1/GPa)
#
#
# Indices 1 2 3 4 5 6 
#
# 1 0.041470 0.009476 0.000580 0.000000 0.000000 0.000000
# 2 0.009476 0.023944 -0.003127 0.000000 0.000000 0.000000
# 3 0.000580 -0.003127 0.007833 0.000000 0.000000 0.000000
# 4 0.000000 0.000000 0.000000 0.034213 0.000000 0.000000
# 5 0.000000 0.000000 0.000000 0.000000 0.087684 0.000000
# 6 0.000000 0.000000 0.000000 0.000000 0.000000 0.290619
#
#
# Mechanical properties :
#
#
# Convention : Reuss Voigt Hill
#
# Bulk Modulus (GPa) = 11.48031 24.08832 17.78432
# Shear Modulus (GPa) = 9.98122 22.79667 16.38895
#
# Velocity S-wave (km/s) = 2.33131 3.52325 2.98733
# Velocity P-wave (km/s) = 3.67396 5.44681 4.64573
#
# Compressibility (1/GPa) = 0.08710563
#
# Stress axis : x y z
#
# Youngs Moduli (GPa) = 24.11367 41.76445 127.66030
#
# Poissons Ratio (x) = -0.39577 -0.07400
# Poissons Ratio (y) = -0.22851 0.39916
# Poissons Ratio (z) = -0.01398 0.13059
#
# Static dielectric constant tensor:
#      x y z
#    x 1.681780 0.000000 0.000000 
#    y 0.000000 1.621450 0.000000 
#    z 0.000000 0.000000 1.737100 
# 
# From -- ./inp_files/4414.got.cif
#   From: 2010.05.17/outbox.cif.g08.bks.cpg/sg20_3_cif.got.tgz:4414.got - 2010.06.03 22:52:26.
