data_PCOD9316827
_publ_section_title
;
Structure prediction by ZEFSAII (Michael W. Deem and Ramdas Pophale) SiO2 
 PCOD9316827
Probable space group: C 2 2 21
;
_chemical_formula_sum "Si O2"
_cell_formula_units_Z 40
_cell_length_a 8.184371
_cell_length_b 22.042976
_cell_length_c 8.056368
_cell_angle_alpha 90.000000
_cell_angle_beta 90.000000
_cell_angle_gamma 90.000000
_cell_volume 1453.432380
_symmetry_space_group_name_H-M "C 2 2 21"
_symmetry_group_IT_number 20
_symmetry_cell_setting 'orthorhombic'
loop_
_space_group_symop_operation_xyz
x,y,z
-x,-y,1/2+z
x,-y,-z
-x,y,1/2-z
1/2+x,1/2+y,z
1/2-x,1/2-y,1/2+z
1/2+x,1/2-y,-z
1/2-x,1/2+y,1/2-z
loop_
_atom_site_type_symbol
_atom_site_label
_atom_site_fract_x
_atom_site_fract_y
_atom_site_fract_z
Si Si1 0.330009 0.967306 0.320955
Si Si2 0.000000 0.331169 0.750000
Si Si3 0.000000 0.260088 0.250000
Si Si4 0.260354 0.753412 0.520268
Si Si5 0.909120 0.877077 0.013338
Si Si6 0.727887 0.586964 0.149018
O O1 0.500000 0.942115 0.250000
O O2 0.191631 0.918843 0.362229
O O3 0.360807 0.000000 0.500000
O O4 0.266092 0.017070 0.189316
O O5 0.885049 0.288200 0.641250
O O6 0.896048 0.376454 0.864779
O O7 0.135145 0.287349 0.373747
O O8 0.873477 0.226583 0.375068
O O9 0.146791 0.808229 0.449038
O O10 0.841872 0.890469 0.827790
O O11 0.096645 0.897656 0.992495
#
# Coordination Sequence:
#
# PCOD9316827 Si02
#       6
#     8   4   4   8   8   8
#     4  10  20  37  64  96 135 186 236 281 331 406
#     4  10  18  38  73  98 134 186 237 288 360 446
#     4  12  26  46  73 108 144 182 241 308 380 440
#     4  11  24  43  72 104 140 185 237 304 369 440
#     4   9  20  37  65  94 140 176 237 291 346 414
#     4   9  17  36  64  96 132 191 228 279 347 418
#
# _framework density 27.521059999999999
#
# number of rings (size 3 to 8) (size 9 to 14) (size 15 to 20)
#    0.000    2.000    1.000    3.600    1.400    0.000 
#    0.000    7.000    0.000   21.600    0.000    0.000 
#    0.000    0.000    0.000    0.000    0.000    0.000 
#
# Total GULP energy -111847.772963 kJ/mol
# GULP energy per Si atom -5592.388648 kJ/mol
# Density = 2.745842 g / cm^3
# Si number density = 27.521060 Si / 1000 Ang^3
#
#
#
# Elastic Constant Matrix: (Units=GPa)
#
#
# Indices 1 2 3 4 5 6 
#
# 1 222.5818 76.9602 88.3530 0.0000 0.0000 0.0000
# 2 76.9602 120.8052 54.7666 0.0000 0.0000 0.0000
# 3 88.3530 54.7666 138.6195 0.0000 0.0000 0.0000
# 4 0.0000 0.0000 0.0000 30.0137 0.0000 0.0000
# 5 0.0000 0.0000 0.0000 0.0000 89.4383 0.0000
# 6 0.0000 0.0000 0.0000 0.0000 0.0000 32.3257
#
#
#
# Elastic Compliance Matrix: (Units=1/GPa)
#
#
# Indices 1 2 3 4 5 6 
#
# 1 0.006737 -0.002857 -0.003165 0.000000 0.000000 0.000000
# 2 -0.002857 0.011295 -0.002642 0.000000 0.000000 0.000000
# 3 -0.003165 -0.002642 0.010275 0.000000 0.000000 0.000000
# 4 0.000000 0.000000 0.000000 0.033318 0.000000 0.000000
# 5 0.000000 0.000000 0.000000 0.000000 0.011181 0.000000
# 6 0.000000 0.000000 0.000000 0.000000 0.000000 0.030935
#
#
# Mechanical properties :
#
#
# Convention : Reuss Voigt Hill
#
# Bulk Modulus (GPa) = 91.07669 102.46289 96.76979
# Shear Modulus (GPa) = 40.08675 47.81733 43.95204
#
# Velocity S-wave (km/s) = 3.82066 4.17283 4.00062
# Velocity P-wave (km/s) = 7.25456 7.77999 7.52186
#
# Compressibility (1/GPa) = 0.01097976
#
# Stress axis : x y z
#
# Youngs Moduli (GPa) = 148.43441 88.53145 97.32187
#
# Poissons Ratio (x) = 0.25292 0.30805
# Poissons Ratio (y) = 0.42406 0.25710
# Poissons Ratio (z) = 0.46984 0.23388
#
# Static dielectric constant tensor:
#      x y z
#    x 2.191550 0.000000 0.000000 
#    y 0.000000 2.090550 0.000000 
#    z 0.000000 0.000000 2.199620 
# 
# From -- ./inp_files/6131.got.cif
#   From: 2010.05.17/outbox.cif.g08.bks.cpg/sg20_4_cif.got.tgz:6131.got - 2010.06.03 22:52:26.
