data_PCOD9316319
_publ_section_title
;
Structure prediction by ZEFSAII (Michael W. Deem and Ramdas Pophale) SiO2 
 PCOD9316319
Probable space group: C 2 2 21
;
_chemical_formula_sum "Si O2"
_cell_formula_units_Z 44
_cell_length_a 33.612359
_cell_length_b 8.858379
_cell_length_c 7.172672
_cell_angle_alpha 90.000000
_cell_angle_beta 90.000000
_cell_angle_gamma 90.000000
_cell_volume 2135.670369
_symmetry_space_group_name_H-M "C 2 2 21"
_symmetry_group_IT_number 20
_symmetry_cell_setting 'orthorhombic'
loop_
_space_group_symop_operation_xyz
x,y,z
-x,-y,1/2+z
x,-y,-z
-x,y,1/2-z
1/2+x,1/2+y,z
1/2-x,1/2-y,1/2+z
1/2+x,1/2-y,-z
1/2-x,1/2+y,1/2-z
loop_
_atom_site_type_symbol
_atom_site_label
_atom_site_fract_x
_atom_site_fract_y
_atom_site_fract_z
Si Si1 0.000000 0.349494 0.250000
Si Si2 0.032947 0.847583 0.094999
Si Si3 0.073015 0.555680 0.214412
Si Si4 0.308329 0.342387 0.570818
Si Si5 0.655793 0.939310 0.213467
Si Si6 0.768812 0.401380 0.682158
O O1 0.987487 0.248431 0.427220
O O2 0.963256 0.459801 0.202305
O O3 0.063446 0.733050 0.197593
O O4 0.000000 0.888462 0.250000
O O5 0.049324 0.000000 0.000000
O O6 0.115475 0.505903 0.294588
O O7 0.073835 0.500000 0.000000
O O8 0.325109 0.500000 0.500000
O O9 0.339396 0.239359 0.685251
O O10 0.269830 0.370153 0.698764
O O11 0.290656 0.247962 0.395889
O O12 0.697186 0.004257 0.289620
O O13 0.656544 0.000000 0.000000
O O14 0.757504 0.500000 0.500000
#
# Coordination Sequence:
#
# PCOD9316319 Si02
#       6
#     4   8   8   8   8   8
#     4  10  20  36  62  88 114 164 200 234 288 364
#     4  11  21  36  62  92 120 152 199 248 294 349
#     4   9  18  35  58  83 114 152 196 237 287 353
#     4  10  17  30  55  79 108 147 189 241 288 340
#     4   8  17  33  51  80 107 143 196 232 276 355
#     4   9  18  31  51  78 110 145 188 234 285 354
#
# _framework density 20.602430999999999
#
# number of rings (size 3 to 8) (size 9 to 14) (size 15 to 20)
#    0.000    2.909    1.818    2.182    0.000    0.000 
#    0.000   14.545   12.000    1.091    0.000    0.000 
#    0.000    0.000    0.000    0.000    0.000    0.000 
#
# Total GULP energy -122642.224463 kJ/mol
# GULP energy per Si atom -5574.646567 kJ/mol
# Density = 2.055554 g / cm^3
# Si number density = 20.602431 Si / 1000 Ang^3
#
#
#
# Elastic Constant Matrix: (Units=GPa)
#
#
# Indices 1 2 3 4 5 6 
#
# 1 106.9697 48.6526 12.1088 0.0000 0.0000 0.0000
# 2 48.6526 161.9016 17.9846 0.0000 0.0000 0.0000
# 3 12.1088 17.9846 71.1357 0.0000 0.0000 0.0000
# 4 0.0000 0.0000 0.0000 13.8595 0.0000 0.0000
# 5 0.0000 0.0000 0.0000 0.0000 6.6650 0.0000
# 6 0.0000 0.0000 0.0000 0.0000 0.0000 16.1629
#
#
#
# Elastic Compliance Matrix: (Units=1/GPa)
#
#
# Indices 1 2 3 4 5 6 
#
# 1 0.010905 -0.003160 -0.001057 0.000000 0.000000 0.000000
# 2 -0.003160 0.007271 -0.001300 0.000000 0.000000 0.000000
# 3 -0.001057 -0.001300 0.014566 0.000000 0.000000 0.000000
# 4 0.000000 0.000000 0.000000 0.072152 0.000000 0.000000
# 5 0.000000 0.000000 0.000000 0.000000 0.150038 0.000000
# 6 0.000000 0.000000 0.000000 0.000000 0.000000 0.061870
#
#
# Mechanical properties :
#
#
# Convention : Reuss Voigt Hill
#
# Bulk Modulus (GPa) = 46.06744 55.27766 50.67255
# Shear Modulus (GPa) = 14.92212 24.75489 19.83851
#
# Velocity S-wave (km/s) = 2.69418 3.47010 3.10646
# Velocity P-wave (km/s) = 5.66453 6.55320 6.12500
#
# Compressibility (1/GPa) = 0.02170731
#
# Stress axis : x y z
#
# Youngs Moduli (GPa) = 91.69912 137.54168 68.65120
#
# Poissons Ratio (x) = 0.43458 0.07260
# Poissons Ratio (y) = 0.28974 0.08927
# Poissons Ratio (z) = 0.09697 0.17885
#
# Static dielectric constant tensor:
#      x y z
#    x 1.795660 0.000000 0.000000 
#    y 0.000000 1.789160 0.000000 
#    z 0.000000 0.000000 1.777630 
# 
# From -- ./inp_files/11380.got.cif
#   From: 2010.05.17/outbox.cif.g08.bks.cpg/sg20_6_cif.got.tgz:11380.got - 2010.06.03 22:52:26.
