data_PCOD9316336
_publ_section_title
;
Structure prediction by ZEFSAII (Michael W. Deem and Ramdas Pophale) SiO2 
 PCOD9316336
Probable space group: C 2 2 21
;
_chemical_formula_sum "Si O2"
_cell_formula_units_Z 48
_cell_length_a 7.745545
_cell_length_b 17.556829
_cell_length_c 22.621243
_cell_angle_alpha 90.000000
_cell_angle_beta 90.000000
_cell_angle_gamma 90.000000
_cell_volume 3076.199701
_symmetry_space_group_name_H-M "C 2 2 21"
_symmetry_group_IT_number 20
_symmetry_cell_setting 'orthorhombic'
loop_
_space_group_symop_operation_xyz
x,y,z
-x,-y,1/2+z
x,-y,-z
-x,y,1/2-z
1/2+x,1/2+y,z
1/2-x,1/2-y,1/2+z
1/2+x,1/2-y,-z
1/2-x,1/2+y,1/2-z
loop_
_atom_site_type_symbol
_atom_site_label
_atom_site_fract_x
_atom_site_fract_y
_atom_site_fract_z
Si Si1 0.500000 0.677408 0.750000
Si Si2 0.500000 0.002598 0.250000
Si Si3 0.820120 0.479801 0.068226
Si Si4 0.848976 0.748698 0.701600
Si Si5 0.620973 0.095010 0.863162
Si Si6 0.988091 0.939098 0.356044
Si Si7 0.783980 0.920661 0.671461
O O1 0.666613 0.725695 0.731548
O O2 0.546585 0.622793 0.805122
O O3 0.345991 0.053183 0.223233
O O4 0.432328 0.948907 0.302734
O O5 0.651572 0.434015 0.091481
O O6 0.810305 0.555186 0.110061
O O7 0.987808 0.432499 0.087495
O O8 0.814684 0.500000 0.000000
O O9 0.884919 0.684212 0.652424
O O10 0.833314 0.833474 0.676397
O O11 0.000000 0.745662 0.750000
O O12 0.816992 0.071458 0.876592
O O13 0.948146 0.022332 0.328410
#
# Coordination Sequence:
#
# PCOD9316336 Si02
#       7
#     4   4   8   8   8   8   8
#     4  10  19  34  51  78 112 140 164 208 267 328
#     4  10  17  32  49  80 106 140 168 202 257 318
#     4   9  20  38  57  72 100 139 186 217 251 302
#     4  11  20  30  49  81 112 134 163 209 273 315
#     4  10  19  33  55  75 104 140 173 206 262 319
#     4   9  19  32  55  77  99 139 178 210 253 310
#     4   9  20  31  51  78 106 133 171 217 255 300
#
# _framework density 15.603669
#
# number of rings (size 3 to 8) (size 9 to 14) (size 15 to 20)
#    1.000    1.333    0.833    3.500    3.500    0.667 
#    0.000    0.000    7.333    0.000    0.000    0.000 
#    0.000    0.000    0.000    0.000    0.000    0.000 
#
# Total GULP energy -133651.051613 kJ/mol
# GULP energy per Si atom -5568.793817 kJ/mol
# Density = 1.556815 g / cm^3
# Si number density = 15.603669 Si / 1000 Ang^3
#
#
#
# Elastic Constant Matrix: (Units=GPa)
#
#
# Indices 1 2 3 4 5 6 
#
# 1 77.9972 44.9368 12.9765 0.0000 0.0000 0.0000
# 2 44.9368 121.2192 20.2874 0.0000 0.0000 0.0000
# 3 12.9765 20.2874 53.8431 0.0000 0.0000 0.0000
# 4 0.0000 0.0000 0.0000 4.9184 0.0000 0.0000
# 5 0.0000 0.0000 0.0000 0.0000 17.5402 0.0000
# 6 0.0000 0.0000 0.0000 0.0000 0.0000 18.9264
#
#
#
# Elastic Compliance Matrix: (Units=1/GPa)
#
#
# Indices 1 2 3 4 5 6 
#
# 1 0.016461 -0.005804 -0.001780 0.000000 0.000000 0.000000
# 2 -0.005804 0.010851 -0.002690 0.000000 0.000000 0.000000
# 3 -0.001780 -0.002690 0.020015 0.000000 0.000000 0.000000
# 4 0.000000 0.000000 0.000000 0.203317 0.000000 0.000000
# 5 0.000000 0.000000 0.000000 0.000000 0.057012 0.000000
# 6 0.000000 0.000000 0.000000 0.000000 0.000000 0.052836
#
#
# Mechanical properties :
#
#
# Convention : Reuss Voigt Hill
#
# Bulk Modulus (GPa) = 37.34286 45.49565 41.41926
# Shear Modulus (GPa) = 12.82159 19.93427 16.37793
#
# Velocity S-wave (km/s) = 2.86965 3.57814 3.24330
# Velocity P-wave (km/s) = 5.91303 6.80376 6.37397
#
# Compressibility (1/GPa) = 0.02677888
#
# Stress axis : x y z
#
# Youngs Moduli (GPa) = 60.74883 92.15409 49.96248
#
# Poissons Ratio (x) = 0.53489 0.08895
# Poissons Ratio (y) = 0.35261 0.13439
# Poissons Ratio (z) = 0.10815 0.24787
#
# Static dielectric constant tensor:
#      x y z
#    x 1.535660 0.000000 0.000000 
#    y 0.000000 1.510430 0.000000 
#    z 0.000000 0.000000 1.493610 
# 
# From -- ./inp_files/26799.got.cif
#   From: 2010.05.17/outbox.cif.g08.bks.cpg/sg20_14_cif.got.tgz:26799.got - 2010.06.03 22:52:26.
