data_PCOD9316831
_publ_section_title
;
Structure prediction by ZEFSAII (Michael W. Deem and Ramdas Pophale) SiO2 
 PCOD9316831
Probable space group: C 2 2 21
;
_chemical_formula_sum "Si O2"
_cell_formula_units_Z 48
_cell_length_a 8.375011
_cell_length_b 29.648319
_cell_length_c 7.814737
_cell_angle_alpha 90.000000
_cell_angle_beta 90.000000
_cell_angle_gamma 90.000000
_cell_volume 1940.438253
_symmetry_space_group_name_H-M "C 2 2 21"
_symmetry_group_IT_number 20
_symmetry_cell_setting 'orthorhombic'
loop_
_space_group_symop_operation_xyz
x,y,z
-x,-y,1/2+z
x,-y,-z
-x,y,1/2-z
1/2+x,1/2+y,z
1/2-x,1/2-y,1/2+z
1/2+x,1/2-y,-z
1/2-x,1/2+y,1/2-z
loop_
_atom_site_type_symbol
_atom_site_label
_atom_site_fract_x
_atom_site_fract_y
_atom_site_fract_z
Si Si1 0.666800 0.338617 0.409225
Si Si2 0.182202 0.023997 0.262244
Si Si3 0.287747 0.068415 0.617882
Si Si4 0.483957 0.200704 0.545442
Si Si5 0.069809 0.550650 0.441039
Si Si6 0.150482 0.200370 0.958799
O O1 0.691944 0.387958 0.329670
O O2 0.496985 0.333337 0.503302
O O3 0.664749 0.304464 0.247950
O O4 0.829189 0.328342 0.514245
O O5 0.216067 0.050596 0.437037
O O6 0.244470 0.052268 0.100136
O O7 0.000000 0.013557 0.250000
O O8 0.270956 0.975491 0.264991
O O9 0.471606 0.080548 0.571428
O O10 0.500000 0.193094 0.750000
O O11 0.666104 0.193902 0.476239
O O12 0.422464 0.251457 0.510905
O O13 0.026839 0.500000 0.500000
O O14 0.000000 0.557498 0.250000
#
# Coordination Sequence:
#
# PCOD9316831 Si02
#       6
#     8   8   8   8   8   8
#     4  10  22  39  64  94 131 164 219 274 314 389
#     4  10  22  39  64  91 133 177 215 268 333 391
#     4  10  21  42  61  95 130 169 225 270 316 395
#     4  10  20  39  66  94 126 168 211 257 329 409
#     4  10  18  39  63  86 122 175 219 260 324 386
#     4  10  20  39  64  92 126 167 207 263 329 385
#
# _framework density 24.736681000000001
#
# number of rings (size 3 to 8) (size 9 to 14) (size 15 to 20)
#    0.000    2.000    5.000    0.000    4.667    0.000 
#   12.000    0.833   18.333    0.000    0.000    0.000 
#    0.000    0.000    0.000    0.000    0.000    0.000 
#
# Total GULP energy -133796.468101 kJ/mol
# GULP energy per Si atom -5574.852838 kJ/mol
# Density = 2.468038 g / cm^3
# Si number density = 24.736681 Si / 1000 Ang^3
#
#
#
# Elastic Constant Matrix: (Units=GPa)
#
#
# Indices 1 2 3 4 5 6 
#
# 1 244.6108 33.4684 13.8843 0.0000 0.0000 0.0000
# 2 33.4684 51.5782 2.2735 0.0000 0.0000 0.0000
# 3 13.8843 2.2735 76.0275 0.0000 0.0000 0.0000
# 4 0.0000 0.0000 0.0000 10.9891 0.0000 0.0000
# 5 0.0000 0.0000 0.0000 0.0000 12.3107 0.0000
# 6 0.0000 0.0000 0.0000 0.0000 0.0000 28.2136
#
#
#
# Elastic Compliance Matrix: (Units=1/GPa)
#
#
# Indices 1 2 3 4 5 6 
#
# 1 0.004528 -0.002905 -0.000740 0.000000 0.000000 0.000000
# 2 -0.002905 0.021278 -0.000106 0.000000 0.000000 0.000000
# 3 -0.000740 -0.000106 0.013291 0.000000 0.000000 0.000000
# 4 0.000000 0.000000 0.000000 0.091000 0.000000 0.000000
# 5 0.000000 0.000000 0.000000 0.000000 0.081230 0.000000
# 6 0.000000 0.000000 0.000000 0.000000 0.000000 0.035444
#
#
# Mechanical properties :
#
#
# Convention : Reuss Voigt Hill
#
# Bulk Modulus (GPa) = 31.65059 52.38543 42.01801
# Shear Modulus (GPa) = 18.88189 31.80870 25.34530
#
# Velocity S-wave (km/s) = 2.76581 3.58982 3.20442
# Velocity P-wave (km/s) = 4.79817 6.19723 5.54202
#
# Compressibility (1/GPa) = 0.03159499
#
# Stress axis : x y z
#
# Youngs Moduli (GPa) = 220.86557 46.99714 75.23648
#
# Poissons Ratio (x) = 0.13654 0.05567
# Poissons Ratio (y) = 0.64168 0.00795
# Poissons Ratio (z) = 0.16343 0.00497
#
# Static dielectric constant tensor:
#      x y z
#    x 2.111150 0.000000 0.000000 
#    y 0.000000 1.903690 0.000000 
#    z 0.000000 0.000000 2.005860 
# 
# From -- ./inp_files/6495.got.cif
#   From: 2010.05.17/outbox.cif.g08.bks.cpg/sg20_4_cif.got.tgz:6495.got - 2010.06.03 22:52:26.
