data_PCOD9316354
_publ_section_title
;
Structure prediction by ZEFSAII (Michael W. Deem and Ramdas Pophale) SiO2 
 PCOD9316354
Probable space group: C 2 2 21
;
_chemical_formula_sum "Si O2"
_cell_formula_units_Z 56
_cell_length_a 20.602892
_cell_length_b 12.808295
_cell_length_c 10.531478
_cell_angle_alpha 90.000000
_cell_angle_beta 90.000000
_cell_angle_gamma 90.000000
_cell_volume 2779.129809
_symmetry_space_group_name_H-M "C 2 2 21"
_symmetry_group_IT_number 20
_symmetry_cell_setting 'orthorhombic'
loop_
_space_group_symop_operation_xyz
x,y,z
-x,-y,1/2+z
x,-y,-z
-x,y,1/2-z
1/2+x,1/2+y,z
1/2-x,1/2-y,1/2+z
1/2+x,1/2-y,-z
1/2-x,1/2+y,1/2-z
loop_
_atom_site_type_symbol
_atom_site_label
_atom_site_fract_x
_atom_site_fract_y
_atom_site_fract_z
Si Si1 0.950586 0.500000 0.500000
Si Si2 0.500000 0.072181 0.750000
Si Si3 0.633176 0.211657 0.014578
Si Si4 0.123912 0.925442 0.118476
Si Si5 0.620881 0.774316 0.275861
Si Si6 0.781026 0.562087 0.871796
Si Si7 0.886437 0.947751 0.865856
Si Si8 0.268906 0.068577 0.375588
O O1 0.993020 0.504595 0.625160
O O2 0.909070 0.393677 0.508538
O O3 0.437120 0.143890 0.763582
O O4 0.601134 0.309071 0.085684
O O5 0.696916 0.177198 0.092628
O O6 0.646349 0.246347 0.868551
O O7 0.203087 0.920624 0.126810
O O8 0.098672 0.975702 0.248619
O O9 0.107927 0.000000 0.000000
O O10 0.677799 0.832410 0.353380
O O11 0.591191 0.669746 0.337323
O O12 0.795562 0.489193 0.749055
O O13 0.797826 0.500000 0.000000
O O14 0.808365 0.929048 0.863837
O O15 0.904338 0.000000 0.000000
O O16 0.282331 0.000000 0.500000
#
# Coordination Sequence:
#
# PCOD9316354 Si02
#       8
#     4   4   8   8   8   8   8   8
#     4  10  22  42  64  92 110 148 194 254 298 342
#     4  10  24  42  66  82 114 144 198 254 300 338
#     4  11  19  36  64  84 115 158 200 228 286 362
#     4  10  20  36  57  86 122 159 193 223 273 372
#     4  11  21  39  60  82 115 159 193 250 295 336
#     4  10  21  33  54  90 123 152 188 237 297 342
#     4  10  22  36  55  85 123 153 190 237 294 338
#     4  10  17  33  54  83 120 154 189 225 276 363
#
# _framework density 20.150191
#
# number of rings (size 3 to 8) (size 9 to 14) (size 15 to 20)
#    0.000    1.714    3.571    1.714    1.000    1.143 
#    2.571    0.000    6.286    0.000    0.000    0.000 
#    0.000    0.000    0.000    0.000    0.000    0.000 
#
# Total GULP energy -156278.096727 kJ/mol
# GULP energy per Si atom -5581.360597 kJ/mol
# Density = 2.010433 g / cm^3
# Si number density = 20.150191 Si / 1000 Ang^3
#
#
#
# Elastic Constant Matrix: (Units=GPa)
#
#
# Indices 1 2 3 4 5 6 
#
# 1 11.2542 -8.5576 5.1494 0.0000 0.0000 0.0000
# 2 -8.5576 100.7035 56.5476 0.0000 0.0000 0.0000
# 3 5.1494 56.5476 159.6857 0.0000 0.0000 0.0000
# 4 0.0000 0.0000 0.0000 33.7752 0.0000 0.0000
# 5 0.0000 0.0000 0.0000 0.0000 0.0981 0.0000
# 6 0.0000 0.0000 0.0000 0.0000 0.0000 4.5278
#
#
#
# Elastic Compliance Matrix: (Units=1/GPa)
#
#
# Indices 1 2 3 4 5 6 
#
# 1 0.102539 0.013194 -0.007979 0.000000 0.000000 0.000000
# 2 0.013194 0.014092 -0.005416 0.000000 0.000000 0.000000
# 3 -0.007979 -0.005416 0.008437 0.000000 0.000000 0.000000
# 4 0.000000 0.000000 0.000000 0.029608 0.000000 0.000000
# 5 0.000000 0.000000 0.000000 0.000000 10.195483 0.000000
# 6 0.000000 0.000000 0.000000 0.000000 0.000000 0.220860
#
#
# Mechanical properties :
#
#
# Convention : Reuss Voigt Hill
#
# Bulk Modulus (GPa) = 8.02138 41.99137 25.00637
# Shear Modulus (GPa) = 0.47112 22.24715 11.35913
#
# Velocity S-wave (km/s) = 0.48406 3.32635 2.37686
# Velocity P-wave (km/s) = 2.07409 5.96970 4.46873
#
# Compressibility (1/GPa) = 0.12466685
#
# Stress axis : x y z
#
# Youngs Moduli (GPa) = 9.75243 70.95996 118.51935
#
# Poissons Ratio (x) = -0.93623 0.94563
# Poissons Ratio (y) = -0.12867 0.64188
# Poissons Ratio (z) = 0.07781 0.38431
#
# Static dielectric constant tensor:
#      x y z
#    x 1.734440 0.000000 0.000000 
#    y 0.000000 1.742900 0.000000 
#    z 0.000000 0.000000 1.716920 
# 
# From -- ./inp_files/16350.got.cif
#   From: 2010.05.17/outbox.cif.g08.bks.cpg/sg20_9_cif.got.tgz:16350.got - 2010.06.03 22:52:26.
