data_PCOD9316444
_publ_section_title
;
Structure prediction by ZEFSAII (Michael W. Deem and Ramdas Pophale) SiO2 
 PCOD9316444
Probable space group: C 2 2 21
;
_chemical_formula_sum "Si O2"
_cell_formula_units_Z 32
_cell_length_a 36.631949
_cell_length_b 5.359699
_cell_length_c 7.266493
_cell_angle_alpha 90.000000
_cell_angle_beta 90.000000
_cell_angle_gamma 90.000000
_cell_volume 1426.675771
_symmetry_space_group_name_H-M "C 2 2 21"
_symmetry_group_IT_number 20
_symmetry_cell_setting 'orthorhombic'
loop_
_space_group_symop_operation_xyz
x,y,z
-x,-y,1/2+z
x,-y,-z
-x,y,1/2-z
1/2+x,1/2+y,z
1/2-x,1/2-y,1/2+z
1/2+x,1/2-y,-z
1/2-x,1/2+y,1/2-z
loop_
_atom_site_type_symbol
_atom_site_label
_atom_site_fract_x
_atom_site_fract_y
_atom_site_fract_z
Si Si1 0.427214 0.267532 0.206731
Si Si2 0.769846 0.390137 0.795335
Si Si3 0.042395 0.268029 0.284337
Si Si4 0.344521 0.254144 0.119069
O O1 0.447171 0.500830 0.294980
O O2 0.384136 0.314300 0.199481
O O3 0.435515 0.001299 0.292123
O O4 0.444550 0.249638 0.999042
O O5 0.753499 0.634172 0.695431
O O6 0.811019 0.307376 0.744566
O O7 0.772687 0.500000 0.000000
O O8 0.000000 0.315798 0.250000
O O9 0.333745 0.500000 0.000000
O O10 0.350261 0.000000 0.000000
#
# Coordination Sequence:
#
# PCOD9316444 Si02
#       4
#     8   8   8   8
#     4  10  18  32  49  79 106 138 193 234 281 346
#     4  11  23  39  62  98 127 164 209 265 321 378
#     4  10  18  29  48  77 108 135 172 235 296 327
#     4  11  18  34  58  84 116 145 197 258 295 361
#
# _framework density 22.429760000000002
#
# number of rings (size 3 to 8) (size 9 to 14) (size 15 to 20)
#    0.000    1.500    5.000    4.500    0.000    0.000 
#    0.000    0.000    0.000    0.000   65.000    0.000 
#    0.000    0.000    0.000    0.000    0.000    0.000 
#
# Total GULP energy -89224.122744 kJ/mol
# GULP energy per Si atom -5576.507672 kJ/mol
# Density = 2.237871 g / cm^3
# Si number density = 22.429760 Si / 1000 Ang^3
#
#
#
# Elastic Constant Matrix: (Units=GPa)
#
#
# Indices 1 2 3 4 5 6 
#
# 1 154.8675 10.1083 9.6139 0.0000 0.0000 0.0000
# 2 10.1083 166.5424 0.1369 0.0000 0.0000 0.0000
# 3 9.6139 0.1369 58.3098 0.0000 0.0000 0.0000
# 4 0.0000 0.0000 0.0000 6.3355 0.0000 0.0000
# 5 0.0000 0.0000 0.0000 0.0000 8.6853 0.0000
# 6 0.0000 0.0000 0.0000 0.0000 0.0000 47.6014
#
#
#
# Elastic Compliance Matrix: (Units=1/GPa)
#
#
# Indices 1 2 3 4 5 6 
#
# 1 0.006550 -0.000397 -0.001079 0.000000 0.000000 0.000000
# 2 -0.000397 0.006029 0.000051 0.000000 0.000000 0.000000
# 3 -0.001079 0.000051 0.017328 0.000000 0.000000 0.000000
# 4 0.000000 0.000000 0.000000 0.157840 0.000000 0.000000
# 5 0.000000 0.000000 0.000000 0.000000 0.115137 0.000000
# 6 0.000000 0.000000 0.000000 0.000000 0.000000 0.021008
#
#
# Mechanical properties :
#
#
# Convention : Reuss Voigt Hill
#
# Bulk Modulus (GPa) = 36.95871 46.60421 41.78146
# Shear Modulus (GPa) = 14.89162 36.51514 25.70338
#
# Velocity S-wave (km/s) = 2.57946 4.03920 3.38886
# Velocity P-wave (km/s) = 5.03834 6.52506 5.82929
#
# Compressibility (1/GPa) = 0.02705722
#
# Stress axis : x y z
#
# Youngs Moduli (GPa) = 152.67158 165.87848 57.71151
#
# Poissons Ratio (x) = 0.06580 0.06227
# Poissons Ratio (y) = 0.06056 -0.00296
# Poissons Ratio (z) = 0.16473 -0.00850
#
# Static dielectric constant tensor:
#      x y z
#    x 1.820050 0.000000 0.000000 
#    y 0.000000 1.932830 0.000000 
#    z 0.000000 0.000000 1.724970 
# 
# From -- ./inp_files/11296.got.cif
#   From: 2010.05.17/outbox.cif.g08.bks.cpg/sg20_6_cif.got.tgz:11296.got - 2010.06.03 22:52:26.
