data_PCOD9316709
_publ_section_title
;
Structure prediction by ZEFSAII (Michael W. Deem and Ramdas Pophale) SiO2 
 PCOD9316709
Probable space group: C 2 2 21
;
_chemical_formula_sum "Si O2"
_cell_formula_units_Z 52
_cell_length_a 17.642936
_cell_length_b 15.091196
_cell_length_c 8.884268
_cell_angle_alpha 90.000000
_cell_angle_beta 90.000000
_cell_angle_gamma 90.000000
_cell_volume 2365.463054
_symmetry_space_group_name_H-M "C 2 2 21"
_symmetry_group_IT_number 20
_symmetry_cell_setting 'orthorhombic'
loop_
_space_group_symop_operation_xyz
x,y,z
-x,-y,1/2+z
x,-y,-z
-x,y,1/2-z
1/2+x,1/2+y,z
1/2-x,1/2-y,1/2+z
1/2+x,1/2-y,-z
1/2-x,1/2+y,1/2-z
loop_
_atom_site_type_symbol
_atom_site_label
_atom_site_fract_x
_atom_site_fract_y
_atom_site_fract_z
Si Si1 0.658874 0.775355 0.228615
Si Si2 0.629245 0.849962 0.541156
Si Si3 0.771808 0.087211 0.290102
Si Si4 0.682516 0.663570 0.668964
Si Si5 0.085896 0.811813 0.051990
Si Si6 0.205634 0.000000 0.500000
Si Si7 0.000000 0.668453 0.250000
Si Si8 0.100828 0.000000 0.000000
O O1 0.623512 0.832817 0.363023
O O2 0.703182 0.684066 0.271974
O O3 0.726862 0.831188 0.154641
O O4 0.602908 0.734547 0.105935
O O5 0.704571 0.902203 0.590506
O O6 0.645099 0.750268 0.599848
O O7 0.558689 0.882992 0.641714
O O8 0.747642 0.035869 0.141259
O O9 0.842631 0.037933 0.369713
O O10 0.660698 0.667232 0.845778
O O11 0.656870 0.578379 0.575455
O O12 0.041545 0.737128 0.139861
O O13 0.053393 0.911523 0.039473
#
# Coordination Sequence:
#
# PCOD9316709 Si02
#       8
#     8   8   8   8   8   4   4   4
#     4  10  19  35  60  84 111 154 201 255 295 344
#     4  10  21  38  57  80 115 156 202 238 287 352
#     4  10  21  33  59  91 121 149 185 251 309 356
#     4  10  19  33  54  90 119 146 187 246 304 347
#     4  10  21  36  56  79 122 152 198 239 291 358
#     4  12  20  30  55  97 126 146 178 238 334 352
#     4  10  24  40  54  76 114 164 200 238 280 350
#     4  10  18  36  55  91 118 142 186 252 314 342
#
# _framework density 21.983011000000001
#
# number of rings (size 3 to 8) (size 9 to 14) (size 15 to 20)
#    0.000    1.846    3.077    2.769    4.308    0.615 
#    0.000    6.154    0.000    0.923    0.000    0.000 
#    0.000    0.000    0.000    0.000    0.000    0.000 
#
# Total GULP energy -144853.677210 kJ/mol
# GULP energy per Si atom -5571.295277 kJ/mol
# Density = 2.193298 g / cm^3
# Si number density = 21.983011 Si / 1000 Ang^3
#
#
#
# Elastic Constant Matrix: (Units=GPa)
#
#
# Indices 1 2 3 4 5 6 
#
# 1 26.4683 -12.9007 1.9954 0.0000 0.0000 0.0000
# 2 -12.9007 35.1784 9.5440 0.0000 0.0000 0.0000
# 3 1.9954 9.5440 103.3435 0.0000 0.0000 0.0000
# 4 0.0000 0.0000 0.0000 36.0525 0.0000 0.0000
# 5 0.0000 0.0000 0.0000 0.0000 14.5090 0.0000
# 6 0.0000 0.0000 0.0000 0.0000 0.0000 6.6372
#
#
#
# Elastic Compliance Matrix: (Units=1/GPa)
#
#
# Indices 1 2 3 4 5 6 
#
# 1 0.046647 0.017797 -0.002544 0.000000 0.000000 0.000000
# 2 0.017797 0.035947 -0.003663 0.000000 0.000000 0.000000
# 3 -0.002544 -0.003663 0.010064 0.000000 0.000000 0.000000
# 4 0.000000 0.000000 0.000000 0.027737 0.000000 0.000000
# 5 0.000000 0.000000 0.000000 0.000000 0.068923 0.000000
# 6 0.000000 0.000000 0.000000 0.000000 0.000000 0.150665
#
#
# Mechanical properties :
#
#
# Convention : Reuss Voigt Hill
#
# Bulk Modulus (GPa) = 8.63287 18.02972 13.33129
# Shear Modulus (GPa) = 14.06798 22.52987 18.29892
#
# Velocity S-wave (km/s) = 2.53246 3.20484 2.88829
# Velocity P-wave (km/s) = 3.53366 4.68125 4.14734
#
# Compressibility (1/GPa) = 0.11583633
#
# Stress axis : x y z
#
# Youngs Moduli (GPa) = 21.43754 27.81882 99.36498
#
# Poissons Ratio (x) = -0.49509 0.25281
# Poissons Ratio (y) = -0.38152 0.36401
# Poissons Ratio (z) = 0.05454 0.10191
#
# Static dielectric constant tensor:
#      x y z
#    x 1.841340 0.000000 0.000000 
#    y 0.000000 1.866850 0.000000 
#    z 0.000000 0.000000 1.886700 
# 
# From -- ./inp_files/9559.got.cif
#   From: 2010.05.17/outbox.cif.g08.bks.cpg/sg20_5_cif.got.tgz:9559.got - 2010.06.03 22:52:26.
