data_PCOD9316174
_publ_section_title
;
Structure prediction by ZEFSAII (Michael W. Deem and Ramdas Pophale) SiO2 
 PCOD9316174
Probable space group: P 21 21 21
;
_chemical_formula_sum "Si O2"
_cell_formula_units_Z 32
_cell_length_a 21.000000
_cell_length_b 6.000000
_cell_length_c 12.000000
_cell_angle_alpha 90.000000
_cell_angle_beta 90.000000
_cell_angle_gamma 90.000000
_cell_volume 1512.000000
_symmetry_space_group_name_H-M "P 21 21 21"
_symmetry_group_IT_number 19
_symmetry_cell_setting 'orthorhombic'
loop_
_space_group_symop_operation_xyz
x,y,z
1/2-x,-y,1/2+z
1/2+x,1/2-y,-z
-x,1/2+y,1/2-z
loop_
_atom_site_type_symbol
_atom_site_label
_atom_site_fract_x
_atom_site_fract_y
_atom_site_fract_z
Si Si1 0.421874 0.706992 0.063906
Si Si2 0.654440 0.916432 0.910414
Si Si3 0.201045 0.838732 0.306631
Si Si4 0.454905 0.775173 0.607708
Si Si5 0.834932 0.470013 0.785483
Si Si6 0.069406 0.045942 0.346176
Si Si7 0.203256 0.597075 0.542099
Si Si8 0.568248 0.628141 0.082859
O O1 0.365928 0.520879 0.059404
O O2 0.494101 0.687721 0.115098
O O3 0.380922 0.895233 0.129117
O O4 0.438990 0.757683 0.935211
O O5 0.667483 0.775887 0.799177
O O6 0.608035 0.120970 0.879890
O O7 0.727564 0.974184 0.946573
O O8 0.610345 0.790671 0.002280
O O9 0.205357 0.688972 0.416725
O O10 0.273063 0.908703 0.271070
O O11 0.145949 0.014426 0.341341
O O12 0.455414 0.916503 0.721435
O O13 0.522703 0.646345 0.604665
O O14 0.442862 0.911318 0.494673
O O15 0.800677 0.282108 0.860633
O O16 0.884754 0.401248 0.688400
#
# Coordination Sequence:
#
# PCOD9316174 Si02
#       8
#     4   4   4   4   4   4   4   4
#     4  12  27  51  72 109 147 194 250 299 368 440
#     4  12  26  47  73 111 147 192 246 302 377 435
#     4  12  25  48  74 107 143 194 239 307 368 437
#     4  12  24  46  72 115 146 191 239 306 370 432
#     4  12  30  49  74 107 149 197 248 304 364 446
#     4  12  23  44  78 104 150 184 243 301 365 433
#     4  12  28  48  77 107 147 194 246 303 371 436
#     4  12  29  47  76 106 149 198 245 306 367 443
#
# _framework density 21.164021000000002
#
# number of rings (size 3 to 8) (size 9 to 14) (size 15 to 20)
#    0.000    0.000    5.000    4.500    7.000    1.000 
#    0.000    0.000    0.000    0.000    0.000    0.000 
#    0.000    0.000    0.000    0.000    0.000    0.000 
#
# Total GULP energy -178500.684530 kJ/mol
# GULP energy per Si atom -5578.146392 kJ/mol
# Density = 2.111585 g / cm^3
# Si number density = 21.164021 Si / 1000 Ang^3
#
#
#
# Elastic Constant Matrix: (Units=GPa)
#
#
# Indices 1 2 3 4 5 6 
#
# 1 184.2060 33.8625 15.7811 0.0000 0.0000 0.0000
# 2 33.8625 44.8675 23.1704 0.0000 0.0000 0.0000
# 3 15.7811 23.1704 90.5828 0.0000 0.0000 0.0000
# 4 0.0000 0.0000 0.0000 23.3417 0.0000 0.0000
# 5 0.0000 0.0000 0.0000 0.0000 50.1425 0.0000
# 6 0.0000 0.0000 0.0000 0.0000 0.0000 53.7851
#
#
#
# Elastic Compliance Matrix: (Units=1/GPa)
#
#
# Indices 1 2 3 4 5 6 
#
# 1 0.006305 -0.004829 0.000137 0.000000 0.000000 0.000000
# 2 -0.004829 0.029379 -0.006674 0.000000 0.000000 0.000000
# 3 0.000137 -0.006674 0.012723 0.000000 0.000000 0.000000
# 4 0.000000 0.000000 0.000000 0.042842 0.000000 0.000000
# 5 0.000000 0.000000 0.000000 0.000000 0.019943 0.000000
# 6 0.000000 0.000000 0.000000 0.000000 0.000000 0.018593
#
#
# Mechanical properties :
#
#
# Convention : Reuss Voigt Hill
#
# Bulk Modulus (GPa) = 38.94861 51.69825 45.32343
# Shear Modulus (GPa) = 31.04178 41.91003 36.47590
#
# Velocity S-wave (km/s) = 3.83394 4.45483 4.15599
# Velocity P-wave (km/s) = 6.16782 7.13730 6.67020
#
# Compressibility (1/GPa) = 0.02567486
#
# Stress axis : x y z
#
# Youngs Moduli (GPa) = 158.61223 34.03828 78.59888
#
# Poissons Ratio (x) = 0.16437 -0.01075
# Poissons Ratio (y) = 0.76593 0.52453
# Poissons Ratio (z) = -0.02170 0.22716
#
# Static dielectric constant tensor:
#      x y z
#    x 1.747060 0.000000 0.000000 
#    y 0.000000 1.883280 0.000000 
#    z 0.000000 0.000000 1.740050 
# 
# From -- ./inp_files/5483.got.cif
#   From: 2010.05.17/outbox.ucp.g08.bks.cvg/sg19_3_cif.got.tgz:5483.got - 2010.06.11 13:13:52.
