data_PCOD9316594
_publ_section_title
;
Structure prediction by ZEFSAII (Michael W. Deem and Ramdas Pophale) SiO2 
 PCOD9316594
Probable space group: C 2 2 21
;
_chemical_formula_sum "Si O2"
_cell_formula_units_Z 64
_cell_length_a 13.038177
_cell_length_b 14.916596
_cell_length_c 16.392884
_cell_angle_alpha 90.000000
_cell_angle_beta 90.000000
_cell_angle_gamma 90.000000
_cell_volume 3188.173633
_symmetry_space_group_name_H-M "C 2 2 21"
_symmetry_group_IT_number 20
_symmetry_cell_setting 'orthorhombic'
loop_
_space_group_symop_operation_xyz
x,y,z
-x,-y,1/2+z
x,-y,-z
-x,y,1/2-z
1/2+x,1/2+y,z
1/2-x,1/2-y,1/2+z
1/2+x,1/2-y,-z
1/2-x,1/2+y,1/2-z
loop_
_atom_site_type_symbol
_atom_site_label
_atom_site_fract_x
_atom_site_fract_y
_atom_site_fract_z
Si Si1 0.631574 0.393102 0.772751
Si Si2 0.114878 0.228436 0.662574
Si Si3 0.149339 0.362212 0.806468
Si Si4 0.390548 0.527224 0.860396
Si Si5 0.147873 0.265689 0.115868
Si Si6 0.888922 0.966751 0.414761
Si Si7 0.595636 0.729145 0.932435
Si Si8 0.652376 0.974519 0.093631
O O1 0.743510 0.381786 0.734910
O O2 0.579096 0.443056 0.696345
O O3 0.602699 0.297613 0.812553
O O4 0.640376 0.465180 0.844715
O O5 0.227657 0.243083 0.623240
O O6 0.102707 0.294880 0.739076
O O7 0.021124 0.242329 0.599499
O O8 0.111456 0.122883 0.687145
O O9 0.392898 0.270057 0.529289
O O10 0.159812 0.307534 0.890518
O O11 0.105146 0.456423 0.839753
O O12 0.486773 0.536554 0.919821
O O13 0.277395 0.516954 0.898216
O O14 0.125673 0.371993 0.115921
O O15 0.845594 0.000000 0.500000
O O16 0.860990 0.864416 0.399067
O O17 0.624647 0.000000 0.000000
#
# Coordination Sequence:
#
# PCOD9316594 Si02
#       8
#     8   8   8   8   8   8   8   8
#     4  10  20  35  51  82 119 149 177 232 296 350
#     4   9  20  36  58  88 115 146 199 241 284 354
#     4  10  20  34  57  81 109 153 195 235 276 332
#     4   9  19  33  55  85 116 145 184 238 299 363
#     4  10  20  36  56  85 119 149 192 241 292 344
#     4  11  20  33  56  88 116 146 182 238 307 356
#     4  11  20  36  61  87 112 157 193 239 292 347
#     4  10  18  33  55  82 111 151 199 239 281 335
#
# _framework density 20.074189000000001
#
# number of rings (size 3 to 8) (size 9 to 14) (size 15 to 20)
#    0.000    2.000    2.500    1.875    0.000    3.000 
#    0.000    0.000    0.000   10.500    0.000    0.000 
#    0.000    0.000    0.000    0.000    0.000    0.000 
#
# Total GULP energy -178219.710957 kJ/mol
# GULP energy per Si atom -5569.365967 kJ/mol
# Density = 2.002850 g / cm^3
# Si number density = 20.074189 Si / 1000 Ang^3
#
#
#
# Elastic Constant Matrix: (Units=GPa)
#
#
# Indices 1 2 3 4 5 6 
#
# 1 27.1429 7.2690 5.4291 0.0000 0.0000 0.0000
# 2 7.2690 147.9317 47.6598 0.0000 0.0000 0.0000
# 3 5.4291 47.6598 88.9023 0.0000 0.0000 0.0000
# 4 0.0000 0.0000 0.0000 36.0200 0.0000 0.0000
# 5 0.0000 0.0000 0.0000 0.0000 25.7850 0.0000
# 6 0.0000 0.0000 0.0000 0.0000 0.0000 0.3398
#
#
#
# Elastic Compliance Matrix: (Units=1/GPa)
#
#
# Indices 1 2 3 4 5 6 
#
# 1 0.037515 -0.001336 -0.001575 0.000000 0.000000 0.000000
# 2 -0.001336 0.008219 -0.004324 0.000000 0.000000 0.000000
# 3 -0.001575 -0.004324 0.013663 0.000000 0.000000 0.000000
# 4 0.000000 0.000000 0.000000 0.027762 0.000000 0.000000
# 5 0.000000 0.000000 0.000000 0.000000 0.038782 0.000000
# 6 0.000000 0.000000 0.000000 0.000000 0.000000 2.942859
#
#
# Mechanical properties :
#
#
# Convention : Reuss Voigt Hill
#
# Bulk Modulus (GPa) = 22.25886 42.74363 32.50124
# Shear Modulus (GPa) = 1.61382 26.00356 13.80869
#
# Velocity S-wave (km/s) = 0.89759 3.60303 2.62560
# Velocity P-wave (km/s) = 3.49093 6.21677 5.04157
#
# Compressibility (1/GPa) = 0.04492594
#
# Stress axis : x y z
#
# Youngs Moduli (GPa) = 26.65615 121.67315 73.19176
#
# Poissons Ratio (x) = 0.16256 0.11526
# Poissons Ratio (y) = 0.03561 0.31651
# Poissons Ratio (z) = 0.04198 0.52616
#
# Static dielectric constant tensor:
#      x y z
#    x 1.729520 0.000000 0.000000 
#    y 0.000000 1.772730 0.000000 
#    z 0.000000 0.000000 1.703780 
# 
# From -- ./inp_files/27811.got.cif
#   From: 2010.05.17/outbox.cif.g08.bks.cpg/sg20_14_cif.got.tgz:27811.got - 2010.06.03 22:52:26.
