data_PCOD9316015
_publ_section_title
;
Structure prediction by ZEFSAII (Michael W. Deem and Ramdas Pophale) SiO2 
 PCOD9316015
Probable space group: P 21 21 21
;
_chemical_formula_sum "Si O2"
_cell_formula_units_Z 28
_cell_length_a 17.685954
_cell_length_b 9.801861
_cell_length_c 6.839481
_cell_angle_alpha 90.000000
_cell_angle_beta 90.000000
_cell_angle_gamma 90.000000
_cell_volume 1185.660026
_symmetry_space_group_name_H-M "P 21 21 21"
_symmetry_group_IT_number 19
_symmetry_cell_setting 'orthorhombic'
loop_
_space_group_symop_operation_xyz
x,y,z
1/2-x,-y,1/2+z
1/2+x,1/2-y,-z
-x,1/2+y,1/2-z
loop_
_atom_site_type_symbol
_atom_site_label
_atom_site_fract_x
_atom_site_fract_y
_atom_site_fract_z
Si Si1 0.652049 0.013126 0.492999
Si Si2 0.564004 0.405318 0.817307
Si Si3 0.809866 0.644349 0.613520
Si Si4 0.659609 0.531758 0.467132
Si Si5 0.983378 0.819505 0.042637
Si Si6 0.796108 0.146413 0.343486
Si Si7 0.608905 0.781901 0.212573
O O1 0.648771 0.933422 0.697748
O O2 0.618814 0.927739 0.312799
O O3 0.604759 0.150896 0.510538
O O4 0.739449 0.043191 0.451124
O O5 0.610734 0.483306 0.648439
O O6 0.512233 0.288539 0.719863
O O7 0.519681 0.530565 0.919604
O O8 0.625822 0.330309 0.953993
O O9 0.747897 0.540931 0.522484
O O10 0.850780 0.572464 0.792171
O O11 0.757642 0.762086 0.705205
O O12 0.636242 0.676316 0.376114
O O13 0.025354 0.754340 0.858176
O O14 0.840710 0.225343 0.514264
#
# Coordination Sequence:
#
# PCOD9316015 Si02
#       7
#     4   4   4   4   4   4   4
#     4  12  28  48  78 111 158 205 266 327 390 468
#     4  12  29  50  75 111 158 210 255 325 391 476
#     4  12  24  43  77 110 147 191 259 321 391 455
#     4  12  24  45  74 109 146 194 258 322 385 460
#     4  12  30  51  76 114 160 210 262 319 402 473
#     4  12  26  48  77 117 147 205 263 329 392 464
#     4  12  27  49  77 112 156 205 259 327 395 468
#
# _framework density 23.615538000000001
#
# number of rings (size 3 to 8) (size 9 to 14) (size 15 to 20)
#    0.000    0.000    5.714    3.429    8.000    2.286 
#    0.000    0.000    0.000    0.000    0.000    0.000 
#    0.000    0.000    0.000    0.000    0.000    0.000 
#
# Total GULP energy -156808.371897 kJ/mol
# GULP energy per Si atom -5600.298996 kJ/mol
# Density = 2.356179 g / cm^3
# Si number density = 23.615538 Si / 1000 Ang^3
#
#
#
# Elastic Constant Matrix: (Units=GPa)
#
#
# Indices 1 2 3 4 5 6 
#
# 1 62.5186 6.1462 22.2584 0.0000 0.0000 0.0000
# 2 6.1462 71.2769 11.6426 0.0000 0.0000 0.0000
# 3 22.2584 11.6426 91.5059 0.0000 0.0000 0.0000
# 4 0.0000 0.0000 0.0000 39.1681 0.0000 0.0000
# 5 0.0000 0.0000 0.0000 0.0000 47.3413 0.0000
# 6 0.0000 0.0000 0.0000 0.0000 0.0000 41.7498
#
#
#
# Elastic Compliance Matrix: (Units=1/GPa)
#
#
# Indices 1 2 3 4 5 6 
#
# 1 0.017560 -0.000834 -0.004165 0.000000 0.000000 0.000000
# 2 -0.000834 0.014367 -0.001625 0.000000 0.000000 0.000000
# 3 -0.004165 -0.001625 0.012148 0.000000 0.000000 0.000000
# 4 0.000000 0.000000 0.000000 0.025531 0.000000 0.000000
# 5 0.000000 0.000000 0.000000 0.000000 0.021123 0.000000
# 6 0.000000 0.000000 0.000000 0.000000 0.000000 0.023952
#
#
# Mechanical properties :
#
#
# Convention : Reuss Voigt Hill
#
# Bulk Modulus (GPa) = 32.43921 33.93289 33.18605
# Shear Modulus (GPa) = 36.17778 38.00210 37.08994
#
# Velocity S-wave (km/s) = 3.91826 4.01583 3.96735
# Velocity P-wave (km/s) = 5.85120 5.99188 5.92196
#
# Compressibility (1/GPa) = 0.03082690
#
# Stress axis : x y z
#
# Youngs Moduli (GPa) = 56.94692 69.60319 82.31648
#
# Poissons Ratio (x) = 0.05804 0.34288
# Poissons Ratio (y) = 0.04748 0.13378
# Poissons Ratio (z) = 0.23720 0.11312
#
# Static dielectric constant tensor:
#      x y z
#    x 1.876980 0.000000 0.000000 
#    y 0.000000 1.914880 0.000000 
#    z 0.000000 0.000000 1.880910 
# 
# From -- ./inp_files/1729.got.cif
#   From: 2010.05.17/outbox.cif.g08.bks.cpg/sg19_1_cif.got.tgz:1729.got - 2010.06.03 22:46:19.
