data_PCOD9316381
_publ_section_title
;
Structure prediction by ZEFSAII (Michael W. Deem and Ramdas Pophale) SiO2 
 PCOD9316381
Probable space group: C 2 2 21
;
_chemical_formula_sum "Si O2"
_cell_formula_units_Z 32
_cell_length_a 36.048771
_cell_length_b 5.374781
_cell_length_c 7.819143
_cell_angle_alpha 90.000000
_cell_angle_beta 90.000000
_cell_angle_gamma 90.000000
_cell_volume 1514.992183
_symmetry_space_group_name_H-M "C 2 2 21"
_symmetry_group_IT_number 20
_symmetry_cell_setting 'orthorhombic'
loop_
_space_group_symop_operation_xyz
x,y,z
-x,-y,1/2+z
x,-y,-z
-x,y,1/2-z
1/2+x,1/2+y,z
1/2-x,1/2-y,1/2+z
1/2+x,1/2-y,-z
1/2-x,1/2+y,1/2-z
loop_
_atom_site_type_symbol
_atom_site_label
_atom_site_fract_x
_atom_site_fract_y
_atom_site_fract_z
Si Si1 0.967735 0.747666 0.611822
Si Si2 0.735298 0.629975 0.821618
Si Si3 0.116931 0.261745 0.199670
Si Si4 0.351877 0.737195 0.692910
O O1 0.974396 0.500000 0.500000
O O2 0.927150 0.714705 0.695370
O O3 0.000000 0.771834 0.750000
O O4 0.966297 0.000000 0.500000
O O5 0.744194 0.395276 0.698124
O O6 0.691850 0.696183 0.816745
O O7 0.745062 0.500000 0.000000
O O8 0.136669 0.502911 0.275613
O O9 0.129509 0.001797 0.277895
O O10 0.131537 0.249831 0.001296
#
# Coordination Sequence:
#
# PCOD9316381 Si02
#       4
#     8   8   8   8
#     4  12  23  40  64 102 133 167 210 271 320 379
#     4  12  25  40  64  98 131 165 212 273 331 377
#     4  10  17  34  63  90 111 162 233 246 279 375
#     4  10  18  34  63  88 112 161 229 250 281 377
#
# _framework density 21.122219999999999
#
# number of rings (size 3 to 8) (size 9 to 14) (size 15 to 20)
#    0.000    1.000    7.500    3.000    3.500    0.000 
#    0.000    0.000    0.000   15.000    0.000    0.000 
#    0.000    0.000    0.000    0.000    0.000    0.000 
#
# Total GULP energy -89337.428431 kJ/mol
# GULP energy per Si atom -5583.589277 kJ/mol
# Density = 2.107414 g / cm^3
# Si number density = 21.122220 Si / 1000 Ang^3
#
#
#
# Elastic Constant Matrix: (Units=GPa)
#
#
# Indices 1 2 3 4 5 6 
#
# 1 103.2681 8.5509 7.2689 0.0000 0.0000 0.0000
# 2 8.5509 188.6440 10.7250 0.0000 0.0000 0.0000
# 3 7.2689 10.7250 25.6452 0.0000 0.0000 0.0000
# 4 0.0000 0.0000 0.0000 7.7532 0.0000 0.0000
# 5 0.0000 0.0000 0.0000 0.0000 21.7038 0.0000
# 6 0.0000 0.0000 0.0000 0.0000 0.0000 36.3466
#
#
#
# Elastic Compliance Matrix: (Units=1/GPa)
#
#
# Indices 1 2 3 4 5 6 
#
# 1 0.009897 -0.000296 -0.002681 0.000000 0.000000 0.000000
# 2 -0.000296 0.005439 -0.002191 0.000000 0.000000 0.000000
# 3 -0.002681 -0.002191 0.040670 0.000000 0.000000 0.000000
# 4 0.000000 0.000000 0.000000 0.128980 0.000000 0.000000
# 5 0.000000 0.000000 0.000000 0.000000 0.046075 0.000000
# 6 0.000000 0.000000 0.000000 0.000000 0.000000 0.027513
#
#
# Mechanical properties :
#
#
# Convention : Reuss Voigt Hill
#
# Bulk Modulus (GPa) = 21.89659 41.18300 31.53980
# Shear Modulus (GPa) = 17.59744 32.56155 25.07949
#
# Velocity S-wave (km/s) = 2.88952 3.93055 3.44953
# Velocity P-wave (km/s) = 4.63913 6.33552 5.55249
#
# Compressibility (1/GPa) = 0.04566920
#
# Stress axis : x y z
#
# Youngs Moduli (GPa) = 101.04288 183.85861 24.58832
#
# Poissons Ratio (x) = 0.05445 0.06593
# Poissons Ratio (y) = 0.02993 0.05386
# Poissons Ratio (z) = 0.27093 0.40277
#
# Static dielectric constant tensor:
#      x y z
#    x 1.706240 0.000000 0.000000 
#    y 0.000000 1.887480 0.000000 
#    z 0.000000 0.000000 1.719120 
# 
# From -- ./inp_files/11297.got.cif
#   From: 2010.05.17/outbox.cif.g08.bks.cpg/sg20_6_cif.got.tgz:11297.got - 2010.06.03 22:52:26.
