data_PCOD9316477
_publ_section_title
;
Structure prediction by ZEFSAII (Michael W. Deem and Ramdas Pophale) SiO2 
 PCOD9316477
Probable space group: C 2 2 21
;
_chemical_formula_sum "Si O2"
_cell_formula_units_Z 48
_cell_length_a 8.521634
_cell_length_b 17.339773
_cell_length_c 15.215011
_cell_angle_alpha 90.000000
_cell_angle_beta 90.000000
_cell_angle_gamma 90.000000
_cell_volume 2248.218700
_symmetry_space_group_name_H-M "C 2 2 21"
_symmetry_group_IT_number 20
_symmetry_cell_setting 'orthorhombic'
loop_
_space_group_symop_operation_xyz
x,y,z
-x,-y,1/2+z
x,-y,-z
-x,y,1/2-z
1/2+x,1/2+y,z
1/2-x,1/2-y,1/2+z
1/2+x,1/2-y,-z
1/2-x,1/2+y,1/2-z
loop_
_atom_site_type_symbol
_atom_site_label
_atom_site_fract_x
_atom_site_fract_y
_atom_site_fract_z
Si Si1 0.300795 0.098449 0.411042
Si Si2 0.910002 0.693298 0.116293
Si Si3 0.862519 0.270662 0.317581
Si Si4 0.409010 0.069092 0.611695
Si Si5 0.236133 0.415565 0.476286
Si Si6 0.011190 0.182619 0.478708
O O1 0.411732 0.165639 0.372370
O O2 0.346375 0.086339 0.513562
O O3 0.122004 0.126540 0.421213
O O4 0.346681 0.016707 0.366212
O O5 0.800638 0.725010 0.193834
O O6 0.836014 0.619756 0.066232
O O7 0.899161 0.761792 0.044864
O O8 0.000000 0.252283 0.250000
O O9 0.849097 0.363110 0.325441
O O10 0.926608 0.239073 0.410537
O O11 0.597779 0.077482 0.595988
O O12 0.292688 0.500000 0.500000
O O13 0.385797 0.362395 0.461198
#
# Coordination Sequence:
#
# PCOD9316477 Si02
#       6
#     8   8   8   8   8   8
#     4  10  18  33  59  87 110 142 201 240 272 334
#     4  10  18  35  56  83 112 145 192 237 278 339
#     4  11  23  38  56  83 120 154 185 241 309 344
#     4  10  18  35  54  83 115 145 186 237 285 343
#     4  10  18  30  53  86 110 139 182 243 278 319
#     4  11  20  32  59  88 110 146 196 239 281 342
#
# _framework density 21.350235999999999
#
# number of rings (size 3 to 8) (size 9 to 14) (size 15 to 20)
#    0.000    1.667    8.333    1.000    2.333    0.000 
#    0.000    2.500    0.000    0.000    0.000    0.000 
#    0.000    0.000    0.000    0.000    0.000    0.000 
#
# Total GULP energy -133753.500994 kJ/mol
# GULP energy per Si atom -5573.062541 kJ/mol
# Density = 2.130164 g / cm^3
# Si number density = 21.350236 Si / 1000 Ang^3
#
#
#
# Elastic Constant Matrix: (Units=GPa)
#
#
# Indices 1 2 3 4 5 6 
#
# 1 79.4098 39.0572 4.4969 0.0000 0.0000 0.0000
# 2 39.0572 122.7986 15.8612 0.0000 0.0000 0.0000
# 3 4.4969 15.8612 29.1483 0.0000 0.0000 0.0000
# 4 0.0000 0.0000 0.0000 4.4165 0.0000 0.0000
# 5 0.0000 0.0000 0.0000 0.0000 22.2396 0.0000
# 6 0.0000 0.0000 0.0000 0.0000 0.0000 31.0701
#
#
#
# Elastic Compliance Matrix: (Units=1/GPa)
#
#
# Indices 1 2 3 4 5 6 
#
# 1 0.014931 -0.004788 0.000302 0.000000 0.000000 0.000000
# 2 -0.004788 0.010294 -0.004863 0.000000 0.000000 0.000000
# 3 0.000302 -0.004863 0.036907 0.000000 0.000000 0.000000
# 4 0.000000 0.000000 0.000000 0.226423 0.000000 0.000000
# 5 0.000000 0.000000 0.000000 0.000000 0.044965 0.000000
# 6 0.000000 0.000000 0.000000 0.000000 0.000000 0.032185
#
#
# Mechanical properties :
#
#
# Convention : Reuss Voigt Hill
#
# Bulk Modulus (GPa) = 23.02342 38.90968 30.96655
# Shear Modulus (GPa) = 12.53507 23.00799 17.77153
#
# Velocity S-wave (km/s) = 2.42568 3.28631 2.88823
# Velocity P-wave (km/s) = 4.31883 5.71523 5.06538
#
# Compressibility (1/GPa) = 0.04343403
#
# Stress axis : x y z
#
# Youngs Moduli (GPa) = 66.97619 97.14050 27.09509
#
# Poissons Ratio (x) = 0.46509 -0.00818
# Poissons Ratio (y) = 0.32067 0.13177
# Poissons Ratio (z) = -0.02022 0.47240
#
# Static dielectric constant tensor:
#      x y z
#    x 1.935290 0.000000 0.000000 
#    y 0.000000 1.772950 0.000000 
#    z 0.000000 0.000000 1.789090 
# 
# From -- ./inp_files/23459.got.cif
#   From: 2010.05.17/outbox.cif.g08.bks.cpg/sg20_12_cif.got.tgz:23459.got - 2010.06.03 22:52:26.
