data_PCOD9316764
_publ_section_title
;
Structure prediction by ZEFSAII (Michael W. Deem and Ramdas Pophale) SiO2 
 PCOD9316764
Probable space group: C 2 2 21
;
_chemical_formula_sum "Si O2"
_cell_formula_units_Z 56
_cell_length_a 13.132733
_cell_length_b 21.462623
_cell_length_c 11.393979
_cell_angle_alpha 90.000000
_cell_angle_beta 90.000000
_cell_angle_gamma 90.000000
_cell_volume 3211.539933
_symmetry_space_group_name_H-M "C 2 2 21"
_symmetry_group_IT_number 20
_symmetry_cell_setting 'orthorhombic'
loop_
_space_group_symop_operation_xyz
x,y,z
-x,-y,1/2+z
x,-y,-z
-x,y,1/2-z
1/2+x,1/2+y,z
1/2-x,1/2-y,1/2+z
1/2+x,1/2-y,-z
1/2-x,1/2+y,1/2-z
loop_
_atom_site_type_symbol
_atom_site_label
_atom_site_fract_x
_atom_site_fract_y
_atom_site_fract_z
Si Si1 0.649375 0.278131 0.435995
Si Si2 0.660680 0.169372 0.810767
Si Si3 0.808835 0.900676 0.371561
Si Si4 0.269090 0.857796 0.877021
Si Si5 0.500000 0.657310 0.750000
Si Si6 0.393075 0.302436 0.792832
Si Si7 0.000000 0.578254 0.750000
Si Si8 0.166209 0.508404 0.365336
O O1 0.756743 0.313663 0.410106
O O2 0.670299 0.204589 0.414848
O O3 0.566761 0.301918 0.341140
O O4 0.615392 0.294113 0.567702
O O5 0.727791 0.138928 0.706062
O O6 0.617037 0.234104 0.764341
O O7 0.564940 0.124184 0.835364
O O8 0.792736 0.880142 0.506536
O O9 0.919480 0.883716 0.323324
O O10 0.774655 0.972404 0.353648
O O11 0.197446 0.840216 0.768321
O O12 0.331970 0.918712 0.839687
O O13 0.500000 0.329717 0.750000
O O14 0.084889 0.532489 0.701585
O O15 0.137847 0.500000 0.500000
#
# Coordination Sequence:
#
# PCOD9316764 Si02
#       8
#     8   8   8   8   4   8   4   8
#     4  10  21  35  54  85 118 143 186 234 283 334
#     4   9  18  33  55  79 107 145 183 232 274 330
#     4   9  17  36  57  76 108 142 189 222 269 333
#     4  10  20  36  54  81 116 145 178 231 290 325
#     4  10  20  35  60  83 104 150 188 224 276 338
#     4  11  20  33  54  82 112 148 184 233 285 335
#     4  10  18  37  58  81 104 146 200 216 272 344
#     4   9  20  36  57  78 109 150 179 229 274 328
#
# _framework density 17.437118000000002
#
# number of rings (size 3 to 8) (size 9 to 14) (size 15 to 20)
#    0.000    2.286    2.143    0.857    0.000    0.571 
#    3.857    0.000    0.000    0.000    0.000    0.000 
#    0.000    0.000    0.000    0.000    0.000    0.000 
#
# Total GULP energy -155907.616259 kJ/mol
# GULP energy per Si atom -5568.129152 kJ/mol
# Density = 1.739743 g / cm^3
# Si number density = 17.437118 Si / 1000 Ang^3
#
#
#
# Elastic Constant Matrix: (Units=GPa)
#
#
# Indices 1 2 3 4 5 6 
#
# 1 96.5548 46.8725 39.8782 0.0000 0.0000 0.0000
# 2 46.8725 111.3500 32.7299 0.0000 0.0000 0.0000
# 3 39.8782 32.7299 79.4949 0.0000 0.0000 0.0000
# 4 0.0000 0.0000 0.0000 14.1571 0.0000 0.0000
# 5 0.0000 0.0000 0.0000 0.0000 16.7262 0.0000
# 6 0.0000 0.0000 0.0000 0.0000 0.0000 -13.0626
#
#
#
# Elastic Compliance Matrix: (Units=1/GPa)
#
#
# Indices 1 2 3 4 5 6 
#
# 1 0.014909 -0.004639 -0.005569 0.000000 0.000000 0.000000
# 2 -0.004639 0.011661 -0.002474 0.000000 0.000000 0.000000
# 3 -0.005569 -0.002474 0.016392 0.000000 0.000000 0.000000
# 4 0.000000 0.000000 0.000000 0.070636 0.000000 0.000000
# 5 0.000000 0.000000 0.000000 0.000000 0.059787 0.000000
# 6 0.000000 0.000000 0.000000 0.000000 0.000000 -0.076555
#
#
# Mechanical properties :
#
#
# Convention : Reuss Voigt Hill
#
# Bulk Modulus (GPa) = 56.82611 58.48453 57.65532
# Shear Modulus (GPa) = 39.04479 14.75876 26.90177
#
# Velocity S-wave (km/s) = 4.73713 2.91245 3.93209
# Velocity P-wave (km/s) = 7.91078 6.70245 7.33155
#
# Compressibility (1/GPa) = 0.01759754
#
# Stress axis : x y z
#
# Youngs Moduli (GPa) = 67.07442 85.75904 61.00682
#
# Poissons Ratio (x) = 0.39783 0.33975
# Poissons Ratio (y) = 0.31115 0.15092
# Poissons Ratio (z) = 0.37354 0.21216
#
# Static dielectric constant tensor:
#      x y z
#    x 1.630240 0.000000 0.000000 
#    y 0.000000 1.647930 0.000000 
#    z 0.000000 0.000000 1.627300 
# 
# From -- ./inp_files/14360.got.cif
#   From: 2010.05.17/outbox.cif.g08.bks.cpg/sg20_8_cif.got.tgz:14360.got - 2010.06.03 22:52:26.
