data_PCOD9316380
_publ_section_title
;
Structure prediction by ZEFSAII (Michael W. Deem and Ramdas Pophale) SiO2 
 PCOD9316380
Probable space group: C 2 2 21
;
_chemical_formula_sum "Si O2"
_cell_formula_units_Z 64
_cell_length_a 18.692001
_cell_length_b 7.754481
_cell_length_c 19.467056
_cell_angle_alpha 90.000000
_cell_angle_beta 90.000000
_cell_angle_gamma 90.000000
_cell_volume 2821.686823
_symmetry_space_group_name_H-M "C 2 2 21"
_symmetry_group_IT_number 20
_symmetry_cell_setting 'orthorhombic'
loop_
_space_group_symop_operation_xyz
x,y,z
-x,-y,1/2+z
x,-y,-z
-x,y,1/2-z
1/2+x,1/2+y,z
1/2-x,1/2-y,1/2+z
1/2+x,1/2-y,-z
1/2-x,1/2+y,1/2-z
loop_
_atom_site_type_symbol
_atom_site_label
_atom_site_fract_x
_atom_site_fract_y
_atom_site_fract_z
Si Si1 0.035331 0.355041 0.183835
Si Si2 0.005307 0.597384 0.073036
Si Si3 0.654099 0.732792 0.940883
Si Si4 0.638935 0.242184 0.451712
Si Si5 0.314043 0.850274 0.093936
Si Si6 0.225997 0.179769 0.667282
Si Si7 0.669065 0.996684 0.739013
Si Si8 0.140977 0.160091 0.094424
O O1 0.985760 0.476607 0.137414
O O2 0.099104 0.467949 0.216609
O O3 0.070181 0.226883 0.130041
O O4 0.000000 0.270158 0.250000
O O5 0.087719 0.651984 0.082801
O O6 0.944131 0.741210 0.068967
O O7 0.000193 0.500000 0.000000
O O8 0.734376 0.730554 0.912201
O O9 0.632437 0.537409 0.924031
O O10 0.657694 0.756411 0.023091
O O11 0.644066 0.252288 0.534027
O O12 0.684774 0.367404 0.402865
O O13 0.673913 0.052080 0.431661
O O14 0.330494 0.870468 0.174430
O O15 0.261562 0.033985 0.713666
O O16 0.174361 0.302759 0.711238
O O17 0.293732 0.298805 0.645076
#
# Coordination Sequence:
#
# PCOD9316380 Si02
#       8
#     8   8   8   8   8   8   8   8
#     4  11  24  40  56  89 129 171 199 255 333 391
#     4  12  24  38  61  97 130 156 212 276 322 367
#     4  11  20  36  63  97 115 154 215 271 308 367
#     4  10  18  36  66  84 111 163 216 246 297 384
#     4  10  17  34  63  85 111 157 207 247 298 377
#     4  10  19  37  56  87 110 157 204 252 298 373
#     4  10  22  33  59  83 119 149 199 253 304 369
#     4  10  19  37  62  86 113 159 210 254 307 385
#
# _framework density 22.681467000000001
#
# number of rings (size 3 to 8) (size 9 to 14) (size 15 to 20)
#    0.000    1.500    6.250    2.250    1.750    0.000 
#    0.000    3.125    0.000    0.000    0.000    0.000 
#    0.000    0.000    0.000    0.000    0.000    0.000 
#
# Total GULP energy -178567.144177 kJ/mol
# GULP energy per Si atom -5580.223256 kJ/mol
# Density = 2.262984 g / cm^3
# Si number density = 22.681467 Si / 1000 Ang^3
#
#
#
# Elastic Constant Matrix: (Units=GPa)
#
#
# Indices 1 2 3 4 5 6 
#
# 1 84.8155 6.2605 20.8997 0.0000 0.0000 0.0000
# 2 6.2605 15.7929 19.0486 0.0000 0.0000 0.0000
# 3 20.8997 19.0486 131.0489 0.0000 0.0000 0.0000
# 4 0.0000 0.0000 0.0000 19.6684 0.0000 0.0000
# 5 0.0000 0.0000 0.0000 0.0000 36.7112 0.0000
# 6 0.0000 0.0000 0.0000 0.0000 0.0000 21.0209
#
#
#
# Elastic Compliance Matrix: (Units=1/GPa)
#
#
# Indices 1 2 3 4 5 6 
#
# 1 0.012394 -0.003067 -0.001531 0.000000 0.000000 0.000000
# 2 -0.003067 0.077539 -0.010782 0.000000 0.000000 0.000000
# 3 -0.001531 -0.010782 0.009442 0.000000 0.000000 0.000000
# 4 0.000000 0.000000 0.000000 0.050843 0.000000 0.000000
# 5 0.000000 0.000000 0.000000 0.000000 0.027240 0.000000
# 6 0.000000 0.000000 0.000000 0.000000 0.000000 0.047572
#
#
# Mechanical properties :
#
#
# Convention : Reuss Voigt Hill
#
# Bulk Modulus (GPa) = 14.57365 36.00831 25.29098
# Shear Modulus (GPa) = 17.94299 27.84333 22.89316
#
# Velocity S-wave (km/s) = 2.81568 3.50749 3.18045
# Velocity P-wave (km/s) = 4.12432 5.68449 4.96606
#
# Compressibility (1/GPa) = 0.06861699
#
# Stress axis : x y z
#
# Youngs Moduli (GPa) = 80.68500 12.89667 105.90939
#
# Poissons Ratio (x) = 0.03955 0.16213
# Poissons Ratio (y) = 0.24744 1.14188
# Poissons Ratio (z) = 0.12351 0.13905
#
# Static dielectric constant tensor:
#      x y z
#    x 1.869280 0.000000 0.000000 
#    y 0.000000 1.869130 0.000000 
#    z 0.000000 0.000000 1.867310 
# 
# From -- ./inp_files/27784.got.cif
#   From: 2010.05.17/outbox.cif.g08.bks.cpg/sg20_14_cif.got.tgz:27784.got - 2010.06.03 22:52:26.
