data_PCOD9316555
_publ_section_title
;
Structure prediction by ZEFSAII (Michael W. Deem and Ramdas Pophale) SiO2 
 PCOD9316555
Probable space group: C 2 2 21
;
_chemical_formula_sum "Si O2"
_cell_formula_units_Z 40
_cell_length_a 19.956745
_cell_length_b 10.575907
_cell_length_c 7.692382
_cell_angle_alpha 90.000000
_cell_angle_beta 90.000000
_cell_angle_gamma 90.000000
_cell_volume 1623.559369
_symmetry_space_group_name_H-M "C 2 2 21"
_symmetry_group_IT_number 20
_symmetry_cell_setting 'orthorhombic'
loop_
_space_group_symop_operation_xyz
x,y,z
-x,-y,1/2+z
x,-y,-z
-x,y,1/2-z
1/2+x,1/2+y,z
1/2-x,1/2-y,1/2+z
1/2+x,1/2-y,-z
1/2-x,1/2+y,1/2-z
loop_
_atom_site_type_symbol
_atom_site_label
_atom_site_fract_x
_atom_site_fract_y
_atom_site_fract_z
Si Si1 0.904576 0.429950 0.758663
Si Si2 0.535666 0.696750 0.921500
Si Si3 0.738052 0.910120 0.861936
Si Si4 0.171743 0.813161 0.919739
Si Si5 0.582188 0.802611 0.387667
O O1 0.945542 0.343781 0.624736
O O2 0.833684 0.469761 0.681841
O O3 0.937385 0.558396 0.821357
O O4 0.889361 0.335838 0.920517
O O5 0.500000 0.642100 0.750000
O O6 0.607487 0.640439 0.970274
O O7 0.479760 0.710049 0.069730
O O8 0.777964 0.902913 0.682740
O O9 0.716151 0.779249 0.957307
O O10 0.774461 0.000000 0.000000
O O11 0.133922 0.749277 0.753076
#
# Coordination Sequence:
#
# PCOD9316555 Si02
#       5
#     8   8   8   8   8
#     4   9  19  33  52  85 124 169 197 255 325 385
#     4   9  20  33  53  88 128 163 205 259 320 387
#     4  11  22  41  58  85 131 169 219 260 312 385
#     4  11  22  36  59  86 122 174 213 259 321 378
#     4  10  18  32  55  87 123 158 205 256 320 380
#
# _framework density 24.637225999999998
#
# number of rings (size 3 to 8) (size 9 to 14) (size 15 to 20)
#    0.000    2.000    2.000    1.800    0.000    9.600 
#    0.000    0.000    0.000    0.000    0.000   25.200 
#    0.000    0.000    0.000    0.000    0.000    0.000 
#
# Total GULP energy -111675.264818 kJ/mol
# GULP energy per Si atom -5583.763241 kJ/mol
# Density = 2.458115 g / cm^3
# Si number density = 24.637226 Si / 1000 Ang^3
#
#
#
# Elastic Constant Matrix: (Units=GPa)
#
#
# Indices 1 2 3 4 5 6 
#
# 1 103.8781 7.9621 43.9937 0.0000 0.0000 0.0000
# 2 7.9621 29.2836 3.7570 0.0000 0.0000 0.0000
# 3 43.9937 3.7570 122.7608 0.0000 0.0000 0.0000
# 4 0.0000 0.0000 0.0000 32.7493 0.0000 0.0000
# 5 0.0000 0.0000 0.0000 0.0000 61.2378 0.0000
# 6 0.0000 0.0000 0.0000 0.0000 0.0000 -4.5630
#
#
#
# Elastic Compliance Matrix: (Units=1/GPa)
#
#
# Indices 1 2 3 4 5 6 
#
# 1 0.011546 -0.002619 -0.004058 0.000000 0.000000 0.000000
# 2 -0.002619 0.034877 -0.000129 0.000000 0.000000 0.000000
# 3 -0.004058 -0.000129 0.009604 0.000000 0.000000 0.000000
# 4 0.000000 0.000000 0.000000 0.030535 0.000000 0.000000
# 5 0.000000 0.000000 0.000000 0.000000 0.016330 0.000000
# 6 0.000000 0.000000 0.000000 0.000000 0.000000 -0.219156
#
#
# Mechanical properties :
#
#
# Convention : Reuss Voigt Hill
#
# Bulk Modulus (GPa) = 23.57554 40.81644 32.19599
# Shear Modulus (GPa) = -56.48758 31.23215 -12.62772
#
# Velocity S-wave (km/s) = -4.79349 3.56431 -2.26640
# Velocity P-wave (km/s) = 4.58768 5.79155 2.49952
#
# Compressibility (1/GPa) = 0.04241685
#
# Stress axis : x y z
#
# Youngs Moduli (GPa) = 86.61164 28.67189 104.12378
#
# Poissons Ratio (x) = 0.07508 0.42248
# Poissons Ratio (y) = 0.22681 0.01342
# Poissons Ratio (z) = 0.35143 0.00370
#
# Static dielectric constant tensor:
#      x y z
#    x 2.015690 0.000000 0.000000 
#    y 0.000000 1.966670 0.000000 
#    z 0.000000 0.000000 2.023420 
# 
# From -- ./inp_files/9121.got.cif
#   From: 2010.05.17/outbox.cif.g08.bks.cpg/sg20_5_cif.got.tgz:9121.got - 2010.06.03 22:52:26.
