data_PCOD9316469
_publ_section_title
;
Structure prediction by ZEFSAII (Michael W. Deem and Ramdas Pophale) SiO2 
 PCOD9316469
Probable space group: C 2 2 21
;
_chemical_formula_sum "Si O2"
_cell_formula_units_Z 40
_cell_length_a 7.965616
_cell_length_b 27.111728
_cell_length_c 8.426466
_cell_angle_alpha 90.000000
_cell_angle_beta 90.000000
_cell_angle_gamma 90.000000
_cell_volume 1819.793201
_symmetry_space_group_name_H-M "C 2 2 21"
_symmetry_group_IT_number 20
_symmetry_cell_setting 'orthorhombic'
loop_
_space_group_symop_operation_xyz
x,y,z
-x,-y,1/2+z
x,-y,-z
-x,y,1/2-z
1/2+x,1/2+y,z
1/2-x,1/2-y,1/2+z
1/2+x,1/2-y,-z
1/2-x,1/2+y,1/2-z
loop_
_atom_site_type_symbol
_atom_site_label
_atom_site_fract_x
_atom_site_fract_y
_atom_site_fract_z
Si Si1 0.109395 0.374868 0.029926
Si Si2 0.288842 0.000000 0.000000
Si Si3 0.764928 0.903248 0.348289
Si Si4 0.887236 0.805555 0.458233
Si Si5 0.743398 0.774799 0.139786
Si Si6 0.500000 0.935382 0.750000
O O1 0.239454 0.397016 0.159623
O O2 0.135046 0.316069 0.046544
O O3 0.921418 0.389008 0.086634
O O4 0.118389 0.399681 0.856900
O O5 0.401336 0.971080 0.870468
O O6 0.191999 0.042203 0.904490
O O7 0.886278 0.863656 0.430267
O O8 0.755230 0.787526 0.324260
O O9 0.821329 0.780284 0.616166
O O10 0.068053 0.783490 0.420635
#
# Coordination Sequence:
#
# PCOD9316469 Si02
#       6
#     8   4   8   8   8   4
#     4   9  18  32  52  77 107 137 174 216 262 314
#     4  10  18  30  52  76 104 138 178 222 262 302
#     4   9  18  33  52  75 105 141 177 217 263 308
#     4  10  21  36  55  78 107 140 175 216 265 317
#     4  10  21  36  55  79 108 140 173 215 265 318
#     4  10  18  30  52  82 106 134 176 222 260 308
#
# _framework density 21.980519000000001
#
# number of rings (size 3 to 8) (size 9 to 14) (size 15 to 20)
#    0.000    2.400    0.000    3.600    0.000    7.200 
#    0.000    0.000    0.000   14.400    0.000    0.000 
#    0.000    0.000    0.000    0.000    0.000    0.000 
#
# Total GULP energy -111600.862844 kJ/mol
# GULP energy per Si atom -5580.043142 kJ/mol
# Density = 2.193049 g / cm^3
# Si number density = 21.980519 Si / 1000 Ang^3
#
#
#
# Elastic Constant Matrix: (Units=GPa)
#
#
# Indices 1 2 3 4 5 6 
#
# 1 43.5795 31.5266 10.8915 0.0000 0.0000 0.0000
# 2 31.5266 110.4823 48.3360 0.0000 0.0000 0.0000
# 3 10.8915 48.3360 72.7526 0.0000 0.0000 0.0000
# 4 0.0000 0.0000 0.0000 40.3449 0.0000 0.0000
# 5 0.0000 0.0000 0.0000 0.0000 11.0364 0.0000
# 6 0.0000 0.0000 0.0000 0.0000 0.0000 15.2242
#
#
#
# Elastic Compliance Matrix: (Units=1/GPa)
#
#
# Indices 1 2 3 4 5 6 
#
# 1 0.029053 -0.009005 0.001633 0.000000 0.000000 0.000000
# 2 -0.009005 0.015551 -0.008984 0.000000 0.000000 0.000000
# 3 0.001633 -0.008984 0.019470 0.000000 0.000000 0.000000
# 4 0.000000 0.000000 0.000000 0.024786 0.000000 0.000000
# 5 0.000000 0.000000 0.000000 0.000000 0.090610 0.000000
# 6 0.000000 0.000000 0.000000 0.000000 0.000000 0.065685
#
#
# Mechanical properties :
#
#
# Convention : Reuss Voigt Hill
#
# Bulk Modulus (GPa) = 31.88517 45.36917 38.62717
# Shear Modulus (GPa) = 17.34185 22.39177 19.86681
#
# Velocity S-wave (km/s) = 2.81190 3.19519 3.00965
# Velocity P-wave (km/s) = 5.00799 5.85643 5.44875
#
# Compressibility (1/GPa) = 0.03136254
#
# Stress axis : x y z
#
# Youngs Moduli (GPa) = 34.42015 64.30316 51.36217
#
# Poissons Ratio (x) = 0.57905 -0.08390
# Poissons Ratio (y) = 0.30995 0.46144
# Poissons Ratio (z) = -0.05622 0.57770
#
# Static dielectric constant tensor:
#      x y z
#    x 1.804850 0.000000 0.000000 
#    y 0.000000 1.849070 0.000000 
#    z 0.000000 0.000000 1.875720 
# 
# From -- ./inp_files/6296.got.cif
#   From: 2010.05.17/outbox.cif.g08.bks.cpg/sg20_4_cif.got.tgz:6296.got - 2010.06.03 22:52:26.
