data_PCOD9316338
_publ_section_title
;
Structure prediction by ZEFSAII (Michael W. Deem and Ramdas Pophale) SiO2 
 PCOD9316338
Probable space group: C 2 2 21
;
_chemical_formula_sum "Si O2"
_cell_formula_units_Z 60
_cell_length_a 20.313949
_cell_length_b 14.749057
_cell_length_c 11.759555
_cell_angle_alpha 90.000000
_cell_angle_beta 90.000000
_cell_angle_gamma 90.000000
_cell_volume 3523.298991
_symmetry_space_group_name_H-M "C 2 2 21"
_symmetry_group_IT_number 20
_symmetry_cell_setting 'orthorhombic'
loop_
_space_group_symop_operation_xyz
x,y,z
-x,-y,1/2+z
x,-y,-z
-x,y,1/2-z
1/2+x,1/2+y,z
1/2-x,1/2-y,1/2+z
1/2+x,1/2-y,-z
1/2-x,1/2+y,1/2-z
loop_
_atom_site_type_symbol
_atom_site_label
_atom_site_fract_x
_atom_site_fract_y
_atom_site_fract_z
Si Si1 0.773964 0.479282 0.754393
Si Si2 0.180699 0.328956 0.311783
Si Si3 0.654557 0.566673 0.402243
Si Si4 0.212845 0.000000 0.000000
Si Si5 0.701718 0.252465 0.468457
Si Si6 0.923127 0.188143 0.271024
Si Si7 0.680689 0.779017 0.778062
Si Si8 0.848244 0.189369 0.501860
O O1 0.811690 0.574299 0.753496
O O2 0.711859 0.482743 0.669539
O O3 0.811218 0.387250 0.721202
O O4 0.750641 0.470735 0.885565
O O5 0.178392 0.329088 0.448956
O O6 0.117595 0.275586 0.269896
O O7 0.247486 0.269508 0.293908
O O8 0.627958 0.500000 0.500000
O O9 0.685732 0.653855 0.467209
O O10 0.604957 0.606503 0.307728
O O11 0.171077 0.912596 0.035465
O O12 0.663892 0.249480 0.349701
O O13 0.780620 0.236889 0.454027
O O14 0.901635 0.180916 0.402730
O O15 0.000000 0.196451 0.250000
O O16 0.637146 0.743588 0.882408
#
# Coordination Sequence:
#
# PCOD9316338 Si02
#       8
#     8   8   8   4   8   8   8   8
#     4  12  18  30  55  92 122 147 182 254 315 351
#     4  10  19  32  54  85 117 152 191 233 310 356
#     4  11  22  34  56  86 113 148 191 248 314 346
#     4  12  18  30  56  86 124 152 182 238 316 372
#     4  10  17  32  51  83 126 141 179 251 307 354
#     4  11  23  43  57  75 119 166 202 237 281 373
#     4  11  18  31  53  88 121 142 185 258 308 354
#     4  11  20  33  54  85 117 157 197 240 299 359
#
# _framework density 17.029494
#
# number of rings (size 3 to 8) (size 9 to 14) (size 15 to 20)
#    0.000    1.067   10.667    0.800    0.000    0.000 
#    1.200    0.000    0.000    2.400   17.333    0.000 
#    0.000    0.000    0.000    0.000    0.000    0.000 
#
# Total GULP energy -167143.433696 kJ/mol
# GULP energy per Si atom -5571.447790 kJ/mol
# Density = 1.699073 g / cm^3
# Si number density = 17.029494 Si / 1000 Ang^3
#
#
#
# Elastic Constant Matrix: (Units=GPa)
#
#
# Indices 1 2 3 4 5 6 
#
# 1 53.8060 29.2004 28.6711 0.0000 0.0000 0.0000
# 2 29.2004 110.8662 45.2635 0.0000 0.0000 0.0000
# 3 28.6711 45.2635 118.6549 0.0000 0.0000 0.0000
# 4 0.0000 0.0000 0.0000 37.5089 0.0000 0.0000
# 5 0.0000 0.0000 0.0000 0.0000 11.9463 0.0000
# 6 0.0000 0.0000 0.0000 0.0000 0.0000 10.0854
#
#
#
# Elastic Compliance Matrix: (Units=1/GPa)
#
#
# Indices 1 2 3 4 5 6 
#
# 1 0.023087 -0.004505 -0.003860 0.000000 0.000000 0.000000
# 2 -0.004505 0.011563 -0.003322 0.000000 0.000000 0.000000
# 3 -0.003860 -0.003322 0.010628 0.000000 0.000000 0.000000
# 4 0.000000 0.000000 0.000000 0.026660 0.000000 0.000000
# 5 0.000000 0.000000 0.000000 0.000000 0.083708 0.000000
# 6 0.000000 0.000000 0.000000 0.000000 0.000000 0.099153
#
#
# Mechanical properties :
#
#
# Convention : Reuss Voigt Hill
#
# Bulk Modulus (GPa) = 45.65564 54.39969 50.02766
# Shear Modulus (GPa) = 17.51472 23.92093 20.71783
#
# Velocity S-wave (km/s) = 3.21049 3.75197 3.49174
# Velocity P-wave (km/s) = 6.37267 7.12625 6.75997
#
# Compressibility (1/GPa) = 0.02190310
#
# Stress axis : x y z
#
# Youngs Moduli (GPa) = 43.31458 86.48426 94.09159
#
# Poissons Ratio (x) = 0.38959 0.36321
# Poissons Ratio (y) = 0.19512 0.31261
# Poissons Ratio (z) = 0.16720 0.28733
#
# Static dielectric constant tensor:
#      x y z
#    x 1.538170 0.000000 0.000000 
#    y 0.000000 1.612730 0.000000 
#    z 0.000000 0.000000 1.670820 
# 
# From -- ./inp_files/15889.got.cif
#   From: 2010.05.17/outbox.cif.g08.bks.cpg/sg20_8_cif.got.tgz:15889.got - 2010.06.03 22:52:26.
