data_PCOD9316213
_publ_section_title
;
Structure prediction by ZEFSAII (Michael W. Deem and Ramdas Pophale) SiO2 
 PCOD9316213
Probable space group: C 2 2 21
;
_chemical_formula_sum "Si O2"
_cell_formula_units_Z 52
_cell_length_a 8.784985
_cell_length_b 24.190409
_cell_length_c 10.352963
_cell_angle_alpha 90.000000
_cell_angle_beta 90.000000
_cell_angle_gamma 90.000000
_cell_volume 2200.132809
_symmetry_space_group_name_H-M "C 2 2 21"
_symmetry_group_IT_number 20
_symmetry_cell_setting 'orthorhombic'
loop_
_space_group_symop_operation_xyz
x,y,z
-x,-y,1/2+z
x,-y,-z
-x,y,1/2-z
1/2+x,1/2+y,z
1/2-x,1/2-y,1/2+z
1/2+x,1/2-y,-z
1/2-x,1/2+y,1/2-z
loop_
_atom_site_type_symbol
_atom_site_label
_atom_site_fract_x
_atom_site_fract_y
_atom_site_fract_z
Si Si1 0.189588 0.961669 0.351557
Si Si2 0.268067 0.587053 0.116253
Si Si3 0.500966 0.240647 0.608483
Si Si4 0.500000 0.703134 0.750000
Si Si5 0.323248 0.204462 0.366433
Si Si6 0.173576 0.052902 0.923036
Si Si7 0.062017 0.849805 0.970486
O O1 0.274525 0.932097 0.469726
O O2 0.232427 0.933613 0.218453
O O3 0.009329 0.957991 0.391740
O O4 0.221994 0.026490 0.322173
O O5 0.180063 0.639973 0.171353
O O6 0.434992 0.614239 0.101612
O O7 0.500000 0.214389 0.750000
O O8 0.440360 0.207319 0.487204
O O9 0.661684 0.271543 0.582903
O O10 0.396124 0.296036 0.609057
O O11 0.634177 0.747864 0.764511
O O12 0.492603 0.668017 0.617101
O O13 0.195167 0.107025 0.007868
O O14 0.229953 0.000000 0.000000
#
# Coordination Sequence:
#
# PCOD9316213 Si02
#       7
#     8   8   8   4   8   8   8
#     4   9  16  27  48  75 108 146 193 240 295 356
#     4   9  16  32  49  79 105 150 194 239 292 359
#     4  10  23  38  58  86 121 161 205 253 301 367
#     4  10  20  36  58  82 114 162 194 250 310 358
#     4  10  23  38  62  85 121 157 209 250 308 369
#     4  10  16  26  46  79 112 148 187 241 304 368
#     4   9  17  31  50  77 115 152 188 242 307 361
#
# _framework density 23.634937999999998
#
# number of rings (size 3 to 8) (size 9 to 14) (size 15 to 20)
#    0.000    2.462    3.077    1.846    6.462    2.462 
#    0.000    0.000    0.000    0.000    8.000    0.000 
#    0.000    0.000    0.000    0.000    0.000    0.000 
#
# Total GULP energy -144740.726325 kJ/mol
# GULP energy per Si atom -5566.951012 kJ/mol
# Density = 2.358114 g / cm^3
# Si number density = 23.634938 Si / 1000 Ang^3
#
#
#
# Elastic Constant Matrix: (Units=GPa)
#
#
# Indices 1 2 3 4 5 6 
#
# 1 27.7412 11.6382 7.7805 0.0000 0.0000 0.0000
# 2 11.6382 102.3384 -12.6209 0.0000 0.0000 0.0000
# 3 7.7805 -12.6209 64.3342 0.0000 0.0000 0.0000
# 4 0.0000 0.0000 0.0000 29.5841 0.0000 0.0000
# 5 0.0000 0.0000 0.0000 0.0000 18.6068 0.0000
# 6 0.0000 0.0000 0.0000 0.0000 0.0000 13.6292
#
#
#
# Elastic Compliance Matrix: (Units=1/GPa)
#
#
# Indices 1 2 3 4 5 6 
#
# 1 0.039897 -0.005259 -0.005857 0.000000 0.000000 0.000000
# 2 -0.005259 0.010707 0.002737 0.000000 0.000000 0.000000
# 3 -0.005857 0.002737 0.016789 0.000000 0.000000 0.000000
# 4 0.000000 0.000000 0.000000 0.033802 0.000000 0.000000
# 5 0.000000 0.000000 0.000000 0.000000 0.053744 0.000000
# 6 0.000000 0.000000 0.000000 0.000000 0.000000 0.073372
#
#
# Mechanical properties :
#
#
# Convention : Reuss Voigt Hill
#
# Bulk Modulus (GPa) = 19.74988 23.11217 21.43103
# Shear Modulus (GPa) = 19.08780 24.87176 21.97978
#
# Velocity S-wave (km/s) = 2.84493 3.24748 3.05285
# Velocity P-wave (km/s) = 4.37788 4.88483 4.63829
#
# Compressibility (1/GPa) = 0.05063323
#
# Stress axis : x y z
#
# Youngs Moduli (GPa) = 25.06482 93.39591 59.56283
#
# Poissons Ratio (x) = 0.49121 0.34885
# Poissons Ratio (y) = 0.13183 -0.16300
# Poissons Ratio (z) = 0.14680 -0.25558
#
# Static dielectric constant tensor:
#      x y z
#    x 2.134000 0.000000 0.000000 
#    y 0.000000 1.935840 0.000000 
#    z 0.000000 0.000000 1.984440 
# 
# From -- ./inp_files/13252.got.cif
#   From: 2010.05.17/outbox.cif.g08.bks.cpg/sg20_7_cif.got.tgz:13252.got - 2010.06.03 22:52:26.
