data_PCOD9316700
_publ_section_title
;
Structure prediction by ZEFSAII (Michael W. Deem and Ramdas Pophale) SiO2 
 PCOD9316700
Probable space group: C 2 2 21
;
_chemical_formula_sum "Si O2"
_cell_formula_units_Z 60
_cell_length_a 12.649614
_cell_length_b 13.176905
_cell_length_c 18.553885
_cell_angle_alpha 90.000000
_cell_angle_beta 90.000000
_cell_angle_gamma 90.000000
_cell_volume 3092.612797
_symmetry_space_group_name_H-M "C 2 2 21"
_symmetry_group_IT_number 20
_symmetry_cell_setting 'orthorhombic'
loop_
_space_group_symop_operation_xyz
x,y,z
-x,-y,1/2+z
x,-y,-z
-x,y,1/2-z
1/2+x,1/2+y,z
1/2-x,1/2-y,1/2+z
1/2+x,1/2-y,-z
1/2-x,1/2+y,1/2-z
loop_
_atom_site_type_symbol
_atom_site_label
_atom_site_fract_x
_atom_site_fract_y
_atom_site_fract_z
Si Si1 0.915886 0.452878 0.305015
Si Si2 0.844023 0.244213 0.768101
Si Si3 0.269759 0.365388 0.608519
Si Si4 0.000000 0.131759 0.250000
Si Si5 0.562552 0.121054 0.490020
Si Si6 0.541403 0.169364 0.146225
Si Si7 0.042343 0.265178 0.110521
Si Si8 0.697395 0.487012 0.227244
O O1 0.975152 0.551124 0.335570
O O2 0.895617 0.366951 0.363751
O O3 0.811706 0.492062 0.265228
O O4 0.000000 0.406122 0.250000
O O5 0.757762 0.296345 0.820116
O O6 0.855709 0.297505 0.690097
O O7 0.948768 0.266305 0.815807
O O8 0.833458 0.127567 0.747317
O O9 0.172275 0.366271 0.553502
O O10 0.373547 0.312921 0.575547
O O11 0.287552 0.476527 0.644069
O O12 0.997272 0.201269 0.320962
O O13 0.896614 0.060118 0.246364
O O14 0.471587 0.169927 0.438721
O O15 0.550816 0.186980 0.562296
O O16 0.546031 0.000000 0.500000
#
# Coordination Sequence:
#
# PCOD9316700 Si02
#       8
#     8   8   8   4   8   8   8   8
#     4  12  19  35  64  96 122 155 209 264 312 362
#     4  10  18  35  65  91 121 158 200 266 315 366
#     4  10  22  41  60  94 128 162 212 264 318 383
#     4  10  24  42  62  94 126 164 212 256 334 384
#     4  11  23  41  62  84 129 170 211 263 310 386
#     4  10  19  35  59  93 121 157 213 251 311 378
#     4  11  23  41  62  91 127 164 209 269 318 377
#     4  11  22  39  67  95 128 160 207 269 320 382
#
# _framework density 19.401071000000002
#
# number of rings (size 3 to 8) (size 9 to 14) (size 15 to 20)
#    0.000    1.333    6.000    1.600    0.000    0.000 
#    4.800    0.000    0.000    0.000    0.000    0.000 
#    0.000    0.000    0.000    0.000    0.000    0.000 
#
# Total GULP energy -167009.329202 kJ/mol
# GULP energy per Si atom -5566.977640 kJ/mol
# Density = 1.935691 g / cm^3
# Si number density = 19.401071 Si / 1000 Ang^3
#
#
#
# Elastic Constant Matrix: (Units=GPa)
#
#
# Indices 1 2 3 4 5 6 
#
# 1 78.5008 30.5236 29.2472 0.0000 0.0000 0.0000
# 2 30.5236 122.9440 38.9263 0.0000 0.0000 0.0000
# 3 29.2472 38.9263 69.0075 0.0000 0.0000 0.0000
# 4 0.0000 0.0000 0.0000 18.4368 0.0000 0.0000
# 5 0.0000 0.0000 0.0000 0.0000 31.8595 0.0000
# 6 0.0000 0.0000 0.0000 0.0000 0.0000 22.9509
#
#
#
# Elastic Compliance Matrix: (Units=1/GPa)
#
#
# Indices 1 2 3 4 5 6 
#
# 1 0.015587 -0.002165 -0.005385 0.000000 0.000000 0.000000
# 2 -0.002165 0.010203 -0.004838 0.000000 0.000000 0.000000
# 3 -0.005385 -0.004838 0.019502 0.000000 0.000000 0.000000
# 4 0.000000 0.000000 0.000000 0.054239 0.000000 0.000000
# 5 0.000000 0.000000 0.000000 0.000000 0.031388 0.000000
# 6 0.000000 0.000000 0.000000 0.000000 0.000000 0.043571
#
#
# Mechanical properties :
#
#
# Convention : Reuss Voigt Hill
#
# Bulk Modulus (GPa) = 48.74019 51.98295 50.36157
# Shear Modulus (GPa) = 24.25949 26.09979 25.17964
#
# Velocity S-wave (km/s) = 3.53996 3.67178 3.60647
# Velocity P-wave (km/s) = 6.47189 6.69537 6.58458
#
# Compressibility (1/GPa) = 0.02051695
#
# Stress axis : x y z
#
# Youngs Moduli (GPa) = 64.15709 98.01036 51.27555
#
# Poissons Ratio (x) = 0.21217 0.27612
# Poissons Ratio (y) = 0.13889 0.24807
# Poissons Ratio (z) = 0.34548 0.47416
#
# Static dielectric constant tensor:
#      x y z
#    x 1.732180 0.000000 0.000000 
#    y 0.000000 1.692430 0.000000 
#    z 0.000000 0.000000 1.746530 
# 
# From -- ./inp_files/24955.got.cif
#   From: 2010.05.17/outbox.cif.g08.bks.cpg/sg20_13_cif.got.tgz:24955.got - 2010.06.03 22:52:26.
