data_PCOD9316701
_publ_section_title
;
Structure prediction by ZEFSAII (Michael W. Deem and Ramdas Pophale) SiO2 
 PCOD9316701
Probable space group: C 2 2 21
;
_chemical_formula_sum "Si O2"
_cell_formula_units_Z 48
_cell_length_a 11.968816
_cell_length_b 9.828638
_cell_length_c 15.872621
_cell_angle_alpha 90.000000
_cell_angle_beta 90.000000
_cell_angle_gamma 90.000000
_cell_volume 1867.210052
_symmetry_space_group_name_H-M "C 2 2 21"
_symmetry_group_IT_number 20
_symmetry_cell_setting 'orthorhombic'
loop_
_space_group_symop_operation_xyz
x,y,z
-x,-y,1/2+z
x,-y,-z
-x,y,1/2-z
1/2+x,1/2+y,z
1/2-x,1/2-y,1/2+z
1/2+x,1/2-y,-z
1/2-x,1/2+y,1/2-z
loop_
_atom_site_type_symbol
_atom_site_label
_atom_site_fract_x
_atom_site_fract_y
_atom_site_fract_z
Si Si1 0.101438 0.080402 0.834087
Si Si2 0.623194 0.665597 0.638191
Si Si3 0.770395 0.888078 0.889126
Si Si4 0.171327 0.800864 0.802761
Si Si5 0.050890 0.516121 0.835171
Si Si6 0.669817 0.889967 0.429321
O O1 0.110273 0.126211 0.737506
O O2 0.086794 0.916243 0.836947
O O3 0.007549 0.163953 0.884750
O O4 0.225190 0.098219 0.867871
O O5 0.676570 0.534395 0.595365
O O6 0.712690 0.787463 0.644067
O O7 0.802081 0.844802 0.792813
O O8 0.637843 0.920098 0.884069
O O9 0.819580 0.770858 0.949257
O O10 0.117997 0.651333 0.806039
O O11 0.948394 0.570255 0.889799
O O12 0.000000 0.449953 0.750000
O O13 0.690538 0.000000 0.500000
#
# Coordination Sequence:
#
# PCOD9316701 Si02
#       6
#     8   8   8   8   8   8
#     4  10  20  34  56  90 121 162 201 252 322 377
#     4   9  18  34  62  89 117 151 204 273 318 354
#     4  10  20  38  61  92 123 158 211 266 320 382
#     4  10  18  35  65  96 123 147 212 278 314 371
#     4  11  21  39  70  96 124 168 220 272 330 375
#     4  12  25  43  58  91 137 173 215 263 332 401
#
# _framework density 25.706800000000001
#
# number of rings (size 3 to 8) (size 9 to 14) (size 15 to 20)
#    0.000    1.667    3.333    3.000    2.333    2.667 
#    6.000    0.000    0.000    0.000    0.000    0.000 
#    0.000    0.000    0.000    0.000    0.000    0.000 
#
# Total GULP energy -134252.372689 kJ/mol
# GULP energy per Si atom -5593.848862 kJ/mol
# Density = 2.564829 g / cm^3
# Si number density = 25.706800 Si / 1000 Ang^3
#
#
#
# Elastic Constant Matrix: (Units=GPa)
#
#
# Indices 1 2 3 4 5 6 
#
# 1 164.9204 38.9267 15.6054 0.0000 0.0000 0.0000
# 2 38.9267 110.3140 26.4928 0.0000 0.0000 0.0000
# 3 15.6054 26.4928 40.6975 0.0000 0.0000 0.0000
# 4 0.0000 0.0000 0.0000 37.8972 0.0000 0.0000
# 5 0.0000 0.0000 0.0000 0.0000 1.6524 0.0000
# 6 0.0000 0.0000 0.0000 0.0000 0.0000 49.4769
#
#
#
# Elastic Compliance Matrix: (Units=1/GPa)
#
#
# Indices 1 2 3 4 5 6 
#
# 1 0.006665 -0.002060 -0.001214 0.000000 0.000000 0.000000
# 2 -0.002060 0.011382 -0.006619 0.000000 0.000000 0.000000
# 3 -0.001214 -0.006619 0.029346 0.000000 0.000000 0.000000
# 4 0.000000 0.000000 0.000000 0.026387 0.000000 0.000000
# 5 0.000000 0.000000 0.000000 0.000000 0.605170 0.000000
# 6 0.000000 0.000000 0.000000 0.000000 0.000000 0.020211
#
#
# Mechanical properties :
#
#
# Convention : Reuss Voigt Hill
#
# Bulk Modulus (GPa) = 36.22541 53.10907 44.66724
# Shear Modulus (GPa) = 6.86672 33.46576 20.16624
#
# Velocity S-wave (km/s) = 1.63614 3.61200 2.80388
# Velocity P-wave (km/s) = 4.20614 6.17250 5.28164
#
# Compressibility (1/GPa) = 0.02760493
#
# Stress axis : x y z
#
# Youngs Moduli (GPa) = 150.04403 87.86081 34.07606
#
# Poissons Ratio (x) = 0.18100 0.04139
# Poissons Ratio (y) = 0.30911 0.22555
# Poissons Ratio (z) = 0.18223 0.58156
#
# Static dielectric constant tensor:
#      x y z
#    x 2.142980 0.000000 0.000000 
#    y 0.000000 2.187470 0.000000 
#    z 0.000000 0.000000 2.019990 
# 
# From -- ./inp_files/24213.got.cif
#   From: 2010.05.17/outbox.cif.g08.bks.cpg/sg20_13_cif.got.tgz:24213.got - 2010.06.03 22:52:26.
