data_PCOD9316416
_publ_section_title
;
Structure prediction by ZEFSAII (Michael W. Deem and Ramdas Pophale) SiO2 
 PCOD9316416
Probable space group: C 2 2 21
;
_chemical_formula_sum "Si O2"
_cell_formula_units_Z 60
_cell_length_a 26.882714
_cell_length_b 16.038368
_cell_length_c 5.734523
_cell_angle_alpha 90.000000
_cell_angle_beta 90.000000
_cell_angle_gamma 90.000000
_cell_volume 2472.467461
_symmetry_space_group_name_H-M "C 2 2 21"
_symmetry_group_IT_number 20
_symmetry_cell_setting 'orthorhombic'
loop_
_space_group_symop_operation_xyz
x,y,z
-x,-y,1/2+z
x,-y,-z
-x,y,1/2-z
1/2+x,1/2+y,z
1/2-x,1/2-y,1/2+z
1/2+x,1/2-y,-z
1/2-x,1/2+y,1/2-z
loop_
_atom_site_type_symbol
_atom_site_label
_atom_site_fract_x
_atom_site_fract_y
_atom_site_fract_z
Si Si1 0.707983 0.152300 0.035845
Si Si2 0.313775 0.484091 0.748349
Si Si3 0.235869 0.321630 0.458053
Si Si4 0.352663 0.300263 0.810637
Si Si5 0.902894 0.666942 0.505126
Si Si6 0.074230 0.956791 0.246642
Si Si7 0.942850 0.780057 0.138366
Si Si8 0.500000 0.810631 0.250000
O O1 0.718831 0.254498 0.036395
O O2 0.727866 0.132271 0.295236
O O3 0.734792 0.130682 0.789664
O O4 0.650577 0.121790 0.017752
O O5 0.288588 0.500000 0.500000
O O6 0.330978 0.388375 0.745905
O O7 0.365006 0.538223 0.746979
O O8 0.289664 0.500000 0.000000
O O9 0.187481 0.261536 0.427361
O O10 0.382011 0.253490 0.607863
O O11 0.396000 0.311327 0.992865
O O12 0.925961 0.694415 0.262087
O O13 0.949450 0.640816 0.670011
O O14 0.051060 0.864958 0.220885
O O15 0.060415 0.000000 0.500000
O O16 0.060346 0.000000 0.000000
O O17 0.985722 0.749056 0.965404
#
# Coordination Sequence:
#
# PCOD9316416 Si02
#       8
#     8   8   8   8   8   8   8   4
#     4   9  17  29  46  65  87 103 124 158 206 260
#     4  10  18  27  40  64  77 100 135 165 200 249
#     4   9  17  28  44  70  86 101 126 156 205 265
#     4  10  18  28  46  64  81 105 131 167 216 251
#     4  10  19  32  47  58  81 106 133 169 218 254
#     4  10  19  30  47  60  71  95 131 169 210 257
#     4  11  19  33  48  59  76 104 137 180 215 257
#     4  10  24  32  46  64  74 104 146 178 214 262
#
# _framework density 24.267256
#
# number of rings (size 3 to 8) (size 9 to 14) (size 15 to 20)
#    0.000    2.133    4.000    2.000    1.867    0.000 
#    0.000    0.000    2.933    0.000    0.000    0.000 
#    0.000    0.000    0.000    0.000    0.000    0.000 
#
# Total GULP energy -167183.028184 kJ/mol
# GULP energy per Si atom -5572.767606 kJ/mol
# Density = 2.421202 g / cm^3
# Si number density = 24.267256 Si / 1000 Ang^3
#
#
#
# Elastic Constant Matrix: (Units=GPa)
#
#
# Indices 1 2 3 4 5 6 
#
# 1 134.4129 -3.2083 24.9615 0.0000 0.0000 0.0000
# 2 -3.2083 5.9422 10.1008 0.0000 0.0000 0.0000
# 3 24.9615 10.1008 190.4607 0.0000 0.0000 0.0000
# 4 0.0000 0.0000 0.0000 19.6430 0.0000 0.0000
# 5 0.0000 0.0000 0.0000 0.0000 21.9113 0.0000
# 6 0.0000 0.0000 0.0000 0.0000 0.0000 12.2985
#
#
#
# Elastic Compliance Matrix: (Units=1/GPa)
#
#
# Indices 1 2 3 4 5 6 
#
# 1 0.007853 0.006583 -0.001378 0.000000 0.000000 0.000000
# 2 0.006583 0.190479 -0.010964 0.000000 0.000000 0.000000
# 3 -0.001378 -0.010964 0.006013 0.000000 0.000000 0.000000
# 4 0.000000 0.000000 0.000000 0.050909 0.000000 0.000000
# 5 0.000000 0.000000 0.000000 0.000000 0.045638 0.000000
# 6 0.000000 0.000000 0.000000 0.000000 0.000000 0.081311
#
#
# Mechanical properties :
#
#
# Convention : Reuss Voigt Hill
#
# Bulk Modulus (GPa) = 5.18608 43.83598 24.51103
# Shear Modulus (GPa) = 10.91710 30.70134 20.80922
#
# Velocity S-wave (km/s) = 2.12331 3.56073 2.93149
# Velocity P-wave (km/s) = 2.85534 5.91677 4.64549
#
# Compressibility (1/GPa) = 0.19282393
#
# Stress axis : x y z
#
# Youngs Moduli (GPa) = 127.34251 5.24993 166.31903
#
# Poissons Ratio (x) = -0.03456 0.22923
# Poissons Ratio (y) = -0.83825 1.82359
# Poissons Ratio (z) = 0.17551 0.05756
#
# Static dielectric constant tensor:
#      x y z
#    x 2.057970 0.000000 0.000000 
#    y 0.000000 1.900140 0.000000 
#    z 0.000000 0.000000 2.074090 
# 
# From -- ./inp_files/4831.got.cif
#   From: 2010.05.17/outbox.cif.g08.bks.cpg/sg20_3_cif.got.tgz:4831.got - 2010.06.03 22:52:26.
