data_PCOD9316237
_publ_section_title
;
Structure prediction by ZEFSAII (Michael W. Deem and Ramdas Pophale) SiO2 
 PCOD9316237
Probable space group: C 2 2 21
;
_chemical_formula_sum "Si O2"
_cell_formula_units_Z 40
_cell_length_a 32.803240
_cell_length_b 11.641621
_cell_length_c 5.250629
_cell_angle_alpha 90.000000
_cell_angle_beta 90.000000
_cell_angle_gamma 90.000000
_cell_volume 2005.125365
_symmetry_space_group_name_H-M "C 2 2 21"
_symmetry_group_IT_number 20
_symmetry_cell_setting 'orthorhombic'
loop_
_space_group_symop_operation_xyz
x,y,z
-x,-y,1/2+z
x,-y,-z
-x,y,1/2-z
1/2+x,1/2+y,z
1/2-x,1/2-y,1/2+z
1/2+x,1/2-y,-z
1/2-x,1/2+y,1/2-z
loop_
_atom_site_type_symbol
_atom_site_label
_atom_site_fract_x
_atom_site_fract_y
_atom_site_fract_z
Si Si1 0.474482 0.861294 0.497207
Si Si2 0.164295 0.114807 0.364512
Si Si3 0.617803 0.189266 0.878149
Si Si4 0.662259 0.851300 0.620599
Si Si5 0.249938 0.828847 0.815997
O O1 0.500000 0.828378 0.250000
O O2 0.570665 0.813362 0.048421
O O3 0.470420 0.000000 0.500000
O O4 0.500000 0.828530 0.750000
O O5 0.133895 0.180524 0.171595
O O6 0.169153 0.214094 0.577270
O O7 0.208742 0.100298 0.237276
O O8 0.149970 0.000000 0.500000
O O9 0.633161 0.123183 0.621740
O O10 0.640618 0.133194 0.114262
O O11 0.708203 0.896138 0.635092
O O12 0.256879 0.752691 0.560696
#
# Coordination Sequence:
#
# PCOD9316237 Si02
#       5
#     8   8   8   8   8
#     4  10  21  38  62  88 111 139 183 233 293 374
#     4   9  20  32  54  81 110 151 201 236 276 340
#     4  10  19  34  56  81 110 144 184 232 297 339
#     4   9  18  32  53  75 111 151 185 235 279 331
#     4  10  16  32  49  72 107 151 194 231 272 310
#
# _framework density 19.948877
#
# number of rings (size 3 to 8) (size 9 to 14) (size 15 to 20)
#    1.200    1.200    2.000    1.200    0.000    0.800 
#    0.000    1.000    0.000    4.800    5.200    0.000 
#    0.000    0.000    0.000    0.000    0.000    0.000 
#
# Total GULP energy -111412.559482 kJ/mol
# GULP energy per Si atom -5570.627974 kJ/mol
# Density = 1.990347 g / cm^3
# Si number density = 19.948877 Si / 1000 Ang^3
#
#
#
# Elastic Constant Matrix: (Units=GPa)
#
#
# Indices 1 2 3 4 5 6 
#
# 1 187.4125 37.7461 66.2647 0.0000 0.0000 0.0000
# 2 37.7461 52.3705 42.4906 0.0000 0.0000 0.0000
# 3 66.2647 42.4906 161.4729 0.0000 0.0000 0.0000
# 4 0.0000 0.0000 0.0000 14.0757 0.0000 0.0000
# 5 0.0000 0.0000 0.0000 0.0000 24.0493 0.0000
# 6 0.0000 0.0000 0.0000 0.0000 0.0000 -1.5326
#
#
#
# Elastic Compliance Matrix: (Units=1/GPa)
#
#
# Indices 1 2 3 4 5 6 
#
# 1 0.006658 -0.003283 -0.001868 0.000000 0.000000 0.000000
# 2 -0.003283 0.025897 -0.005467 0.000000 0.000000 0.000000
# 3 -0.001868 -0.005467 0.008398 0.000000 0.000000 0.000000
# 4 0.000000 0.000000 0.000000 0.071044 0.000000 0.000000
# 5 0.000000 0.000000 0.000000 0.000000 0.041581 0.000000
# 6 0.000000 0.000000 0.000000 0.000000 0.000000 -0.652483
#
#
# Mechanical properties :
#
#
# Convention : Reuss Voigt Hill
#
# Bulk Modulus (GPa) = 50.72040 77.13986 63.93013
# Shear Modulus (GPa) = -10.61355 24.30212 6.84428
#
# Velocity S-wave (km/s) = -2.30910 3.49409 1.85428
# Velocity P-wave (km/s) = 4.28616 7.41828 6.05814
#
# Compressibility (1/GPa) = 0.01971593
#
# Stress axis : x y z
#
# Youngs Moduli (GPa) = 150.20545 38.61503 119.06992
#
# Poissons Ratio (x) = 0.12676 0.22246
# Poissons Ratio (y) = 0.49306 0.65101
# Poissons Ratio (z) = 0.28063 0.21113
#
# Static dielectric constant tensor:
#      x y z
#    x 1.749670 0.000000 0.000000 
#    y 0.000000 1.734590 0.000000 
#    z 0.000000 0.000000 1.714690 
# 
# From -- ./inp_files/4176.got.cif
#   From: 2010.05.17/outbox.cif.g08.bks.cpg/sg20_3_cif.got.tgz:4176.got - 2010.06.03 22:52:26.
