data_PCOD9316107
_publ_section_title
;
Structure prediction by ZEFSAII (Michael W. Deem and Ramdas Pophale) SiO2 
 PCOD9316107
Probable space group: P 21 21 21
;
_chemical_formula_sum "Si O2"
_cell_formula_units_Z 8
_cell_length_a 12.379791
_cell_length_b 4.868076
_cell_length_c 5.144062
_cell_angle_alpha 90.000000
_cell_angle_beta 90.000000
_cell_angle_gamma 90.000000
_cell_volume 310.010824
_symmetry_space_group_name_H-M "P 21 21 21"
_symmetry_group_IT_number 19
_symmetry_cell_setting 'orthorhombic'
loop_
_space_group_symop_operation_xyz
x,y,z
1/2-x,-y,1/2+z
1/2+x,1/2-y,-z
-x,1/2+y,1/2-z
loop_
_atom_site_type_symbol
_atom_site_label
_atom_site_fract_x
_atom_site_fract_y
_atom_site_fract_z
Si Si1 0.766002 0.189775 0.643439
Si Si2 0.929116 0.449833 0.309716
O O1 0.880051 0.329524 0.575642
O O2 0.674212 0.421799 0.664942
O O3 0.739668 0.993713 0.399581
O O4 0.012338 0.699431 0.333698
#
# Coordination Sequence:
#
# PCOD9316107 Si02
#       2
#     4   4
#     4  12  28  60  82 122 170 212 278 342 398 500
#     4  12  28  56  84 124 164 222 268 342 414 480
#
# _framework density 25.805554999999998
#
# number of rings (size 3 to 8) (size 9 to 14) (size 15 to 20)
#    0.000    0.000    5.000    3.000    0.000    0.000 
#   27.000    0.000    0.000    0.000    0.000    0.000 
#    0.000    0.000    0.000    0.000    0.000    0.000 
#
# Total GULP energy -44933.447616 kJ/mol
# GULP energy per Si atom -5616.680952 kJ/mol
# Density = 2.574682 g / cm^3
# Si number density = 25.805555 Si / 1000 Ang^3
#
#
#
# Elastic Constant Matrix: (Units=GPa)
#
#
# Indices 1 2 3 4 5 6 
#
# 1 90.7725 38.5742 18.2164 0.0000 0.0000 0.0000
# 2 38.5742 179.2625 56.0851 0.0000 0.0000 0.0000
# 3 18.2164 56.0851 138.2733 0.0000 0.0000 0.0000
# 4 0.0000 0.0000 0.0000 46.3714 0.0000 0.0000
# 5 0.0000 0.0000 0.0000 0.0000 29.9390 0.0000
# 6 0.0000 0.0000 0.0000 0.0000 0.0000 99.9363
#
#
#
# Elastic Compliance Matrix: (Units=1/GPa)
#
#
# Indices 1 2 3 4 5 6 
#
# 1 0.012172 -0.002425 -0.000620 0.000000 0.000000 0.000000
# 2 -0.002425 0.006872 -0.002468 0.000000 0.000000 0.000000
# 3 -0.000620 -0.002468 0.008315 0.000000 0.000000 0.000000
# 4 0.000000 0.000000 0.000000 0.021565 0.000000 0.000000
# 5 0.000000 0.000000 0.000000 0.000000 0.033401 0.000000
# 6 0.000000 0.000000 0.000000 0.000000 0.000000 0.010006
#
#
# Mechanical properties :
#
#
# Convention : Reuss Voigt Hill
#
# Bulk Modulus (GPa) = 61.22699 70.45105 65.83902
# Shear Modulus (GPa) = 45.95521 54.94487 50.45004
#
# Velocity S-wave (km/s) = 4.22456 4.61932 4.42634
# Velocity P-wave (km/s) = 6.89737 7.47066 7.18973
#
# Compressibility (1/GPa) = 0.01633267
#
# Stress axis : x y z
#
# Youngs Moduli (GPa) = 82.15890 145.50892 120.26796
#
# Poissons Ratio (x) = 0.35289 0.07454
# Poissons Ratio (y) = 0.19925 0.29682
# Poissons Ratio (z) = 0.05092 0.35912
#
# Static dielectric constant tensor:
#      x y z
#    x 2.039380 0.000000 0.000000 
#    y 0.000000 2.005740 0.000000 
#    z 0.000000 0.000000 2.023740 
# 
# From -- ./inp_files/89.got.cif
#   From: 2010.05.17/outbox.cif.g08.bks.cpg/sg19_1_cif.got.tgz:89.got - 2010.06.03 22:46:19.
