data_PCOD9316579
_publ_section_title
;
Structure prediction by ZEFSAII (Michael W. Deem and Ramdas Pophale) SiO2 
 PCOD9316579
Probable space group: C 2 2 21
;
_chemical_formula_sum "Si O2"
_cell_formula_units_Z 64
_cell_length_a 20.074288
_cell_length_b 10.056373
_cell_length_c 18.000784
_cell_angle_alpha 90.000000
_cell_angle_beta 90.000000
_cell_angle_gamma 90.000000
_cell_volume 3633.899771
_symmetry_space_group_name_H-M "C 2 2 21"
_symmetry_group_IT_number 20
_symmetry_cell_setting 'orthorhombic'
loop_
_space_group_symop_operation_xyz
x,y,z
-x,-y,1/2+z
x,-y,-z
-x,y,1/2-z
1/2+x,1/2+y,z
1/2-x,1/2-y,1/2+z
1/2+x,1/2-y,-z
1/2-x,1/2+y,1/2-z
loop_
_atom_site_type_symbol
_atom_site_label
_atom_site_fract_x
_atom_site_fract_y
_atom_site_fract_z
Si Si1 0.948190 0.825341 0.309377
Si Si2 0.185404 0.694448 0.133866
Si Si3 0.829349 0.275681 0.177672
Si Si4 0.748075 0.844103 0.015277
Si Si5 0.865437 0.969173 0.191974
Si Si6 0.452723 0.622342 0.942766
Si Si7 0.125934 0.654673 0.523169
Si Si8 0.781598 0.602671 0.679493
O O1 0.883768 0.743880 0.334239
O O2 0.917165 0.942824 0.258309
O O3 0.000000 0.759615 0.250000
O O4 0.986323 0.863029 0.384907
O O5 0.251464 0.778673 0.153789
O O6 0.198733 0.549261 0.166791
O O7 0.190364 0.683167 0.044781
O O8 0.872100 0.342750 0.112868
O O9 0.829590 0.334736 0.259765
O O10 0.851557 0.123389 0.180702
O O11 0.721328 0.831288 0.098519
O O12 0.808464 0.741404 0.000699
O O13 0.769183 0.000000 0.000000
O O14 0.893128 0.912015 0.114617
O O15 0.795054 0.898653 0.206770
O O16 0.460791 0.500000 0.000000
O O17 0.433467 0.757315 0.986936
O O18 0.127295 0.500000 0.500000
#
# Coordination Sequence:
#
# PCOD9316579 Si02
#       8
#     8   8   8   8   8   8   8   8
#     4  10  22  38  60  85 116 161 210 254 279 368
#     4   9  19  36  55  88 123 150 204 244 311 356
#     4  10  20  33  58  90 125 149 186 267 309 362
#     4   9  18  36  60  86 119 163 196 246 306 380
#     4  10  19  36  60  87 116 147 215 243 294 362
#     4  11  21  41  66  77 111 170 210 240 291 364
#     4  11  22  35  58  94 123 150 203 256 306 359
#     4  10  18  32  62  87 119 164 182 250 319 368
#
# _framework density 17.611933000000001
#
# number of rings (size 3 to 8) (size 9 to 14) (size 15 to 20)
#    0.000    2.000    3.750    1.125    0.000    4.000 
#    2.250    2.500    0.000    0.750    0.000    0.000 
#    0.000    0.000    0.000    0.000    0.000    0.000 
#
# Total GULP energy -178189.105644 kJ/mol
# GULP energy per Si atom -5568.409551 kJ/mol
# Density = 1.757185 g / cm^3
# Si number density = 17.611933 Si / 1000 Ang^3
#
#
#
# Elastic Constant Matrix: (Units=GPa)
#
#
# Indices 1 2 3 4 5 6 
#
# 1 79.7048 26.6683 40.1692 0.0000 0.0000 0.0000
# 2 26.6683 59.3223 47.2117 0.0000 0.0000 0.0000
# 3 40.1692 47.2117 133.0823 0.0000 0.0000 0.0000
# 4 0.0000 0.0000 0.0000 22.9041 0.0000 0.0000
# 5 0.0000 0.0000 0.0000 0.0000 33.6094 0.0000
# 6 0.0000 0.0000 0.0000 0.0000 0.0000 16.0116
#
#
#
# Elastic Compliance Matrix: (Units=1/GPa)
#
#
# Indices 1 2 3 4 5 6 
#
# 1 0.015635 -0.004561 -0.003101 0.000000 0.000000 0.000000
# 2 -0.004561 0.024819 -0.007428 0.000000 0.000000 0.000000
# 3 -0.003101 -0.007428 0.011085 0.000000 0.000000 0.000000
# 4 0.000000 0.000000 0.000000 0.043660 0.000000 0.000000
# 5 0.000000 0.000000 0.000000 0.000000 0.029754 0.000000
# 6 0.000000 0.000000 0.000000 0.000000 0.000000 0.062455
#
#
# Mechanical properties :
#
#
# Convention : Reuss Voigt Hill
#
# Bulk Modulus (GPa) = 46.81770 55.57866 51.19818
# Shear Modulus (GPa) = 22.25109 25.04238 23.64673
#
# Velocity S-wave (km/s) = 3.55830 3.77490 3.66820
# Velocity P-wave (km/s) = 6.59717 7.11517 6.86106
#
# Compressibility (1/GPa) = 0.02135944
#
# Stress axis : x y z
#
# Youngs Moduli (GPa) = 63.95806 40.29187 90.20843
#
# Poissons Ratio (x) = 0.18375 0.27977
# Poissons Ratio (y) = 0.29168 0.67008
# Poissons Ratio (z) = 0.19836 0.29929
#
# Static dielectric constant tensor:
#      x y z
#    x 1.620440 0.000000 0.000000 
#    y 0.000000 1.582860 0.000000 
#    z 0.000000 0.000000 1.634370 
# 
# From -- ./inp_files/25500.got.cif
#   From: 2010.05.17/outbox.cif.g08.bks.cpg/sg20_13_cif.got.tgz:25500.got - 2010.06.03 22:52:26.
