data_PCOD9316253
_publ_section_title
;
Structure prediction by ZEFSAII (Michael W. Deem and Ramdas Pophale) SiO2 
 PCOD9316253
Probable space group: C 2 2 21
;
_chemical_formula_sum "Si O2"
_cell_formula_units_Z 64
_cell_length_a 8.320608
_cell_length_b 13.813322
_cell_length_c 23.931461
_cell_angle_alpha 90.000000
_cell_angle_beta 90.000000
_cell_angle_gamma 90.000000
_cell_volume 2750.568155
_symmetry_space_group_name_H-M "C 2 2 21"
_symmetry_group_IT_number 20
_symmetry_cell_setting 'orthorhombic'
loop_
_space_group_symop_operation_xyz
x,y,z
-x,-y,1/2+z
x,-y,-z
-x,y,1/2-z
1/2+x,1/2+y,z
1/2-x,1/2-y,1/2+z
1/2+x,1/2-y,-z
1/2-x,1/2+y,1/2-z
loop_
_atom_site_type_symbol
_atom_site_label
_atom_site_fract_x
_atom_site_fract_y
_atom_site_fract_z
Si Si1 0.820345 0.906049 0.463316
Si Si2 0.528916 0.526429 0.393851
Si Si3 0.700412 0.043154 0.822679
Si Si4 0.647887 0.293384 0.933704
Si Si5 0.148411 0.258706 0.672918
Si Si6 0.158805 0.018305 0.785423
Si Si7 0.288961 0.749486 0.703919
Si Si8 0.568575 0.156636 0.625183
O O1 0.801041 0.813389 0.503249
O O2 0.709167 0.887764 0.410589
O O3 0.770490 0.000000 0.500000
O O4 0.990945 0.936593 0.435608
O O5 0.704047 0.523013 0.366488
O O6 0.486107 0.622937 0.426623
O O7 0.393010 0.523610 0.344769
O O8 0.809188 0.142914 0.826610
O O9 0.706470 0.996982 0.761181
O O10 0.523256 0.077317 0.838061
O O11 0.781002 0.300304 0.884588
O O12 0.561175 0.194351 0.919118
O O13 0.230857 0.287407 0.732588
O O14 0.959779 0.283393 0.679009
O O15 0.179547 0.133537 0.792601
O O16 0.000000 0.998154 0.750000
O O17 0.132964 0.745320 0.664165
#
# Coordination Sequence:
#
# PCOD9316253 Si02
#       8
#     8   8   8   8   8   8   8   8
#     4  10  22  42  62  75 111 164 205 239 294 357
#     4  10  18  40  60  78 114 160 200 239 297 368
#     4   9  18  32  57  88 114 147 196 243 299 364
#     4  10  24  37  57  89 118 155 202 253 300 359
#     4   9  17  35  57  85 117 157 201 236 299 364
#     4   9  14  30  59  84 106 152 196 233 287 361
#     4  10  16  33  61  83 113 160 194 239 303 364
#     4  11  22  37  59  94 117 148 204 259 307 351
#
# _framework density 23.267918999999999
#
# number of rings (size 3 to 8) (size 9 to 14) (size 15 to 20)
#    0.000    2.250    5.000    0.000    0.000    7.500 
#    6.750    5.625    5.500    0.000    0.000    0.000 
#    0.000    0.000    0.000    0.000    0.000    0.000 
#
# Total GULP energy -178302.102137 kJ/mol
# GULP energy per Si atom -5571.940692 kJ/mol
# Density = 2.321496 g / cm^3
# Si number density = 23.267919 Si / 1000 Ang^3
#
#
#
# Elastic Constant Matrix: (Units=GPa)
#
#
# Indices 1 2 3 4 5 6 
#
# 1 70.6245 -7.7964 37.7899 0.0000 0.0000 0.0000
# 2 -7.7964 23.6972 0.2090 0.0000 0.0000 0.0000
# 3 37.7899 0.2090 102.6840 0.0000 0.0000 0.0000
# 4 0.0000 0.0000 0.0000 -3.7743 0.0000 0.0000
# 5 0.0000 0.0000 0.0000 0.0000 24.2753 0.0000
# 6 0.0000 0.0000 0.0000 0.0000 0.0000 15.4998
#
#
#
# Elastic Compliance Matrix: (Units=1/GPa)
#
#
# Indices 1 2 3 4 5 6 
#
# 1 0.018484 0.006141 -0.006815 0.000000 0.000000 0.000000
# 2 0.006141 0.044240 -0.002350 0.000000 0.000000 0.000000
# 3 -0.006815 -0.002350 0.012251 0.000000 0.000000 0.000000
# 4 0.000000 0.000000 0.000000 -0.264949 0.000000 0.000000
# 5 0.000000 0.000000 0.000000 0.000000 0.041194 0.000000
# 6 0.000000 0.000000 0.000000 0.000000 0.000000 0.064517
#
#
# Mechanical properties :
#
#
# Convention : Reuss Voigt Hill
#
# Bulk Modulus (GPa) = 14.50788 28.60116 21.55452
# Shear Modulus (GPa) = -90.51581 18.32038 -36.09772
#
# Velocity S-wave (km/s) = -6.24388 2.80905 -3.94305
# Velocity P-wave (km/s) = 6.76259 4.77910 3.38326
#
# Compressibility (1/GPa) = 0.06892808
#
# Stress axis : x y z
#
# Youngs Moduli (GPa) = 54.10107 22.60382 81.62300
#
# Poissons Ratio (x) = -0.13882 0.55626
# Poissons Ratio (y) = -0.33225 0.19183
# Poissons Ratio (z) = 0.36870 0.05312
#
# Static dielectric constant tensor:
#      x y z
#    x 1.945430 0.000000 0.000000 
#    y 0.000000 1.939350 0.000000 
#    z 0.000000 0.000000 2.135300 
# 
# From -- ./inp_files/28928.got.cif
#   From: 2010.05.17/outbox.cif.g08.bks.cpg/sg20_15_cif.got.tgz:28928.got - 2010.06.03 22:52:26.
