data_PCOD9316439
_publ_section_title
;
Structure prediction by ZEFSAII (Michael W. Deem and Ramdas Pophale) SiO2 
 PCOD9316439
Probable space group: C 2 2 21
;
_chemical_formula_sum "Si O2"
_cell_formula_units_Z 56
_cell_length_a 28.031480
_cell_length_b 17.765214
_cell_length_c 5.551269
_cell_angle_alpha 90.000000
_cell_angle_beta 90.000000
_cell_angle_gamma 90.000000
_cell_volume 2764.450030
_symmetry_space_group_name_H-M "C 2 2 21"
_symmetry_group_IT_number 20
_symmetry_cell_setting 'orthorhombic'
loop_
_space_group_symop_operation_xyz
x,y,z
-x,-y,1/2+z
x,-y,-z
-x,y,1/2-z
1/2+x,1/2+y,z
1/2-x,1/2-y,1/2+z
1/2+x,1/2-y,-z
1/2-x,1/2+y,1/2-z
loop_
_atom_site_type_symbol
_atom_site_label
_atom_site_fract_x
_atom_site_fract_y
_atom_site_fract_z
Si Si1 0.586953 0.337786 0.729702
Si Si2 0.337014 0.183193 0.424730
Si Si3 0.626558 0.498080 0.249537
Si Si4 0.254521 0.412542 0.939983
Si Si5 0.446876 0.360226 0.260112
Si Si6 0.656479 0.219611 0.583620
Si Si7 0.268233 0.670001 0.560102
O O1 0.593487 0.427905 0.748646
O O2 0.555730 0.318161 0.496421
O O3 0.637478 0.302595 0.647905
O O4 0.566233 0.316906 0.992214
O O5 0.299992 0.115698 0.415954
O O6 0.362575 0.176650 0.680454
O O7 0.304849 0.260272 0.444533
O O8 0.363308 0.193244 0.172982
O O9 0.653903 0.500000 0.500000
O O10 0.593317 0.425003 0.250678
O O11 0.654330 0.500000 0.000000
O O12 0.273873 0.381874 0.679483
O O13 0.252514 0.500000 0.000000
O O14 0.274704 0.371846 0.183151
O O15 0.500000 0.393810 0.250000
O O16 0.713788 0.204080 0.564929
#
# Coordination Sequence:
#
# PCOD9316439 Si02
#       7
#     8   8   8   8   8   8   8
#     4  10  19  29  44  65  84 110 151 196 239 281
#     4  10  19  33  52  69  90 127 166 191 232 304
#     4   8  16  27  41  58  80 107 142 189 236 277
#     4  10  18  29  48  71  94 114 149 203 242 270
#     4  10  19  31  46  63  87 119 157 200 244 290
#     4  10  18  30  48  66  88 116 155 200 233 276
#     4  10  19  33  51  70  92 127 164 191 234 304
#
# _framework density 20.257193000000001
#
# number of rings (size 3 to 8) (size 9 to 14) (size 15 to 20)
#    0.000    2.286    0.000    6.000    0.000    5.143 
#    0.000    0.000    0.000   43.714    0.000    0.000 
#    0.000    0.000    0.000    0.000    0.000  640.000 
#
# Total GULP energy -155916.221733 kJ/mol
# GULP energy per Si atom -5568.436490 kJ/mol
# Density = 2.021109 g / cm^3
# Si number density = 20.257193 Si / 1000 Ang^3
#
#
#
# Elastic Constant Matrix: (Units=GPa)
#
#
# Indices 1 2 3 4 5 6 
#
# 1 34.7120 25.5835 29.4488 0.0000 0.0000 0.0000
# 2 25.5835 68.4407 35.1515 0.0000 0.0000 0.0000
# 3 29.4488 35.1515 256.2024 0.0000 0.0000 0.0000
# 4 0.0000 0.0000 0.0000 23.7933 0.0000 0.0000
# 5 0.0000 0.0000 0.0000 0.0000 12.7573 0.0000
# 6 0.0000 0.0000 0.0000 0.0000 0.0000 -0.7141
#
#
#
# Elastic Compliance Matrix: (Units=1/GPa)
#
#
# Indices 1 2 3 4 5 6 
#
# 1 0.041611 -0.014091 -0.002850 0.000000 0.000000 0.000000
# 2 -0.014091 0.020491 -0.001192 0.000000 0.000000 0.000000
# 3 -0.002850 -0.001192 0.004394 0.000000 0.000000 0.000000
# 4 0.000000 0.000000 0.000000 0.042029 0.000000 0.000000
# 5 0.000000 0.000000 0.000000 0.000000 0.078386 0.000000
# 6 0.000000 0.000000 0.000000 0.000000 0.000000 -1.400279
#
#
# Mechanical properties :
#
#
# Convention : Reuss Voigt Hill
#
# Bulk Modulus (GPa) = 33.07806 59.96919 46.52363
# Shear Modulus (GPa) = -4.28439 25.11205 10.41383
#
# Velocity S-wave (km/s) = -1.45588 3.52470 2.26979
# Velocity P-wave (km/s) = 3.67945 6.79948 5.46677
#
# Compressibility (1/GPa) = 0.03023152
#
# Stress axis : x y z
#
# Youngs Moduli (GPa) = 24.03191 48.80304 227.57205
#
# Poissons Ratio (x) = 0.68768 0.64850
# Poissons Ratio (y) = 0.33863 0.27119
# Poissons Ratio (z) = 0.06848 0.05816
#
# Static dielectric constant tensor:
#      x y z
#    x 1.740650 0.000000 0.000000 
#    y 0.000000 1.754680 0.000000 
#    z 0.000000 0.000000 1.917630 
# 
# From -- ./inp_files/4681.got.cif
#   From: 2010.05.17/outbox.cif.g08.bks.cpg/sg20_3_cif.got.tgz:4681.got - 2010.06.03 22:52:26.
