data_PCOD9316925
_publ_section_title
;
Structure prediction by ZEFSAII (Michael W. Deem and Ramdas Pophale) SiO2 
 PCOD9316925
Probable space group: C 2 2 21
;
_chemical_formula_sum "Si O2"
_cell_formula_units_Z 48
_cell_length_a 24.538597
_cell_length_b 10.124089
_cell_length_c 9.766970
_cell_angle_alpha 90.000000
_cell_angle_beta 90.000000
_cell_angle_gamma 90.000000
_cell_volume 2426.417538
_symmetry_space_group_name_H-M "C 2 2 21"
_symmetry_group_IT_number 20
_symmetry_cell_setting 'orthorhombic'
loop_
_space_group_symop_operation_xyz
x,y,z
-x,-y,1/2+z
x,-y,-z
-x,y,1/2-z
1/2+x,1/2+y,z
1/2-x,1/2-y,1/2+z
1/2+x,1/2-y,-z
1/2-x,1/2+y,1/2-z
loop_
_atom_site_type_symbol
_atom_site_label
_atom_site_fract_x
_atom_site_fract_y
_atom_site_fract_z
Si Si1 0.353626 0.301469 0.831854
Si Si2 0.747907 0.886395 0.914473
Si Si3 0.329490 0.982346 0.219728
Si Si4 0.285341 0.611398 0.597385
Si Si5 0.054269 0.014383 0.663323
Si Si6 0.361192 0.270465 0.158330
O O1 0.292028 0.348114 0.797547
O O2 0.400116 0.405267 0.796345
O O3 0.362290 0.153824 0.776867
O O4 0.350466 0.296325 0.997879
O O5 0.695536 0.962725 0.858924
O O6 0.728266 0.749553 0.979797
O O7 0.776489 0.000000 0.000000
O O8 0.360018 0.111640 0.165540
O O9 0.273880 0.945325 0.138865
O O10 0.311864 0.500000 0.500000
O O11 0.318480 0.663748 0.732169
O O12 0.082155 0.156481 0.689026
O O13 0.000000 0.997262 0.750000
O O14 0.044345 0.000000 0.500000
#
# Coordination Sequence:
#
# PCOD9316925 Si02
#       6
#     8   8   8   8   8   8
#     4  10  19  34  56  78 106 143 182 222 267 323
#     4  10  19  31  48  77 117 152 182 215 256 315
#     4  10  19  32  52  79 111 147 182 214 257 319
#     4  10  20  30  49  81 116 151 183 217 258 310
#     4  10  22  40  60  79 100 132 178 232 285 332
#     4  10  20  35  54  78 107 143 182 220 267 323
#
# _framework density 19.782249
#
# number of rings (size 3 to 8) (size 9 to 14) (size 15 to 20)
#    0.000    2.000    0.000    6.000    0.000    4.667 
#    0.000    2.500    0.000    0.000    0.000    0.000 
#    0.000    0.000    0.000    0.000    0.000    0.000 
#
# Total GULP energy -133745.383269 kJ/mol
# GULP energy per Si atom -5572.724303 kJ/mol
# Density = 1.973722 g / cm^3
# Si number density = 19.782249 Si / 1000 Ang^3
#
#
#
# Elastic Constant Matrix: (Units=GPa)
#
#
# Indices 1 2 3 4 5 6 
#
# 1 78.8003 48.8525 22.0936 0.0000 0.0000 0.0000
# 2 48.8525 195.5242 38.4877 0.0000 0.0000 0.0000
# 3 22.0936 38.4877 43.6633 0.0000 0.0000 0.0000
# 4 0.0000 0.0000 0.0000 27.0926 0.0000 0.0000
# 5 0.0000 0.0000 0.0000 0.0000 26.6094 0.0000
# 6 0.0000 0.0000 0.0000 0.0000 0.0000 15.6306
#
#
#
# Elastic Compliance Matrix: (Units=1/GPa)
#
#
# Indices 1 2 3 4 5 6 
#
# 1 0.016056 -0.002919 -0.005552 0.000000 0.000000 0.000000
# 2 -0.002919 0.006719 -0.004445 0.000000 0.000000 0.000000
# 3 -0.005552 -0.004445 0.029630 0.000000 0.000000 0.000000
# 4 0.000000 0.000000 0.000000 0.036910 0.000000 0.000000
# 5 0.000000 0.000000 0.000000 0.000000 0.037581 0.000000
# 6 0.000000 0.000000 0.000000 0.000000 0.000000 0.063977
#
#
# Mechanical properties :
#
#
# Convention : Reuss Voigt Hill
#
# Bulk Modulus (GPa) = 37.63154 59.65061 48.64108
# Shear Modulus (GPa) = 22.16672 27.77013 24.96842
#
# Velocity S-wave (km/s) = 3.35107 3.75078 3.55655
# Velocity P-wave (km/s) = 5.83413 6.99835 6.44259
#
# Compressibility (1/GPa) = 0.02657345
#
# Stress axis : x y z
#
# Youngs Moduli (GPa) = 62.28018 148.83551 33.74943
#
# Poissons Ratio (x) = 0.43445 0.18736
# Poissons Ratio (y) = 0.18179 0.15003
# Poissons Ratio (z) = 0.34575 0.66164
#
# Static dielectric constant tensor:
#      x y z
#    x 1.683650 0.000000 0.000000 
#    y 0.000000 1.793330 0.000000 
#    z 0.000000 0.000000 1.851890 
# 
# From -- ./inp_files/13195.got.cif
#   From: 2010.05.17/outbox.cif.g08.bks.cpg/sg20_7_cif.got.tgz:13195.got - 2010.06.03 22:52:26.
