data_PCOD9316915
_publ_section_title
;
Structure prediction by ZEFSAII (Michael W. Deem and Ramdas Pophale) SiO2 
 PCOD9316915
Probable space group: C 2 2 21
;
_chemical_formula_sum "Si O2"
_cell_formula_units_Z 40
_cell_length_a 20.168220
_cell_length_b 22.788244
_cell_length_c 4.996386
_cell_angle_alpha 90.000000
_cell_angle_beta 90.000000
_cell_angle_gamma 90.000000
_cell_volume 2296.330604
_symmetry_space_group_name_H-M "C 2 2 21"
_symmetry_group_IT_number 20
_symmetry_cell_setting 'orthorhombic'
loop_
_space_group_symop_operation_xyz
x,y,z
-x,-y,1/2+z
x,-y,-z
-x,y,1/2-z
1/2+x,1/2+y,z
1/2-x,1/2-y,1/2+z
1/2+x,1/2-y,-z
1/2-x,1/2+y,1/2-z
loop_
_atom_site_type_symbol
_atom_site_label
_atom_site_fract_x
_atom_site_fract_y
_atom_site_fract_z
Si Si1 0.824971 0.292674 0.730962
Si Si2 0.041999 0.656355 0.986854
Si Si3 0.242631 0.829677 0.236794
Si Si4 0.603242 0.960323 0.259507
Si Si5 0.760157 0.039665 0.735179
O O1 0.897413 0.308487 0.622920
O O2 0.809199 0.223565 0.709915
O O3 0.775132 0.324666 0.527663
O O4 0.801251 0.315661 0.021337
O O5 0.000000 0.638103 0.250000
O O6 0.070357 0.600691 0.821895
O O7 0.000000 0.688311 0.750000
O O8 0.212624 0.894490 0.221765
O O9 0.681139 0.950073 0.315998
O O10 0.574773 0.000000 0.500000
O O11 0.599616 0.000000 0.000000
O O12 0.787774 0.000000 0.500000
O O13 0.766008 0.000000 0.000000
#
# Coordination Sequence:
#
# PCOD9316915 Si02
#       5
#     8   8   8   8   8
#     4  10  21  35  54  76  96 133 177 212 267 297
#     4  12  24  36  53  70 103 138 181 224 248 295
#     4  10  19  35  57  74 100 129 170 219 255 323
#     4  10  21  34  50  65  96 136 177 212 239 284
#     4  10  19  30  52  76 101 130 163 209 259 302
#
# _framework density 17.419094999999999
#
# number of rings (size 3 to 8) (size 9 to 14) (size 15 to 20)
#    0.000    1.600    2.000    3.600    5.600    1.600 
#    0.000    0.000    0.000    0.000    0.000    0.000 
#    0.000    3.200    0.000    0.000    0.000    0.000 
#
# Total GULP energy -111532.600580 kJ/mol
# GULP energy per Si atom -5576.630029 kJ/mol
# Density = 1.737945 g / cm^3
# Si number density = 17.419095 Si / 1000 Ang^3
#
#
#
# Elastic Constant Matrix: (Units=GPa)
#
#
# Indices 1 2 3 4 5 6 
#
# 1 36.8329 14.8995 3.6565 0.0000 0.0000 0.0000
# 2 14.8995 127.3227 23.7709 0.0000 0.0000 0.0000
# 3 3.6565 23.7709 65.0727 0.0000 0.0000 0.0000
# 4 0.0000 0.0000 0.0000 21.5502 0.0000 0.0000
# 5 0.0000 0.0000 0.0000 0.0000 14.1936 0.0000
# 6 0.0000 0.0000 0.0000 0.0000 0.0000 10.8221
#
#
#
# Elastic Compliance Matrix: (Units=1/GPa)
#
#
# Indices 1 2 3 4 5 6 
#
# 1 0.028509 -0.003259 -0.000411 0.000000 0.000000 0.000000
# 2 -0.003259 0.008802 -0.003032 0.000000 0.000000 0.000000
# 3 -0.000411 -0.003032 0.016498 0.000000 0.000000 0.000000
# 4 0.000000 0.000000 0.000000 0.046403 0.000000 0.000000
# 5 0.000000 0.000000 0.000000 0.000000 0.070454 0.000000
# 6 0.000000 0.000000 0.000000 0.000000 0.000000 0.092403
#
#
# Mechanical properties :
#
#
# Convention : Reuss Voigt Hill
#
# Bulk Modulus (GPa) = 24.75053 34.87580 29.81316
# Shear Modulus (GPa) = 17.24480 21.77329 19.50904
#
# Velocity S-wave (km/s) = 3.14983 3.53932 3.35024
# Velocity P-wave (km/s) = 5.24102 6.06362 5.66726
#
# Compressibility (1/GPa) = 0.04040318
#
# Stress axis : x y z
#
# Youngs Moduli (GPa) = 35.07677 113.61632 60.61292
#
# Poissons Ratio (x) = 0.37032 0.02493
# Poissons Ratio (y) = 0.11433 0.18378
# Poissons Ratio (z) = 0.01443 0.34449
#
# Static dielectric constant tensor:
#      x y z
#    x 1.622580 0.000000 0.000000 
#    y 0.000000 1.666160 0.000000 
#    z 0.000000 0.000000 1.622970 
# 
# From -- ./inp_files/2616.got.cif
#   From: 2010.05.17/outbox.cif.g08.bks.cpg/sg20_2_cif.got.tgz:2616.got - 2010.06.03 22:52:26.
