data_PCOD9316946
_publ_section_title
;
Structure prediction by ZEFSAII (Michael W. Deem and Ramdas Pophale) SiO2 
 PCOD9316946
Probable space group: C 2 2 21
;
_chemical_formula_sum "Si O2"
_cell_formula_units_Z 32
_cell_length_a 10.835168
_cell_length_b 26.888734
_cell_length_c 5.183262
_cell_angle_alpha 90.000000
_cell_angle_beta 90.000000
_cell_angle_gamma 90.000000
_cell_volume 1510.112026
_symmetry_space_group_name_H-M "C 2 2 21"
_symmetry_group_IT_number 20
_symmetry_cell_setting 'orthorhombic'
loop_
_space_group_symop_operation_xyz
x,y,z
-x,-y,1/2+z
x,-y,-z
-x,y,1/2-z
1/2+x,1/2+y,z
1/2-x,1/2-y,1/2+z
1/2+x,1/2-y,-z
1/2-x,1/2+y,1/2-z
loop_
_atom_site_type_symbol
_atom_site_label
_atom_site_fract_x
_atom_site_fract_y
_atom_site_fract_z
Si Si1 0.083073 0.940823 0.501083
Si Si2 0.613024 0.285235 0.398720
Si Si3 0.852850 0.685297 0.876242
Si Si4 0.720459 0.861193 0.879733
O O1 0.210957 0.910852 0.528808
O O2 0.000000 0.929084 0.250000
O O3 0.107096 0.000000 0.500000
O O4 0.000000 0.929086 0.750000
O O5 0.500000 0.308973 0.250000
O O6 0.573631 0.231657 0.505040
O O7 0.667538 0.320924 0.615850
O O8 0.724482 0.285228 0.192262
O O9 0.835168 0.644123 0.097219
O O10 0.873697 0.658088 0.602440
#
# Coordination Sequence:
#
# PCOD9316946 Si02
#       4
#     8   8   8   8
#     4  10  20  32  47  71  97 127 170 205 238 296
#     4  10  20  33  50  67 101 133 165 200 249 278
#     4  10  20  34  44  73  96 124 174 202 226 304
#     4  10  19  32  47  66  98 128 164 197 238 286
#
# _framework density 21.190480999999998
#
# number of rings (size 3 to 8) (size 9 to 14) (size 15 to 20)
#    1.500    0.500    2.500    2.250    3.500    0.000 
#    0.000    0.000    0.000    0.000    0.000    0.000 
#    0.000    4.000    0.000    0.000    0.000    0.000 
#
# Total GULP energy -89158.171666 kJ/mol
# GULP energy per Si atom -5572.385729 kJ/mol
# Density = 2.114225 g / cm^3
# Si number density = 21.190481 Si / 1000 Ang^3
#
#
#
# Elastic Constant Matrix: (Units=GPa)
#
#
# Indices 1 2 3 4 5 6 
#
# 1 24.7097 11.2079 18.0311 0.0000 0.0000 0.0000
# 2 11.2079 91.3279 28.8636 0.0000 0.0000 0.0000
# 3 18.0311 28.8636 155.2119 0.0000 0.0000 0.0000
# 4 0.0000 0.0000 0.0000 8.5574 0.0000 0.0000
# 5 0.0000 0.0000 0.0000 0.0000 26.0585 0.0000
# 6 0.0000 0.0000 0.0000 0.0000 0.0000 30.3183
#
#
#
# Elastic Compliance Matrix: (Units=1/GPa)
#
#
# Indices 1 2 3 4 5 6 
#
# 1 0.045668 -0.004173 -0.004529 0.000000 0.000000 0.000000
# 2 -0.004173 0.012015 -0.001749 0.000000 0.000000 0.000000
# 3 -0.004529 -0.001749 0.007294 0.000000 0.000000 0.000000
# 4 0.000000 0.000000 0.000000 0.116858 0.000000 0.000000
# 5 0.000000 0.000000 0.000000 0.000000 0.038375 0.000000
# 6 0.000000 0.000000 0.000000 0.000000 0.000000 0.032983
#
#
# Mechanical properties :
#
#
# Convention : Reuss Voigt Hill
#
# Bulk Modulus (GPa) = 22.68951 43.05051 32.87001
# Shear Modulus (GPa) = 17.31374 27.19663 22.25519
#
# Velocity S-wave (km/s) = 2.86151 3.58639 3.24426
# Velocity P-wave (km/s) = 4.65278 6.12452 5.43866
#
# Compressibility (1/GPa) = 0.04407324
#
# Stress axis : x y z
#
# Youngs Moduli (GPa) = 21.89731 83.23223 137.09317
#
# Poissons Ratio (x) = 0.34732 0.62093
# Poissons Ratio (y) = 0.09138 0.23984
# Poissons Ratio (z) = 0.09918 0.14561
#
# Static dielectric constant tensor:
#      x y z
#    x 1.934050 0.000000 0.000000 
#    y 0.000000 1.755860 0.000000 
#    z 0.000000 0.000000 1.948010 
# 
# From -- ./inp_files/1315.got.cif
#   From: 2010.05.17/outbox.cif.g08.bks.cpg/sg20_1_cif.got.tgz:1315.got - 2010.06.03 22:52:26.
