data_PCOD9316402
_publ_section_title
;
Structure prediction by ZEFSAII (Michael W. Deem and Ramdas Pophale) SiO2 
 PCOD9316402
Probable space group: C 2 2 21
;
_chemical_formula_sum "Si O2"
_cell_formula_units_Z 40
_cell_length_a 8.360411
_cell_length_b 11.594378
_cell_length_c 15.611175
_cell_angle_alpha 90.000000
_cell_angle_beta 90.000000
_cell_angle_gamma 90.000000
_cell_volume 1513.249975
_symmetry_space_group_name_H-M "C 2 2 21"
_symmetry_group_IT_number 20
_symmetry_cell_setting 'orthorhombic'
loop_
_space_group_symop_operation_xyz
x,y,z
-x,-y,1/2+z
x,-y,-z
-x,y,1/2-z
1/2+x,1/2+y,z
1/2-x,1/2-y,1/2+z
1/2+x,1/2-y,-z
1/2-x,1/2+y,1/2-z
loop_
_atom_site_type_symbol
_atom_site_label
_atom_site_fract_x
_atom_site_fract_y
_atom_site_fract_z
Si Si1 0.086185 0.391001 0.341424
Si Si2 0.180414 0.769345 0.255286
Si Si3 0.939731 0.846535 0.576735
Si Si4 0.955144 0.500000 0.500000
Si Si5 0.000000 0.890841 0.750000
Si Si6 0.299875 0.322213 0.054188
O O1 0.266730 0.357575 0.318642
O O2 0.009852 0.273054 0.380362
O O3 0.052878 0.485676 0.412512
O O4 0.000000 0.414996 0.250000
O O5 0.323020 0.674367 0.251451
O O6 0.192983 0.839392 0.344266
O O7 0.000000 0.724644 0.250000
O O8 0.985169 0.935271 0.652149
O O9 0.038532 0.857131 0.491063
O O10 0.759192 0.811587 0.551726
O O11 0.833947 0.607884 0.501427
#
# Coordination Sequence:
#
# PCOD9316402 Si02
#       6
#     8   8   8   4   4   8
#     4  10  17  39  64  79 122 169 203 240 324 373
#     4  10  18  33  61  86 113 164 200 243 308 383
#     4   9  17  32  58  85 112 154 198 253 291 372
#     4  10  20  38  66  86 122 178 194 256 322 380
#     4   8  16  34  50  82 120 148 188 248 308 350
#     4  10  20  34  61  91 118 152 213 253 311 368
#
# _framework density 26.433174000000001
#
# number of rings (size 3 to 8) (size 9 to 14) (size 15 to 20)
#    0.000    2.400    8.000    0.000    5.600    0.000 
#    0.000    1.000   28.600    0.000    0.000    0.000 
#    0.000    0.000    0.000    0.000    0.000    0.000 
#
# Total GULP energy -111420.189536 kJ/mol
# GULP energy per Si atom -5571.009477 kJ/mol
# Density = 2.637301 g / cm^3
# Si number density = 26.433174 Si / 1000 Ang^3
#
#
#
# Elastic Constant Matrix: (Units=GPa)
#
#
# Indices 1 2 3 4 5 6 
#
# 1 132.4060 35.6420 16.1815 0.0000 0.0000 0.0000
# 2 35.6420 59.4972 23.0620 0.0000 0.0000 0.0000
# 3 16.1815 23.0620 121.1181 0.0000 0.0000 0.0000
# 4 0.0000 0.0000 0.0000 22.1511 0.0000 0.0000
# 5 0.0000 0.0000 0.0000 0.0000 33.1935 0.0000
# 6 0.0000 0.0000 0.0000 0.0000 0.0000 32.5762
#
#
#
# Elastic Compliance Matrix: (Units=1/GPa)
#
#
# Indices 1 2 3 4 5 6 
#
# 1 0.009009 -0.005323 -0.000190 0.000000 0.000000 0.000000
# 2 -0.005323 0.021292 -0.003343 0.000000 0.000000 0.000000
# 3 -0.000190 -0.003343 0.008918 0.000000 0.000000 0.000000
# 4 0.000000 0.000000 0.000000 0.045145 0.000000 0.000000
# 5 0.000000 0.000000 0.000000 0.000000 0.030126 0.000000
# 6 0.000000 0.000000 0.000000 0.000000 0.000000 0.030697
#
#
# Mechanical properties :
#
#
# Convention : Reuss Voigt Hill
#
# Bulk Modulus (GPa) = 46.49666 51.42138 48.95902
# Shear Modulus (GPa) = 29.39994 33.45987 31.42991
#
# Velocity S-wave (km/s) = 3.33864 3.56171 3.45198
# Velocity P-wave (km/s) = 5.70004 6.03406 5.86943
#
# Compressibility (1/GPa) = 0.02150692
#
# Stress axis : x y z
#
# Youngs Moduli (GPa) = 111.00454 46.96578 112.12852
#
# Poissons Ratio (x) = 0.25000 0.02131
# Poissons Ratio (y) = 0.59088 0.37485
# Poissons Ratio (z) = 0.02109 0.15701
#
# Static dielectric constant tensor:
#      x y z
#    x 2.151920 0.000000 0.000000 
#    y 0.000000 2.229420 0.000000 
#    z 0.000000 0.000000 2.094500 
# 
# From -- ./inp_files/18598.got.cif
#   From: 2010.05.17/outbox.cif.g08.bks.cpg/sg20_10_cif.got.tgz:18598.got - 2010.06.03 22:52:26.
