data_PCOD9316879
_publ_section_title
;
Structure prediction by ZEFSAII (Michael W. Deem and Ramdas Pophale) SiO2 
 PCOD9316879
Probable space group: C 2 2 21
;
_chemical_formula_sum "Si O2"
_cell_formula_units_Z 48
_cell_length_a 25.771805
_cell_length_b 9.175428
_cell_length_c 10.301211
_cell_angle_alpha 90.000000
_cell_angle_beta 90.000000
_cell_angle_gamma 90.000000
_cell_volume 2435.899976
_symmetry_space_group_name_H-M "C 2 2 21"
_symmetry_group_IT_number 20
_symmetry_cell_setting 'orthorhombic'
loop_
_space_group_symop_operation_xyz
x,y,z
-x,-y,1/2+z
x,-y,-z
-x,y,1/2-z
1/2+x,1/2+y,z
1/2-x,1/2-y,1/2+z
1/2+x,1/2-y,-z
1/2-x,1/2+y,1/2-z
loop_
_atom_site_type_symbol
_atom_site_label
_atom_site_fract_x
_atom_site_fract_y
_atom_site_fract_z
Si Si1 0.751664 0.982560 0.144777
Si Si2 0.866139 0.913448 0.865025
Si Si3 0.880272 0.893406 0.384979
Si Si4 0.090832 0.330244 0.517624
Si Si5 0.496337 0.368525 0.400173
Si Si6 0.813638 0.300132 0.783006
O O1 0.772012 0.819326 0.168296
O O2 0.803896 0.082634 0.149247
O O3 0.712623 0.047147 0.249834
O O4 0.730112 0.000000 0.000000
O O5 0.891781 0.757259 0.888089
O O6 0.886515 0.004511 0.743013
O O7 0.876261 0.000000 0.000000
O O8 0.936069 0.825733 0.419770
O O9 0.838819 0.772411 0.345324
O O10 0.863116 0.000000 0.500000
O O11 0.081741 0.500000 0.500000
O O12 0.139612 0.311615 0.614956
O O13 0.039308 0.253532 0.572988
O O14 0.505832 0.500000 0.500000
O O15 0.500000 0.414275 0.250000
#
# Coordination Sequence:
#
# PCOD9316879 Si02
#       6
#     8   8   8   8   8   8
#     4  10  22  38  62  89 124 165 213 260 314 374
#     4  10  18  43  67  87 123 170 218 255 300 384
#     4  10  21  39  67  96 125 162 213 267 318 372
#     4  12  24  40  65  95 127 171 214 264 313 382
#     4  11  21  40  72  94 124 168 219 261 311 381
#     4  11  23  41  62  94 128 168 209 268 312 379
#
# _framework density 19.705244
#
# number of rings (size 3 to 8) (size 9 to 14) (size 15 to 20)
#    0.000    1.333    6.667    1.500    2.333    2.667 
#    0.000    5.000    0.000    0.000    0.000    0.000 
#    0.000    0.000    0.000    0.000    0.000    0.000 
#
# Total GULP energy -133975.963512 kJ/mol
# GULP energy per Si atom -5582.331813 kJ/mol
# Density = 1.966039 g / cm^3
# Si number density = 19.705244 Si / 1000 Ang^3
#
#
#
# Elastic Constant Matrix: (Units=GPa)
#
#
# Indices 1 2 3 4 5 6 
#
# 1 34.5558 21.5087 20.4188 0.0000 0.0000 0.0000
# 2 21.5087 101.6247 41.7620 0.0000 0.0000 0.0000
# 3 20.4188 41.7620 75.3472 0.0000 0.0000 0.0000
# 4 0.0000 0.0000 0.0000 20.5226 0.0000 0.0000
# 5 0.0000 0.0000 0.0000 0.0000 16.7638 0.0000
# 6 0.0000 0.0000 0.0000 0.0000 0.0000 1.8124
#
#
#
# Elastic Compliance Matrix: (Units=1/GPa)
#
#
# Indices 1 2 3 4 5 6 
#
# 1 0.036102 -0.004688 -0.007185 0.000000 0.000000 0.000000
# 2 -0.004688 0.013351 -0.006130 0.000000 0.000000 0.000000
# 3 -0.007185 -0.006130 0.018616 0.000000 0.000000 0.000000
# 4 0.000000 0.000000 0.000000 0.048727 0.000000 0.000000
# 5 0.000000 0.000000 0.000000 0.000000 0.059652 0.000000
# 6 0.000000 0.000000 0.000000 0.000000 0.000000 0.551740
#
#
# Mechanical properties :
#
#
# Convention : Reuss Voigt Hill
#
# Bulk Modulus (GPa) = 31.18744 42.10075 36.64410
# Shear Modulus (GPa) = 6.45258 16.34233 11.39745
#
# Velocity S-wave (km/s) = 1.81153 2.88295 2.40760
# Velocity P-wave (km/s) = 4.49854 5.70031 5.13470
#
# Compressibility (1/GPa) = 0.03206419
#
# Stress axis : x y z
#
# Youngs Moduli (GPa) = 27.69893 74.89896 53.71602
#
# Poissons Ratio (x) = 0.35115 0.38595
# Poissons Ratio (y) = 0.12986 0.32926
# Poissons Ratio (z) = 0.19902 0.45910
#
# Static dielectric constant tensor:
#      x y z
#    x 1.728330 0.000000 0.000000 
#    y 0.000000 1.689390 0.000000 
#    z 0.000000 0.000000 1.705210 
# 
# From -- ./inp_files/11444.got.cif
#   From: 2010.05.17/outbox.cif.g08.bks.cpg/sg20_6_cif.got.tgz:11444.got - 2010.06.03 22:52:26.
