data_PCOD9316091
_publ_section_title
;
Structure prediction by ZEFSAII (Michael W. Deem and Ramdas Pophale) SiO2 
 PCOD9316091
Probable space group: P 21 21 21
;
_chemical_formula_sum "Si O2"
_cell_formula_units_Z 28
_cell_length_a 9.199057
_cell_length_b 5.523433
_cell_length_c 21.733644
_cell_angle_alpha 90.000000
_cell_angle_beta 90.000000
_cell_angle_gamma 90.000000
_cell_volume 1104.294602
_symmetry_space_group_name_H-M "P 21 21 21"
_symmetry_group_IT_number 19
_symmetry_cell_setting 'orthorhombic'
loop_
_space_group_symop_operation_xyz
x,y,z
1/2-x,-y,1/2+z
1/2+x,1/2-y,-z
-x,1/2+y,1/2-z
loop_
_atom_site_type_symbol
_atom_site_label
_atom_site_fract_x
_atom_site_fract_y
_atom_site_fract_z
Si Si1 0.828302 0.450553 0.117164
Si Si2 0.976626 0.951363 0.716884
Si Si3 0.422592 0.229041 0.652227
Si Si4 0.653362 0.554735 0.401384
Si Si5 0.157249 0.600304 0.280452
Si Si6 0.846306 0.070926 0.007953
Si Si7 0.596864 0.713711 0.044481
O O1 0.677033 0.574279 0.099782
O O2 0.967129 0.623219 0.109141
O O3 0.835859 0.362745 0.187297
O O4 0.840610 0.227679 0.070020
O O5 0.810476 0.011971 0.699617
O O6 0.035601 0.210617 0.740597
O O7 0.078099 0.860571 0.661605
O O8 0.293159 0.099191 0.617265
O O9 0.357761 0.393169 0.707254
O O10 0.523884 0.038409 0.688675
O O11 0.690385 0.764717 0.449071
O O12 0.527398 0.393511 0.432311
O O13 0.727534 0.859939 0.013253
O O14 0.008824 0.975457 0.996720
#
# Coordination Sequence:
#
# PCOD9316091 Si02
#       7
#     4   4   4   4   4   4   4
#     4  12  28  52  81 119 168 213 279 353 426 516
#     4  12  29  51  84 121 171 226 287 360 428 518
#     4  12  28  50  83 120 163 220 282 344 426 514
#     4  12  30  51  84 123 165 224 280 354 433 518
#     4  12  27  48  79 115 166 220 274 347 423 503
#     4  12  29  54  83 121 163 219 278 356 437 517
#     4  12  29  52  82 121 166 216 278 348 433 518
#
# _framework density 25.355553
#
# number of rings (size 3 to 8) (size 9 to 14) (size 15 to 20)
#    0.000    0.000    2.857    5.143    8.000   12.571 
#    0.000    0.000    0.000    0.000    0.000    0.000 
#    0.000    0.000    0.000    0.000    0.000    0.000 
#
# Total GULP energy -157147.552678 kJ/mol
# GULP energy per Si atom -5612.412596 kJ/mol
# Density = 2.529784 g / cm^3
# Si number density = 25.355553 Si / 1000 Ang^3
#
#
#
# Elastic Constant Matrix: (Units=GPa)
#
#
# Indices 1 2 3 4 5 6 
#
# 1 173.4119 38.4865 36.4570 0.0000 0.0000 0.0000
# 2 38.4865 80.6279 29.9653 0.0000 0.0000 0.0000
# 3 36.4570 29.9653 89.9412 0.0000 0.0000 0.0000
# 4 0.0000 0.0000 0.0000 38.0784 0.0000 0.0000
# 5 0.0000 0.0000 0.0000 0.0000 44.6123 0.0000
# 6 0.0000 0.0000 0.0000 0.0000 0.0000 52.8255
#
#
#
# Elastic Compliance Matrix: (Units=1/GPa)
#
#
# Indices 1 2 3 4 5 6 
#
# 1 0.006720 -0.002506 -0.001889 0.000000 0.000000 0.000000
# 2 -0.002506 0.015090 -0.004012 0.000000 0.000000 0.000000
# 3 -0.001889 -0.004012 0.013221 0.000000 0.000000 0.000000
# 4 0.000000 0.000000 0.000000 0.026262 0.000000 0.000000
# 5 0.000000 0.000000 0.000000 0.000000 0.022415 0.000000
# 6 0.000000 0.000000 0.000000 0.000000 0.000000 0.018930
#
#
# Mechanical properties :
#
#
# Convention : Reuss Voigt Hill
#
# Bulk Modulus (GPa) = 54.89259 61.53321 58.21290
# Shear Modulus (GPa) = 39.83350 43.04137 41.43744
#
# Velocity S-wave (km/s) = 3.96788 4.12456 4.04698
# Velocity P-wave (km/s) = 6.53362 6.85591 6.69670
#
# Compressibility (1/GPa) = 0.01821740
#
# Stress axis : x y z
#
# Youngs Moduli (GPa) = 148.81318 66.27088 75.63915
#
# Poissons Ratio (x) = 0.16604 0.14289
# Poissons Ratio (y) = 0.37286 0.30344
# Poissons Ratio (z) = 0.28112 0.26586
#
# Static dielectric constant tensor:
#      x y z
#    x 1.948260 0.000000 0.000000 
#    y 0.000000 2.042440 0.000000 
#    z 0.000000 0.000000 2.000220 
# 
# From -- ./inp_files/7332.got.cif
#   From: 2010.05.17/outbox.cif.g08.bks.cpg/sg19_4_cif.got.tgz:7332.got - 2010.06.03 22:46:19.
