data_PCOD9316895
_publ_section_title
;
Structure prediction by ZEFSAII (Michael W. Deem and Ramdas Pophale) SiO2 
 PCOD9316895
Probable space group: C 2 2 21
;
_chemical_formula_sum "Si O2"
_cell_formula_units_Z 40
_cell_length_a 9.721608
_cell_length_b 27.870496
_cell_length_c 8.071051
_cell_angle_alpha 90.000000
_cell_angle_beta 90.000000
_cell_angle_gamma 90.000000
_cell_volume 2186.819282
_symmetry_space_group_name_H-M "C 2 2 21"
_symmetry_group_IT_number 20
_symmetry_cell_setting 'orthorhombic'
loop_
_space_group_symop_operation_xyz
x,y,z
-x,-y,1/2+z
x,-y,-z
-x,y,1/2-z
1/2+x,1/2+y,z
1/2-x,1/2-y,1/2+z
1/2+x,1/2-y,-z
1/2-x,1/2+y,1/2-z
loop_
_atom_site_type_symbol
_atom_site_label
_atom_site_fract_x
_atom_site_fract_y
_atom_site_fract_z
Si Si1 0.669707 0.386725 0.263264
Si Si2 0.843520 0.094225 0.121096
Si Si3 0.152436 0.215790 0.825256
Si Si4 0.847195 0.054978 0.448222
Si Si5 0.651212 0.700695 0.217209
O O1 0.500000 0.387049 0.250000
O O2 0.717811 0.408274 0.437456
O O3 0.711271 0.331177 0.265618
O O4 0.715705 0.414977 0.099844
O O5 0.779995 0.062438 0.268023
O O6 0.842529 0.148544 0.194342
O O7 0.999804 0.076444 0.084452
O O8 0.237352 0.263556 0.792090
O O9 0.000000 0.222631 0.750000
O O10 0.158631 0.200269 0.017847
O O11 0.857743 0.000000 0.500000
O O12 0.500000 0.720965 0.250000
#
# Coordination Sequence:
#
# PCOD9316895 Si02
#       5
#     8   8   8   8   8
#     4   9  17  31  44  67 100 136 173 220 268 317
#     4  10  19  30  45  69 102 139 172 222 269 327
#     4  11  22  35  55  80 108 151 191 229 274 341
#     4  10  19  28  45  69 102 139 180 216 279 331
#     4  12  20  37  54  78 112 152 185 230 286 330
#
# _framework density 18.291405000000001
#
# number of rings (size 3 to 8) (size 9 to 14) (size 15 to 20)
#    0.000    1.600    4.000    4.800    8.400    0.000 
#    0.000    0.000    0.000    0.000    0.000    0.000 
#    0.000    3.200    0.400    0.000    0.000    0.200 
#
# Total GULP energy -111362.146717 kJ/mol
# GULP energy per Si atom -5568.107336 kJ/mol
# Density = 1.824977 g / cm^3
# Si number density = 18.291405 Si / 1000 Ang^3
#
#
#
# Elastic Constant Matrix: (Units=GPa)
#
#
# Indices 1 2 3 4 5 6 
#
# 1 17.5408 25.5239 12.7675 0.0000 0.0000 0.0000
# 2 25.5239 127.3750 51.2394 0.0000 0.0000 0.0000
# 3 12.7675 51.2394 159.2867 0.0000 0.0000 0.0000
# 4 0.0000 0.0000 0.0000 19.3660 0.0000 0.0000
# 5 0.0000 0.0000 0.0000 0.0000 10.7781 0.0000
# 6 0.0000 0.0000 0.0000 0.0000 0.0000 5.3559
#
#
#
# Elastic Compliance Matrix: (Units=1/GPa)
#
#
# Indices 1 2 3 4 5 6 
#
# 1 0.080768 -0.015599 -0.001456 0.000000 0.000000 0.000000
# 2 -0.015599 0.012030 -0.002620 0.000000 0.000000 0.000000
# 3 -0.001456 -0.002620 0.007237 0.000000 0.000000 0.000000
# 4 0.000000 0.000000 0.000000 0.051637 0.000000 0.000000
# 5 0.000000 0.000000 0.000000 0.000000 0.092781 0.000000
# 6 0.000000 0.000000 0.000000 0.000000 0.000000 0.186712
#
#
# Mechanical properties :
#
#
# Convention : Reuss Voigt Hill
#
# Bulk Modulus (GPa) = 16.47805 53.69602 35.08703
# Shear Modulus (GPa) = 10.18862 21.41143 15.80002
#
# Velocity S-wave (km/s) = 2.36268 3.42508 2.94223
# Velocity P-wave (km/s) = 4.05847 6.71276 5.54673
#
# Compressibility (1/GPa) = 0.06068680
#
# Stress axis : x y z
#
# Youngs Moduli (GPa) = 12.38110 83.12260 138.17163
#
# Poissons Ratio (x) = 1.29663 0.20118
# Poissons Ratio (y) = 0.19313 0.36196
# Poissons Ratio (z) = 0.01803 0.21775
#
# Static dielectric constant tensor:
#      x y z
#    x 1.709310 0.000000 0.000000 
#    y 0.000000 1.636220 0.000000 
#    z 0.000000 0.000000 1.760380 
# 
# From -- ./inp_files/7486.got.cif
#   From: 2010.05.17/outbox.cif.g08.bks.cpg/sg20_4_cif.got.tgz:7486.got - 2010.06.03 22:52:26.
