data_PCOD9316728
_publ_section_title
;
Structure prediction by ZEFSAII (Michael W. Deem and Ramdas Pophale) SiO2 
 PCOD9316728
Probable space group: C 2 2 21
;
_chemical_formula_sum "Si O2"
_cell_formula_units_Z 36
_cell_length_a 20.466410
_cell_length_b 5.245808
_cell_length_c 13.824913
_cell_angle_alpha 90.000000
_cell_angle_beta 90.000000
_cell_angle_gamma 90.000000
_cell_volume 1484.282162
_symmetry_space_group_name_H-M "C 2 2 21"
_symmetry_group_IT_number 20
_symmetry_cell_setting 'orthorhombic'
loop_
_space_group_symop_operation_xyz
x,y,z
-x,-y,1/2+z
x,-y,-z
-x,y,1/2-z
1/2+x,1/2+y,z
1/2-x,1/2-y,1/2+z
1/2+x,1/2-y,-z
1/2-x,1/2+y,1/2-z
loop_
_atom_site_type_symbol
_atom_site_label
_atom_site_fract_x
_atom_site_fract_y
_atom_site_fract_z
Si Si1 0.537449 0.959567 0.116319
Si Si2 0.477217 0.533840 0.890883
Si Si3 0.646200 0.500000 0.500000
Si Si4 0.260284 0.829324 0.119530
Si Si5 0.682641 0.831554 0.164577
O O1 0.483152 0.752277 0.146799
O O2 0.605718 0.839214 0.147866
O O3 0.519057 0.240396 0.153970
O O4 0.537376 0.000000 0.000000
O O5 0.504908 0.500000 0.000000
O O6 0.401761 0.597819 0.913930
O O7 0.688240 0.267256 0.540144
O O8 0.298082 0.827821 0.222436
O O9 0.209091 0.597213 0.123079
O O10 0.220032 0.092703 0.115603
#
# Coordination Sequence:
#
# PCOD9316728 Si02
#       5
#     8   8   4   8   8
#     4  10  18  36  60  89 120 154 200 262 297 360
#     4   8  19  33  59  86 118 152 202 256 290 358
#     4  10  22  42  62  92 126 168 214 252 324 382
#     4  10  23  40  61  90 129 167 201 266 312 385
#     4  10  22  40  61  91 128 161 210 261 320 365
#
# _framework density 24.254149000000002
#
# number of rings (size 3 to 8) (size 9 to 14) (size 15 to 20)
#    0.667    1.778    0.000    1.333    1.556    4.444 
#    0.000    1.111    0.000    2.667    0.000    0.000 
#    0.000    0.000    0.000    0.000    0.000    0.000 
#
# Total GULP energy -100507.180968 kJ/mol
# GULP energy per Si atom -5583.732276 kJ/mol
# Density = 2.419895 g / cm^3
# Si number density = 24.254149 Si / 1000 Ang^3
#
#
#
# Elastic Constant Matrix: (Units=GPa)
#
#
# Indices 1 2 3 4 5 6 
#
# 1 124.0931 59.8815 35.2258 0.0000 0.0000 0.0000
# 2 59.8815 179.6216 20.0777 0.0000 0.0000 0.0000
# 3 35.2258 20.0777 68.5549 0.0000 0.0000 0.0000
# 4 0.0000 0.0000 0.0000 -1.5335 0.0000 0.0000
# 5 0.0000 0.0000 0.0000 0.0000 9.1262 0.0000
# 6 0.0000 0.0000 0.0000 0.0000 0.0000 38.1529
#
#
#
# Elastic Compliance Matrix: (Units=1/GPa)
#
#
# Indices 1 2 3 4 5 6 
#
# 1 0.010887 -0.003106 -0.004684 0.000000 0.000000 0.000000
# 2 -0.003106 0.006642 -0.000349 0.000000 0.000000 0.000000
# 3 -0.004684 -0.000349 0.017096 0.000000 0.000000 0.000000
# 4 0.000000 0.000000 0.000000 -0.652120 0.000000 0.000000
# 5 0.000000 0.000000 0.000000 0.000000 0.109574 0.000000
# 6 0.000000 0.000000 0.000000 0.000000 0.000000 0.026210
#
#
# Mechanical properties :
#
#
# Convention : Reuss Voigt Hill
#
# Bulk Modulus (GPa) = 54.50876 66.95995 60.73435
# Shear Modulus (GPa) = -10.88575 26.28811 7.70118
#
# Velocity S-wave (km/s) = -2.12084 3.29577 1.78384
# Velocity P-wave (km/s) = 4.06516 6.49233 5.41645
#
# Compressibility (1/GPa) = 0.01834568
#
# Stress axis : x y z
#
# Youngs Moduli (GPa) = 91.85305 150.56363 58.49258
#
# Poissons Ratio (x) = 0.46762 0.27401
# Poissons Ratio (y) = 0.28528 0.02043
# Poissons Ratio (z) = 0.43028 0.05259
#
# Static dielectric constant tensor:
#      x y z
#    x 1.894370 0.000000 0.000000 
#    y 0.000000 1.936080 0.000000 
#    z 0.000000 0.000000 1.999100 
# 
# From -- ./inp_files/21596.got.cif
#   From: 2010.05.17/outbox.cif.g08.bks.cpg/sg20_11_cif.got.tgz:21596.got - 2010.06.03 22:52:26.
