data_PCOD9316198
_publ_section_title
;
Structure prediction by ZEFSAII (Michael W. Deem and Ramdas Pophale) SiO2 
 PCOD9316198
Probable space group: C 2 2 21
;
_chemical_formula_sum "Si O2"
_cell_formula_units_Z 48
_cell_length_a 29.128894
_cell_length_b 22.047215
_cell_length_c 5.208976
_cell_angle_alpha 90.000000
_cell_angle_beta 90.000000
_cell_angle_gamma 90.000000
_cell_volume 3345.261627
_symmetry_space_group_name_H-M "C 2 2 21"
_symmetry_group_IT_number 20
_symmetry_cell_setting 'orthorhombic'
loop_
_space_group_symop_operation_xyz
x,y,z
-x,-y,1/2+z
x,-y,-z
-x,y,1/2-z
1/2+x,1/2+y,z
1/2-x,1/2-y,1/2+z
1/2+x,1/2-y,-z
1/2-x,1/2+y,1/2-z
loop_
_atom_site_type_symbol
_atom_site_label
_atom_site_fract_x
_atom_site_fract_y
_atom_site_fract_z
Si Si1 0.000000 0.420760 0.250000
Si Si2 0.191739 0.732933 0.204638
Si Si3 0.702299 0.037353 0.750756
Si Si4 0.500000 0.164293 0.250000
Si Si5 0.234861 0.326800 0.295187
Si Si6 0.399094 0.914604 0.273288
Si Si7 0.400946 0.171455 0.226683
O O1 0.000001 0.378897 0.501627
O O2 0.051383 0.449422 0.244839
O O3 0.216157 0.692898 0.426247
O O4 0.213820 0.799621 0.228156
O O5 0.138267 0.721386 0.246950
O O6 0.205852 0.707080 0.926803
O O7 0.726212 0.102654 0.743843
O O8 0.646876 0.046360 0.755435
O O9 0.714417 0.000000 0.500000
O O10 0.715589 0.000000 0.000000
O O11 0.452010 0.198645 0.244033
O O12 0.396657 0.876837 0.539290
O O13 0.396886 0.866554 0.037613
#
# Coordination Sequence:
#
# PCOD9316198 Si02
#       7
#     4   8   8   4   8   8   8
#     4   8  16  28  42  55  78 104 136 183 204 242
#     4  10  17  30  50  63  85 103 135 181 210 247
#     4  12  22  32  44  60  84 113 142 178 212 251
#     4   8  16  22  40  65  82 104 130 157 218 254
#     4  10  20  31  44  67  81 107 140 174 215 250
#     4  10  18  30  43  60  79 107 145 172 214 243
#     4  10  15  28  45  63  84 106 132 174 207 255
#
# _framework density 14.348653000000001
#
# number of rings (size 3 to 8) (size 9 to 14) (size 15 to 20)
#    0.000    2.000    3.333    2.000    0.000    0.000 
#    0.000    0.833    0.000    0.000    0.000    0.000 
#    0.000    0.000    0.000    1.500    0.000    0.000 
#
# Total GULP energy -133744.651854 kJ/mol
# GULP energy per Si atom -5572.693827 kJ/mol
# Density = 1.431600 g / cm^3
# Si number density = 14.348653 Si / 1000 Ang^3
#
#
#
# Elastic Constant Matrix: (Units=GPa)
#
#
# Indices 1 2 3 4 5 6 
#
# 1 52.6068 29.3809 10.7606 0.0000 0.0000 0.0000
# 2 29.3809 66.1756 11.5434 0.0000 0.0000 0.0000
# 3 10.7606 11.5434 64.3023 0.0000 0.0000 0.0000
# 4 0.0000 0.0000 0.0000 17.8864 0.0000 0.0000
# 5 0.0000 0.0000 0.0000 0.0000 19.5964 0.0000
# 6 0.0000 0.0000 0.0000 0.0000 0.0000 15.2389
#
#
#
# Elastic Compliance Matrix: (Units=1/GPa)
#
#
# Indices 1 2 3 4 5 6 
#
# 1 0.025607 -0.010965 -0.002317 0.000000 0.000000 0.000000
# 2 -0.010965 0.020295 -0.001808 0.000000 0.000000 0.000000
# 3 -0.002317 -0.001808 0.016264 0.000000 0.000000 0.000000
# 4 0.000000 0.000000 0.000000 0.055908 0.000000 0.000000
# 5 0.000000 0.000000 0.000000 0.000000 0.051030 0.000000
# 6 0.000000 0.000000 0.000000 0.000000 0.000000 0.065621
#
#
# Mechanical properties :
#
#
# Convention : Reuss Voigt Hill
#
# Bulk Modulus (GPa) = 31.26409 31.82827 31.54618
# Shear Modulus (GPa) = 18.14440 19.30432 18.72436
#
# Velocity S-wave (km/s) = 3.55989 3.67191 3.61634
# Velocity P-wave (km/s) = 6.22360 6.34094 6.28255
#
# Compressibility (1/GPa) = 0.03198558
#
# Stress axis : x y z
#
# Youngs Moduli (GPa) = 39.05224 49.27323 61.48593
#
# Poissons Ratio (x) = 0.54027 0.14245
# Poissons Ratio (y) = 0.42820 0.11119
# Poissons Ratio (z) = 0.09047 0.08911
#
# Static dielectric constant tensor:
#      x y z
#    x 1.525100 0.000000 0.000000 
#    y 0.000000 1.434480 0.000000 
#    z 0.000000 0.000000 1.492070 
# 
# From -- ./inp_files/2747.got.cif
#   From: 2010.05.17/outbox.cif.g08.bks.cpg/sg20_2_cif.got.tgz:2747.got - 2010.06.03 22:52:26.
