data_PCOD9316006
_publ_section_title
;
Structure prediction by ZEFSAII (Michael W. Deem and Ramdas Pophale) SiO2 
 PCOD9316006
Probable space group: P 21 21 21
;
_chemical_formula_sum "Si O2"
_cell_formula_units_Z 28
_cell_length_a 8.278745
_cell_length_b 10.768638
_cell_length_c 12.287577
_cell_angle_alpha 90.000000
_cell_angle_beta 90.000000
_cell_angle_gamma 90.000000
_cell_volume 1095.447418
_symmetry_space_group_name_H-M "P 21 21 21"
_symmetry_group_IT_number 19
_symmetry_cell_setting 'orthorhombic'
loop_
_space_group_symop_operation_xyz
x,y,z
1/2-x,-y,1/2+z
1/2+x,1/2-y,-z
-x,1/2+y,1/2-z
loop_
_atom_site_type_symbol
_atom_site_label
_atom_site_fract_x
_atom_site_fract_y
_atom_site_fract_z
Si Si1 0.556724 0.025634 0.488604
Si Si2 0.393196 0.534614 0.577290
Si Si3 0.625820 0.516800 0.401157
Si Si4 0.415271 0.160892 0.306779
Si Si5 0.654751 0.300583 0.026382
Si Si6 0.913868 0.816060 0.204069
Si Si7 0.243304 0.201536 0.721600
O O1 0.411616 0.085800 0.419103
O O2 0.597584 0.101873 0.595815
O O3 0.719806 0.029088 0.417858
O O4 0.504043 0.882593 0.499606
O O5 0.519887 0.462276 0.500398
O O6 0.369601 0.658862 0.503931
O O7 0.435950 0.589301 0.694564
O O8 0.540224 0.567600 0.292023
O O9 0.713214 0.635732 0.450904
O O10 0.755523 0.423726 0.349468
O O11 0.248568 0.233973 0.285578
O O12 0.570229 0.248606 0.317737
O O13 0.711160 0.315353 0.150396
O O14 0.080973 0.736499 0.204918
#
# Coordination Sequence:
#
# PCOD9316006 Si02
#       7
#     4   4   4   4   4   4   4
#     4  12  29  48  75 112 157 201 253 321 398 454
#     4  12  26  47  79 110 150 204 262 318 383 464
#     4  12  24  46  73 112 154 193 260 331 376 454
#     4  12  28  50  76 108 159 199 255 323 385 459
#     4  12  23  45  75 113 148 197 262 318 375 463
#     4  12  28  49  75 113 152 203 263 308 391 472
#     4  12  26  49  77 110 154 205 253 317 392 456
#
# _framework density 25.560333
#
# number of rings (size 3 to 8) (size 9 to 14) (size 15 to 20)
#    0.000    0.000    7.143    2.571    4.000    0.000 
#    5.143    0.000    0.000    0.000    0.000    0.000 
#    0.000    0.000    0.000    0.000    0.000    0.000 
#
# Total GULP energy -156751.502548 kJ/mol
# GULP energy per Si atom -5598.267948 kJ/mol
# Density = 2.550216 g / cm^3
# Si number density = 25.560333 Si / 1000 Ang^3
#
#
#
# Elastic Constant Matrix: (Units=GPa)
#
#
# Indices 1 2 3 4 5 6 
#
# 1 145.3282 19.5371 1.8204 0.0000 0.0000 0.0000
# 2 19.5371 34.1157 28.5838 0.0000 0.0000 0.0000
# 3 1.8204 28.5838 125.9504 0.0000 0.0000 0.0000
# 4 0.0000 0.0000 0.0000 26.7783 0.0000 0.0000
# 5 0.0000 0.0000 0.0000 0.0000 40.0038 0.0000
# 6 0.0000 0.0000 0.0000 0.0000 0.0000 38.4625
#
#
#
# Elastic Compliance Matrix: (Units=1/GPa)
#
#
# Indices 1 2 3 4 5 6 
#
# 1 0.007572 -0.005241 0.001080 0.000000 0.000000 0.000000
# 2 -0.005241 0.039822 -0.008962 0.000000 0.000000 0.000000
# 3 0.001080 -0.008962 0.009958 0.000000 0.000000 0.000000
# 4 0.000000 0.000000 0.000000 0.037344 0.000000 0.000000
# 5 0.000000 0.000000 0.000000 0.000000 0.024998 0.000000
# 6 0.000000 0.000000 0.000000 0.000000 0.000000 0.025999
#
#
# Mechanical properties :
#
#
# Convention : Reuss Voigt Hill
#
# Bulk Modulus (GPa) = 32.14787 45.03077 38.58932
# Shear Modulus (GPa) = 27.42625 38.07912 32.75268
#
# Velocity S-wave (km/s) = 3.27922 3.86395 3.58353
# Velocity P-wave (km/s) = 5.19060 6.12882 5.67912
#
# Compressibility (1/GPa) = 0.03110626
#
# Stress axis : x y z
#
# Youngs Moduli (GPa) = 132.06466 25.11168 100.42347
#
# Poissons Ratio (x) = 0.13162 -0.10846
# Poissons Ratio (y) = 0.69218 0.89996
# Poissons Ratio (z) = -0.14263 0.22504
#
# Static dielectric constant tensor:
#      x y z
#    x 2.137940 0.000000 0.000000 
#    y 0.000000 2.027660 0.000000 
#    z 0.000000 0.000000 1.939440 
# 
# From -- ./inp_files/4592.got.cif
#   From: 2010.05.17/outbox.cif.g08.bks.cpg/sg19_3_cif.got.tgz:4592.got - 2010.06.03 22:46:19.
