data_PCOD9316746
_publ_section_title
;
Structure prediction by ZEFSAII (Michael W. Deem and Ramdas Pophale) SiO2 
 PCOD9316746
Probable space group: C 2 2 21
;
_chemical_formula_sum "Si O2"
_cell_formula_units_Z 56
_cell_length_a 12.917520
_cell_length_b 15.196430
_cell_length_c 15.044533
_cell_angle_alpha 90.000000
_cell_angle_beta 90.000000
_cell_angle_gamma 90.000000
_cell_volume 2953.244663
_symmetry_space_group_name_H-M "C 2 2 21"
_symmetry_group_IT_number 20
_symmetry_cell_setting 'orthorhombic'
loop_
_space_group_symop_operation_xyz
x,y,z
-x,-y,1/2+z
x,-y,-z
-x,y,1/2-z
1/2+x,1/2+y,z
1/2-x,1/2-y,1/2+z
1/2+x,1/2-y,-z
1/2-x,1/2+y,1/2-z
loop_
_atom_site_type_symbol
_atom_site_label
_atom_site_fract_x
_atom_site_fract_y
_atom_site_fract_z
Si Si1 0.519608 0.457665 0.645661
Si Si2 0.000000 0.739259 0.250000
Si Si3 0.720514 0.354684 0.113983
Si Si4 0.331820 0.386727 0.191568
Si Si5 0.963606 0.721118 0.436644
Si Si6 0.154999 0.000000 0.000000
Si Si7 0.368482 0.706057 0.066280
Si Si8 0.188747 0.398909 0.030120
O O1 0.500000 0.458010 0.750000
O O2 0.601326 0.538640 0.640046
O O3 0.422730 0.476496 0.581214
O O4 0.562378 0.362115 0.620557
O O5 0.908479 0.803840 0.212596
O O6 0.975714 0.682731 0.337297
O O7 0.704310 0.404658 0.207292
O O8 0.617251 0.299881 0.085953
O O9 0.727924 0.422368 0.033616
O O10 0.815324 0.286743 0.117837
O O11 0.231461 0.378962 0.128988
O O12 0.914996 0.652937 0.505534
O O13 0.065431 0.759271 0.482865
O O14 0.274667 0.647086 0.031270
O O15 0.181375 0.500000 0.000000
#
# Coordination Sequence:
#
# PCOD9316746 Si02
#       8
#     8   4   8   8   8   4   8   8
#     4  12  21  34  66  93 116 160 211 261 305 362
#     4  10  18  36  64  90 120 164 212 252 306 378
#     4  10  23  38  60  92 128 159 203 259 313 368
#     4  11  19  36  60  93 123 159 203 257 312 372
#     4  10  21  39  61  91 124 165 207 256 313 364
#     4  12  20  40  62  90 124 156 208 264 306 370
#     4  11  22  40  59  89 124 160 202 257 313 359
#     4  11  22  37  64  89 121 163 205 254 307 373
#
# _framework density 18.962194
#
# number of rings (size 3 to 8) (size 9 to 14) (size 15 to 20)
#    0.000    1.143    6.429    1.714    0.000    1.143 
#    1.286    1.429    0.000    0.000    0.000    0.000 
#    0.000    0.000    0.000    0.000    0.000    0.000 
#
# Total GULP energy -155984.011248 kJ/mol
# GULP energy per Si atom -5570.857545 kJ/mol
# Density = 1.891904 g / cm^3
# Si number density = 18.962194 Si / 1000 Ang^3
#
#
#
# Elastic Constant Matrix: (Units=GPa)
#
#
# Indices 1 2 3 4 5 6 
#
# 1 16.8067 10.9878 -6.3308 0.0000 0.0000 0.0000
# 2 10.9878 62.1201 11.9674 0.0000 0.0000 0.0000
# 3 -6.3308 11.9674 78.8176 0.0000 0.0000 0.0000
# 4 0.0000 0.0000 0.0000 23.6195 0.0000 0.0000
# 5 0.0000 0.0000 0.0000 0.0000 28.4604 0.0000
# 6 0.0000 0.0000 0.0000 0.0000 0.0000 7.3179
#
#
#
# Elastic Compliance Matrix: (Units=1/GPa)
#
#
# Indices 1 2 3 4 5 6 
#
# 1 0.071785 -0.014224 0.007926 0.000000 0.000000 0.000000
# 2 -0.014224 0.019401 -0.004088 0.000000 0.000000 0.000000
# 3 0.007926 -0.004088 0.013945 0.000000 0.000000 0.000000
# 4 0.000000 0.000000 0.000000 0.042338 0.000000 0.000000
# 5 0.000000 0.000000 0.000000 0.000000 0.035136 0.000000
# 6 0.000000 0.000000 0.000000 0.000000 0.000000 0.136652
#
#
# Mechanical properties :
#
#
# Convention : Reuss Voigt Hill
#
# Bulk Modulus (GPa) = 11.85431 21.22148 16.53789
# Shear Modulus (GPa) = 13.58139 21.28756 17.43447
#
# Velocity S-wave (km/s) = 2.67916 3.35420 3.03551
# Velocity P-wave (km/s) = 3.97940 5.12022 4.58543
#
# Compressibility (1/GPa) = 0.08435753
#
# Stress axis : x y z
#
# Youngs Moduli (GPa) = 13.93048 51.54252 71.71081
#
# Poissons Ratio (x) = 0.73315 -0.56836
# Poissons Ratio (y) = 0.19815 0.29318
# Poissons Ratio (z) = -0.11041 0.21073
#
# Static dielectric constant tensor:
#      x y z
#    x 1.700400 0.000000 0.000000 
#    y 0.000000 1.712750 0.000000 
#    z 0.000000 0.000000 1.701240 
# 
# From -- ./inp_files/20879.got.cif
#   From: 2010.05.17/outbox.cif.g08.bks.cpg/sg20_11_cif.got.tgz:20879.got - 2010.06.03 22:52:26.
