data_PCOD9316629
_publ_section_title
;
Structure prediction by ZEFSAII (Michael W. Deem and Ramdas Pophale) SiO2 
 PCOD9316629
Probable space group: C 2 2 21
;
_chemical_formula_sum "Si O2"
_cell_formula_units_Z 64
_cell_length_a 14.918520
_cell_length_b 13.548219
_cell_length_c 18.603003
_cell_angle_alpha 90.000000
_cell_angle_beta 90.000000
_cell_angle_gamma 90.000000
_cell_volume 3760.027360
_symmetry_space_group_name_H-M "C 2 2 21"
_symmetry_group_IT_number 20
_symmetry_cell_setting 'orthorhombic'
loop_
_space_group_symop_operation_xyz
x,y,z
-x,-y,1/2+z
x,-y,-z
-x,y,1/2-z
1/2+x,1/2+y,z
1/2-x,1/2-y,1/2+z
1/2+x,1/2-y,-z
1/2-x,1/2+y,1/2-z
loop_
_atom_site_type_symbol
_atom_site_label
_atom_site_fract_x
_atom_site_fract_y
_atom_site_fract_z
Si Si1 0.029107 0.132252 0.832551
Si Si2 0.812073 0.607430 0.532296
Si Si3 0.821416 0.012159 0.286816
Si Si4 0.769135 0.217741 0.240668
Si Si5 0.669281 0.365762 0.344974
Si Si6 0.949085 0.530511 0.641696
Si Si7 0.363665 0.917071 0.203716
Si Si8 0.365007 0.821581 0.616265
O O1 0.093725 0.036776 0.827099
O O2 0.085502 0.220918 0.864920
O O3 0.000000 0.154245 0.750000
O O4 0.933119 0.128972 0.870519
O O5 0.789671 0.500000 0.500000
O O6 0.736029 0.635371 0.588575
O O7 0.902362 0.592728 0.578755
O O8 0.826549 0.676811 0.464104
O O9 0.820822 0.960340 0.207836
O O10 0.725632 0.976838 0.317961
O O11 0.821174 0.129514 0.279838
O O12 0.699339 0.274042 0.293881
O O13 0.833887 0.303127 0.210320
O O14 0.713168 0.170187 0.175532
O O15 0.896711 0.552270 0.716298
O O16 0.930732 0.415641 0.624478
O O17 0.052010 0.558996 0.653650
#
# Coordination Sequence:
#
# PCOD9316629 Si02
#       8
#     8   8   8   8   8   8   8   8
#     4  10  20  35  55  86 114 145 195 243 276 346
#     4  10  20  39  58  79 117 149 191 243 296 353
#     4  10  18  34  56  86 116 144 190 248 283 340
#     4  11  19  35  60  88 112 153 191 238 305 331
#     4  10  20  38  58  82 116 150 197 240 285 352
#     4  10  20  34  54  86 111 149 188 249 290 341
#     4  10  19  32  56  83 118 138 194 244 289 333
#     4  11  20  33  62  85 110 153 196 238 293 349
#
# _framework density 17.021153999999999
#
# number of rings (size 3 to 8) (size 9 to 14) (size 15 to 20)
#    0.000    1.750    7.500    0.750    3.500    0.000 
#    9.000    0.000    2.750    0.000    0.000    0.000 
#    0.000    0.000    0.000    0.000    0.000    0.000 
#
# Total GULP energy -178314.365128 kJ/mol
# GULP energy per Si atom -5572.323910 kJ/mol
# Density = 1.698241 g / cm^3
# Si number density = 17.021154 Si / 1000 Ang^3
#
#
#
# Elastic Constant Matrix: (Units=GPa)
#
#
# Indices 1 2 3 4 5 6 
#
# 1 103.7618 31.1635 35.8807 0.0000 0.0000 0.0000
# 2 31.1635 73.3505 8.9881 0.0000 0.0000 0.0000
# 3 35.8807 8.9881 66.8985 0.0000 0.0000 0.0000
# 4 0.0000 0.0000 0.0000 15.3579 0.0000 0.0000
# 5 0.0000 0.0000 0.0000 0.0000 23.2575 0.0000
# 6 0.0000 0.0000 0.0000 0.0000 0.0000 17.0461
#
#
#
# Elastic Compliance Matrix: (Units=1/GPa)
#
#
# Indices 1 2 3 4 5 6 
#
# 1 0.013351 -0.004875 -0.006506 0.000000 0.000000 0.000000
# 2 -0.004875 0.015642 0.000513 0.000000 0.000000 0.000000
# 3 -0.006506 0.000513 0.018368 0.000000 0.000000 0.000000
# 4 0.000000 0.000000 0.000000 0.065113 0.000000 0.000000
# 5 0.000000 0.000000 0.000000 0.000000 0.042997 0.000000
# 6 0.000000 0.000000 0.000000 0.000000 0.000000 0.058664
#
#
# Mechanical properties :
#
#
# Convention : Reuss Voigt Hill
#
# Bulk Modulus (GPa) = 39.02334 44.00836 41.51585
# Shear Modulus (GPa) = 20.45713 22.33087 21.39400
#
# Velocity S-wave (km/s) = 3.47055 3.62601 3.54913
# Velocity P-wave (km/s) = 6.24786 6.59104 6.42175
#
# Compressibility (1/GPa) = 0.02562569
#
# Stress axis : x y z
#
# Youngs Moduli (GPa) = 74.89843 63.93223 54.44107
#
# Poissons Ratio (x) = 0.31168 0.35419
# Poissons Ratio (y) = 0.36515 -0.02794
# Poissons Ratio (z) = 0.48729 -0.03282
#
# Static dielectric constant tensor:
#      x y z
#    x 1.624390 0.000000 0.000000 
#    y 0.000000 1.578350 0.000000 
#    z 0.000000 0.000000 1.572660 
# 
# From -- ./inp_files/25029.got.cif
#   From: 2010.05.17/outbox.cif.g08.bks.cpg/sg20_13_cif.got.tgz:25029.got - 2010.06.03 22:52:26.
