data_PCOD9316793
_publ_section_title
;
Structure prediction by ZEFSAII (Michael W. Deem and Ramdas Pophale) SiO2 
 PCOD9316793
Probable space group: C 2 2 21
;
_chemical_formula_sum "Si O2"
_cell_formula_units_Z 64
_cell_length_a 16.361334
_cell_length_b 11.407748
_cell_length_c 19.392179
_cell_angle_alpha 90.000000
_cell_angle_beta 90.000000
_cell_angle_gamma 90.000000
_cell_volume 3619.472161
_symmetry_space_group_name_H-M "C 2 2 21"
_symmetry_group_IT_number 20
_symmetry_cell_setting 'orthorhombic'
loop_
_space_group_symop_operation_xyz
x,y,z
-x,-y,1/2+z
x,-y,-z
-x,y,1/2-z
1/2+x,1/2+y,z
1/2-x,1/2-y,1/2+z
1/2+x,1/2-y,-z
1/2-x,1/2+y,1/2-z
loop_
_atom_site_type_symbol
_atom_site_label
_atom_site_fract_x
_atom_site_fract_y
_atom_site_fract_z
Si Si1 0.624644 0.787070 0.147362
Si Si2 0.278219 0.597071 0.596407
Si Si3 0.519428 0.599876 0.328774
Si Si4 0.142096 0.695118 0.692039
Si Si5 0.260783 0.167436 0.058166
Si Si6 0.539003 0.421868 0.068161
Si Si7 0.447750 0.183144 0.038808
Si Si8 0.516384 0.941945 0.394262
O O1 0.556088 0.683766 0.148211
O O2 0.651643 0.805237 0.226020
O O3 0.698739 0.749055 0.099312
O O4 0.574991 0.899301 0.120718
O O5 0.224831 0.665939 0.651997
O O6 0.245321 0.463627 0.590200
O O7 0.265802 0.653975 0.521208
O O8 0.375074 0.592743 0.607653
O O9 0.500000 0.564542 0.250000
O O10 0.599780 0.681361 0.328416
O O11 0.521070 0.493111 0.381509
O O12 0.074881 0.598880 0.667880
O O13 0.354086 0.208346 0.057884
O O14 0.502178 0.298162 0.045616
O O15 0.554864 0.500000 0.000000
O O16 0.477807 0.077809 0.087719
O O17 0.451780 0.129773 0.961533
#
# Coordination Sequence:
#
# PCOD9316793 Si02
#       8
#     8   8   8   8   8   8   8   8
#     4  10  20  36  63  87 117 156 201 245 295 364
#     4  11  19  36  64  86 114 153 207 245 287 359
#     4   9  19  37  58  83 116 154 195 234 289 359
#     4  10  19  36  63  88 112 160 206 238 291 364
#     4  11  19  37  57  91 115 151 199 253 292 343
#     4  12  22  37  60  90 115 156 196 247 301 356
#     4  11  22  35  62  89 119 149 200 255 301 343
#     4  10  18  38  60  89 114 154 202 248 296 361
#
# _framework density 17.682137000000001
#
# number of rings (size 3 to 8) (size 9 to 14) (size 15 to 20)
#    0.000    1.500    5.000    4.125    0.000    0.000 
#    2.250    3.750    2.750    0.000    0.000    0.000 
#    0.000    0.000    0.000    0.000    0.000    0.000 
#
# Total GULP energy -178674.424196 kJ/mol
# GULP energy per Si atom -5583.575756 kJ/mol
# Density = 1.764189 g / cm^3
# Si number density = 17.682137 Si / 1000 Ang^3
#
#
#
# Elastic Constant Matrix: (Units=GPa)
#
#
# Indices 1 2 3 4 5 6 
#
# 1 108.4183 30.4816 33.4834 0.0000 0.0000 0.0000
# 2 30.4816 61.9623 22.4130 0.0000 0.0000 0.0000
# 3 33.4834 22.4130 53.3832 0.0000 0.0000 0.0000
# 4 0.0000 0.0000 0.0000 20.0863 0.0000 0.0000
# 5 0.0000 0.0000 0.0000 0.0000 26.9941 0.0000
# 6 0.0000 0.0000 0.0000 0.0000 0.0000 20.4374
#
#
#
# Elastic Compliance Matrix: (Units=1/GPa)
#
#
# Indices 1 2 3 4 5 6 
#
# 1 0.012153 -0.003798 -0.006028 0.000000 0.000000 0.000000
# 2 -0.003798 0.020216 -0.006105 0.000000 0.000000 0.000000
# 3 -0.006028 -0.006105 0.025077 0.000000 0.000000 0.000000
# 4 0.000000 0.000000 0.000000 0.049785 0.000000 0.000000
# 5 0.000000 0.000000 0.000000 0.000000 0.037045 0.000000
# 6 0.000000 0.000000 0.000000 0.000000 0.000000 0.048930
#
#
# Mechanical properties :
#
#
# Convention : Reuss Voigt Hill
#
# Bulk Modulus (GPa) = 39.08916 44.05776 41.57346
# Shear Modulus (GPa) = 21.40445 22.66260 22.03353
#
# Velocity S-wave (km/s) = 3.48302 3.58392 3.53383
# Velocity P-wave (km/s) = 6.19110 6.48819 6.34139
#
# Compressibility (1/GPa) = 0.02558254
#
# Stress axis : x y z
#
# Youngs Moduli (GPa) = 82.28388 49.46657 39.87750
#
# Poissons Ratio (x) = 0.18788 0.24039
# Poissons Ratio (y) = 0.31252 0.24346
# Poissons Ratio (z) = 0.49602 0.30201
#
# Static dielectric constant tensor:
#      x y z
#    x 1.602400 0.000000 0.000000 
#    y 0.000000 1.600070 0.000000 
#    z 0.000000 0.000000 1.602580 
# 
# From -- ./inp_files/24975.got.cif
#   From: 2010.05.17/outbox.cif.g08.bks.cpg/sg20_13_cif.got.tgz:24975.got - 2010.06.03 22:52:26.
