data_PCOD9316351
_publ_section_title
;
Structure prediction by ZEFSAII (Michael W. Deem and Ramdas Pophale) SiO2 
 PCOD9316351
Probable space group: C 2 2 21
;
_chemical_formula_sum "Si O2"
_cell_formula_units_Z 40
_cell_length_a 7.057212
_cell_length_b 22.669970
_cell_length_c 9.999539
_cell_angle_alpha 90.000000
_cell_angle_beta 90.000000
_cell_angle_gamma 90.000000
_cell_volume 1599.794089
_symmetry_space_group_name_H-M "C 2 2 21"
_symmetry_group_IT_number 20
_symmetry_cell_setting 'orthorhombic'
loop_
_space_group_symop_operation_xyz
x,y,z
-x,-y,1/2+z
x,-y,-z
-x,y,1/2-z
1/2+x,1/2+y,z
1/2-x,1/2-y,1/2+z
1/2+x,1/2-y,-z
1/2-x,1/2+y,1/2-z
loop_
_atom_site_type_symbol
_atom_site_label
_atom_site_fract_x
_atom_site_fract_y
_atom_site_fract_z
Si Si1 0.260167 0.500000 0.000000
Si Si2 0.271197 0.285762 0.235633
Si Si3 0.215105 0.851306 0.781002
Si Si4 0.500000 0.524386 0.750000
Si Si5 0.173778 0.118118 0.938451
Si Si6 0.218825 0.373177 0.008763
O O1 0.391971 0.490441 0.868528
O O2 0.152145 0.439957 0.032997
O O3 0.500000 0.283650 0.250000
O O4 0.211491 0.219413 0.204554
O O5 0.235825 0.324373 0.369029
O O6 0.177726 0.323915 0.117227
O O7 0.327935 0.859419 0.643802
O O8 0.000000 0.869277 0.750000
O O9 0.267434 0.886085 0.915893
O O10 0.653508 0.565930 0.828936
O O11 0.949439 0.126148 0.971139
#
# Coordination Sequence:
#
# PCOD9316351 Si02
#       6
#     4   8   8   4   8   8
#     4  10  18  28  46  68  98 130 164 200 254 302
#     4  10  17  33  49  67 102 136 162 199 251 292
#     4  10  20  29  48  73 101 130 167 206 239 296
#     4  10  18  28  46  66  98 136 154 202 258 304
#     4   9  16  31  42  65 100 128 158 199 248 286
#     4   9  18  30  44  71  97 129 161 205 248 291
#
# _framework density 25.003219000000001
#
# number of rings (size 3 to 8) (size 9 to 14) (size 15 to 20)
#    0.000    2.400    5.000    1.200    7.000    0.000 
#    0.000    0.000    0.000    0.000    0.000    1.400 
#    0.000    7.200    0.000    0.000    0.000    0.000 
#
# Total GULP energy -111494.158437 kJ/mol
# GULP energy per Si atom -5574.707922 kJ/mol
# Density = 2.494631 g / cm^3
# Si number density = 25.003219 Si / 1000 Ang^3
#
#
#
# Elastic Constant Matrix: (Units=GPa)
#
#
# Indices 1 2 3 4 5 6 
#
# 1 93.0417 -1.0393 11.0833 0.0000 0.0000 0.0000
# 2 -1.0393 140.1141 40.6390 0.0000 0.0000 0.0000
# 3 11.0833 40.6390 167.4179 0.0000 0.0000 0.0000
# 4 0.0000 0.0000 0.0000 62.5413 0.0000 0.0000
# 5 0.0000 0.0000 0.0000 0.0000 -4.3804 0.0000
# 6 0.0000 0.0000 0.0000 0.0000 0.0000 8.0089
#
#
#
# Elastic Compliance Matrix: (Units=1/GPa)
#
#
# Indices 1 2 3 4 5 6 
#
# 1 0.010846 0.000311 -0.000793 0.000000 0.000000 0.000000
# 2 0.000311 0.007686 -0.001886 0.000000 0.000000 0.000000
# 3 -0.000793 -0.001886 0.006483 0.000000 0.000000 0.000000
# 4 0.000000 0.000000 0.000000 0.015989 0.000000 0.000000
# 5 0.000000 0.000000 0.000000 0.000000 -0.228289 0.000000
# 6 0.000000 0.000000 0.000000 0.000000 0.000000 0.124861
#
#
# Mechanical properties :
#
#
# Convention : Reuss Voigt Hill
#
# Bulk Modulus (GPa) = 49.31596 55.77108 52.54352
# Shear Modulus (GPa) = -98.18375 36.56001 -30.81187
#
# Velocity S-wave (km/s) = -6.27325 3.82804 -3.51424
# Velocity P-wave (km/s) = 5.71882 6.47244 2.14331
#
# Compressibility (1/GPa) = 0.02027741
#
# Stress axis : x y z
#
# Youngs Moduli (GPa) = 92.20118 130.09877 154.23778
#
# Poissons Ratio (x) = -0.04040 0.12237
# Poissons Ratio (y) = -0.02863 0.29095
# Poissons Ratio (z) = 0.07315 0.24541
#
# Static dielectric constant tensor:
#      x y z
#    x 2.042710 0.000000 0.000000 
#    y 0.000000 1.997110 0.000000 
#    z 0.000000 0.000000 1.998590 
# 
# From -- ./inp_files/6140.got.cif
#   From: 2010.05.17/outbox.cif.g08.bks.cpg/sg20_4_cif.got.tgz:6140.got - 2010.06.03 22:52:26.
