data_PCOD9316828
_publ_section_title
;
Structure prediction by ZEFSAII (Michael W. Deem and Ramdas Pophale) SiO2 
 PCOD9316828
Probable space group: C 2 2 21
;
_chemical_formula_sum "Si O2"
_cell_formula_units_Z 52
_cell_length_a 16.965200
_cell_length_b 14.251979
_cell_length_c 9.124510
_cell_angle_alpha 90.000000
_cell_angle_beta 90.000000
_cell_angle_gamma 90.000000
_cell_volume 2206.194050
_symmetry_space_group_name_H-M "C 2 2 21"
_symmetry_group_IT_number 20
_symmetry_cell_setting 'orthorhombic'
loop_
_space_group_symop_operation_xyz
x,y,z
-x,-y,1/2+z
x,-y,-z
-x,y,1/2-z
1/2+x,1/2+y,z
1/2-x,1/2-y,1/2+z
1/2+x,1/2-y,-z
1/2-x,1/2+y,1/2-z
loop_
_atom_site_type_symbol
_atom_site_label
_atom_site_fract_x
_atom_site_fract_y
_atom_site_fract_z
Si Si1 0.546979 0.824511 0.463341
Si Si2 0.500000 0.662286 0.250000
Si Si3 0.171027 0.123664 0.214209
Si Si4 0.000000 0.219643 0.750000
Si Si5 0.652925 0.656651 0.887004
Si Si6 0.441588 0.000000 0.500000
Si Si7 0.189392 0.348007 0.243901
Si Si8 0.180225 0.380782 0.906692
O O1 0.504060 0.736811 0.383051
O O2 0.545230 0.785904 0.630299
O O3 0.628861 0.852453 0.382108
O O4 0.494492 0.915668 0.441840
O O5 0.581102 0.605675 0.262860
O O6 0.183751 0.236273 0.218217
O O7 0.241347 0.090337 0.319449
O O8 0.169021 0.106836 0.041286
O O9 0.934975 0.153183 0.673907
O O10 0.722964 0.621621 0.785539
O O11 0.666374 0.769983 0.890707
O O12 0.393772 0.054023 0.369545
O O13 0.178138 0.392094 0.083339
#
# Coordination Sequence:
#
# PCOD9316828 Si02
#       8
#     8   4   8   4   8   4   8   8
#     4  11  23  35  55  84 127 175 209 248 316 377
#     4  10  18  39  56  84 119 150 200 268 326 360
#     4   9  18  33  57  80 110 148 202 262 312 371
#     4  12  22  33  56  94 117 166 212 260 324 382
#     4  10  20  36  54  85 119 152 211 267 314 370
#     4  12  22  40  56  86 134 174 224 240 294 408
#     4   9  21  35  55  77 116 156 201 265 313 360
#     4  10  21  37  55  82 114 171 212 248 311 369
#
# _framework density 23.570001999999999
#
# number of rings (size 3 to 8) (size 9 to 14) (size 15 to 20)
#    0.000    1.846    3.077    1.846   10.769    1.846 
#    0.000    0.000    0.000    0.000    0.000    3.231 
#    0.000    1.231    0.000    0.000    0.000    0.000 
#
# Total GULP energy -144898.126890 kJ/mol
# GULP energy per Si atom -5573.004880 kJ/mol
# Density = 2.351636 g / cm^3
# Si number density = 23.570002 Si / 1000 Ang^3
#
#
#
# Elastic Constant Matrix: (Units=GPa)
#
#
# Indices 1 2 3 4 5 6 
#
# 1 138.5193 4.0632 44.9907 0.0000 0.0000 0.0000
# 2 4.0632 51.6625 8.4624 0.0000 0.0000 0.0000
# 3 44.9907 8.4624 114.8087 0.0000 0.0000 0.0000
# 4 0.0000 0.0000 0.0000 0.1618 0.0000 0.0000
# 5 0.0000 0.0000 0.0000 0.0000 -12.5137 0.0000
# 6 0.0000 0.0000 0.0000 0.0000 0.0000 -285.2681
#
#
#
# Elastic Compliance Matrix: (Units=1/GPa)
#
#
# Indices 1 2 3 4 5 6 
#
# 1 0.008273 -0.000121 -0.003233 0.000000 0.000000 0.000000
# 2 -0.000121 0.019595 -0.001397 0.000000 0.000000 0.000000
# 3 -0.003233 -0.001397 0.010080 0.000000 0.000000 0.000000
# 4 0.000000 0.000000 0.000000 6.179224 0.000000 0.000000
# 5 0.000000 0.000000 0.000000 0.000000 -0.079912 0.000000
# 6 0.000000 0.000000 0.000000 0.000000 0.000000 -0.003505
#
#
# Mechanical properties :
#
#
# Convention : Reuss Voigt Hill
#
# Bulk Modulus (GPa) = 35.15467 46.66924 40.91196
# Shear Modulus (GPa) = 0.81265 -43.02571 -21.10653
#
# Velocity S-wave (km/s) = 0.58782 -4.27716 -2.99571
# Velocity P-wave (km/s) = 3.92531 2.13280 2.33016
#
# Compressibility (1/GPa) = 0.02844572
#
# Stress axis : x y z
#
# Youngs Moduli (GPa) = 120.87761 51.03416 99.20604
#
# Poissons Ratio (x) = 0.00618 0.32073
# Poissons Ratio (y) = 0.01464 0.13858
# Poissons Ratio (z) = 0.39080 0.07129
#
# Static dielectric constant tensor:
#      x y z
#    x 1.989620 0.000000 0.000000 
#    y 0.000000 1.876050 0.000000 
#    z 0.000000 0.000000 3.158420 
# 
# From -- ./inp_files/9572.got.cif
#   From: 2010.05.17/outbox.cif.g08.bks.cpg/sg20_5_cif.got.tgz:9572.got - 2010.06.03 22:52:26.
