data_PCOD9316370
_publ_section_title
;
Structure prediction by ZEFSAII (Michael W. Deem and Ramdas Pophale) SiO2 
 PCOD9316370
Probable space group: C 2 2 21
;
_chemical_formula_sum "Si O2"
_cell_formula_units_Z 48
_cell_length_a 22.370019
_cell_length_b 20.156973
_cell_length_c 5.743564
_cell_angle_alpha 90.000000
_cell_angle_beta 90.000000
_cell_angle_gamma 90.000000
_cell_volume 2589.841178
_symmetry_space_group_name_H-M "C 2 2 21"
_symmetry_group_IT_number 20
_symmetry_cell_setting 'orthorhombic'
loop_
_space_group_symop_operation_xyz
x,y,z
-x,-y,1/2+z
x,-y,-z
-x,y,1/2-z
1/2+x,1/2+y,z
1/2-x,1/2-y,1/2+z
1/2+x,1/2-y,-z
1/2-x,1/2+y,1/2-z
loop_
_atom_site_type_symbol
_atom_site_label
_atom_site_fract_x
_atom_site_fract_y
_atom_site_fract_z
Si Si1 0.934739 0.092311 0.818658
Si Si2 0.190253 0.967597 0.250750
Si Si3 0.327563 0.776278 0.817946
Si Si4 0.275403 0.339309 0.463435
Si Si5 0.441717 0.739915 0.603447
Si Si6 0.885160 0.821029 0.800168
O O1 0.881333 0.043884 0.753091
O O2 0.929993 0.163431 0.687197
O O3 0.000000 0.066238 0.750000
O O4 0.920647 0.118390 0.079873
O O5 0.218949 0.894597 0.233151
O O6 0.206096 0.000000 0.500000
O O7 0.206442 0.000000 0.000000
O O8 0.285406 0.732608 0.650698
O O9 0.387948 0.788372 0.675005
O O10 0.288298 0.836170 0.912171
O O11 0.351100 0.726927 0.019363
O O12 0.331510 0.348344 0.638218
O O13 0.500000 0.758937 0.750000
O O14 0.432932 0.726324 0.330656
#
# Coordination Sequence:
#
# PCOD9316370 Si02
#       6
#     8   8   8   8   8   8
#     4  10  21  35  52  73 100 149 203 247 277 323
#     4  12  26  41  55  75 114 160 199 248 293 333
#     4  10  19  30  58  81 103 142 181 243 288 352
#     4  11  20  35  54  84 107 145 199 240 301 353
#     4   9  19  33  51  83 109 144 179 232 305 350
#     4  10  17  34  53  79 109 141 181 242 297 345
#
# _framework density 18.533954999999999
#
# number of rings (size 3 to 8) (size 9 to 14) (size 15 to 20)
#    0.000    1.667    6.667    1.000    0.000    6.667 
#    0.000    0.000    0.000    0.000    0.000    0.000 
#    0.000    0.000    5.667    0.000    0.000    0.000 
#
# Total GULP energy -133645.785439 kJ/mol
# GULP energy per Si atom -5568.574393 kJ/mol
# Density = 1.849177 g / cm^3
# Si number density = 18.533955 Si / 1000 Ang^3
#
#
#
# Elastic Constant Matrix: (Units=GPa)
#
#
# Indices 1 2 3 4 5 6 
#
# 1 66.4614 11.1275 19.6980 0.0000 0.0000 0.0000
# 2 11.1275 23.8198 10.4120 0.0000 0.0000 0.0000
# 3 19.6980 10.4120 77.0167 0.0000 0.0000 0.0000
# 4 0.0000 0.0000 0.0000 29.0889 0.0000 0.0000
# 5 0.0000 0.0000 0.0000 0.0000 20.0263 0.0000
# 6 0.0000 0.0000 0.0000 0.0000 0.0000 17.7936
#
#
#
# Elastic Compliance Matrix: (Units=1/GPa)
#
#
# Indices 1 2 3 4 5 6 
#
# 1 0.017174 -0.006486 -0.003516 0.000000 0.000000 0.000000
# 2 -0.006486 0.047068 -0.004704 0.000000 0.000000 0.000000
# 3 -0.003516 -0.004704 0.014519 0.000000 0.000000 0.000000
# 4 0.000000 0.000000 0.000000 0.034377 0.000000 0.000000
# 5 0.000000 0.000000 0.000000 0.000000 0.049934 0.000000
# 6 0.000000 0.000000 0.000000 0.000000 0.000000 0.056200
#
#
# Mechanical properties :
#
#
# Convention : Reuss Voigt Hill
#
# Bulk Modulus (GPa) = 20.26364 27.75254 24.00809
# Shear Modulus (GPa) = 18.85828 21.78581 20.32205
#
# Velocity S-wave (km/s) = 3.19329 3.43221 3.31490
# Velocity P-wave (km/s) = 4.95511 5.54194 5.25672
#
# Compressibility (1/GPa) = 0.04934947
#
# Stress axis : x y z
#
# Youngs Moduli (GPa) = 58.22658 21.24577 68.87370
#
# Poissons Ratio (x) = 0.13781 0.24214
# Poissons Ratio (y) = 0.37767 0.32400
# Poissons Ratio (z) = 0.20470 0.09995
#
# Static dielectric constant tensor:
#      x y z
#    x 1.676650 0.000000 0.000000 
#    y 0.000000 1.642110 0.000000 
#    z 0.000000 0.000000 1.828510 
# 
# From -- ./inp_files/2728.got.cif
#   From: 2010.05.17/outbox.cif.g08.bks.cpg/sg20_2_cif.got.tgz:2728.got - 2010.06.03 22:52:26.
