data_PCOD9316584
_publ_section_title
;
Structure prediction by ZEFSAII (Michael W. Deem and Ramdas Pophale) SiO2 
 PCOD9316584
Probable space group: C 2 2 21
;
_chemical_formula_sum "Si O2"
_cell_formula_units_Z 44
_cell_length_a 23.379019
_cell_length_b 9.900111
_cell_length_c 8.060050
_cell_angle_alpha 90.000000
_cell_angle_beta 90.000000
_cell_angle_gamma 90.000000
_cell_volume 1865.537931
_symmetry_space_group_name_H-M "C 2 2 21"
_symmetry_group_IT_number 20
_symmetry_cell_setting 'orthorhombic'
loop_
_space_group_symop_operation_xyz
x,y,z
-x,-y,1/2+z
x,-y,-z
-x,y,1/2-z
1/2+x,1/2+y,z
1/2-x,1/2-y,1/2+z
1/2+x,1/2-y,-z
1/2-x,1/2+y,1/2-z
loop_
_atom_site_type_symbol
_atom_site_label
_atom_site_fract_x
_atom_site_fract_y
_atom_site_fract_z
Si Si1 0.467753 0.629137 0.074025
Si Si2 0.215316 0.570029 0.262777
Si Si3 0.500224 0.000000 0.500000
Si Si4 0.923778 0.756804 0.471421
Si Si5 0.801243 0.282622 0.404720
Si Si6 0.903035 0.340446 0.883190
O O1 0.500000 0.630169 0.250000
O O2 0.524301 0.639651 0.960465
O O3 0.435901 0.500000 0.000000
O O4 0.424931 0.753251 0.038535
O O5 0.214306 0.409763 0.217156
O O6 0.266164 0.648147 0.357439
O O7 0.159260 0.598565 0.373116
O O8 0.210678 0.650377 0.086043
O O9 0.458211 0.876112 0.470254
O O10 0.546947 0.951753 0.636224
O O11 0.867858 0.762900 0.585141
O O12 0.904342 0.747338 0.282457
#
# Coordination Sequence:
#
# PCOD9316584 Si02
#       6
#     8   8   4   8   8   8
#     4  11  23  40  61  93 132 172 219 271 338 406
#     4  10  23  45  67  98 135 179 231 284 337 402
#     4  10  18  32  66  98 122 160 212 274 330 388
#     4  10  21  40  64  91 130 174 220 275 330 395
#     4  10  23  44  68  97 136 179 231 283 339 400
#     4  10  22  40  64  94 131 172 221 275 331 398
#
# _framework density 23.585688000000001
#
# number of rings (size 3 to 8) (size 9 to 14) (size 15 to 20)
#    0.000    1.818    0.000    5.455    0.000   12.364 
#   13.091    0.000    0.000    0.000    0.000    0.000 
#    0.000    0.000    0.000    0.000    0.000    0.000 
#
# Total GULP energy -122585.425101 kJ/mol
# GULP energy per Si atom -5572.064777 kJ/mol
# Density = 2.353201 g / cm^3
# Si number density = 23.585688 Si / 1000 Ang^3
#
#
#
# Elastic Constant Matrix: (Units=GPa)
#
#
# Indices 1 2 3 4 5 6 
#
# 1 157.4181 22.4493 27.1150 0.0000 0.0000 0.0000
# 2 22.4493 80.4467 22.1891 0.0000 0.0000 0.0000
# 3 27.1150 22.1891 103.4471 0.0000 0.0000 0.0000
# 4 0.0000 0.0000 0.0000 34.7146 0.0000 0.0000
# 5 0.0000 0.0000 0.0000 0.0000 22.5193 0.0000
# 6 0.0000 0.0000 0.0000 0.0000 0.0000 -42.0255
#
#
#
# Elastic Compliance Matrix: (Units=1/GPa)
#
#
# Indices 1 2 3 4 5 6 
#
# 1 0.006819 -0.001498 -0.001466 0.000000 0.000000 0.000000
# 2 -0.001498 0.013542 -0.002512 0.000000 0.000000 0.000000
# 3 -0.001466 -0.002512 0.010590 0.000000 0.000000 0.000000
# 4 0.000000 0.000000 0.000000 0.028806 0.000000 0.000000
# 5 0.000000 0.000000 0.000000 0.000000 0.044406 0.000000
# 6 0.000000 0.000000 0.000000 0.000000 0.000000 -0.023795
#
#
# Mechanical properties :
#
#
# Convention : Reuss Voigt Hill
#
# Bulk Modulus (GPa) = 50.00587 53.86875 51.93731
# Shear Modulus (GPa) = 51.02765 21.01222 36.01994
#
# Velocity S-wave (km/s) = 4.65639 2.98801 3.91217
# Velocity P-wave (km/s) = 7.08217 5.89860 6.51731
#
# Compressibility (1/GPa) = 0.01999765
#
# Stress axis : x y z
#
# Youngs Moduli (GPa) = 146.65548 73.84655 94.43056
#
# Poissons Ratio (x) = 0.11066 0.13842
# Poissons Ratio (y) = 0.21976 0.23720
# Poissons Ratio (z) = 0.21498 0.18549
#
# Static dielectric constant tensor:
#      x y z
#    x 1.861330 0.000000 0.000000 
#    y 0.000000 2.111740 0.000000 
#    z 0.000000 0.000000 2.207190 
# 
# From -- ./inp_files/10599.got.cif
#   From: 2010.05.17/outbox.cif.g08.bks.cpg/sg20_6_cif.got.tgz:10599.got - 2010.06.03 22:52:26.
