data_PCOD9316269
_publ_section_title
;
Structure prediction by ZEFSAII (Michael W. Deem and Ramdas Pophale) SiO2 
 PCOD9316269
Probable space group: C 2 2 21
;
_chemical_formula_sum "Si O2"
_cell_formula_units_Z 48
_cell_length_a 16.612271
_cell_length_b 11.188501
_cell_length_c 12.280466
_cell_angle_alpha 90.000000
_cell_angle_beta 90.000000
_cell_angle_gamma 90.000000
_cell_volume 2282.526137
_symmetry_space_group_name_H-M "C 2 2 21"
_symmetry_group_IT_number 20
_symmetry_cell_setting 'orthorhombic'
loop_
_space_group_symop_operation_xyz
x,y,z
-x,-y,1/2+z
x,-y,-z
-x,y,1/2-z
1/2+x,1/2+y,z
1/2-x,1/2-y,1/2+z
1/2+x,1/2-y,-z
1/2-x,1/2+y,1/2-z
loop_
_atom_site_type_symbol
_atom_site_label
_atom_site_fract_x
_atom_site_fract_y
_atom_site_fract_z
Si Si1 0.500000 0.046639 0.250000
Si Si2 0.203556 0.636491 0.971577
Si Si3 0.827088 0.324481 0.054010
Si Si4 0.182664 0.222080 0.231034
Si Si5 0.335433 0.529812 0.619168
Si Si6 0.460329 0.000000 0.000000
Si Si7 0.865320 0.722529 0.312824
O O1 0.500403 0.990316 0.375918
O O2 0.423762 0.134436 0.252587
O O3 0.173218 0.668184 0.852249
O O4 0.222081 0.500000 0.000000
O O5 0.279747 0.724596 0.985939
O O6 0.140032 0.681046 0.061132
O O7 0.861917 0.258441 0.159630
O O8 0.755894 0.416643 0.095916
O O9 0.898774 0.388828 0.994127
O O10 0.275830 0.209696 0.265878
O O11 0.162581 0.094386 0.181701
O O12 0.368631 0.500000 0.500000
O O13 0.380942 0.635956 0.681567
#
# Coordination Sequence:
#
# PCOD9316269 Si02
#       7
#     4   8   8   8   8   4   8
#     4  12  28  46  66  88 134 180 228 256 308 392
#     4  10  20  32  58  99 128 152 205 266 331 383
#     4  10  21  34  63  94 125 163 204 269 340 376
#     4  10  19  34  62  96 124 157 208 271 341 382
#     4  10  16  36  61  92 129 159 201 273 338 386
#     4  12  26  48  68  90 130 178 222 268 320 388
#     4  10  24  35  61  90 122 172 213 260 324 385
#
# _framework density 21.029330999999999
#
# number of rings (size 3 to 8) (size 9 to 14) (size 15 to 20)
#    0.000    2.000    4.167    2.000   12.833    0.000 
#    0.000    0.000    3.667    0.000    0.000    0.000 
#    0.000    0.000    0.000    0.000    0.000    0.000 
#
# Total GULP energy -133686.061487 kJ/mol
# GULP energy per Si atom -5570.252562 kJ/mol
# Density = 2.098147 g / cm^3
# Si number density = 21.029331 Si / 1000 Ang^3
#
#
#
# Elastic Constant Matrix: (Units=GPa)
#
#
# Indices 1 2 3 4 5 6 
#
# 1 24.8145 6.8203 4.9333 0.0000 0.0000 0.0000
# 2 6.8203 100.5778 15.1025 0.0000 0.0000 0.0000
# 3 4.9333 15.1025 104.1569 0.0000 0.0000 0.0000
# 4 0.0000 0.0000 0.0000 43.3215 0.0000 0.0000
# 5 0.0000 0.0000 0.0000 0.0000 10.5172 0.0000
# 6 0.0000 0.0000 0.0000 0.0000 0.0000 20.9743
#
#
#
# Elastic Compliance Matrix: (Units=1/GPa)
#
#
# Indices 1 2 3 4 5 6 
#
# 1 0.041319 -0.002564 -0.001585 0.000000 0.000000 0.000000
# 2 -0.002564 0.010323 -0.001375 0.000000 0.000000 0.000000
# 3 -0.001585 -0.001375 0.009875 0.000000 0.000000 0.000000
# 4 0.000000 0.000000 0.000000 0.023083 0.000000 0.000000
# 5 0.000000 0.000000 0.000000 0.000000 0.095082 0.000000
# 6 0.000000 0.000000 0.000000 0.000000 0.000000 0.047677
#
#
# Mechanical properties :
#
#
# Convention : Reuss Voigt Hill
#
# Bulk Modulus (GPa) = 19.81446 31.47350 25.64398
# Shear Modulus (GPa) = 19.59004 28.47546 24.03275
#
# Velocity S-wave (km/s) = 3.05545 3.68378 3.38423
# Velocity P-wave (km/s) = 4.67873 5.75262 5.24324
#
# Compressibility (1/GPa) = 0.05046819
#
# Stress axis : x y z
#
# Youngs Moduli (GPa) = 24.20204 96.87168 101.26160
#
# Poissons Ratio (x) = 0.24836 0.16053
# Poissons Ratio (y) = 0.06205 0.13927
# Poissons Ratio (z) = 0.03837 0.13323
#
# Static dielectric constant tensor:
#      x y z
#    x 1.794650 0.000000 0.000000 
#    y 0.000000 1.813920 0.000000 
#    z 0.000000 0.000000 1.708050 
# 
# From -- ./inp_files/15740.got.cif
#   From: 2010.05.17/outbox.cif.g08.bks.cpg/sg20_8_cif.got.tgz:15740.got - 2010.06.03 22:52:26.
