data_PCOD9316509
_publ_section_title
;
Structure prediction by ZEFSAII (Michael W. Deem and Ramdas Pophale) SiO2 
 PCOD9316509
Probable space group: C 2 2 21
;
_chemical_formula_sum "Si O2"
_cell_formula_units_Z 48
_cell_length_a 20.051037
_cell_length_b 8.834328
_cell_length_c 11.415129
_cell_angle_alpha 90.000000
_cell_angle_beta 90.000000
_cell_angle_gamma 90.000000
_cell_volume 2022.046701
_symmetry_space_group_name_H-M "C 2 2 21"
_symmetry_group_IT_number 20
_symmetry_cell_setting 'orthorhombic'
loop_
_space_group_symop_operation_xyz
x,y,z
-x,-y,1/2+z
x,-y,-z
-x,y,1/2-z
1/2+x,1/2+y,z
1/2-x,1/2-y,1/2+z
1/2+x,1/2-y,-z
1/2-x,1/2+y,1/2-z
loop_
_atom_site_type_symbol
_atom_site_label
_atom_site_fract_x
_atom_site_fract_y
_atom_site_fract_z
Si Si1 0.344433 0.000000 0.500000
Si Si2 0.657666 0.418323 0.792712
Si Si3 0.428711 0.308182 0.481950
Si Si4 0.500000 0.260931 0.250000
Si Si5 0.452337 0.322389 0.849388
Si Si6 0.906117 0.509140 0.138260
Si Si7 0.278892 0.091591 0.738649
O O1 0.393637 0.143506 0.482261
O O2 0.297085 0.024776 0.611378
O O3 0.613532 0.417796 0.673386
O O4 0.702871 0.267974 0.773679
O O5 0.705731 0.561719 0.789147
O O6 0.616953 0.391830 0.915447
O O7 0.450396 0.338118 0.346392
O O8 0.502898 0.318445 0.537250
O O9 0.448824 0.148329 0.183352
O O10 0.500000 0.382463 0.750000
O O11 0.434495 0.150304 0.814400
O O12 0.829819 0.498770 0.177199
O O13 0.910974 0.500000 0.000000
#
# Coordination Sequence:
#
# PCOD9316509 Si02
#       7
#     4   8   8   4   8   8   8
#     4  10  18  34  60  88 128 158 200 268 328 368
#     4   9  21  38  61  88 125 165 209 248 311 379
#     4  10  18  31  54  90 123 154 200 272 321 370
#     4  12  18  28  56  90 130 154 196 274 348 360
#     4   9  16  29  52  84 111 146 195 255 312 357
#     4  11  19  29  51  85 123 152 190 253 324 375
#     4  10  21  40  57  89 124 170 204 248 308 385
#
# _framework density 23.738323999999999
#
# number of rings (size 3 to 8) (size 9 to 14) (size 15 to 20)
#    0.000    2.000    4.167    2.000    0.000    0.000 
#   12.000    0.000    0.000    0.000    6.500    0.000 
#    0.000    5.333    0.000    0.000    0.000    0.000 
#
# Total GULP energy -133837.491476 kJ/mol
# GULP energy per Si atom -5576.562145 kJ/mol
# Density = 2.368429 g / cm^3
# Si number density = 23.738324 Si / 1000 Ang^3
#
#
#
# Elastic Constant Matrix: (Units=GPa)
#
#
# Indices 1 2 3 4 5 6 
#
# 1 113.2898 22.1751 39.8883 0.0000 0.0000 0.0000
# 2 22.1751 54.7175 27.4187 0.0000 0.0000 0.0000
# 3 39.8883 27.4187 112.9489 0.0000 0.0000 0.0000
# 4 0.0000 0.0000 0.0000 26.3154 0.0000 0.0000
# 5 0.0000 0.0000 0.0000 0.0000 2.8880 0.0000
# 6 0.0000 0.0000 0.0000 0.0000 0.0000 87.3628
#
#
#
# Elastic Compliance Matrix: (Units=1/GPa)
#
#
# Indices 1 2 3 4 5 6 
#
# 1 0.010421 -0.002709 -0.003023 0.000000 0.000000 0.000000
# 2 -0.002709 0.021511 -0.004265 0.000000 0.000000 0.000000
# 3 -0.003023 -0.004265 0.010956 0.000000 0.000000 0.000000
# 4 0.000000 0.000000 0.000000 0.038001 0.000000 0.000000
# 5 0.000000 0.000000 0.000000 0.000000 0.346266 0.000000
# 6 0.000000 0.000000 0.000000 0.000000 0.000000 0.011447
#
#
# Mechanical properties :
#
#
# Convention : Reuss Voigt Hill
#
# Bulk Modulus (GPa) = 43.67737 51.10225 47.38981
# Shear Modulus (GPa) = 10.72439 36.07817 23.40128
#
# Velocity S-wave (km/s) = 2.12781 3.90273 3.14315
# Velocity P-wave (km/s) = 4.94734 6.47166 5.76015
#
# Compressibility (1/GPa) = 0.02289515
#
# Stress axis : x y z
#
# Youngs Moduli (GPa) = 95.95618 46.48842 91.27028
#
# Poissons Ratio (x) = 0.12592 0.27589
# Poissons Ratio (y) = 0.25992 0.38929
# Poissons Ratio (z) = 0.29006 0.19828
#
# Static dielectric constant tensor:
#      x y z
#    x 1.953680 0.000000 0.000000 
#    y 0.000000 2.439410 0.000000 
#    z 0.000000 0.000000 1.918420 
# 
# From -- ./inp_files/16295.got.cif
#   From: 2010.05.17/outbox.cif.g08.bks.cpg/sg20_9_cif.got.tgz:16295.got - 2010.06.03 22:52:26.
