data_PCOD9316561
_publ_section_title
;
Structure prediction by ZEFSAII (Michael W. Deem and Ramdas Pophale) SiO2 
 PCOD9316561
Probable space group: C 2 2 21
;
_chemical_formula_sum "Si O2"
_cell_formula_units_Z 64
_cell_length_a 9.941493
_cell_length_b 17.541719
_cell_length_c 15.910033
_cell_angle_alpha 90.000000
_cell_angle_beta 90.000000
_cell_angle_gamma 90.000000
_cell_volume 2774.564602
_symmetry_space_group_name_H-M "C 2 2 21"
_symmetry_group_IT_number 20
_symmetry_cell_setting 'orthorhombic'
loop_
_space_group_symop_operation_xyz
x,y,z
-x,-y,1/2+z
x,-y,-z
-x,y,1/2-z
1/2+x,1/2+y,z
1/2-x,1/2-y,1/2+z
1/2+x,1/2-y,-z
1/2-x,1/2+y,1/2-z
loop_
_atom_site_type_symbol
_atom_site_label
_atom_site_fract_x
_atom_site_fract_y
_atom_site_fract_z
Si Si1 0.575330 0.391377 0.080989
Si Si2 0.669198 0.651268 0.109002
Si Si3 0.074470 0.488580 0.169988
Si Si4 0.205179 0.493465 0.401734
Si Si5 0.383474 0.317065 0.876413
Si Si6 0.598758 0.830114 0.824439
Si Si7 0.831860 0.996113 0.908483
Si Si8 0.583045 0.248638 0.437977
O O1 0.708827 0.420385 0.127618
O O2 0.474204 0.462450 0.085795
O O3 0.482671 0.321316 0.107947
O O4 0.618121 0.366558 0.986437
O O5 0.739415 0.572243 0.139402
O O6 0.536955 0.681239 0.156126
O O7 0.781883 0.715216 0.101075
O O8 0.953742 0.483603 0.104001
O O9 0.100445 0.578640 0.184621
O O10 0.000000 0.454034 0.250000
O O11 0.223834 0.461643 0.149861
O O12 0.238296 0.500000 0.500000
O O13 0.357814 0.407430 0.892054
O O14 0.249310 0.295874 0.824743
O O15 0.387624 0.270191 0.964826
O O16 0.500000 0.802712 0.750000
O O17 0.531170 0.813734 0.915719
O O18 0.765748 0.000000 0.000000
#
# Coordination Sequence:
#
# PCOD9316561 Si02
#       8
#     8   8   8   8   8   8   8   8
#     4  10  20  35  59  90 123 155 195 261 313 361
#     4  10  18  32  56  88 123 145 200 253 301 364
#     4  10  22  37  57  84 121 160 207 253 303 383
#     4  10  18  36  59  88 117 155 201 256 312 361
#     4  10  19  33  60  89 118 158 208 259 307 372
#     4  10  22  40  58  83 126 169 202 252 330 382
#     4  11  17  35  59  85 114 160 202 252 314 364
#     4  11  20  35  59  91 117 159 206 258 304 376
#
# _framework density 23.066683000000001
#
# number of rings (size 3 to 8) (size 9 to 14) (size 15 to 20)
#    0.000    1.750    5.000    2.250    0.000    0.000 
#    0.000    3.750    0.000    0.000    0.000    0.000 
#    0.000    0.000    0.000    0.000    0.000    0.000 
#
# Total GULP energy -178301.574031 kJ/mol
# GULP energy per Si atom -5571.924188 kJ/mol
# Density = 2.301418 g / cm^3
# Si number density = 23.066683 Si / 1000 Ang^3
#
#
#
# Elastic Constant Matrix: (Units=GPa)
#
#
# Indices 1 2 3 4 5 6 
#
# 1 154.1440 21.6689 26.3392 0.0000 0.0000 0.0000
# 2 21.6689 37.9080 15.2664 0.0000 0.0000 0.0000
# 3 26.3392 15.2664 29.6475 0.0000 0.0000 0.0000
# 4 0.0000 0.0000 0.0000 0.7299 0.0000 0.0000
# 5 0.0000 0.0000 0.0000 0.0000 22.5187 0.0000
# 6 0.0000 0.0000 0.0000 0.0000 0.0000 39.1944
#
#
#
# Elastic Compliance Matrix: (Units=1/GPa)
#
#
# Indices 1 2 3 4 5 6 
#
# 1 0.007779 -0.002099 -0.005830 0.000000 0.000000 0.000000
# 2 -0.002099 0.033848 -0.015565 0.000000 0.000000 0.000000
# 3 -0.005830 -0.015565 0.046924 0.000000 0.000000 0.000000
# 4 0.000000 0.000000 0.000000 1.370009 0.000000 0.000000
# 5 0.000000 0.000000 0.000000 0.000000 0.044408 0.000000
# 6 0.000000 0.000000 0.000000 0.000000 0.000000 0.025514
#
#
# Mechanical properties :
#
#
# Convention : Reuss Voigt Hill
#
# Bulk Modulus (GPa) = 24.05966 38.69430 31.37698
# Shear Modulus (GPa) = 3.14600 23.05028 13.09814
#
# Velocity S-wave (km/s) = 1.16912 3.16458 2.38552
# Velocity P-wave (km/s) = 3.50365 5.49219 4.60650
#
# Compressibility (1/GPa) = 0.04156334
#
# Stress axis : x y z
#
# Youngs Moduli (GPa) = 128.55711 29.54426 21.31108
#
# Poissons Ratio (x) = 0.06200 0.12424
# Poissons Ratio (y) = 0.26978 0.33170
# Poissons Ratio (z) = 0.74950 0.45985
#
# Static dielectric constant tensor:
#      x y z
#    x 1.942900 0.000000 0.000000 
#    y 0.000000 1.915920 0.000000 
#    z 0.000000 0.000000 1.957570 
# 
# From -- ./inp_files/23904.got.cif
#   From: 2010.05.17/outbox.cif.g08.bks.cpg/sg20_12_cif.got.tgz:23904.got - 2010.06.03 22:52:26.
