data_PCOD9316908
_publ_section_title
;
Structure prediction by ZEFSAII (Michael W. Deem and Ramdas Pophale) SiO2 
 PCOD9316908
Probable space group: C 2 2 21
;
_chemical_formula_sum "Si O2"
_cell_formula_units_Z 56
_cell_length_a 19.543817
_cell_length_b 18.797313
_cell_length_c 8.622369
_cell_angle_alpha 90.000000
_cell_angle_beta 90.000000
_cell_angle_gamma 90.000000
_cell_volume 3167.610438
_symmetry_space_group_name_H-M "C 2 2 21"
_symmetry_group_IT_number 20
_symmetry_cell_setting 'orthorhombic'
loop_
_space_group_symop_operation_xyz
x,y,z
-x,-y,1/2+z
x,-y,-z
-x,y,1/2-z
1/2+x,1/2+y,z
1/2-x,1/2-y,1/2+z
1/2+x,1/2-y,-z
1/2-x,1/2+y,1/2-z
loop_
_atom_site_type_symbol
_atom_site_label
_atom_site_fract_x
_atom_site_fract_y
_atom_site_fract_z
Si Si1 0.338674 0.216500 0.471945
Si Si2 0.097410 0.855282 0.108867
Si Si3 0.711895 0.210541 0.379810
Si Si4 0.862342 0.844903 0.037780
Si Si5 0.282860 0.077515 0.576506
Si Si6 0.524369 0.428542 0.579129
Si Si7 0.747984 0.421320 0.064535
O O1 0.399967 0.273018 0.449920
O O2 0.304637 0.214143 0.301034
O O3 0.285573 0.253896 0.589414
O O4 0.340589 0.134577 0.524424
O O5 0.099191 0.856549 0.296454
O O6 0.170685 0.890850 0.070157
O O7 0.037376 0.898019 0.025442
O O8 0.659168 0.263007 0.465778
O O9 0.712052 0.132910 0.453015
O O10 0.791784 0.889704 0.029373
O O11 0.915055 0.871413 0.911066
O O12 0.278394 0.076658 0.762628
O O13 0.291045 0.000000 0.500000
O O14 0.552197 0.500000 0.500000
O O15 0.500000 0.446450 0.750000
O O16 0.747119 0.500000 0.000000
#
# Coordination Sequence:
#
# PCOD9316908 Si02
#       7
#     8   8   8   8   8   8   8
#     4   9  17  30  48  68  91 121 154 191 234 279
#     4   9  19  34  49  66  92 125 159 193 230 273
#     4   9  17  30  48  68  91 121 154 191 234 279
#     4   9  19  34  49  66  92 125 159 193 230 273
#     4  10  19  30  47  71  97 125 155 192 235 278
#     4  12  24  34  48  68  93 126 161 196 230 268
#     4  10  19  30  47  71  97 125 155 192 235 278
#
# _framework density 17.678941999999999
#
# number of rings (size 3 to 8) (size 9 to 14) (size 15 to 20)
#    0.000    2.286    0.000    5.571    0.000    9.143 
#    0.000    0.000    0.000    0.000    0.000    1.000 
#    0.000    0.000    0.000    0.000    0.000    0.000 
#
# Total GULP energy -156122.040530 kJ/mol
# GULP energy per Si atom -5575.787162 kJ/mol
# Density = 1.763870 g / cm^3
# Si number density = 17.678942 Si / 1000 Ang^3
#
#
#
# Elastic Constant Matrix: (Units=GPa)
#
#
# Indices 1 2 3 4 5 6 
#
# 1 11.1087 0.8509 -0.7461 0.0000 0.0000 0.0000
# 2 0.8509 113.7920 14.0618 0.0000 0.0000 0.0000
# 3 -0.7461 14.0618 19.6536 0.0000 0.0000 0.0000
# 4 0.0000 0.0000 0.0000 30.6176 0.0000 0.0000
# 5 0.0000 0.0000 0.0000 0.0000 17.5116 0.0000
# 6 0.0000 0.0000 0.0000 0.0000 0.0000 15.8637
#
#
#
# Elastic Compliance Matrix: (Units=1/GPa)
#
#
# Indices 1 2 3 4 5 6 
#
# 1 0.090400 -0.001207 0.004295 0.000000 0.000000 0.000000
# 2 -0.001207 0.009656 -0.006955 0.000000 0.000000 0.000000
# 3 0.004295 -0.006955 0.056020 0.000000 0.000000 0.000000
# 4 0.000000 0.000000 0.000000 0.032661 0.000000 0.000000
# 5 0.000000 0.000000 0.000000 0.000000 0.057105 0.000000
# 6 0.000000 0.000000 0.000000 0.000000 0.000000 0.063037
#
#
# Mechanical properties :
#
#
# Convention : Reuss Voigt Hill
#
# Bulk Modulus (GPa) = 6.74106 19.20974 12.97540
# Shear Modulus (GPa) = 13.65894 21.49109 17.57502
#
# Velocity S-wave (km/s) = 2.78260 3.49037 3.15639
# Velocity P-wave (km/s) = 3.76101 5.20894 4.54303
#
# Compressibility (1/GPa) = 0.14834465
#
# Stress axis : x y z
#
# Youngs Moduli (GPa) = 11.06190 103.55802 17.85068
#
# Poissons Ratio (x) = 0.12498 -0.07668
# Poissons Ratio (y) = 0.01335 0.12415
# Poissons Ratio (z) = -0.04752 0.72023
#
# Static dielectric constant tensor:
#      x y z
#    x 1.590880 0.000000 0.000000 
#    y 0.000000 1.625720 0.000000 
#    z 0.000000 0.000000 1.619640 
# 
# From -- ./inp_files/10306.got.cif
#   From: 2010.05.17/outbox.cif.g08.bks.cpg/sg20_6_cif.got.tgz:10306.got - 2010.06.03 22:52:26.
