data_PCOD9316457
_publ_section_title
;
Structure prediction by ZEFSAII (Michael W. Deem and Ramdas Pophale) SiO2 
 PCOD9316457
Probable space group: C 2 2 21
;
_chemical_formula_sum "Si O2"
_cell_formula_units_Z 48
_cell_length_a 15.189209
_cell_length_b 14.204176
_cell_length_c 9.873082
_cell_angle_alpha 90.000000
_cell_angle_beta 90.000000
_cell_angle_gamma 90.000000
_cell_volume 2130.119396
_symmetry_space_group_name_H-M "C 2 2 21"
_symmetry_group_IT_number 20
_symmetry_cell_setting 'orthorhombic'
loop_
_space_group_symop_operation_xyz
x,y,z
-x,-y,1/2+z
x,-y,-z
-x,y,1/2-z
1/2+x,1/2+y,z
1/2-x,1/2-y,1/2+z
1/2+x,1/2-y,-z
1/2-x,1/2+y,1/2-z
loop_
_atom_site_type_symbol
_atom_site_label
_atom_site_fract_x
_atom_site_fract_y
_atom_site_fract_z
Si Si1 0.483230 0.420573 0.405541
Si Si2 0.319866 0.374022 0.023128
Si Si3 0.674018 0.829146 0.213245
Si Si4 0.365962 0.153192 0.011584
Si Si5 0.435192 0.205811 0.446752
Si Si6 0.775025 0.365754 0.734216
O O1 0.439699 0.500000 0.500000
O O2 0.500000 0.448616 0.250000
O O3 0.581063 0.404837 0.461421
O O4 0.438403 0.318073 0.417325
O O5 0.327536 0.259921 0.014946
O O6 0.279256 0.415157 0.885364
O O7 0.253976 0.387388 0.148070
O O8 0.639847 0.872089 0.353612
O O9 0.714213 0.725592 0.238807
O O10 0.601135 0.816177 0.096867
O O11 0.466976 0.162838 0.060160
O O12 0.306479 0.097094 0.119925
O O13 0.365492 0.164349 0.340937
#
# Coordination Sequence:
#
# PCOD9316457 Si02
#       6
#     8   8   8   8   8   8
#     4  11  23  36  49  67  98 140 178 208 242 294
#     4   8  17  31  44  62  90 124 161 197 242 292
#     4   9  16  26  44  67  90 121 159 200 247 290
#     4   9  15  24  42  69  92 116 149 193 249 297
#     4  10  18  30  45  66 100 131 159 200 246 297
#     4   9  16  27  45  65  90 124 159 198 247 292
#
# _framework density 22.533947999999999
#
# number of rings (size 3 to 8) (size 9 to 14) (size 15 to 20)
#    0.000    2.667    0.000    5.000    0.000    4.000 
#    0.000    0.000    0.000    0.000    0.000    0.000 
#    0.000   21.333    0.000  101.333    0.000   50.833 
#
# Total GULP energy -133884.231658 kJ/mol
# GULP energy per Si atom -5578.509652 kJ/mol
# Density = 2.248266 g / cm^3
# Si number density = 22.533948 Si / 1000 Ang^3
#
#
#
# Elastic Constant Matrix: (Units=GPa)
#
#
# Indices 1 2 3 4 5 6 
#
# 1 63.5949 -19.3020 15.8945 0.0000 0.0000 0.0000
# 2 -19.3020 35.6117 -12.8855 0.0000 0.0000 0.0000
# 3 15.8945 -12.8855 132.4401 0.0000 0.0000 0.0000
# 4 0.0000 0.0000 0.0000 -12.3871 0.0000 0.0000
# 5 0.0000 0.0000 0.0000 0.0000 45.9537 0.0000
# 6 0.0000 0.0000 0.0000 0.0000 0.0000 -6.1221
#
#
#
# Elastic Compliance Matrix: (Units=1/GPa)
#
#
# Indices 1 2 3 4 5 6 
#
# 1 0.019043 0.009841 -0.001328 0.000000 0.000000 0.000000
# 2 0.009841 0.034191 0.002145 0.000000 0.000000 0.000000
# 3 -0.001328 0.002145 0.007919 0.000000 0.000000 0.000000
# 4 0.000000 0.000000 0.000000 -0.080729 0.000000 0.000000
# 5 0.000000 0.000000 0.000000 0.000000 0.021761 0.000000
# 6 0.000000 0.000000 0.000000 0.000000 0.000000 -0.163343
#
#
# Mechanical properties :
#
#
# Convention : Reuss Voigt Hill
#
# Bulk Modulus (GPa) = 12.12553 22.11785 17.12169
# Shear Modulus (GPa) = -32.26107 22.01822 -5.12143
#
# Velocity S-wave (km/s) = -3.78784 3.12927 -1.50920
# Velocity P-wave (km/s) = 3.70643 4.78467 2.13957
#
# Compressibility (1/GPa) = 0.08247059
#
# Stress axis : x y z
#
# Youngs Moduli (GPa) = 52.51170 29.24747 126.28343
#
# Poissons Ratio (x) = -0.28783 0.16770
# Poissons Ratio (y) = -0.51678 -0.27094
# Poissons Ratio (z) = 0.06973 -0.06275
#
# Static dielectric constant tensor:
#      x y z
#    x 1.791750 0.000000 0.000000 
#    y 0.000000 1.854720 0.000000 
#    z 0.000000 0.000000 1.939940 
# 
# From -- ./inp_files/8390.got.cif
#   From: 2010.05.17/outbox.cif.g08.bks.cpg/sg20_5_cif.got.tgz:8390.got - 2010.06.03 22:52:26.
