data_PCOD9316592
_publ_section_title
;
Structure prediction by ZEFSAII (Michael W. Deem and Ramdas Pophale) SiO2 
 PCOD9316592
Probable space group: C 2 2 21
;
_chemical_formula_sum "Si O2"
_cell_formula_units_Z 64
_cell_length_a 16.257242
_cell_length_b 21.620899
_cell_length_c 9.645534
_cell_angle_alpha 90.000000
_cell_angle_beta 90.000000
_cell_angle_gamma 90.000000
_cell_volume 3390.368425
_symmetry_space_group_name_H-M "C 2 2 21"
_symmetry_group_IT_number 20
_symmetry_cell_setting 'orthorhombic'
loop_
_space_group_symop_operation_xyz
x,y,z
-x,-y,1/2+z
x,-y,-z
-x,y,1/2-z
1/2+x,1/2+y,z
1/2-x,1/2-y,1/2+z
1/2+x,1/2-y,-z
1/2-x,1/2+y,1/2-z
loop_
_atom_site_type_symbol
_atom_site_label
_atom_site_fract_x
_atom_site_fract_y
_atom_site_fract_z
Si Si1 0.380491 0.129003 0.007316
Si Si2 0.295642 0.070766 0.450696
Si Si3 0.448732 0.743580 0.888728
Si Si4 0.349021 0.153377 0.712565
Si Si5 0.597063 0.722435 0.075753
Si Si6 0.193275 0.771477 0.206604
Si Si7 0.769024 0.859108 0.704902
Si Si8 0.030154 0.548682 0.116746
O O1 0.385528 0.116294 0.842568
O O2 0.404388 0.200451 0.032829
O O3 0.291880 0.116070 0.081306
O O4 0.456586 0.093789 0.077747
O O5 0.316335 0.111857 0.586118
O O6 0.230061 0.096647 0.339726
O O7 0.381165 0.078578 0.364608
O O8 0.280047 0.000000 0.500000
O O9 0.500000 0.765323 0.750000
O O10 0.375927 0.705774 0.815256
O O11 0.509768 0.712399 0.999400
O O12 0.402709 0.211895 0.657594
O O13 0.270256 0.184756 0.782878
O O14 0.640984 0.666208 0.157673
O O15 0.658632 0.732364 0.946906
O O16 0.222803 0.703454 0.247702
O O17 0.000000 0.513280 0.250000
O O18 0.044046 0.500000 0.000000
#
# Coordination Sequence:
#
# PCOD9316592 Si02
#       8
#     8   8   8   8   8   8   8   8
#     4  11  21  32  53  74 107 148 193 230 272 331
#     4  11  24  39  54  74 111 154 199 237 278 331
#     4   9  19  32  53  82 115 147 178 225 293 349
#     4  11  22  34  53  81 111 149 190 230 281 335
#     4  10  18  33  54  82 114 145 188 230 287 345
#     4   9  18  33  54  79 114 148 180 230 286 348
#     4  10  19  34  54  77 109 153 189 231 290 334
#     4  11  24  37  52  72 105 148 195 239 273 310
#
# _framework density 18.877003999999999
#
# number of rings (size 3 to 8) (size 9 to 14) (size 15 to 20)
#    0.000    1.750    3.750    1.125    5.250    1.500 
#    0.000    0.000    0.000    0.000    0.000    0.000 
#   11.250    0.000    0.000    0.000    0.000    0.000 
#
# Total GULP energy -178241.750763 kJ/mol
# GULP energy per Si atom -5570.054711 kJ/mol
# Density = 1.883404 g / cm^3
# Si number density = 18.877004 Si / 1000 Ang^3
#
#
#
# Elastic Constant Matrix: (Units=GPa)
#
#
# Indices 1 2 3 4 5 6 
#
# 1 41.5349 14.4392 17.3306 0.0000 0.0000 0.0000
# 2 14.4392 42.9217 18.7448 0.0000 0.0000 0.0000
# 3 17.3306 18.7448 95.5401 0.0000 0.0000 0.0000
# 4 0.0000 0.0000 0.0000 19.0101 0.0000 0.0000
# 5 0.0000 0.0000 0.0000 0.0000 25.4173 0.0000
# 6 0.0000 0.0000 0.0000 0.0000 0.0000 15.3945
#
#
#
# Elastic Compliance Matrix: (Units=1/GPa)
#
#
# Indices 1 2 3 4 5 6 
#
# 1 0.028340 -0.007972 -0.003577 0.000000 0.000000 0.000000
# 2 -0.007972 0.027724 -0.003993 0.000000 0.000000 0.000000
# 3 -0.003577 -0.003993 0.011899 0.000000 0.000000 0.000000
# 4 0.000000 0.000000 0.000000 0.052604 0.000000 0.000000
# 5 0.000000 0.000000 0.000000 0.000000 0.039343 0.000000
# 6 0.000000 0.000000 0.000000 0.000000 0.000000 0.064958
#
#
# Mechanical properties :
#
#
# Convention : Reuss Voigt Hill
#
# Bulk Modulus (GPa) = 27.11543 31.22509 29.17026
# Shear Modulus (GPa) = 18.63968 20.59651 19.61810
#
# Velocity S-wave (km/s) = 3.14575 3.30675 3.22725
# Velocity P-wave (km/s) = 5.25259 5.58182 5.41971
#
# Compressibility (1/GPa) = 0.03687938
#
# Stress axis : x y z
#
# Youngs Moduli (GPa) = 35.28604 36.06985 84.03992
#
# Poissons Ratio (x) = 0.28754 0.30059
# Poissons Ratio (y) = 0.28129 0.33560
# Poissons Ratio (z) = 0.12621 0.14404
#
# Static dielectric constant tensor:
#      x y z
#    x 1.736230 0.000000 0.000000 
#    y 0.000000 1.663410 0.000000 
#    z 0.000000 0.000000 1.734230 
# 
# From -- ./inp_files/9653.got.cif
#   From: 2010.05.17/outbox.cif.g08.bks.cpg/sg20_5_cif.got.tgz:9653.got - 2010.06.03 22:52:26.
