data_PCOD9316834
_publ_section_title
;
Structure prediction by ZEFSAII (Michael W. Deem and Ramdas Pophale) SiO2 
 PCOD9316834
Probable space group: C 2 2 21
;
_chemical_formula_sum "Si O2"
_cell_formula_units_Z 48
_cell_length_a 12.561454
_cell_length_b 7.652451
_cell_length_c 21.510032
_cell_angle_alpha 90.000000
_cell_angle_beta 90.000000
_cell_angle_gamma 90.000000
_cell_volume 2067.671426
_symmetry_space_group_name_H-M "C 2 2 21"
_symmetry_group_IT_number 20
_symmetry_cell_setting 'orthorhombic'
loop_
_space_group_symop_operation_xyz
x,y,z
-x,-y,1/2+z
x,-y,-z
-x,y,1/2-z
1/2+x,1/2+y,z
1/2-x,1/2-y,1/2+z
1/2+x,1/2-y,-z
1/2-x,1/2+y,1/2-z
loop_
_atom_site_type_symbol
_atom_site_label
_atom_site_fract_x
_atom_site_fract_y
_atom_site_fract_z
Si Si1 0.687708 0.004039 0.222597
Si Si2 0.516272 0.172428 0.151372
Si Si3 0.979713 0.284329 0.110004
Si Si4 0.151028 0.059236 0.621024
Si Si5 0.500546 0.686001 0.524383
Si Si6 0.105816 0.144101 0.216775
O O1 0.605166 0.154816 0.204009
O O2 0.784855 0.048735 0.267546
O O3 0.737869 0.946066 0.155833
O O4 0.625115 0.836074 0.245932
O O5 0.423391 0.312050 0.162473
O O6 0.560249 0.238004 0.084085
O O7 0.472111 0.977131 0.138699
O O8 0.073979 0.178414 0.145534
O O9 0.996326 0.303303 0.036398
O O10 0.885441 0.143029 0.118343
O O11 0.118291 0.141391 0.554102
O O12 0.458214 0.500000 0.500000
O O13 0.000000 0.074511 0.250000
#
# Coordination Sequence:
#
# PCOD9316834 Si02
#       6
#     8   8   8   8   8   8
#     4  11  24  42  65 100 122 180 222 262 332 386
#     4   9  21  37  66  97 127 170 215 272 322 392
#     4  10  18  39  63  93 131 165 214 264 332 381
#     4   9  20  39  64  92 128 165 208 273 323 376
#     4   8  17  35  67  92 125 171 203 271 334 375
#     4  11  25  40  64  92 132 172 213 273 318 386
#
# _framework density 23.214521999999999
#
# number of rings (size 3 to 8) (size 9 to 14) (size 15 to 20)
#    1.000    1.333    1.667    0.500    2.333    2.667 
#    0.000   10.000    0.000    0.000    0.000    0.000 
#    0.000    0.000    0.000    0.000    0.000    0.000 
#
# Total GULP energy -133685.472924 kJ/mol
# GULP energy per Si atom -5570.228038 kJ/mol
# Density = 2.316168 g / cm^3
# Si number density = 23.214522 Si / 1000 Ang^3
#
#
#
# Elastic Constant Matrix: (Units=GPa)
#
#
# Indices 1 2 3 4 5 6 
#
# 1 59.0218 11.6820 9.4591 0.0000 0.0000 0.0000
# 2 11.6820 88.7703 20.5713 0.0000 0.0000 0.0000
# 3 9.4591 20.5713 103.9334 0.0000 0.0000 0.0000
# 4 0.0000 0.0000 0.0000 36.5181 0.0000 0.0000
# 5 0.0000 0.0000 0.0000 0.0000 29.8617 0.0000
# 6 0.0000 0.0000 0.0000 0.0000 0.0000 25.3277
#
#
#
# Elastic Compliance Matrix: (Units=1/GPa)
#
#
# Indices 1 2 3 4 5 6 
#
# 1 0.017536 -0.002031 -0.001194 0.000000 0.000000 0.000000
# 2 -0.002031 0.012042 -0.002199 0.000000 0.000000 0.000000
# 3 -0.001194 -0.002199 0.010165 0.000000 0.000000 0.000000
# 4 0.000000 0.000000 0.000000 0.027384 0.000000 0.000000
# 5 0.000000 0.000000 0.000000 0.000000 0.033488 0.000000
# 6 0.000000 0.000000 0.000000 0.000000 0.000000 0.039482
#
#
# Mechanical properties :
#
#
# Convention : Reuss Voigt Hill
#
# Bulk Modulus (GPa) = 34.60660 37.23893 35.92276
# Shear Modulus (GPa) = 31.13780 32.34237 31.74008
#
# Velocity S-wave (km/s) = 3.66636 3.73660 3.70165
# Velocity P-wave (km/s) = 5.73259 5.89002 5.81184
#
# Compressibility (1/GPa) = 0.02889622
#
# Stress axis : x y z
#
# Youngs Moduli (GPa) = 57.02469 83.04406 98.37318
#
# Poissons Ratio (x) = 0.16867 0.11746
# Poissons Ratio (y) = 0.11582 0.21628
# Poissons Ratio (z) = 0.06809 0.18258
#
# Static dielectric constant tensor:
#      x y z
#    x 1.865990 0.000000 0.000000 
#    y 0.000000 1.904970 0.000000 
#    z 0.000000 0.000000 1.947400 
# 
# From -- ./inp_files/29086.got.cif
#   From: 2010.05.17/outbox.cif.g08.bks.cpg/sg20_15_cif.got.tgz:29086.got - 2010.06.03 22:52:26.
