data_PCOD9316181
_publ_section_title
;
Structure prediction by ZEFSAII (Michael W. Deem and Ramdas Pophale) SiO2 
 PCOD9316181
Probable space group: C 2 2 21
;
_chemical_formula_sum "Si O2"
_cell_formula_units_Z 40
_cell_length_a 15.926366
_cell_length_b 11.705093
_cell_length_c 9.197960
_cell_angle_alpha 90.000000
_cell_angle_beta 90.000000
_cell_angle_gamma 90.000000
_cell_volume 1714.679980
_symmetry_space_group_name_H-M "C 2 2 21"
_symmetry_group_IT_number 20
_symmetry_cell_setting 'orthorhombic'
loop_
_space_group_symop_operation_xyz
x,y,z
-x,-y,1/2+z
x,-y,-z
-x,y,1/2-z
1/2+x,1/2+y,z
1/2-x,1/2-y,1/2+z
1/2+x,1/2-y,-z
1/2-x,1/2+y,1/2-z
loop_
_atom_site_type_symbol
_atom_site_label
_atom_site_fract_x
_atom_site_fract_y
_atom_site_fract_z
Si Si1 0.779522 0.120009 0.435464
Si Si2 0.083560 0.287186 0.963829
Si Si3 0.000000 0.758393 0.750000
Si Si4 0.635664 0.439628 0.650385
Si Si5 0.000000 0.117110 0.750000
Si Si6 0.620822 0.000000 0.500000
Si Si7 0.000000 0.536027 0.250000
O O1 0.826084 0.226701 0.509461
O O2 0.794267 0.105288 0.263015
O O3 0.681789 0.107979 0.472875
O O4 0.815758 0.000000 0.500000
O O5 0.025133 0.192129 0.887505
O O6 0.063247 0.391272 0.856619
O O7 0.052080 0.306747 0.127253
O O8 0.933456 0.837819 0.838976
O O9 0.664992 0.500000 0.500000
O O10 0.580793 0.541736 0.718117
O O11 0.564200 0.980182 0.361462
#
# Coordination Sequence:
#
# PCOD9316181 Si02
#       7
#     8   8   4   8   4   4   4
#     4   9  19  38  66  93 139 166 207 272 338 384
#     4  10  19  35  62 103 127 172 214 277 317 382
#     4   9  18  26  50  95 144 170 210 257 322 388
#     4  10  16  24  50  92 135 187 203 244 319 405
#     4  10  14  24  44  86 138 166 211 243 308 376
#     4  10  24  52  68  92 124 190 218 274 336 408
#     4  11  26  46  76  89 128 176 237 268 328 406
#
# _framework density 23.327967999999998
#
# number of rings (size 3 to 8) (size 9 to 14) (size 15 to 20)
#    0.600    1.600    4.000    0.000    0.000    0.800 
#    1.800    6.000    0.000    0.000    0.000    0.000 
#    0.000    0.000    0.000    0.000    0.000    0.000 
#
# Total GULP energy -111424.657538 kJ/mol
# GULP energy per Si atom -5571.232877 kJ/mol
# Density = 2.327487 g / cm^3
# Si number density = 23.327968 Si / 1000 Ang^3
#
#
#
# Elastic Constant Matrix: (Units=GPa)
#
#
# Indices 1 2 3 4 5 6 
#
# 1 131.4114 39.6914 69.3679 0.0000 0.0000 0.0000
# 2 39.6914 40.2302 32.7289 0.0000 0.0000 0.0000
# 3 69.3679 32.7289 177.2642 0.0000 0.0000 0.0000
# 4 0.0000 0.0000 0.0000 24.4252 0.0000 0.0000
# 5 0.0000 0.0000 0.0000 0.0000 39.9900 0.0000
# 6 0.0000 0.0000 0.0000 0.0000 0.0000 40.0847
#
#
#
# Elastic Compliance Matrix: (Units=1/GPa)
#
#
# Indices 1 2 3 4 5 6 
#
# 1 0.012030 -0.009460 -0.002961 0.000000 0.000000 0.000000
# 2 -0.009460 0.036690 -0.003072 0.000000 0.000000 0.000000
# 3 -0.002961 -0.003072 0.007367 0.000000 0.000000 0.000000
# 4 0.000000 0.000000 0.000000 0.040941 0.000000 0.000000
# 5 0.000000 0.000000 0.000000 0.000000 0.025006 0.000000
# 6 0.000000 0.000000 0.000000 0.000000 0.000000 0.024947
#
#
# Mechanical properties :
#
#
# Convention : Reuss Voigt Hill
#
# Bulk Modulus (GPa) = 39.83990 70.27578 55.05784
# Shear Modulus (GPa) = 26.83344 34.70783 30.77063
#
# Velocity S-wave (km/s) = 3.39524 3.86141 3.63581
# Velocity P-wave (km/s) = 5.69960 7.07610 6.42482
#
# Compressibility (1/GPa) = 0.02510047
#
# Stress axis : x y z
#
# Youngs Moduli (GPa) = 83.12563 27.25570 135.73605
#
# Poissons Ratio (x) = 0.25784 0.40192
# Poissons Ratio (y) = 0.78637 0.41701
# Poissons Ratio (z) = 0.24614 0.08373
#
# Static dielectric constant tensor:
#      x y z
#    x 1.884270 0.000000 0.000000 
#    y 0.000000 1.993560 0.000000 
#    z 0.000000 0.000000 1.875300 
# 
# From -- ./inp_files/8194.got.cif
#   From: 2010.05.17/outbox.cif.g08.bks.cpg/sg20_5_cif.got.tgz:8194.got - 2010.06.03 22:52:26.
