data_PCOD9316931
_publ_section_title
;
Structure prediction by ZEFSAII (Michael W. Deem and Ramdas Pophale) SiO2 
 PCOD9316931
Probable space group: C 2 2 21
;
_chemical_formula_sum "Si O2"
_cell_formula_units_Z 48
_cell_length_a 13.118779
_cell_length_b 14.022705
_cell_length_c 9.576375
_cell_angle_alpha 90.000000
_cell_angle_beta 90.000000
_cell_angle_gamma 90.000000
_cell_volume 1761.677298
_symmetry_space_group_name_H-M "C 2 2 21"
_symmetry_group_IT_number 20
_symmetry_cell_setting 'orthorhombic'
loop_
_space_group_symop_operation_xyz
x,y,z
-x,-y,1/2+z
x,-y,-z
-x,y,1/2-z
1/2+x,1/2+y,z
1/2-x,1/2-y,1/2+z
1/2+x,1/2-y,-z
1/2-x,1/2+y,1/2-z
loop_
_atom_site_type_symbol
_atom_site_label
_atom_site_fract_x
_atom_site_fract_y
_atom_site_fract_z
Si Si1 0.303716 0.061921 0.858656
Si Si2 0.401224 0.653572 0.192315
Si Si3 0.154811 0.605410 0.194494
Si Si4 0.866781 0.727336 0.549079
Si Si5 0.922705 0.082036 0.621325
Si Si6 0.639489 0.764313 0.548586
O O1 0.186937 0.058095 0.809135
O O2 0.342499 0.160661 0.921983
O O3 0.364651 0.002435 0.742939
O O4 0.303557 0.000000 0.000000
O O5 0.500000 0.593851 0.250000
O O6 0.280358 0.622703 0.195961
O O7 0.407777 0.739950 0.303587
O O8 0.420822 0.681467 0.031121
O O9 0.107852 0.637377 0.047152
O O10 0.112164 0.676537 0.314672
O O11 0.885665 0.819780 0.453067
O O12 0.747554 0.717772 0.580181
O O13 0.000000 0.099830 0.750000
O O14 0.942179 0.000000 0.500000
#
# Coordination Sequence:
#
# PCOD9316931 Si02
#       6
#     8   8   8   8   8   8
#     4   8  15  31  54  73  96 136 176 210 257 313
#     4  10  19  31  50  75 104 135 170 215 267 309
#     4   9  17  33  55  75  99 136 180 218 253 306
#     4   9  19  33  49  74 105 136 172 210 251 306
#     4  10  20  34  51  75 108 139 168 207 259 315
#     4   8  16  32  52  72  97 136 177 208 250 311
#
# _framework density 27.246759999999998
#
# number of rings (size 3 to 8) (size 9 to 14) (size 15 to 20)
#    0.000    3.000    0.000    3.000    0.000    4.000 
#    0.000    9.167    0.000    7.000    0.000    0.000 
#    0.000    0.000    0.000    0.000    0.000    0.000 
#
# Total GULP energy -133794.137209 kJ/mol
# GULP energy per Si atom -5574.755717 kJ/mol
# Density = 2.718474 g / cm^3
# Si number density = 27.246760 Si / 1000 Ang^3
#
#
#
# Elastic Constant Matrix: (Units=GPa)
#
#
# Indices 1 2 3 4 5 6 
#
# 1 73.4106 -0.7247 7.7697 0.0000 0.0000 0.0000
# 2 -0.7247 14.2219 25.3646 0.0000 0.0000 0.0000
# 3 7.7697 25.3646 138.0680 0.0000 0.0000 0.0000
# 4 0.0000 0.0000 0.0000 47.7017 0.0000 0.0000
# 5 0.0000 0.0000 0.0000 0.0000 50.4067 0.0000
# 6 0.0000 0.0000 0.0000 0.0000 0.0000 -2.5286
#
#
#
# Elastic Compliance Matrix: (Units=1/GPa)
#
#
# Indices 1 2 3 4 5 6 
#
# 1 0.013795 0.003105 -0.001347 0.000000 0.000000 0.000000
# 2 0.003105 0.105278 -0.019516 0.000000 0.000000 0.000000
# 3 -0.001347 -0.019516 0.010904 0.000000 0.000000 0.000000
# 4 0.000000 0.000000 0.000000 0.020964 0.000000 0.000000
# 5 0.000000 0.000000 0.000000 0.000000 0.019839 0.000000
# 6 0.000000 0.000000 0.000000 0.000000 0.000000 -0.395481
#
#
# Mechanical properties :
#
#
# Convention : Reuss Voigt Hill
#
# Bulk Modulus (GPa) = 10.58622 32.27998 21.43310
# Shear Modulus (GPa) = -31.70606 32.00201 0.14798
#
# Velocity S-wave (km/s) = -3.41495 3.43085 0.23330
# Velocity P-wave (km/s) = 3.41401 5.25046 2.82063
#
# Compressibility (1/GPa) = 0.09446240
#
# Stress axis : x y z
#
# Youngs Moduli (GPa) = 72.48902 9.49863 91.71099
#
# Poissons Ratio (x) = -0.02949 0.12351
# Poissons Ratio (y) = -0.22506 1.78979
# Poissons Ratio (z) = 0.09762 0.18537
#
# Static dielectric constant tensor:
#      x y z
#    x 2.210060 0.000000 0.000000 
#    y 0.000000 2.272460 0.000000 
#    z 0.000000 0.000000 2.057970 
# 
# From -- ./inp_files/8402.got.cif
#   From: 2010.05.17/outbox.cif.g08.bks.cpg/sg20_5_cif.got.tgz:8402.got - 2010.06.03 22:52:26.
