data_PCOD9316064
_publ_section_title
;
Structure prediction by ZEFSAII (Michael W. Deem and Ramdas Pophale) SiO2 
 PCOD9316064
Probable space group: P 21 21 21
;
_chemical_formula_sum "Si O2"
_cell_formula_units_Z 24
_cell_length_a 4.931626
_cell_length_b 8.721476
_cell_length_c 20.363026
_cell_angle_alpha 90.000000
_cell_angle_beta 90.000000
_cell_angle_gamma 90.000000
_cell_volume 875.835288
_symmetry_space_group_name_H-M "P 21 21 21"
_symmetry_group_IT_number 19
_symmetry_cell_setting 'orthorhombic'
loop_
_space_group_symop_operation_xyz
x,y,z
1/2-x,-y,1/2+z
1/2+x,1/2-y,-z
-x,1/2+y,1/2-z
loop_
_atom_site_type_symbol
_atom_site_label
_atom_site_fract_x
_atom_site_fract_y
_atom_site_fract_z
Si Si1 0.721305 0.421151 0.962688
Si Si2 0.971605 0.148996 0.903549
Si Si3 0.072718 0.694125 0.963131
Si Si4 0.378987 0.392540 0.838395
Si Si5 0.691911 0.152561 0.336560
Si Si6 0.203550 0.281305 0.271306
O O1 0.999589 0.515694 0.960631
O O2 0.538467 0.467147 0.900227
O O3 0.752721 0.242599 0.945723
O O4 0.626115 0.437500 0.037409
O O5 0.153225 0.277253 0.867540
O O6 0.856649 0.024292 0.853642
O O7 0.946409 0.760199 0.897138
O O8 0.877585 0.763855 0.019786
O O9 0.302194 0.539150 0.792191
O O10 0.576775 0.282081 0.796247
O O11 0.001061 0.196038 0.323132
O O12 0.505951 0.215828 0.277581
#
# Coordination Sequence:
#
# PCOD9316064 Si02
#       6
#     4   4   4   4   4   4
#     4  12  27  45  76 113 157 203 259 328 403 469
#     4  12  28  46  80 113 162 201 265 330 407 469
#     4  12  26  46  78 112 157 202 257 323 402 471
#     4  12  29  52  78 114 156 214 267 331 392 484
#     4  12  28  50  80 116 154 209 261 327 394 478
#     4  12  30  53  82 112 160 213 271 323 396 473
#
# _framework density 27.402415000000001
#
# number of rings (size 3 to 8) (size 9 to 14) (size 15 to 20)
#    0.000    0.000    5.000    3.000   11.667    0.000 
#    0.000    0.000    0.000    0.000    0.000    0.000 
#    0.000    0.000    0.000    0.000    0.000    0.000 
#
# Total GULP energy -134623.188693 kJ/mol
# GULP energy per Si atom -5609.299529 kJ/mol
# Density = 2.734005 g / cm^3
# Si number density = 27.402415 Si / 1000 Ang^3
#
#
#
# Elastic Constant Matrix: (Units=GPa)
#
#
# Indices 1 2 3 4 5 6 
#
# 1 73.1786 26.2432 15.2019 0.0000 0.0000 0.0000
# 2 26.2432 194.6222 40.2301 0.0000 0.0000 0.0000
# 3 15.2019 40.2301 146.1862 0.0000 0.0000 0.0000
# 4 0.0000 0.0000 0.0000 56.3954 0.0000 0.0000
# 5 0.0000 0.0000 0.0000 0.0000 52.5006 0.0000
# 6 0.0000 0.0000 0.0000 0.0000 0.0000 59.6465
#
#
#
# Elastic Compliance Matrix: (Units=1/GPa)
#
#
# Indices 1 2 3 4 5 6 
#
# 1 0.014504 -0.001743 -0.001029 0.000000 0.000000 0.000000
# 2 -0.001743 0.005658 -0.001376 0.000000 0.000000 0.000000
# 3 -0.001029 -0.001376 0.007326 0.000000 0.000000 0.000000
# 4 0.000000 0.000000 0.000000 0.017732 0.000000 0.000000
# 5 0.000000 0.000000 0.000000 0.000000 0.019047 0.000000
# 6 0.000000 0.000000 0.000000 0.000000 0.000000 0.016765
#
#
# Mechanical properties :
#
#
# Convention : Reuss Voigt Hill
#
# Bulk Modulus (GPa) = 52.10249 64.14860 58.12555
# Shear Modulus (GPa) = 52.23304 55.86263 54.04784
#
# Velocity S-wave (km/s) = 4.37068 4.51999 4.44596
# Velocity P-wave (km/s) = 6.67275 7.12047 6.90024
#
# Compressibility (1/GPa) = 0.01919294
#
# Stress axis : x y z
#
# Youngs Moduli (GPa) = 68.94660 176.75428 136.49764
#
# Poissons Ratio (x) = 0.30811 0.14040
# Poissons Ratio (y) = 0.12018 0.18778
# Poissons Ratio (z) = 0.07092 0.24316
#
# Static dielectric constant tensor:
#      x y z
#    x 2.109960 0.000000 0.000000 
#    y 0.000000 2.133190 0.000000 
#    z 0.000000 0.000000 2.242990 
# 
# From -- ./inp_files/6392.got.cif
#   From: 2010.05.17/outbox.cif.g08.bks.cpg/sg19_4_cif.got.tgz:6392.got - 2010.06.03 22:46:19.
