data_PCOD9316072
_publ_section_title
;
Structure prediction by ZEFSAII (Michael W. Deem and Ramdas Pophale) SiO2 
 PCOD9316072
Probable space group: P 21 21 21
;
_chemical_formula_sum "Si O2"
_cell_formula_units_Z 20
_cell_length_a 14.616687
_cell_length_b 5.792526
_cell_length_c 9.141536
_cell_angle_alpha 90.000000
_cell_angle_beta 90.000000
_cell_angle_gamma 90.000000
_cell_volume 773.991360
_symmetry_space_group_name_H-M "P 21 21 21"
_symmetry_group_IT_number 19
_symmetry_cell_setting 'orthorhombic'
loop_
_space_group_symop_operation_xyz
x,y,z
1/2-x,-y,1/2+z
1/2+x,1/2-y,-z
-x,1/2+y,1/2-z
loop_
_atom_site_type_symbol
_atom_site_label
_atom_site_fract_x
_atom_site_fract_y
_atom_site_fract_z
Si Si1 0.269799 0.317413 0.107533
Si Si2 0.935461 0.489723 0.897867
Si Si3 0.098283 0.189999 0.921681
Si Si4 0.981644 0.042260 0.178290
Si Si5 0.314587 0.685604 0.914493
O O1 0.240307 0.246954 0.271054
O O2 0.375379 0.242753 0.106918
O O3 0.199715 0.203298 0.990139
O O4 0.263650 0.584309 0.056407
O O5 0.915162 0.611588 0.744130
O O6 0.041421 0.432158 0.924618
O O7 0.887058 0.631795 0.026350
O O8 0.042089 0.026908 0.031593
O O9 0.999819 0.302327 0.235582
O O10 0.874070 0.025499 0.149327
#
# Coordination Sequence:
#
# PCOD9316072 Si02
#       5
#     4   4   4   4   4
#     4  12  28  47  79 115 159 220 273 347 418 503
#     4  12  28  52  73 120 161 213 282 344 420 506
#     4  12  27  49  84 113 159 219 269 349 416 500
#     4  12  26  49  81 119 157 213 274 340 417 497
#     4  12  27  49  75 113 164 207 282 342 417 504
#
# _framework density 25.840084000000001
#
# number of rings (size 3 to 8) (size 9 to 14) (size 15 to 20)
#    0.000    0.000    4.000    4.800    2.800    4.800 
#    0.000    0.000    0.000    0.000    0.000    0.000 
#    0.000    0.000    0.000    0.000    0.000    0.000 
#
# Total GULP energy -111758.658503 kJ/mol
# GULP energy per Si atom -5587.932925 kJ/mol
# Density = 2.578127 g / cm^3
# Si number density = 25.840084 Si / 1000 Ang^3
#
#
#
# Elastic Constant Matrix: (Units=GPa)
#
#
# Indices 1 2 3 4 5 6 
#
# 1 69.4840 0.9454 -0.9778 0.0000 0.0000 0.0000
# 2 0.9454 77.5294 53.6509 0.0000 0.0000 0.0000
# 3 -0.9778 53.6509 123.3038 0.0000 0.0000 0.0000
# 4 0.0000 0.0000 0.0000 38.6643 0.0000 0.0000
# 5 0.0000 0.0000 0.0000 0.0000 43.4480 0.0000
# 6 0.0000 0.0000 0.0000 0.0000 0.0000 48.1334
#
#
#
# Elastic Compliance Matrix: (Units=1/GPa)
#
#
# Indices 1 2 3 4 5 6 
#
# 1 0.014401 -0.000364 0.000273 0.000000 0.000000 0.000000
# 2 -0.000364 0.018464 -0.008037 0.000000 0.000000 0.000000
# 3 0.000273 -0.008037 0.011609 0.000000 0.000000 0.000000
# 4 0.000000 0.000000 0.000000 0.025864 0.000000 0.000000
# 5 0.000000 0.000000 0.000000 0.000000 0.023016 0.000000
# 6 0.000000 0.000000 0.000000 0.000000 0.000000 0.020776
#
#
# Mechanical properties :
#
#
# Convention : Reuss Voigt Hill
#
# Bulk Modulus (GPa) = 35.43955 41.95046 38.69501
# Shear Modulus (GPa) = 35.76736 40.49573 38.13155
#
# Velocity S-wave (km/s) = 3.72449 3.96304 3.84562
# Velocity P-wave (km/s) = 5.67808 6.10007 5.89285
#
# Compressibility (1/GPa) = 0.02821706
#
# Stress axis : x y z
#
# Youngs Moduli (GPa) = 69.44155 54.15821 86.13866
#
# Poissons Ratio (x) = 0.01973 -0.02349
# Poissons Ratio (y) = 0.02530 0.69229
# Poissons Ratio (z) = -0.01894 0.43527
#
# Static dielectric constant tensor:
#      x y z
#    x 2.013840 0.000000 0.000000 
#    y 0.000000 2.090000 0.000000 
#    z 0.000000 0.000000 2.130480 
# 
# From -- ./inp_files/4082.got.cif
#   From: 2010.05.17/outbox.cif.g08.bks.cpg/sg19_3_cif.got.tgz:4082.got - 2010.06.03 22:46:19.
