data_PCOD9316361
_publ_section_title
;
Structure prediction by ZEFSAII (Michael W. Deem and Ramdas Pophale) SiO2 
 PCOD9316361
Probable space group: C 2 2 21
;
_chemical_formula_sum "Si O2"
_cell_formula_units_Z 60
_cell_length_a 5.785771
_cell_length_b 20.134349
_cell_length_c 24.131357
_cell_angle_alpha 90.000000
_cell_angle_beta 90.000000
_cell_angle_gamma 90.000000
_cell_volume 2811.127717
_symmetry_space_group_name_H-M "C 2 2 21"
_symmetry_group_IT_number 20
_symmetry_cell_setting 'orthorhombic'
loop_
_space_group_symop_operation_xyz
x,y,z
-x,-y,1/2+z
x,-y,-z
-x,y,1/2-z
1/2+x,1/2+y,z
1/2-x,1/2-y,1/2+z
1/2+x,1/2-y,-z
1/2-x,1/2+y,1/2-z
loop_
_atom_site_type_symbol
_atom_site_label
_atom_site_fract_x
_atom_site_fract_y
_atom_site_fract_z
Si Si1 0.132155 0.912700 0.097257
Si Si2 0.380746 0.755763 0.694787
Si Si3 0.907559 0.706022 0.961941
Si Si4 0.619638 0.124993 0.431213
Si Si5 0.110693 0.375592 0.304176
Si Si6 0.241477 0.000000 0.000000
Si Si7 0.773884 0.182600 0.876842
Si Si8 0.629298 0.663043 0.391759
O O1 0.234313 0.845346 0.068998
O O2 0.299792 0.926037 0.149023
O O3 0.896884 0.888288 0.122799
O O4 0.104754 0.966524 0.050273
O O5 0.500000 0.784023 0.750000
O O6 0.301344 0.680494 0.709689
O O7 0.565820 0.741804 0.645330
O O8 0.179123 0.799895 0.666986
O O9 0.864999 0.779579 0.939307
O O10 0.158682 0.690036 0.936549
O O11 0.886655 0.686804 0.025573
O O12 0.623172 0.059840 0.470706
O O13 0.370735 0.122908 0.400428
O O14 0.871676 0.130352 0.399456
O O15 0.000000 0.406554 0.250000
O O16 0.925625 0.327642 0.332852
#
# Coordination Sequence:
#
# PCOD9316361 Si02
#       8
#     8   8   8   8   8   4   8   8
#     4   9  20  35  60  88 123 171 217 284 331 405
#     4  11  21  33  59  93 138 176 202 260 336 420
#     4  10  20  35  58  91 130 160 201 262 334 408
#     4  11  27  40  64  88 124 178 218 274 328 387
#     4  10  18  31  57  94 129 164 213 266 345 403
#     4  10  24  50  60  88 124 180 248 278 348 388
#     4  10  17  33  56  93 128 167 209 258 329 402
#     4  12  23  40  60  97 131 165 215 263 333 408
#
# _framework density 21.343748000000001
#
# number of rings (size 3 to 8) (size 9 to 14) (size 15 to 20)
#    0.000    1.600    5.333    1.600    3.733    0.533 
#    4.800    0.000    0.000    0.800    3.467    0.000 
#    0.000    0.000    0.000    0.000    0.000    0.000 
#
# Total GULP energy -167068.350087 kJ/mol
# GULP energy per Si atom -5568.945003 kJ/mol
# Density = 2.129517 g / cm^3
# Si number density = 21.343748 Si / 1000 Ang^3
#
#
#
# Elastic Constant Matrix: (Units=GPa)
#
#
# Indices 1 2 3 4 5 6 
#
# 1 107.0505 17.8048 43.6666 0.0000 0.0000 0.0000
# 2 17.8048 50.4264 10.8596 0.0000 0.0000 0.0000
# 3 43.6666 10.8596 109.1895 0.0000 0.0000 0.0000
# 4 0.0000 0.0000 0.0000 27.7209 0.0000 0.0000
# 5 0.0000 0.0000 0.0000 0.0000 30.5262 0.0000
# 6 0.0000 0.0000 0.0000 0.0000 0.0000 6.5781
#
#
#
# Elastic Compliance Matrix: (Units=1/GPa)
#
#
# Indices 1 2 3 4 5 6 
#
# 1 0.011639 -0.003175 -0.004339 0.000000 0.000000 0.000000
# 2 -0.003175 0.021131 -0.000832 0.000000 0.000000 0.000000
# 3 -0.004339 -0.000832 0.010976 0.000000 0.000000 0.000000
# 4 0.000000 0.000000 0.000000 0.036074 0.000000 0.000000
# 5 0.000000 0.000000 0.000000 0.000000 0.032759 0.000000
# 6 0.000000 0.000000 0.000000 0.000000 0.000000 0.152020
#
#
# Mechanical properties :
#
#
# Convention : Reuss Voigt Hill
#
# Bulk Modulus (GPa) = 36.96197 45.70314 41.33256
# Shear Modulus (GPa) = 17.22297 25.92074 21.57185
#
# Velocity S-wave (km/s) = 2.84374 3.48866 3.18258
# Velocity P-wave (km/s) = 5.30448 6.13898 5.73692
#
# Compressibility (1/GPa) = 0.02705483
#
# Stress axis : x y z
#
# Youngs Moduli (GPa) = 85.91515 47.32345 91.10507
#
# Poissons Ratio (x) = 0.15027 0.39530
# Poissons Ratio (y) = 0.27280 0.07578
# Poissons Ratio (z) = 0.37278 0.03936
#
# Static dielectric constant tensor:
#      x y z
#    x 1.865860 0.000000 0.000000 
#    y 0.000000 1.787800 0.000000 
#    z 0.000000 0.000000 1.814220 
# 
# From -- ./inp_files/28453.got.cif
#   From: 2010.05.17/outbox.cif.g08.bks.cpg/sg20_15_cif.got.tgz:28453.got - 2010.06.03 22:52:26.
