data_PCOD9316252
_publ_section_title
;
Structure prediction by ZEFSAII (Michael W. Deem and Ramdas Pophale) SiO2 
 PCOD9316252
Probable space group: C 2 2 21
;
_chemical_formula_sum "Si O2"
_cell_formula_units_Z 48
_cell_length_a 7.715364
_cell_length_b 17.022887
_cell_length_c 15.331980
_cell_angle_alpha 90.000000
_cell_angle_beta 90.000000
_cell_angle_gamma 90.000000
_cell_volume 2013.668056
_symmetry_space_group_name_H-M "C 2 2 21"
_symmetry_group_IT_number 20
_symmetry_cell_setting 'orthorhombic'
loop_
_space_group_symop_operation_xyz
x,y,z
-x,-y,1/2+z
x,-y,-z
-x,y,1/2-z
1/2+x,1/2+y,z
1/2-x,1/2-y,1/2+z
1/2+x,1/2-y,-z
1/2-x,1/2+y,1/2-z
loop_
_atom_site_type_symbol
_atom_site_label
_atom_site_fract_x
_atom_site_fract_y
_atom_site_fract_z
Si Si1 0.781868 0.115778 0.286615
Si Si2 0.870453 0.572780 0.553616
Si Si3 0.884063 0.736086 0.607940
Si Si4 0.711117 0.299505 0.082040
Si Si5 0.414198 0.144456 0.368147
Si Si6 0.745227 0.474794 0.099449
O O1 0.857110 0.199230 0.316757
O O2 0.589020 0.118839 0.324710
O O3 0.752059 0.110336 0.183074
O O4 0.841468 0.036398 0.334201
O O5 0.778699 0.500000 0.500000
O O6 0.800668 0.647063 0.611059
O O7 0.926469 0.378311 0.531711
O O8 0.041424 0.536975 0.601551
O O9 0.820547 0.781283 0.520332
O O10 0.088814 0.719997 0.601178
O O11 0.598864 0.237815 0.135426
O O12 0.673102 0.387680 0.108038
O O13 0.713096 0.500000 0.000000
#
# Coordination Sequence:
#
# PCOD9316252 Si02
#       6
#     8   8   8   8   8   8
#     4  11  20  36  58  82 113 152 191 237 302 335
#     4   9  16  33  56  82 105 138 197 241 265 330
#     4  10  19  33  60  83 110 147 186 238 280 352
#     4  10  20  35  59  84 112 145 193 232 286 344
#     4  10  21  35  56  82 114 151 186 239 292 347
#     4  10  16  33  60  83 105 145 198 236 269 350
#
# _framework density 23.837095999999999
#
# number of rings (size 3 to 8) (size 9 to 14) (size 15 to 20)
#    0.000    2.000    5.000    2.000    0.000    0.667 
#    3.000    0.000   22.000    0.000    0.000    0.000 
#    0.000    0.000    0.000    0.000    0.000    0.000 
#
# Total GULP energy -133703.998577 kJ/mol
# GULP energy per Si atom -5570.999941 kJ/mol
# Density = 2.378284 g / cm^3
# Si number density = 23.837096 Si / 1000 Ang^3
#
#
#
# Elastic Constant Matrix: (Units=GPa)
#
#
# Indices 1 2 3 4 5 6 
#
# 1 28.5352 28.8048 15.3994 0.0000 0.0000 0.0000
# 2 28.8048 189.4072 10.1369 0.0000 0.0000 0.0000
# 3 15.3994 10.1369 42.0855 0.0000 0.0000 0.0000
# 4 0.0000 0.0000 0.0000 5.9852 0.0000 0.0000
# 5 0.0000 0.0000 0.0000 0.0000 17.9452 0.0000
# 6 0.0000 0.0000 0.0000 0.0000 0.0000 31.6369
#
#
#
# Elastic Compliance Matrix: (Units=1/GPa)
#
#
# Indices 1 2 3 4 5 6 
#
# 1 0.051198 -0.006872 -0.017078 0.000000 0.000000 0.000000
# 2 -0.006872 0.006271 0.001004 0.000000 0.000000 0.000000
# 3 -0.017078 0.001004 0.029768 0.000000 0.000000 0.000000
# 4 0.000000 0.000000 0.000000 0.167080 0.000000 0.000000
# 5 0.000000 0.000000 0.000000 0.000000 0.055725 0.000000
# 6 0.000000 0.000000 0.000000 0.000000 0.000000 0.031609
#
#
# Mechanical properties :
#
#
# Convention : Reuss Voigt Hill
#
# Bulk Modulus (GPa) = 24.18700 40.96777 32.57738
# Shear Modulus (GPa) = 12.45871 24.82590 18.64230
#
# Velocity S-wave (km/s) = 2.28866 3.23070 2.79959
# Velocity P-wave (km/s) = 4.14159 5.58036 4.91392
#
# Compressibility (1/GPa) = 0.04134453
#
# Stress axis : x y z
#
# Youngs Moduli (GPa) = 19.53200 159.46437 33.59264
#
# Poissons Ratio (x) = 1.09586 0.57371
# Poissons Ratio (y) = 0.13423 -0.03373
# Poissons Ratio (z) = 0.33358 -0.16012
#
# Static dielectric constant tensor:
#      x y z
#    x 1.996460 0.000000 0.000000 
#    y 0.000000 2.006720 0.000000 
#    z 0.000000 0.000000 1.948210 
# 
# From -- ./inp_files/23445.got.cif
#   From: 2010.05.17/outbox.cif.g08.bks.cpg/sg20_12_cif.got.tgz:23445.got - 2010.06.03 22:52:26.
