data_PCOD9316861
_publ_section_title
;
Structure prediction by ZEFSAII (Michael W. Deem and Ramdas Pophale) SiO2 
 PCOD9316861
Probable space group: C 2 2 21
;
_chemical_formula_sum "Si O2"
_cell_formula_units_Z 64
_cell_length_a 9.710714
_cell_length_b 16.450309
_cell_length_c 21.931677
_cell_angle_alpha 90.000000
_cell_angle_beta 90.000000
_cell_angle_gamma 90.000000
_cell_volume 3503.459204
_symmetry_space_group_name_H-M "C 2 2 21"
_symmetry_group_IT_number 20
_symmetry_cell_setting 'orthorhombic'
loop_
_space_group_symop_operation_xyz
x,y,z
-x,-y,1/2+z
x,-y,-z
-x,y,1/2-z
1/2+x,1/2+y,z
1/2-x,1/2-y,1/2+z
1/2+x,1/2-y,-z
1/2-x,1/2+y,1/2-z
loop_
_atom_site_type_symbol
_atom_site_label
_atom_site_fract_x
_atom_site_fract_y
_atom_site_fract_z
Si Si1 0.276297 0.802558 0.136918
Si Si2 0.950070 0.708680 0.440189
Si Si3 0.273260 0.152220 0.126774
Si Si4 0.843922 0.474196 0.687738
Si Si5 0.342374 0.792197 0.742215
Si Si6 0.735952 0.561866 0.443326
Si Si7 0.664877 0.019822 0.677417
Si Si8 0.491530 0.302121 0.936004
O O1 0.247122 0.769124 0.203907
O O2 0.296952 0.898009 0.143181
O O3 0.407748 0.757045 0.109093
O O4 0.145398 0.770908 0.098063
O O5 0.084885 0.678739 0.404884
O O6 0.996440 0.754807 0.500621
O O7 0.856572 0.629120 0.452190
O O8 0.275282 0.193462 0.192795
O O9 0.142649 0.178592 0.088266
O O10 0.273158 0.056623 0.141544
O O11 0.849687 0.378443 0.706111
O O12 0.763113 0.478882 0.623489
O O13 0.791653 0.516374 0.750599
O O14 0.999658 0.505280 0.677825
O O15 0.500000 0.764729 0.750000
O O16 0.736000 0.500000 0.500000
O O17 0.596919 0.615270 0.441520
#
# Coordination Sequence:
#
# PCOD9316861 Si02
#       8
#     8   8   8   8   8   8   8   8
#     4  11  23  41  63  96 131 152 215 269 311 370
#     4  11  22  45  65  89 126 176 217 252 311 394
#     4  11  21  40  70  89 122 172 209 252 326 375
#     4  10  18  41  65  90 121 165 216 247 315 389
#     4  11  17  40  71  88 119 171 205 252 315 386
#     4  11  23  43  66  87 127 176 212 259 319 382
#     4  10  21  37  67  94 121 159 211 267 304 383
#     4  11  26  41  60  97 131 162 212 267 318 368
#
# _framework density 18.267659999999999
#
# number of rings (size 3 to 8) (size 9 to 14) (size 15 to 20)
#    0.000    1.250    7.500    1.500    1.750    3.500 
#    2.250    3.125    0.000    0.000    0.000    0.000 
#    0.000    0.000    0.000    0.000    0.000    0.000 
#
# Total GULP energy -178642.828365 kJ/mol
# GULP energy per Si atom -5582.588386 kJ/mol
# Density = 1.822608 g / cm^3
# Si number density = 18.267660 Si / 1000 Ang^3
#
#
#
# Elastic Constant Matrix: (Units=GPa)
#
#
# Indices 1 2 3 4 5 6 
#
# 1 59.9924 16.5968 16.0004 0.0000 0.0000 0.0000
# 2 16.5968 77.8310 42.1887 0.0000 0.0000 0.0000
# 3 16.0004 42.1887 79.7435 0.0000 0.0000 0.0000
# 4 0.0000 0.0000 0.0000 26.0036 0.0000 0.0000
# 5 0.0000 0.0000 0.0000 0.0000 28.1232 0.0000
# 6 0.0000 0.0000 0.0000 0.0000 0.0000 -47.7031
#
#
#
# Elastic Compliance Matrix: (Units=1/GPa)
#
#
# Indices 1 2 3 4 5 6 
#
# 1 0.017989 -0.002635 -0.002215 0.000000 0.000000 0.000000
# 2 -0.002635 0.018401 -0.009206 0.000000 0.000000 0.000000
# 3 -0.002215 -0.009206 0.017855 0.000000 0.000000 0.000000
# 4 0.000000 0.000000 0.000000 0.038456 0.000000 0.000000
# 5 0.000000 0.000000 0.000000 0.000000 0.035558 0.000000
# 6 0.000000 0.000000 0.000000 0.000000 0.000000 -0.020963
#
#
# Mechanical properties :
#
#
# Convention : Reuss Voigt Hill
#
# Bulk Modulus (GPa) = 38.26828 40.79321 39.53075
# Shear Modulus (GPa) = 34.69359 10.80348 22.74854
#
# Velocity S-wave (km/s) = 4.36269 2.43451 3.53270
# Velocity P-wave (km/s) = 6.80966 5.50289 6.19085
#
# Compressibility (1/GPa) = 0.02613130
#
# Stress axis : x y z
#
# Youngs Moduli (GPa) = 55.59073 54.34634 56.00594
#
# Poissons Ratio (x) = 0.14321 0.12407
# Poissons Ratio (y) = 0.14649 0.51560
# Poissons Ratio (z) = 0.12315 0.50032
#
# Static dielectric constant tensor:
#      x y z
#    x 1.608290 0.000000 0.000000 
#    y 0.000000 1.607400 0.000000 
#    z 0.000000 0.000000 1.668540 
# 
# From -- ./inp_files/26890.got.cif
#   From: 2010.05.17/outbox.cif.g08.bks.cpg/sg20_14_cif.got.tgz:26890.got - 2010.06.03 22:52:26.
