data_PCOD9316284
_publ_section_title
;
Structure prediction by ZEFSAII (Michael W. Deem and Ramdas Pophale) SiO2 
 PCOD9316284
Probable space group: C 2 2 21
;
_chemical_formula_sum "Si O2"
_cell_formula_units_Z 40
_cell_length_a 19.878009
_cell_length_b 13.437947
_cell_length_c 5.491378
_cell_angle_alpha 90.000000
_cell_angle_beta 90.000000
_cell_angle_gamma 90.000000
_cell_volume 1466.854867
_symmetry_space_group_name_H-M "C 2 2 21"
_symmetry_group_IT_number 20
_symmetry_cell_setting 'orthorhombic'
loop_
_space_group_symop_operation_xyz
x,y,z
-x,-y,1/2+z
x,-y,-z
-x,y,1/2-z
1/2+x,1/2+y,z
1/2-x,1/2-y,1/2+z
1/2+x,1/2-y,-z
1/2-x,1/2+y,1/2-z
loop_
_atom_site_type_symbol
_atom_site_label
_atom_site_fract_x
_atom_site_fract_y
_atom_site_fract_z
Si Si1 0.403731 0.780782 0.675640
Si Si2 0.567720 0.883925 0.317822
Si Si3 0.580363 0.547890 0.750669
Si Si4 0.252791 0.342828 0.840330
Si Si5 0.282848 0.883318 0.165582
O O1 0.433040 0.805423 0.407870
O O2 0.410040 0.665643 0.735847
O O3 0.325836 0.811071 0.657879
O O4 0.432797 0.840194 0.909074
O O5 0.500000 0.944692 0.250000
O O6 0.643035 0.930327 0.300159
O O7 0.605685 0.500000 0.500000
O O8 0.500000 0.529682 0.750000
O O9 0.606441 0.500000 0.000000
O O10 0.293162 0.238954 0.838823
O O11 0.254777 0.401002 0.588076
O O12 0.261199 0.397304 0.095201
#
# Coordination Sequence:
#
# PCOD9316284 Si02
#       5
#     8   8   8   8   8
#     4  10  18  27  38  49  63  85 114 141 164 193
#     4  10  17  24  36  52  69  87 108 134 161 191
#     4  10  19  28  36  46  62  83 107 137 171 199
#     4   8  14  24  36  48  62  81 105 133 159 186
#     4   8  14  23  34  49  66  82 102 129 159 187
#
# _framework density 27.269227000000001
#
# number of rings (size 3 to 8) (size 9 to 14) (size 15 to 20)
#    0.000    2.800    0.000    3.000    0.000    1.600 
#    0.000    0.000    0.000    0.000    0.000    0.000 
#    0.000    0.000    0.000    0.000    0.000    2.000 
#
# Total GULP energy -111910.582426 kJ/mol
# GULP energy per Si atom -5595.529121 kJ/mol
# Density = 2.720716 g / cm^3
# Si number density = 27.269227 Si / 1000 Ang^3
#
#
#
# Elastic Constant Matrix: (Units=GPa)
#
#
# Indices 1 2 3 4 5 6 
#
# 1 141.3739 0.5056 36.1966 0.0000 0.0000 0.0000
# 2 0.5056 85.7595 76.3652 0.0000 0.0000 0.0000
# 3 36.1966 76.3652 298.9495 0.0000 0.0000 0.0000
# 4 0.0000 0.0000 0.0000 46.8698 0.0000 0.0000
# 5 0.0000 0.0000 0.0000 0.0000 8.3326 0.0000
# 6 0.0000 0.0000 0.0000 0.0000 0.0000 15.4167
#
#
#
# Elastic Compliance Matrix: (Units=1/GPa)
#
#
# Indices 1 2 3 4 5 6 
#
# 1 0.007362 0.000971 -0.001139 0.000000 0.000000 0.000000
# 2 0.000971 0.015222 -0.004006 0.000000 0.000000 0.000000
# 3 -0.001139 -0.004006 0.004506 0.000000 0.000000 0.000000
# 4 0.000000 0.000000 0.000000 0.021336 0.000000 0.000000
# 5 0.000000 0.000000 0.000000 0.000000 0.120010 0.000000
# 6 0.000000 0.000000 0.000000 0.000000 0.000000 0.064865
#
#
# Mechanical properties :
#
#
# Convention : Reuss Voigt Hill
#
# Bulk Modulus (GPa) = 53.35727 83.57974 68.46851
# Shear Modulus (GPa) = 20.16973 41.65818 30.91395
#
# Velocity S-wave (km/s) = 2.72260 3.91277 3.37064
# Velocity P-wave (km/s) = 5.43072 7.15048 6.34910
#
# Compressibility (1/GPa) = 0.01874159
#
# Stress axis : x y z
#
# Youngs Moduli (GPa) = 135.83806 65.69466 221.91083
#
# Poissons Ratio (x) = -0.06380 0.25286
# Poissons Ratio (y) = -0.13193 0.88897
# Poissons Ratio (z) = 0.15478 0.26317
#
# Static dielectric constant tensor:
#      x y z
#    x 2.139350 0.000000 0.000000 
#    y 0.000000 2.107070 0.000000 
#    z 0.000000 0.000000 2.181040 
# 
# From -- ./inp_files/1406.got.cif
#   From: 2010.05.17/outbox.cif.g08.bks.cpg/sg20_1_cif.got.tgz:1406.got - 2010.06.03 22:52:26.
