data_PCOD9316842
_publ_section_title
;
Structure prediction by ZEFSAII (Michael W. Deem and Ramdas Pophale) SiO2 
 PCOD9316842
Probable space group: C 2 2 21
;
_chemical_formula_sum "Si O2"
_cell_formula_units_Z 40
_cell_length_a 13.885615
_cell_length_b 9.323380
_cell_length_c 14.533287
_cell_angle_alpha 90.000000
_cell_angle_beta 90.000000
_cell_angle_gamma 90.000000
_cell_volume 1881.491909
_symmetry_space_group_name_H-M "C 2 2 21"
_symmetry_group_IT_number 20
_symmetry_cell_setting 'orthorhombic'
loop_
_space_group_symop_operation_xyz
x,y,z
-x,-y,1/2+z
x,-y,-z
-x,y,1/2-z
1/2+x,1/2+y,z
1/2-x,1/2-y,1/2+z
1/2+x,1/2-y,-z
1/2-x,1/2+y,1/2-z
loop_
_atom_site_type_symbol
_atom_site_label
_atom_site_fract_x
_atom_site_fract_y
_atom_site_fract_z
Si Si1 0.765290 0.457331 0.144789
Si Si2 0.901990 0.606980 0.692951
Si Si3 0.416499 0.500000 0.000000
Si Si4 0.463719 0.000000 0.500000
Si Si5 0.059138 0.940498 0.837630
Si Si6 0.855557 0.699396 0.023278
O O1 0.812720 0.437999 0.243965
O O2 0.650796 0.460364 0.144489
O O3 0.800463 0.606867 0.099471
O O4 0.807722 0.338694 0.075038
O O5 0.906196 0.535675 0.592529
O O6 0.905022 0.778924 0.681740
O O7 0.000000 0.568709 0.750000
O O8 0.485743 0.438069 0.921671
O O9 0.356342 0.632470 0.961276
O O10 0.536785 0.867199 0.519164
O O11 0.000000 0.992688 0.750000
#
# Coordination Sequence:
#
# PCOD9316842 Si02
#       6
#     8   8   4   4   8   8
#     4  10  22  44  68  98 136 179 235 274 344 410
#     4  11  19  41  70  94 135 173 225 288 340 404
#     4  12  22  45  69 100 142 174 230 281 351 412
#     4  10  18  39  67 102 120 186 214 271 361 392
#     4  11  25  44  67  96 135 185 222 284 343 397
#     4  10  20  39  74 100 128 180 220 284 345 399
#
# _framework density 21.259726000000001
#
# number of rings (size 3 to 8) (size 9 to 14) (size 15 to 20)
#    0.000    1.600    6.000    2.400    0.000    1.600 
#    7.200    4.000    0.000    0.000    0.000    0.000 
#    0.000    0.000    0.000    0.000    0.000    0.000 
#
# Total GULP energy -111858.769190 kJ/mol
# GULP energy per Si atom -5592.938460 kJ/mol
# Density = 2.121134 g / cm^3
# Si number density = 21.259726 Si / 1000 Ang^3
#
#
#
# Elastic Constant Matrix: (Units=GPa)
#
#
# Indices 1 2 3 4 5 6 
#
# 1 53.9210 15.4121 19.9953 0.0000 0.0000 0.0000
# 2 15.4121 80.5379 -0.7922 0.0000 0.0000 0.0000
# 3 19.9953 -0.7922 96.1310 0.0000 0.0000 0.0000
# 4 0.0000 0.0000 0.0000 11.4922 0.0000 0.0000
# 5 0.0000 0.0000 0.0000 0.0000 -0.4177 0.0000
# 6 0.0000 0.0000 0.0000 0.0000 0.0000 0.2839
#
#
#
# Elastic Compliance Matrix: (Units=1/GPa)
#
#
# Indices 1 2 3 4 5 6 
#
# 1 0.021391 -0.004138 -0.004483 0.000000 0.000000 0.000000
# 2 -0.004138 0.013218 0.000970 0.000000 0.000000 0.000000
# 3 -0.004483 0.000970 0.011343 0.000000 0.000000 0.000000
# 4 0.000000 0.000000 0.000000 0.087016 0.000000 0.000000
# 5 0.000000 0.000000 0.000000 0.000000 -2.393790 0.000000
# 6 0.000000 0.000000 0.000000 0.000000 0.000000 3.522268
#
#
# Mechanical properties :
#
#
# Convention : Reuss Voigt Hill
#
# Bulk Modulus (GPa) = 32.62765 33.31336 32.97050
# Shear Modulus (GPa) = 3.88511 15.33665 9.61088
#
# Velocity S-wave (km/s) = 1.35330 2.68879 2.12850
# Velocity P-wave (km/s) = 4.22165 5.03420 4.64573
#
# Compressibility (1/GPa) = 0.03064885
#
# Stress axis : x y z
#
# Youngs Moduli (GPa) = 46.74898 75.65536 88.15995
#
# Poissons Ratio (x) = 0.31303 0.39526
# Poissons Ratio (y) = 0.19343 -0.08547
# Poissons Ratio (z) = 0.20959 -0.07335
#
# Static dielectric constant tensor:
#      x y z
#    x 1.750300 0.000000 0.000000 
#    y 0.000000 1.766010 0.000000 
#    z 0.000000 0.000000 1.741780 
# 
# From -- ./inp_files/18595.got.cif
#   From: 2010.05.17/outbox.cif.g08.bks.cpg/sg20_10_cif.got.tgz:18595.got - 2010.06.03 22:52:26.
