data_PCOD9316860
_publ_section_title
;
Structure prediction by ZEFSAII (Michael W. Deem and Ramdas Pophale) SiO2 
 PCOD9316860
Probable space group: C 2 2 21
;
_chemical_formula_sum "Si O2"
_cell_formula_units_Z 52
_cell_length_a 17.357618
_cell_length_b 8.838211
_cell_length_c 17.392383
_cell_angle_alpha 90.000000
_cell_angle_beta 90.000000
_cell_angle_gamma 90.000000
_cell_volume 2668.170526
_symmetry_space_group_name_H-M "C 2 2 21"
_symmetry_group_IT_number 20
_symmetry_cell_setting 'orthorhombic'
loop_
_space_group_symop_operation_xyz
x,y,z
-x,-y,1/2+z
x,-y,-z
-x,y,1/2-z
1/2+x,1/2+y,z
1/2-x,1/2-y,1/2+z
1/2+x,1/2-y,-z
1/2-x,1/2+y,1/2-z
loop_
_atom_site_type_symbol
_atom_site_label
_atom_site_fract_x
_atom_site_fract_y
_atom_site_fract_z
Si Si1 0.951823 0.035178 0.827636
Si Si2 0.464795 0.735463 0.367373
Si Si3 0.300704 0.413484 0.656219
Si Si4 0.064886 0.570888 0.186070
Si Si5 0.184063 0.000000 0.000000
Si Si6 0.545327 0.288141 0.046285
Si Si7 0.812812 0.795522 0.242728
O O1 0.870066 0.113439 0.814522
O O2 0.000000 0.074418 0.750000
O O3 0.989650 0.099584 0.905851
O O4 0.961023 0.853607 0.834297
O O5 0.391275 0.625919 0.352079
O O6 0.477018 0.751470 0.459137
O O7 0.440552 0.892492 0.329197
O O8 0.269609 0.428149 0.569576
O O9 0.258584 0.280332 0.700711
O O10 0.290443 0.574171 0.697333
O O11 0.050125 0.647346 0.103431
O O12 0.140367 0.656573 0.218200
O O13 0.000000 0.602442 0.250000
O O14 0.127197 0.126702 0.963965
#
# Coordination Sequence:
#
# PCOD9316860 Si02
#       7
#     8   8   8   8   4   8   8
#     4  12  18  39  66  91 120 164 214 269 314 370
#     4  11  23  37  65  97 124 164 219 261 321 385
#     4  11  23  41  65  89 126 175 212 258 324 392
#     4  12  22  37  62  98 127 161 212 271 313 375
#     4  10  18  40  70  86 116 176 216 250 320 392
#     4  11  18  38  65  93 121 164 213 266 311 377
#     4  12  23  40  65  92 132 167 216 265 325 378
#
# _framework density 19.489007999999998
#
# number of rings (size 3 to 8) (size 9 to 14) (size 15 to 20)
#    0.000    0.615    9.231    1.846    0.000    0.000 
#    0.000    1.538    3.385    0.000    0.000    0.000 
#    0.000    0.000    0.000    0.000    0.000    0.000 
#
# Total GULP energy -145024.496469 kJ/mol
# GULP energy per Si atom -5577.865249 kJ/mol
# Density = 1.944465 g / cm^3
# Si number density = 19.489008 Si / 1000 Ang^3
#
#
#
# Elastic Constant Matrix: (Units=GPa)
#
#
# Indices 1 2 3 4 5 6 
#
# 1 40.7332 19.7369 36.7307 0.0000 0.0000 0.0000
# 2 19.7369 135.5556 44.6409 0.0000 0.0000 0.0000
# 3 36.7307 44.6409 133.8651 0.0000 0.0000 0.0000
# 4 0.0000 0.0000 0.0000 28.5184 0.0000 0.0000
# 5 0.0000 0.0000 0.0000 0.0000 22.1051 0.0000
# 6 0.0000 0.0000 0.0000 0.0000 0.0000 18.5037
#
#
#
# Elastic Compliance Matrix: (Units=1/GPa)
#
#
# Indices 1 2 3 4 5 6 
#
# 1 0.033123 -0.002055 -0.008403 0.000000 0.000000 0.000000
# 2 -0.002055 0.008415 -0.002242 0.000000 0.000000 0.000000
# 3 -0.008403 -0.002242 0.010524 0.000000 0.000000 0.000000
# 4 0.000000 0.000000 0.000000 0.035065 0.000000 0.000000
# 5 0.000000 0.000000 0.000000 0.000000 0.045238 0.000000
# 6 0.000000 0.000000 0.000000 0.000000 0.000000 0.054043
#
#
# Mechanical properties :
#
#
# Convention : Reuss Voigt Hill
#
# Bulk Modulus (GPa) = 37.50902 56.93010 47.21956
# Shear Modulus (GPa) = 22.65551 27.76178 25.20864
#
# Velocity S-wave (km/s) = 3.41321 3.77833 3.60040
# Velocity P-wave (km/s) = 5.90096 6.95048 6.44711
#
# Compressibility (1/GPa) = 0.02666025
#
# Stress axis : x y z
#
# Youngs Moduli (GPa) = 30.19014 118.83975 95.02446
#
# Poissons Ratio (x) = 0.24427 0.79850
# Poissons Ratio (y) = 0.06205 0.21306
# Poissons Ratio (z) = 0.25369 0.26645
#
# Static dielectric constant tensor:
#      x y z
#    x 1.693000 0.000000 0.000000 
#    y 0.000000 1.733220 0.000000 
#    z 0.000000 0.000000 1.714580 
# 
# From -- ./inp_files/25232.got.cif
#   From: 2010.05.17/outbox.cif.g08.bks.cpg/sg20_13_cif.got.tgz:25232.got - 2010.06.03 22:52:26.
