data_PCOD9316548
_publ_section_title
;
Structure prediction by ZEFSAII (Michael W. Deem and Ramdas Pophale) SiO2 
 PCOD9316548
Probable space group: C 2 2 21
;
_chemical_formula_sum "Si O2"
_cell_formula_units_Z 44
_cell_length_a 14.412018
_cell_length_b 5.720130
_cell_length_c 21.307753
_cell_angle_alpha 90.000000
_cell_angle_beta 90.000000
_cell_angle_gamma 90.000000
_cell_volume 1756.581679
_symmetry_space_group_name_H-M "C 2 2 21"
_symmetry_group_IT_number 20
_symmetry_cell_setting 'orthorhombic'
loop_
_space_group_symop_operation_xyz
x,y,z
-x,-y,1/2+z
x,-y,-z
-x,y,1/2-z
1/2+x,1/2+y,z
1/2-x,1/2-y,1/2+z
1/2+x,1/2-y,-z
1/2-x,1/2+y,1/2-z
loop_
_atom_site_type_symbol
_atom_site_label
_atom_site_fract_x
_atom_site_fract_y
_atom_site_fract_z
Si Si1 0.831513 0.087243 0.362288
Si Si2 0.925570 0.579807 0.194554
Si Si3 0.824654 0.918303 0.785466
Si Si4 0.721705 0.500000 0.500000
Si Si5 0.134588 0.381323 0.567433
Si Si6 0.841689 0.602426 0.386418
O O1 0.807029 0.089164 0.288871
O O2 0.734766 0.061917 0.400641
O O3 0.876470 0.333749 0.382547
O O4 0.890035 0.851760 0.373999
O O5 0.879865 0.322746 0.203419
O O6 0.941927 0.574184 0.119375
O O7 0.000000 0.587054 0.250000
O O8 0.874459 0.833018 0.201675
O O9 0.734857 0.907306 0.829966
O O10 0.652262 0.615496 0.549247
O O11 0.792267 0.632495 0.454016
O O12 0.121739 0.500000 0.500000
#
# Coordination Sequence:
#
# PCOD9316548 Si02
#       6
#     8   8   8   4   8   8
#     4  11  21  32  61  89 125 151 187 242 324 377
#     4  12  26  41  62  88 124 169 222 256 295 357
#     4  12  21  40  58  88 125 159 195 256 309 360
#     4  10  18  32  54  86 124 146 196 242 308 362
#     4  11  21  38  61  93 121 153 204 260 318 370
#     4  11  19  32  54  92 121 149 184 240 311 378
#
# _framework density 25.048649000000001
#
# number of rings (size 3 to 8) (size 9 to 14) (size 15 to 20)
#    0.000    0.727    7.273    2.727    0.000    0.000 
#    0.000    0.000    0.000    2.182    0.000    0.000 
#    0.000    0.000    0.000    0.000    0.000    0.000 
#
# Total GULP energy -122705.019854 kJ/mol
# GULP energy per Si atom -5577.500902 kJ/mol
# Density = 2.499164 g / cm^3
# Si number density = 25.048649 Si / 1000 Ang^3
#
#
#
# Elastic Constant Matrix: (Units=GPa)
#
#
# Indices 1 2 3 4 5 6 
#
# 1 35.5933 39.0801 34.3875 0.0000 0.0000 0.0000
# 2 39.0801 218.7744 59.7388 0.0000 0.0000 0.0000
# 3 34.3875 59.7388 187.9404 0.0000 0.0000 0.0000
# 4 0.0000 0.0000 0.0000 52.4555 0.0000 0.0000
# 5 0.0000 0.0000 0.0000 0.0000 16.1675 0.0000
# 6 0.0000 0.0000 0.0000 0.0000 0.0000 21.8030
#
#
#
# Elastic Compliance Matrix: (Units=1/GPa)
#
#
# Indices 1 2 3 4 5 6 
#
# 1 0.039471 -0.005561 -0.005454 0.000000 0.000000 0.000000
# 2 -0.005561 0.005789 -0.000823 0.000000 0.000000 0.000000
# 3 -0.005454 -0.000823 0.006580 0.000000 0.000000 0.000000
# 4 0.000000 0.000000 0.000000 0.019064 0.000000 0.000000
# 5 0.000000 0.000000 0.000000 0.000000 0.061853 0.000000
# 6 0.000000 0.000000 0.000000 0.000000 0.000000 0.045865
#
#
# Mechanical properties :
#
#
# Convention : Reuss Voigt Hill
#
# Bulk Modulus (GPa) = 35.50663 78.74676 57.12669
# Shear Modulus (GPa) = 23.61991 38.69199 31.15595
#
# Velocity S-wave (km/s) = 3.07410 3.93450 3.53061
# Velocity P-wave (km/s) = 5.17745 7.22123 6.28300
#
# Compressibility (1/GPa) = 0.02816376
#
# Stress axis : x y z
#
# Youngs Moduli (GPa) = 25.33514 172.74258 151.97018
#
# Poissons Ratio (x) = 0.96069 0.82888
# Poissons Ratio (y) = 0.14090 0.12500
# Poissons Ratio (z) = 0.13818 0.14208
#
# Static dielectric constant tensor:
#      x y z
#    x 2.107740 0.000000 0.000000 
#    y 0.000000 2.107640 0.000000 
#    z 0.000000 0.000000 1.997880 
# 
# From -- ./inp_files/27823.got.cif
#   From: 2010.05.17/outbox.cif.g08.bks.cpg/sg20_14_cif.got.tgz:27823.got - 2010.06.03 22:52:26.
