data_PCOD9316487
_publ_section_title
;
Structure prediction by ZEFSAII (Michael W. Deem and Ramdas Pophale) SiO2 
 PCOD9316487
Probable space group: C 2 2 21
;
_chemical_formula_sum "Si O2"
_cell_formula_units_Z 48
_cell_length_a 11.090196
_cell_length_b 14.679967
_cell_length_c 13.668295
_cell_angle_alpha 90.000000
_cell_angle_beta 90.000000
_cell_angle_gamma 90.000000
_cell_volume 2225.249153
_symmetry_space_group_name_H-M "C 2 2 21"
_symmetry_group_IT_number 20
_symmetry_cell_setting 'orthorhombic'
loop_
_space_group_symop_operation_xyz
x,y,z
-x,-y,1/2+z
x,-y,-z
-x,y,1/2-z
1/2+x,1/2+y,z
1/2-x,1/2-y,1/2+z
1/2+x,1/2-y,-z
1/2-x,1/2+y,1/2-z
loop_
_atom_site_type_symbol
_atom_site_label
_atom_site_fract_x
_atom_site_fract_y
_atom_site_fract_z
Si Si1 0.789946 0.770529 0.947192
Si Si2 0.506835 0.401949 0.504559
Si Si3 0.633876 0.824032 0.774112
Si Si4 0.373422 0.139776 0.776070
Si Si5 0.881533 0.895407 0.301392
Si Si6 0.663546 0.309478 0.867119
O O1 0.708803 0.834504 0.875544
O O2 0.853517 0.692372 0.880131
O O3 0.893779 0.824494 0.004217
O O4 0.704853 0.729758 0.029343
O O5 0.567105 0.500000 0.500000
O O6 0.411048 0.403564 0.415971
O O7 0.440791 0.380183 0.606810
O O8 0.500000 0.858489 0.750000
O O9 0.622436 0.712817 0.774577
O O10 0.723567 0.852571 0.688048
O O11 0.500000 0.092604 0.750000
O O12 0.253314 0.077470 0.769224
O O13 0.373999 0.224116 0.699296
O O14 0.000000 0.935189 0.250000
#
# Coordination Sequence:
#
# PCOD9316487 Si02
#       6
#     8   8   8   8   8   8
#     4  10  19  34  55  81 115 146 196 237 287 346
#     4  12  22  35  56  90 121 149 184 245 308 349
#     4   9  18  32  59  82 105 144 207 236 279 334
#     4  10  18  30  58  83 108 141 204 237 281 328
#     4   9  18  36  50  81 114 149 188 240 286 346
#     4  10  19  33  56  79 114 147 192 236 285 345
#
# _framework density 21.570619000000001
#
# number of rings (size 3 to 8) (size 9 to 14) (size 15 to 20)
#    0.000    2.333    5.000    3.000    0.000    0.000 
#    6.000    0.000    0.000    2.000    0.000    0.000 
#    0.000    0.000    0.000    0.000    0.000    0.000 
#
# Total GULP energy -133662.847861 kJ/mol
# GULP energy per Si atom -5569.285328 kJ/mol
# Density = 2.152152 g / cm^3
# Si number density = 21.570619 Si / 1000 Ang^3
#
#
#
# Elastic Constant Matrix: (Units=GPa)
#
#
# Indices 1 2 3 4 5 6 
#
# 1 108.6858 -7.0378 -11.1780 0.0000 0.0000 0.0000
# 2 -7.0378 23.9747 -6.2658 0.0000 0.0000 0.0000
# 3 -11.1780 -6.2658 69.5929 0.0000 0.0000 0.0000
# 4 0.0000 0.0000 0.0000 9.4018 0.0000 0.0000
# 5 0.0000 0.0000 0.0000 0.0000 27.3257 0.0000
# 6 0.0000 0.0000 0.0000 0.0000 0.0000 7.6479
#
#
#
# Elastic Compliance Matrix: (Units=1/GPa)
#
#
# Indices 1 2 3 4 5 6 
#
# 1 0.009604 0.003300 0.001840 0.000000 0.000000 0.000000
# 2 0.003300 0.043850 0.004478 0.000000 0.000000 0.000000
# 3 0.001840 0.004478 0.015068 0.000000 0.000000 0.000000
# 4 0.000000 0.000000 0.000000 0.106363 0.000000 0.000000
# 5 0.000000 0.000000 0.000000 0.000000 0.036596 0.000000
# 6 0.000000 0.000000 0.000000 0.000000 0.000000 0.130754
#
#
# Mechanical properties :
#
#
# Convention : Reuss Voigt Hill
#
# Bulk Modulus (GPa) = 11.39516 17.03226 14.21371
# Shear Modulus (GPa) = 14.19445 23.99076 19.09260
#
# Velocity S-wave (km/s) = 2.56802 3.33858 2.97833
# Velocity P-wave (km/s) = 3.75329 4.77228 4.29312
#
# Compressibility (1/GPa) = 0.08775656
#
# Stress axis : x y z
#
# Youngs Moduli (GPa) = 104.12629 22.80522 66.36604
#
# Poissons Ratio (x) = -0.07526 -0.12209
# Poissons Ratio (y) = -0.34361 -0.29719
# Poissons Ratio (z) = -0.19156 -0.10212
#
# Static dielectric constant tensor:
#      x y z
#    x 1.929820 0.000000 0.000000 
#    y 0.000000 1.803060 0.000000 
#    z 0.000000 0.000000 1.752960 
# 
# From -- ./inp_files/14105.got.cif
#   From: 2010.05.17/outbox.cif.g08.bks.cpg/sg20_8_cif.got.tgz:14105.got - 2010.06.03 22:52:26.
