data_PCOD9316748
_publ_section_title
;
Structure prediction by ZEFSAII (Michael W. Deem and Ramdas Pophale) SiO2 
 PCOD9316748
Probable space group: C 2 2 21
;
_chemical_formula_sum "Si O2"
_cell_formula_units_Z 24
_cell_length_a 9.841524
_cell_length_b 9.859653
_cell_length_c 9.858039
_cell_angle_alpha 90.000000
_cell_angle_beta 90.000000
_cell_angle_gamma 90.000000
_cell_volume 956.565071
_symmetry_space_group_name_H-M "C 2 2 21"
_symmetry_group_IT_number 20
_symmetry_cell_setting 'orthorhombic'
loop_
_space_group_symop_operation_xyz
x,y,z
-x,-y,1/2+z
x,-y,-z
-x,y,1/2-z
1/2+x,1/2+y,z
1/2-x,1/2-y,1/2+z
1/2+x,1/2-y,-z
1/2-x,1/2+y,1/2-z
loop_
_atom_site_type_symbol
_atom_site_label
_atom_site_fract_x
_atom_site_fract_y
_atom_site_fract_z
Si Si1 0.221896 0.860357 0.727240
Si Si2 0.480973 0.705892 0.459399
Si Si3 0.352118 0.000000 0.500000
Si Si4 0.000000 0.200848 0.750000
O O1 0.124838 0.787534 0.616806
O O2 0.362336 0.787737 0.762272
O O3 0.129908 0.860328 0.860248
O O4 0.266920 0.991684 0.640400
O O5 0.488477 0.631221 0.604001
O O6 0.435950 0.860997 0.489987
#
# Coordination Sequence:
#
# PCOD9316748 Si02
#       4
#     8   8   4   4
#     4  10  22  42  68 101 138 182 240 291 344 423
#     4  10  22  41  68 102 140 184 238 290 347 426
#     4  10  22  44  72 100 142 192 236 298 362 408
#     4  10  18  36  64  94 134 178 220 282 344 400
#
# _framework density 25.089773000000001
#
# number of rings (size 3 to 8) (size 9 to 14) (size 15 to 20)
#    0.000    2.000    0.000    4.000    0.000   10.667 
#    0.000   20.000    0.000   34.000    0.000    0.000 
#    0.000    0.000    0.000    0.000    0.000    0.000 
#
# Total GULP energy -67087.084507 kJ/mol
# GULP energy per Si atom -5590.590376 kJ/mol
# Density = 2.503267 g / cm^3
# Si number density = 25.089773 Si / 1000 Ang^3
#
#
#
# Elastic Constant Matrix: (Units=GPa)
#
#
# Indices 1 2 3 4 5 6 
#
# 1 180.1045 58.5246 69.4761 0.0000 0.0000 0.0000
# 2 58.5246 93.2179 21.5659 0.0000 0.0000 0.0000
# 3 69.4761 21.5659 244.0007 0.0000 0.0000 0.0000
# 4 0.0000 0.0000 0.0000 29.3517 0.0000 0.0000
# 5 0.0000 0.0000 0.0000 0.0000 26.8121 0.0000
# 6 0.0000 0.0000 0.0000 0.0000 0.0000 50.3133
#
#
#
# Elastic Compliance Matrix: (Units=1/GPa)
#
#
# Indices 1 2 3 4 5 6 
#
# 1 0.007676 -0.004404 -0.001797 0.000000 0.000000 0.000000
# 2 -0.004404 0.013478 0.000063 0.000000 0.000000 0.000000
# 3 -0.001797 0.000063 0.004604 0.000000 0.000000 0.000000
# 4 0.000000 0.000000 0.000000 0.034070 0.000000 0.000000
# 5 0.000000 0.000000 0.000000 0.000000 0.037297 0.000000
# 6 0.000000 0.000000 0.000000 0.000000 0.000000 0.019875
#
#
# Mechanical properties :
#
#
# Convention : Reuss Voigt Hill
#
# Bulk Modulus (GPa) = 74.16570 90.71738 82.44154
# Shear Modulus (GPa) = 37.37762 45.81251 41.59507
#
# Velocity S-wave (km/s) = 3.86392 4.27774 4.07609
# Velocity P-wave (km/s) = 7.03781 7.78681 7.42177
#
# Compressibility (1/GPa) = 0.01348332
#
# Stress axis : x y z
#
# Youngs Moduli (GPa) = 130.27029 74.19570 217.18628
#
# Poissons Ratio (x) = 0.32674 0.39018
# Poissons Ratio (y) = 0.57368 -0.01361
# Poissons Ratio (z) = 0.23403 -0.00465
#
# Static dielectric constant tensor:
#      x y z
#    x 1.950520 0.000000 0.000000 
#    y 0.000000 1.998400 0.000000 
#    z 0.000000 0.000000 1.963490 
# 
# From -- ./inp_files/13488.got.cif
#   From: 2010.05.17/outbox.cif.g08.bks.cpg/sg20_7_cif.got.tgz:13488.got - 2010.06.03 22:52:26.
