data_PCOD9316804
_publ_section_title
;
Structure prediction by ZEFSAII (Michael W. Deem and Ramdas Pophale) SiO2 
 PCOD9316804
Probable space group: C 2 2 21
;
_chemical_formula_sum "Si O2"
_cell_formula_units_Z 52
_cell_length_a 7.558745
_cell_length_b 13.870627
_cell_length_c 20.751920
_cell_angle_alpha 90.000000
_cell_angle_beta 90.000000
_cell_angle_gamma 90.000000
_cell_volume 2175.725351
_symmetry_space_group_name_H-M "C 2 2 21"
_symmetry_group_IT_number 20
_symmetry_cell_setting 'orthorhombic'
loop_
_space_group_symop_operation_xyz
x,y,z
-x,-y,1/2+z
x,-y,-z
-x,y,1/2-z
1/2+x,1/2+y,z
1/2-x,1/2-y,1/2+z
1/2+x,1/2-y,-z
1/2-x,1/2+y,1/2-z
loop_
_atom_site_type_symbol
_atom_site_label
_atom_site_fract_x
_atom_site_fract_y
_atom_site_fract_z
Si Si1 0.769096 0.489700 0.646412
Si Si2 0.685885 0.626628 0.130374
Si Si3 0.079240 0.460985 0.433939
Si Si4 0.500000 0.475899 0.750000
Si Si5 0.962248 0.713556 0.322905
Si Si6 0.876524 0.136820 0.041413
Si Si7 0.143846 0.193379 0.939495
O O1 0.643010 0.527535 0.703195
O O2 0.850202 0.386410 0.671185
O O3 0.664920 0.460763 0.580819
O O4 0.935177 0.550664 0.622002
O O5 0.771306 0.536137 0.091703
O O6 0.607577 0.588330 0.197931
O O7 0.530400 0.676287 0.089883
O O8 0.851595 0.694748 0.142263
O O9 0.995826 0.500000 0.500000
O O10 0.184065 0.367417 0.454511
O O11 0.872612 0.798320 0.362794
O O12 0.000000 0.735727 0.250000
O O13 0.696951 0.198544 0.039408
O O14 0.976415 0.146992 0.974067
#
# Coordination Sequence:
#
# PCOD9316804 Si02
#       7
#     8   8   8   4   8   8   8
#     4   9  21  38  68  91 122 162 219 255 320 374
#     4  10  20  39  68  89 126 164 220 253 313 379
#     4  11  23  42  60  93 129 172 203 273 319 382
#     4  10  18  38  64  98 116 164 222 260 294 392
#     4  10  19  38  66  93 121 171 209 259 306 389
#     4  10  21  39  63  97 115 167 205 258 311 386
#     4  11  23  39  63  93 135 159 213 266 328 365
#
# _framework density 23.900074
#
# number of rings (size 3 to 8) (size 9 to 14) (size 15 to 20)
#    0.000    1.846    3.077    0.923    4.308    0.000 
#    6.923    0.000    3.385    0.000    0.000    0.000 
#    0.000    0.000    0.000    0.000    0.000    0.000 
#
# Total GULP energy -145238.695398 kJ/mol
# GULP energy per Si atom -5586.103669 kJ/mol
# Density = 2.384568 g / cm^3
# Si number density = 23.900074 Si / 1000 Ang^3
#
#
#
# Elastic Constant Matrix: (Units=GPa)
#
#
# Indices 1 2 3 4 5 6 
#
# 1 83.8883 4.7070 28.6982 0.0000 0.0000 0.0000
# 2 4.7070 29.9756 29.0116 0.0000 0.0000 0.0000
# 3 28.6982 29.0116 86.3587 0.0000 0.0000 0.0000
# 4 0.0000 0.0000 0.0000 10.4070 0.0000 0.0000
# 5 0.0000 0.0000 0.0000 0.0000 71.3764 0.0000
# 6 0.0000 0.0000 0.0000 0.0000 0.0000 22.2079
#
#
#
# Elastic Compliance Matrix: (Units=1/GPa)
#
#
# Indices 1 2 3 4 5 6 
#
# 1 0.013671 0.003334 -0.005663 0.000000 0.000000 0.000000
# 2 0.003334 0.050246 -0.017988 0.000000 0.000000 0.000000
# 3 -0.005663 -0.017988 0.019504 0.000000 0.000000 0.000000
# 4 0.000000 0.000000 0.000000 0.096089 0.000000 0.000000
# 5 0.000000 0.000000 0.000000 0.000000 0.014010 0.000000
# 6 0.000000 0.000000 0.000000 0.000000 0.000000 0.045029
#
#
# Mechanical properties :
#
#
# Convention : Reuss Voigt Hill
#
# Bulk Modulus (GPa) = 23.37096 36.11736 29.74416
# Shear Modulus (GPa) = 17.03890 29.98531 23.51211
#
# Velocity S-wave (km/s) = 2.67296 3.54589 3.13991
# Velocity P-wave (km/s) = 4.39615 5.64881 5.06138
#
# Compressibility (1/GPa) = 0.04278814
#
# Stress axis : x y z
#
# Youngs Moduli (GPa) = 73.14808 19.90195 51.27026
#
# Poissons Ratio (x) = -0.06636 0.29035
# Poissons Ratio (y) = -0.24390 0.92225
# Poissons Ratio (z) = 0.41425 0.35800
#
# Static dielectric constant tensor:
#      x y z
#    x 1.902440 0.000000 0.000000 
#    y 0.000000 1.979040 0.000000 
#    z 0.000000 0.000000 1.899030 
# 
# From -- ./inp_files/23719.got.cif
#   From: 2010.05.17/outbox.cif.g08.bks.cpg/sg20_12_cif.got.tgz:23719.got - 2010.06.03 22:52:26.
