data_PCOD9316176
_publ_section_title
;
Structure prediction by ZEFSAII (Michael W. Deem and Ramdas Pophale) SiO2 
 PCOD9316176
Probable space group: P 21 21 21
;
_chemical_formula_sum "Si O2"
_cell_formula_units_Z 24
_cell_length_a 9.000000
_cell_length_b 15.000000
_cell_length_c 9.000000
_cell_angle_alpha 90.000000
_cell_angle_beta 90.000000
_cell_angle_gamma 90.000000
_cell_volume 1215.000000
_symmetry_space_group_name_H-M "P 21 21 21"
_symmetry_group_IT_number 19
_symmetry_cell_setting 'orthorhombic'
loop_
_space_group_symop_operation_xyz
x,y,z
1/2-x,-y,1/2+z
1/2+x,1/2-y,-z
-x,1/2+y,1/2-z
loop_
_atom_site_type_symbol
_atom_site_label
_atom_site_fract_x
_atom_site_fract_y
_atom_site_fract_z
Si Si1 0.411809 0.265382 0.331341
Si Si2 0.036442 0.914216 0.294949
Si Si3 0.879683 0.612032 0.624328
Si Si4 0.904209 0.721769 0.323538
Si Si5 0.393157 0.400301 0.610212
Si Si6 0.955313 0.924172 0.943493
O O1 0.519333 0.316947 0.215424
O O2 0.246615 0.243472 0.268918
O O3 0.406128 0.337227 0.465186
O O4 0.476181 0.169338 0.383510
O O5 0.216220 0.905906 0.305182
O O6 0.971860 0.820199 0.357647
O O7 0.979293 0.004004 0.379708
O O8 0.978190 0.922046 0.123613
O O9 0.861484 0.660817 0.464776
O O10 0.963187 0.515849 0.609304
O O11 0.028589 0.662980 0.235135
O O12 0.216633 0.423549 0.612335
#
# Coordination Sequence:
#
# PCOD9316176 Si02
#       6
#     4   4   4   4   4   4
#     4  12  26  47  77 109 147 199 250 304 385 445
#     4  12  26  47  75 105 152 193 248 309 375 450
#     4  12  29  45  75 111 151 193 250 315 373 452
#     4  12  25  50  72 112 147 194 250 310 376 446
#     4  12  25  46  76 104 147 194 252 308 365 455
#     4  12  27  47  73 107 146 197 248 304 382 444
#
# _framework density 19.753086
#
# number of rings (size 3 to 8) (size 9 to 14) (size 15 to 20)
#    0.000    0.000    5.000    4.000    4.667    1.333 
#    0.000    0.000    0.000    0.000    0.000    0.000 
#    0.000    0.000    0.000    0.000    0.000    0.000 
#
# Total GULP energy -134166.566694 kJ/mol
# GULP energy per Si atom -5590.273612 kJ/mol
# Density = 1.970813 g / cm^3
# Si number density = 19.753086 Si / 1000 Ang^3
#
#
#
# Elastic Constant Matrix: (Units=GPa)
#
#
# Indices 1 2 3 4 5 6 
#
# 1 161.6642 65.0071 39.4000 0.0000 0.0000 0.0000
# 2 65.0071 211.4543 42.2849 0.0000 0.0000 0.0000
# 3 39.4000 42.2849 81.2893 0.0000 0.0000 0.0000
# 4 0.0000 0.0000 0.0000 49.3754 0.0000 0.0000
# 5 0.0000 0.0000 0.0000 0.0000 36.8145 0.0000
# 6 0.0000 0.0000 0.0000 0.0000 0.0000 56.8035
#
#
#
# Elastic Compliance Matrix: (Units=1/GPa)
#
#
# Indices 1 2 3 4 5 6 
#
# 1 0.007569 -0.001778 -0.002744 0.000000 0.000000 0.000000
# 2 -0.001778 0.005696 -0.002101 0.000000 0.000000 0.000000
# 3 -0.002744 -0.002101 0.014724 0.000000 0.000000 0.000000
# 4 0.000000 0.000000 0.000000 0.020253 0.000000 0.000000
# 5 0.000000 0.000000 0.000000 0.000000 0.027163 0.000000
# 6 0.000000 0.000000 0.000000 0.000000 0.000000 0.017605
#
#
# Mechanical properties :
#
#
# Convention : Reuss Voigt Hill
#
# Bulk Modulus (GPa) = 67.82546 83.08798 75.45672
# Shear Modulus (GPa) = 44.97555 49.11308 47.04432
#
# Velocity S-wave (km/s) = 4.77685 4.99174 4.88548
# Velocity P-wave (km/s) = 8.05205 8.68204 8.37298
#
# Compressibility (1/GPa) = 0.01474373
#
# Stress axis : x y z
#
# Youngs Moduli (GPa) = 132.10964 175.56118 67.91412
#
# Poissons Ratio (x) = 0.31222 0.18634
# Poissons Ratio (y) = 0.23494 0.14269
# Poissons Ratio (z) = 0.36248 0.36885
#
# Static dielectric constant tensor:
#      x y z
#    x 1.690770 0.000000 0.000000 
#    y 0.000000 1.659260 0.000000 
#    z 0.000000 0.000000 1.734160 
# 
# From -- ./inp_files/2782.got.cif
#   From: 2010.05.17/outbox.ucp.g08.bks.cvg/sg19_2_cif.got.tgz:2782.got - 2010.06.11 13:13:52.
