data_PCOD9316614
_publ_section_title
;
Structure prediction by ZEFSAII (Michael W. Deem and Ramdas Pophale) SiO2 
 PCOD9316614
Probable space group: C 2 2 21
;
_chemical_formula_sum "Si O2"
_cell_formula_units_Z 64
_cell_length_a 21.656016
_cell_length_b 19.389933
_cell_length_c 8.449211
_cell_angle_alpha 90.000000
_cell_angle_beta 90.000000
_cell_angle_gamma 90.000000
_cell_volume 3547.897201
_symmetry_space_group_name_H-M "C 2 2 21"
_symmetry_group_IT_number 20
_symmetry_cell_setting 'orthorhombic'
loop_
_space_group_symop_operation_xyz
x,y,z
-x,-y,1/2+z
x,-y,-z
-x,y,1/2-z
1/2+x,1/2+y,z
1/2-x,1/2-y,1/2+z
1/2+x,1/2-y,-z
1/2-x,1/2+y,1/2-z
loop_
_atom_site_type_symbol
_atom_site_label
_atom_site_fract_x
_atom_site_fract_y
_atom_site_fract_z
Si Si1 0.378742 0.666934 0.531515
Si Si2 0.789248 0.466574 0.653220
Si Si3 0.835886 0.929598 0.756760
Si Si4 0.929265 0.277076 0.297435
Si Si5 0.270637 0.286007 0.243274
Si Si6 0.666088 0.108485 0.873533
Si Si7 0.933736 0.963247 0.328470
Si Si8 0.831332 0.795567 0.916821
O O1 0.358467 0.617275 0.388287
O O2 0.417890 0.727437 0.449129
O O3 0.317988 0.695414 0.617747
O O4 0.415830 0.616600 0.648486
O O5 0.753612 0.500000 0.500000
O O6 0.735666 0.448011 0.771400
O O7 0.824548 0.405046 0.562905
O O8 0.832184 0.530982 0.698229
O O9 0.839188 0.877820 0.905843
O O10 0.879847 0.995601 0.763419
O O11 0.894370 0.348349 0.335030
O O12 0.891351 0.241306 0.153829
O O13 0.000000 0.283989 0.250000
O O14 0.224320 0.348367 0.193640
O O15 0.225068 0.225735 0.300337
O O16 0.310980 0.270516 0.088558
O O17 0.000000 0.971028 0.250000
O O18 0.936827 0.000000 0.500000
#
# Coordination Sequence:
#
# PCOD9316614 Si02
#       8
#     8   8   8   8   8   8   8   8
#     4  10  23  33  53  80 112 146 189 234 278 335
#     4   8  16  29  55  87 103 128 182 223 288 347
#     4  10  18  34  51  80 111 148 180 233 290 330
#     4  10  21  38  54  79 111 153 193 225 279 333
#     4  11  18  35  52  87 115 138 186 236 292 336
#     4   8  17  31  55  84 105 137 175 229 276 345
#     4  10  23  37  49  72 109 156 197 232 270 327
#     4  10  20  31  56  81 112 147 181 235 281 340
#
# _framework density 18.038855000000002
#
# number of rings (size 3 to 8) (size 9 to 14) (size 15 to 20)
#    0.750    1.500    1.250    3.000    0.000    7.000 
#    0.000    0.000    0.000    0.000   19.500    0.875 
#    0.000    0.000    0.000    0.000    0.000    0.000 
#
# Total GULP energy -178206.695029 kJ/mol
# GULP energy per Si atom -5568.959220 kJ/mol
# Density = 1.799780 g / cm^3
# Si number density = 18.038855 Si / 1000 Ang^3
#
#
#
# Elastic Constant Matrix: (Units=GPa)
#
#
# Indices 1 2 3 4 5 6 
#
# 1 143.1437 61.2967 29.9031 0.0000 0.0000 0.0000
# 2 61.2967 87.8688 12.1803 0.0000 0.0000 0.0000
# 3 29.9031 12.1803 23.2729 0.0000 0.0000 0.0000
# 4 0.0000 0.0000 0.0000 9.7869 0.0000 0.0000
# 5 0.0000 0.0000 0.0000 0.0000 22.3006 0.0000
# 6 0.0000 0.0000 0.0000 0.0000 0.0000 13.8134
#
#
#
# Elastic Compliance Matrix: (Units=1/GPa)
#
#
# Indices 1 2 3 4 5 6 
#
# 1 0.012634 -0.007076 -0.012529 0.000000 0.000000 0.000000
# 2 -0.007076 0.016234 0.000596 0.000000 0.000000 0.000000
# 3 -0.012529 0.000596 0.058755 0.000000 0.000000 0.000000
# 4 0.000000 0.000000 0.000000 0.102178 0.000000 0.000000
# 5 0.000000 0.000000 0.000000 0.000000 0.044842 0.000000
# 6 0.000000 0.000000 0.000000 0.000000 0.000000 0.072394
#
#
# Mechanical properties :
#
#
# Convention : Reuss Voigt Hill
#
# Bulk Modulus (GPa) = 20.15981 51.22730 35.69355
# Shear Modulus (GPa) = 13.82779 19.24052 16.53416
#
# Velocity S-wave (km/s) = 2.77168 3.26945 3.03080
# Velocity P-wave (km/s) = 4.63065 6.53547 5.66372
#
# Compressibility (1/GPa) = 0.04960364
#
# Stress axis : x y z
#
# Youngs Moduli (GPa) = 79.15398 61.59751 17.01973
#
# Poissons Ratio (x) = 0.43588 0.21324
# Poissons Ratio (y) = 0.56012 -0.01014
# Poissons Ratio (z) = 0.99174 -0.03670
#
# Static dielectric constant tensor:
#      x y z
#    x 1.590050 0.000000 0.000000 
#    y 0.000000 1.669060 0.000000 
#    z 0.000000 0.000000 1.662540 
# 
# From -- ./inp_files/10371.got.cif
#   From: 2010.05.17/outbox.cif.g08.bks.cpg/sg20_6_cif.got.tgz:10371.got - 2010.06.03 22:52:26.
