data_PCOD9316386
_publ_section_title
;
Structure prediction by ZEFSAII (Michael W. Deem and Ramdas Pophale) SiO2 
 PCOD9316386
Probable space group: C 2 2 21
;
_chemical_formula_sum "Si O2"
_cell_formula_units_Z 56
_cell_length_a 9.086038
_cell_length_b 17.017425
_cell_length_c 19.146257
_cell_angle_alpha 90.000000
_cell_angle_beta 90.000000
_cell_angle_gamma 90.000000
_cell_volume 2960.412833
_symmetry_space_group_name_H-M "C 2 2 21"
_symmetry_group_IT_number 20
_symmetry_cell_setting 'orthorhombic'
loop_
_space_group_symop_operation_xyz
x,y,z
-x,-y,1/2+z
x,-y,-z
-x,y,1/2-z
1/2+x,1/2+y,z
1/2-x,1/2-y,1/2+z
1/2+x,1/2-y,-z
1/2-x,1/2+y,1/2-z
loop_
_atom_site_type_symbol
_atom_site_label
_atom_site_fract_x
_atom_site_fract_y
_atom_site_fract_z
Si Si1 0.006641 0.472285 0.866661
Si Si2 0.727143 0.417678 0.369466
Si Si3 0.500000 0.843978 0.750000
Si Si4 0.782675 0.590085 0.788411
Si Si5 0.592859 0.442499 0.089708
Si Si6 0.255114 0.266617 0.656382
Si Si7 0.751766 0.905287 0.553104
Si Si8 0.000000 0.728601 0.750000
O O1 0.136261 0.528754 0.892195
O O2 0.052904 0.401922 0.813465
O O3 0.894950 0.526441 0.820904
O O4 0.910499 0.439208 0.930803
O O5 0.721271 0.436456 0.286285
O O6 0.581162 0.435299 0.412769
O O7 0.748926 0.323795 0.367569
O O8 0.627370 0.792334 0.711846
O O9 0.649323 0.600103 0.841209
O O10 0.877076 0.669422 0.780773
O O11 0.639537 0.533768 0.092569
O O12 0.686881 0.408205 0.025117
O O13 0.249735 0.321740 0.589377
O O14 0.412038 0.278152 0.693814
#
# Coordination Sequence:
#
# PCOD9316386 Si02
#       8
#     8   8   4   8   8   8   8   4
#     4  10  17  37  65  83 116 161 202 232 305 381
#     4  11  20  35  64  96 111 153 208 258 292 371
#     4  10  19  34  56  91 130 146 186 258 311 354
#     4  10  17  35  60  88 112 153 202 240 295 359
#     4  10  22  38  62  82 123 160 204 244 304 364
#     4  10  22  36  58  90 124 149 202 257 308 351
#     4   9  22  44  55  82 124 166 194 248 306 364
#     4  10  19  34  56  85 122 146 196 248 297 358
#
# _framework density 18.916281000000001
#
# number of rings (size 3 to 8) (size 9 to 14) (size 15 to 20)
#    0.000    2.000    4.286    0.429    4.000    1.143 
#    2.571    5.714    0.000    0.000    0.000    0.000 
#    0.000    0.000    0.000    0.000    0.000    0.000 
#
# Total GULP energy -156009.846987 kJ/mol
# GULP energy per Si atom -5571.780250 kJ/mol
# Density = 1.887323 g / cm^3
# Si number density = 18.916281 Si / 1000 Ang^3
#
#
#
# Elastic Constant Matrix: (Units=GPa)
#
#
# Indices 1 2 3 4 5 6 
#
# 1 89.3810 40.6507 35.5056 0.0000 0.0000 0.0000
# 2 40.6507 71.4225 11.7930 0.0000 0.0000 0.0000
# 3 35.5056 11.7930 56.3816 0.0000 0.0000 0.0000
# 4 0.0000 0.0000 0.0000 3.6920 0.0000 0.0000
# 5 0.0000 0.0000 0.0000 0.0000 25.4403 0.0000
# 6 0.0000 0.0000 0.0000 0.0000 0.0000 16.0889
#
#
#
# Elastic Compliance Matrix: (Units=1/GPa)
#
#
# Indices 1 2 3 4 5 6 
#
# 1 0.019603 -0.009445 -0.010369 0.000000 0.000000 0.000000
# 2 -0.009445 0.019053 0.001963 0.000000 0.000000 0.000000
# 3 -0.010369 0.001963 0.023855 0.000000 0.000000 0.000000
# 4 0.000000 0.000000 0.000000 0.270855 0.000000 0.000000
# 5 0.000000 0.000000 0.000000 0.000000 0.039308 0.000000
# 6 0.000000 0.000000 0.000000 0.000000 0.000000 0.062155
#
#
# Mechanical properties :
#
#
# Convention : Reuss Voigt Hill
#
# Bulk Modulus (GPa) = 37.30169 43.67596 40.48882
# Shear Modulus (GPa) = 10.42826 17.65997 14.04411
#
# Velocity S-wave (km/s) = 2.35049 3.05878 2.72772
# Velocity P-wave (km/s) = 5.20851 5.96775 5.60101
#
# Compressibility (1/GPa) = 0.02680844
#
# Stress axis : x y z
#
# Youngs Moduli (GPa) = 51.01380 52.48588 41.91913
#
# Poissons Ratio (x) = 0.49572 0.43466
# Poissons Ratio (y) = 0.48182 -0.08227
# Poissons Ratio (z) = 0.52896 -0.10301
#
# Static dielectric constant tensor:
#      x y z
#    x 1.684930 0.000000 0.000000 
#    y 0.000000 1.678610 0.000000 
#    z 0.000000 0.000000 1.717180 
# 
# From -- ./inp_files/26861.got.cif
#   From: 2010.05.17/outbox.cif.g08.bks.cpg/sg20_14_cif.got.tgz:26861.got - 2010.06.03 22:52:26.
