data_PCOD9316271
_publ_section_title
;
Structure prediction by ZEFSAII (Michael W. Deem and Ramdas Pophale) SiO2 
 PCOD9316271
Probable space group: C 2 2 21
;
_chemical_formula_sum "Si O2"
_cell_formula_units_Z 60
_cell_length_a 11.544338
_cell_length_b 12.789996
_cell_length_c 17.154071
_cell_angle_alpha 90.000000
_cell_angle_beta 90.000000
_cell_angle_gamma 90.000000
_cell_volume 2532.833523
_symmetry_space_group_name_H-M "C 2 2 21"
_symmetry_group_IT_number 20
_symmetry_cell_setting 'orthorhombic'
loop_
_space_group_symop_operation_xyz
x,y,z
-x,-y,1/2+z
x,-y,-z
-x,y,1/2-z
1/2+x,1/2+y,z
1/2-x,1/2-y,1/2+z
1/2+x,1/2-y,-z
1/2-x,1/2+y,1/2-z
loop_
_atom_site_type_symbol
_atom_site_label
_atom_site_fract_x
_atom_site_fract_y
_atom_site_fract_z
Si Si1 0.311037 0.712200 0.350415
Si Si2 0.424371 0.911870 0.058526
Si Si3 0.500000 0.591649 0.250000
Si Si4 0.864897 0.641144 0.243739
Si Si5 0.835139 0.546752 0.641439
Si Si6 0.271137 0.281700 0.370432
Si Si7 0.869733 0.930259 0.910176
Si Si8 0.040488 0.200346 0.997753
O O1 0.398883 0.660144 0.288794
O O2 0.189765 0.653441 0.340795
O O3 0.361067 0.697988 0.436007
O O4 0.314161 0.834978 0.335681
O O5 0.323602 0.871858 0.116525
O O6 0.472950 0.809802 0.011806
O O7 0.537181 0.957027 0.103509
O O8 0.381040 0.000000 0.000000
O O9 0.558933 0.543523 0.329120
O O10 0.828734 0.535518 0.287992
O O11 0.813211 0.743165 0.286786
O O12 0.000000 0.646136 0.250000
O O13 0.730909 0.515689 0.583824
O O14 0.204134 0.177319 0.399356
O O15 0.388500 0.304197 0.418284
O O16 0.956203 0.894573 0.978842
#
# Coordination Sequence:
#
# PCOD9316271 Si02
#       8
#     8   8   4   8   8   8   8   8
#     4  10  21  37  60  92 122 165 214 254 312 382
#     4  10  20  36  63  96 120 159 217 265 312 383
#     4  10  16  36  64  86 124 158 208 248 312 380
#     4  11  24  40  57  89 130 171 209 264 316 368
#     4  10  21  37  62  95 122 163 210 269 313 374
#     4  10  20  39  60  87 127 164 211 261 312 372
#     4   9  18  35  60  91 121 163 203 250 320 373
#     4   9  20  36  63  89 122 169 203 255 318 378
#
# _framework density 23.688883000000001
#
# number of rings (size 3 to 8) (size 9 to 14) (size 15 to 20)
#    0.000    2.133    2.667    2.400    0.933    3.200 
#    1.200    1.333    0.000    0.000    0.000    0.000 
#    0.000    0.000    0.000    0.000    0.000    0.000 
#
# Total GULP energy -167593.006447 kJ/mol
# GULP energy per Si atom -5586.433548 kJ/mol
# Density = 2.363497 g / cm^3
# Si number density = 23.688883 Si / 1000 Ang^3
#
#
#
# Elastic Constant Matrix: (Units=GPa)
#
#
# Indices 1 2 3 4 5 6 
#
# 1 99.4237 19.3582 -0.0648 0.0000 0.0000 0.0000
# 2 19.3582 48.1378 6.7577 0.0000 0.0000 0.0000
# 3 -0.0648 6.7577 35.2173 0.0000 0.0000 0.0000
# 4 0.0000 0.0000 0.0000 831.9173 0.0000 0.0000
# 5 0.0000 0.0000 0.0000 0.0000 44.5965 0.0000
# 6 0.0000 0.0000 0.0000 0.0000 0.0000 -45.0717
#
#
#
# Elastic Compliance Matrix: (Units=1/GPa)
#
#
# Indices 1 2 3 4 5 6 
#
# 1 0.010939 -0.004524 0.000888 0.000000 0.000000 0.000000
# 2 -0.004524 0.023220 -0.004464 0.000000 0.000000 0.000000
# 3 0.000888 -0.004464 0.029253 0.000000 0.000000 0.000000
# 4 0.000000 0.000000 0.000000 0.001202 0.000000 0.000000
# 5 0.000000 0.000000 0.000000 0.000000 0.022423 0.000000
# 6 0.000000 0.000000 0.000000 0.000000 0.000000 -0.022187
#
#
# Mechanical properties :
#
#
# Convention : Reuss Voigt Hill
#
# Bulk Modulus (GPa) = 21.18049 26.09790 23.63920
# Shear Modulus (GPa) = 51.65965 176.73695 114.19830
#
# Velocity S-wave (km/s) = 4.67492 8.64694 6.95070
# Velocity P-wave (km/s) = 6.17255 10.52300 8.62653
#
# Compressibility (1/GPa) = 0.04721325
#
# Stress axis : x y z
#
# Youngs Moduli (GPa) = 91.41300 43.06715 34.18418
#
# Poissons Ratio (x) = 0.19483 -0.03036
# Poissons Ratio (y) = 0.41354 0.15259
# Poissons Ratio (z) = -0.08119 0.19224
#
# Static dielectric constant tensor:
#      x y z
#    x -0.260390 0.000000 0.000000 
#    y 0.000000 1.884610 0.000000 
#    z 0.000000 0.000000 2.041820 
# 
# From -- ./inp_files/27318.got.cif
#   From: 2010.05.17/outbox.cif.g08.bks.cpg/sg20_14_cif.got.tgz:27318.got - 2010.06.03 22:52:26.
