data_PCOD9316065
_publ_section_title
;
Structure prediction by ZEFSAII (Michael W. Deem and Ramdas Pophale) SiO2 
 PCOD9316065
Probable space group: P 21 21 21
;
_chemical_formula_sum "Si O2"
_cell_formula_units_Z 12
_cell_length_a 4.944137
_cell_length_b 17.723027
_cell_length_c 5.285832
_cell_angle_alpha 90.000000
_cell_angle_beta 90.000000
_cell_angle_gamma 90.000000
_cell_volume 463.171418
_symmetry_space_group_name_H-M "P 21 21 21"
_symmetry_group_IT_number 19
_symmetry_cell_setting 'orthorhombic'
loop_
_space_group_symop_operation_xyz
x,y,z
1/2-x,-y,1/2+z
1/2+x,1/2-y,-z
-x,1/2+y,1/2-z
loop_
_atom_site_type_symbol
_atom_site_label
_atom_site_fract_x
_atom_site_fract_y
_atom_site_fract_z
Si Si1 0.700084 0.637916 0.490794
Si Si2 0.596521 0.232129 0.651784
Si Si3 0.782342 0.045384 0.147693
O O1 0.559821 0.657833 0.756445
O O2 0.448840 0.608794 0.325970
O O3 0.823034 0.715793 0.388242
O O4 0.941614 0.579057 0.467206
O O5 0.878997 0.221318 0.511068
O O6 0.674122 0.991385 0.921740
#
# Coordination Sequence:
#
# PCOD9316065 Si02
#       3
#     4   4   4
#     4  12  27  50  72 116 149 194 268 310 388 462
#     4  12  26  46  80 114 150 198 246 334 392 450
#     4  12  29  50  78 110 155 212 256 314 378 462
#
# _framework density 25.908338000000001
#
# number of rings (size 3 to 8) (size 9 to 14) (size 15 to 20)
#    0.000    0.000    0.000   10.000   14.000    0.000 
#    0.000    0.000    0.000    0.000    0.000    0.000 
#    0.000    0.000    0.000    0.000    0.000    0.000 
#
# Total GULP energy -67273.947230 kJ/mol
# GULP energy per Si atom -5606.162269 kJ/mol
# Density = 2.584937 g / cm^3
# Si number density = 25.908338 Si / 1000 Ang^3
#
#
#
# Elastic Constant Matrix: (Units=GPa)
#
#
# Indices 1 2 3 4 5 6 
#
# 1 158.9026 9.7687 23.3654 0.0000 0.0000 0.0000
# 2 9.7687 28.4122 12.4690 0.0000 0.0000 0.0000
# 3 23.3654 12.4690 106.8324 0.0000 0.0000 0.0000
# 4 0.0000 0.0000 0.0000 29.7826 0.0000 0.0000
# 5 0.0000 0.0000 0.0000 0.0000 55.2957 0.0000
# 6 0.0000 0.0000 0.0000 0.0000 0.0000 58.7452
#
#
#
# Elastic Compliance Matrix: (Units=1/GPa)
#
#
# Indices 1 2 3 4 5 6 
#
# 1 0.006581 -0.001719 -0.001239 0.000000 0.000000 0.000000
# 2 -0.001719 0.037545 -0.004006 0.000000 0.000000 0.000000
# 3 -0.001239 -0.004006 0.010099 0.000000 0.000000 0.000000
# 4 0.000000 0.000000 0.000000 0.033577 0.000000 0.000000
# 5 0.000000 0.000000 0.000000 0.000000 0.018085 0.000000
# 6 0.000000 0.000000 0.000000 0.000000 0.000000 0.017023
#
#
# Mechanical properties :
#
#
# Convention : Reuss Voigt Hill
#
# Bulk Modulus (GPa) = 24.81548 42.81706 33.81627
# Shear Modulus (GPa) = 33.27356 45.33429 39.30392
#
# Velocity S-wave (km/s) = 3.58757 4.18759 3.89914
# Velocity P-wave (km/s) = 5.17300 6.32009 5.77509
#
# Compressibility (1/GPa) = 0.04029743
#
# Stress axis : x y z
#
# Youngs Moduli (GPa) = 151.95298 26.63449 99.02016
#
# Poissons Ratio (x) = 0.04579 0.12266
# Poissons Ratio (y) = 0.26122 0.39669
# Poissons Ratio (z) = 0.18822 0.10670
#
# Static dielectric constant tensor:
#      x y z
#    x 1.948030 0.000000 0.000000 
#    y 0.000000 2.123520 0.000000 
#    z 0.000000 0.000000 2.034070 
# 
# From -- ./inp_files/80.got.cif
#   From: 2010.05.17/outbox.cif.g08.bks.cpg/sg19_1_cif.got.tgz:80.got - 2010.06.03 22:46:19.
