data_PCOD9316763
_publ_section_title
;
Structure prediction by ZEFSAII (Michael W. Deem and Ramdas Pophale) SiO2 
 PCOD9316763
Probable space group: C 2 2 21
;
_chemical_formula_sum "Si O2"
_cell_formula_units_Z 32
_cell_length_a 10.004696
_cell_length_b 12.102404
_cell_length_c 11.945306
_cell_angle_alpha 90.000000
_cell_angle_beta 90.000000
_cell_angle_gamma 90.000000
_cell_volume 1446.348077
_symmetry_space_group_name_H-M "C 2 2 21"
_symmetry_group_IT_number 20
_symmetry_cell_setting 'orthorhombic'
loop_
_space_group_symop_operation_xyz
x,y,z
-x,-y,1/2+z
x,-y,-z
-x,y,1/2-z
1/2+x,1/2+y,z
1/2-x,1/2-y,1/2+z
1/2+x,1/2-y,-z
1/2-x,1/2+y,1/2-z
loop_
_atom_site_type_symbol
_atom_site_label
_atom_site_fract_x
_atom_site_fract_y
_atom_site_fract_z
Si Si1 0.169874 0.460878 0.645101
Si Si2 0.171202 0.282272 0.375162
Si Si3 0.130536 0.411176 0.903152
Si Si4 0.913558 0.174581 0.343686
O O1 0.290028 0.795853 0.581673
O O2 0.175967 0.453945 0.780538
O O3 0.299813 0.396763 0.602750
O O4 0.173313 0.587875 0.610646
O O5 0.157556 0.262697 0.239461
O O6 0.000000 0.106255 0.250000
O O7 0.028436 0.232286 0.415347
O O8 0.161794 0.500000 0.000000
O O9 0.970018 0.406373 0.890860
#
# Coordination Sequence:
#
# PCOD9316763 Si02
#       4
#     8   8   8   8
#     4  10  18  37  58  73 114 152 176 231 288 329
#     4   8  17  35  54  75 102 145 181 222 285 324
#     4  10  20  36  56  85 115 145 194 239 273 336
#     4   7  15  32  50  77  98 130 186 218 262 335
#
# _framework density 22.124689
#
# number of rings (size 3 to 8) (size 9 to 14) (size 15 to 20)
#    1.500    1.500    0.000    3.000    0.000    0.000 
#    9.000   13.750    0.000    0.000    0.000    0.000 
#    0.000    0.000    0.000    0.000    0.000    0.000 
#
# Total GULP energy -89172.047710 kJ/mol
# GULP energy per Si atom -5573.252982 kJ/mol
# Density = 2.207433 g / cm^3
# Si number density = 22.124689 Si / 1000 Ang^3
#
#
#
# Elastic Constant Matrix: (Units=GPa)
#
#
# Indices 1 2 3 4 5 6 
#
# 1 181.3589 139.8867 34.8058 0.0000 0.0000 0.0000
# 2 139.8867 156.6854 25.5613 0.0000 0.0000 0.0000
# 3 34.8058 25.5613 91.9489 0.0000 0.0000 0.0000
# 4 0.0000 0.0000 0.0000 19.2276 0.0000 0.0000
# 5 0.0000 0.0000 0.0000 0.0000 25.4502 0.0000
# 6 0.0000 0.0000 0.0000 0.0000 0.0000 27.1329
#
#
#
# Elastic Compliance Matrix: (Units=1/GPa)
#
#
# Indices 1 2 3 4 5 6 
#
# 1 0.018237 -0.015876 -0.002490 0.000000 0.000000 0.000000
# 2 -0.015876 0.020505 0.000309 0.000000 0.000000 0.000000
# 3 -0.002490 0.000309 0.011732 0.000000 0.000000 0.000000
# 4 0.000000 0.000000 0.000000 0.052008 0.000000 0.000000
# 5 0.000000 0.000000 0.000000 0.000000 0.039292 0.000000
# 6 0.000000 0.000000 0.000000 0.000000 0.000000 0.036856
#
#
# Mechanical properties :
#
#
# Convention : Reuss Voigt Hill
#
# Bulk Modulus (GPa) = 69.63030 92.27787 80.95408
# Shear Modulus (GPa) = 22.77579 29.67811 26.22695
#
# Velocity S-wave (km/s) = 3.21195 3.66649 3.44672
# Velocity P-wave (km/s) = 6.73020 7.72805 7.24632
#
# Compressibility (1/GPa) = 0.01436156
#
# Stress axis : x y z
#
# Youngs Moduli (GPa) = 54.83344 48.76783 85.23520
#
# Poissons Ratio (x) = 0.77422 0.21224
# Poissons Ratio (y) = 0.87051 -0.02634
# Poissons Ratio (z) = 0.13654 -0.01507
#
# Static dielectric constant tensor:
#      x y z
#    x 1.828430 0.000000 0.000000 
#    y 0.000000 1.785100 0.000000 
#    z 0.000000 0.000000 1.884890 
# 
# From -- ./inp_files/13569.got.cif
#   From: 2010.05.17/outbox.cif.g08.bks.cpg/sg20_7_cif.got.tgz:13569.got - 2010.06.03 22:52:26.
