data_PCOD9316992
_publ_section_title
;
Structure prediction by ZEFSAII (Michael W. Deem and Ramdas Pophale) SiO2 
 PCOD9316992
Probable space group: C 2 2 21
;
_chemical_formula_sum "Si O2"
_cell_formula_units_Z 64
_cell_length_a 5.522976
_cell_length_b 27.035932
_cell_length_c 23.624395
_cell_angle_alpha 90.000000
_cell_angle_beta 90.000000
_cell_angle_gamma 90.000000
_cell_volume 3527.566397
_symmetry_space_group_name_H-M "C 2 2 21"
_symmetry_group_IT_number 20
_symmetry_cell_setting 'orthorhombic'
loop_
_space_group_symop_operation_xyz
x,y,z
-x,-y,1/2+z
x,-y,-z
-x,y,1/2-z
1/2+x,1/2+y,z
1/2-x,1/2-y,1/2+z
1/2+x,1/2-y,-z
1/2-x,1/2+y,1/2-z
loop_
_atom_site_type_symbol
_atom_site_label
_atom_site_fract_x
_atom_site_fract_y
_atom_site_fract_z
Si Si1 0.870398 0.769421 0.975388
Si Si2 0.752418 0.836383 0.280102
Si Si3 0.261633 0.901152 0.387804
Si Si4 0.425189 0.370204 0.485301
Si Si5 0.095975 0.313936 0.400215
Si Si6 0.030524 0.965912 0.943583
Si Si7 0.480629 0.003772 0.568082
Si Si8 0.246837 0.053974 0.736855
O O1 0.928950 0.743523 0.915371
O O2 0.591434 0.755210 0.988221
O O3 0.906931 0.827133 0.987982
O O4 0.500000 0.820006 0.250000
O O5 0.760445 0.820937 0.345268
O O6 0.745950 0.896367 0.275930
O O7 0.000000 0.820429 0.250000
O O8 0.043427 0.898207 0.431713
O O9 0.359854 0.845422 0.384165
O O10 0.225594 0.924260 0.326363
O O11 0.449898 0.939118 0.416044
O O12 0.202130 0.341082 0.456375
O O13 0.402216 0.411595 0.533313
O O14 0.766323 0.974403 0.915615
O O15 0.263762 0.984333 0.908970
O O16 0.011709 0.000000 0.000000
O O17 0.496491 0.000000 0.500000
O O18 0.500000 0.027929 0.750000
O O19 0.000000 0.025935 0.750000
#
# Coordination Sequence:
#
# PCOD9316992 Si02
#       8
#     8   8   8   8   8   8   8   8
#     4  10  22  34  48  74 104 137 186 210 245 320
#     4  10  19  33  47  70  99 129 166 215 246 304
#     4  12  20  32  56  70 103 153 164 210 277 304
#     4  11  21  33  52  72 104 147 176 214 261 303
#     4  11  21  33  52  72 105 144 175 206 266 316
#     4  10  19  33  46  69 100 129 171 218 240 296
#     4  10  20  32  46  74  97 127 182 206 242 317
#     4  10  20  32  45  73  98 129 170 207 243 316
#
# _framework density 18.142818999999999
#
# number of rings (size 3 to 8) (size 9 to 14) (size 15 to 20)
#    0.000    1.500    6.250    3.000    0.000    0.000 
#    0.000    0.000    0.000    0.000    0.000    0.000 
#    0.000    4.000    0.000    1.375    0.000    0.000 
#
# Total GULP energy -178154.176873 kJ/mol
# GULP energy per Si atom -5567.318027 kJ/mol
# Density = 1.810153 g / cm^3
# Si number density = 18.142819 Si / 1000 Ang^3
#
#
#
# Elastic Constant Matrix: (Units=GPa)
#
#
# Indices 1 2 3 4 5 6 
#
# 1 122.2420 3.9375 5.0382 0.0000 0.0000 0.0000
# 2 3.9375 52.1488 13.3841 0.0000 0.0000 0.0000
# 3 5.0382 13.3841 33.6428 0.0000 0.0000 0.0000
# 4 0.0000 0.0000 0.0000 2.7050 0.0000 0.0000
# 5 0.0000 0.0000 0.0000 0.0000 6.7150 0.0000
# 6 0.0000 0.0000 0.0000 0.0000 0.0000 15.0029
#
#
#
# Elastic Compliance Matrix: (Units=1/GPa)
#
#
# Indices 1 2 3 4 5 6 
#
# 1 0.008237 -0.000340 -0.001098 0.000000 0.000000 0.000000
# 2 -0.000340 0.021371 -0.008451 0.000000 0.000000 0.000000
# 3 -0.001098 -0.008451 0.033251 0.000000 0.000000 0.000000
# 4 0.000000 0.000000 0.000000 0.369684 0.000000 0.000000
# 5 0.000000 0.000000 0.000000 0.000000 0.148921 0.000000
# 6 0.000000 0.000000 0.000000 0.000000 0.000000 0.066654
#
#
# Mechanical properties :
#
#
# Convention : Reuss Voigt Hill
#
# Bulk Modulus (GPa) = 23.21293 28.08368 25.64831
# Shear Modulus (GPa) = 7.32864 17.26283 12.29573
#
# Velocity S-wave (km/s) = 2.01201 3.08798 2.60613
# Velocity P-wave (km/s) = 4.26848 5.31291 4.81907
#
# Compressibility (1/GPa) = 0.04307943
#
# Stress axis : x y z
#
# Youngs Moduli (GPa) = 121.40765 46.79339 30.07468
#
# Poissons Ratio (x) = 0.01591 0.03303
# Poissons Ratio (y) = 0.04129 0.25416
# Poissons Ratio (z) = 0.13333 0.39545
#
# Static dielectric constant tensor:
#      x y z
#    x 1.785250 0.000000 0.000000 
#    y 0.000000 1.629730 0.000000 
#    z 0.000000 0.000000 1.648120 
# 
# From -- ./inp_files/28087.got.cif
#   From: 2010.05.17/outbox.cif.g08.bks.cpg/sg20_15_cif.got.tgz:28087.got - 2010.06.03 22:52:26.
