data_PCOD9316563
_publ_section_title
;
Structure prediction by ZEFSAII (Michael W. Deem and Ramdas Pophale) SiO2 
 PCOD9316563
Probable space group: C 2 2 21
;
_chemical_formula_sum "Si O2"
_cell_formula_units_Z 56
_cell_length_a 7.915709
_cell_length_b 17.126056
_cell_length_c 18.020413
_cell_angle_alpha 90.000000
_cell_angle_beta 90.000000
_cell_angle_gamma 90.000000
_cell_volume 2442.935047
_symmetry_space_group_name_H-M "C 2 2 21"
_symmetry_group_IT_number 20
_symmetry_cell_setting 'orthorhombic'
loop_
_space_group_symop_operation_xyz
x,y,z
-x,-y,1/2+z
x,-y,-z
-x,y,1/2-z
1/2+x,1/2+y,z
1/2-x,1/2-y,1/2+z
1/2+x,1/2-y,-z
1/2-x,1/2+y,1/2-z
loop_
_atom_site_type_symbol
_atom_site_label
_atom_site_fract_x
_atom_site_fract_y
_atom_site_fract_z
Si Si1 0.646796 0.117606 0.095675
Si Si2 0.000000 0.624198 0.250000
Si Si3 0.254809 0.013382 0.781199
Si Si4 0.162844 0.368447 0.389489
Si Si5 0.912459 0.993419 0.129401
Si Si6 0.513727 0.337084 0.439781
Si Si7 0.862733 0.729117 0.547057
Si Si8 0.928118 0.500000 0.000000
O O1 0.572457 0.155348 0.171391
O O2 0.650649 0.178848 0.029142
O O3 0.536249 0.045028 0.062981
O O4 0.825358 0.074955 0.109746
O O5 0.149602 0.567261 0.275248
O O6 0.366676 0.080288 0.817313
O O7 0.194159 0.037765 0.699899
O O8 0.098147 0.999100 0.836374
O O9 0.350900 0.333046 0.385768
O O10 0.167952 0.430990 0.457498
O O11 0.010755 0.309690 0.404973
O O12 0.916326 0.925494 0.067799
O O13 0.672929 0.280279 0.422545
O O14 0.431028 0.311678 0.518075
#
# Coordination Sequence:
#
# PCOD9316563 Si02
#       8
#     8   4   8   8   8   8   8   4
#     4  10  20  35  58  86 119 150 199 245 302 355
#     4  10  18  34  56  86 120 160 180 248 308 356
#     4   9  18  32  56  87 117 148 194 253 297 350
#     4  10  20  36  58  85 118 146 199 243 300 352
#     4   9  19  35  56  88 114 151 200 251 296 355
#     4  11  22  38  59  82 117 160 197 246 298 362
#     4  11  23  39  56  85 118 160 197 244 303 364
#     4  10  18  32  56  92 110 146 188 252 294 356
#
# _framework density 22.923247
#
# number of rings (size 3 to 8) (size 9 to 14) (size 15 to 20)
#    0.000    2.000    2.857    1.714    2.000    2.286 
#    0.000    2.857    0.000    0.000    0.000    2.000 
#    0.000    0.000    0.000    0.000    0.000    0.000 
#
# Total GULP energy -156245.684377 kJ/mol
# GULP energy per Si atom -5580.203013 kJ/mol
# Density = 2.287107 g / cm^3
# Si number density = 22.923247 Si / 1000 Ang^3
#
#
#
# Elastic Constant Matrix: (Units=GPa)
#
#
# Indices 1 2 3 4 5 6 
#
# 1 113.7031 27.5824 29.9203 0.0000 0.0000 0.0000
# 2 27.5824 60.5314 21.9975 0.0000 0.0000 0.0000
# 3 29.9203 21.9975 83.7846 0.0000 0.0000 0.0000
# 4 0.0000 0.0000 0.0000 30.3798 0.0000 0.0000
# 5 0.0000 0.0000 0.0000 0.0000 27.6529 0.0000
# 6 0.0000 0.0000 0.0000 0.0000 0.0000 19.0756
#
#
#
# Elastic Compliance Matrix: (Units=1/GPa)
#
#
# Indices 1 2 3 4 5 6 
#
# 1 0.010426 -0.003756 -0.002737 0.000000 0.000000 0.000000
# 2 -0.003756 0.019616 -0.003809 0.000000 0.000000 0.000000
# 3 -0.002737 -0.003809 0.013913 0.000000 0.000000 0.000000
# 4 0.000000 0.000000 0.000000 0.032917 0.000000 0.000000
# 5 0.000000 0.000000 0.000000 0.000000 0.036163 0.000000
# 6 0.000000 0.000000 0.000000 0.000000 0.000000 0.052423
#
#
# Mechanical properties :
#
#
# Convention : Reuss Voigt Hill
#
# Bulk Modulus (GPa) = 42.82497 46.33551 44.58024
# Shear Modulus (GPa) = 25.79377 27.32293 26.55835
#
# Velocity S-wave (km/s) = 3.35807 3.45618 3.40748
# Velocity P-wave (km/s) = 5.81016 6.01532 5.91363
#
# Compressibility (1/GPa) = 0.02335086
#
# Stress axis : x y z
#
# Youngs Moduli (GPa) = 95.91133 50.97856 71.87619
#
# Poissons Ratio (x) = 0.19149 0.19673
# Poissons Ratio (y) = 0.36027 0.27376
# Poissons Ratio (z) = 0.26252 0.19417
#
# Static dielectric constant tensor:
#      x y z
#    x 1.919240 0.000000 0.000000 
#    y 0.000000 1.867120 0.000000 
#    z 0.000000 0.000000 2.056980 
# 
# From -- ./inp_files/23880.got.cif
#   From: 2010.05.17/outbox.cif.g08.bks.cpg/sg20_12_cif.got.tgz:23880.got - 2010.06.03 22:52:26.
