data_PCOD9316384
_publ_section_title
;
Structure prediction by ZEFSAII (Michael W. Deem and Ramdas Pophale) SiO2 
 PCOD9316384
Probable space group: C 2 2 21
;
_chemical_formula_sum "Si O2"
_cell_formula_units_Z 56
_cell_length_a 16.052863
_cell_length_b 9.503042
_cell_length_c 18.569198
_cell_angle_alpha 90.000000
_cell_angle_beta 90.000000
_cell_angle_gamma 90.000000
_cell_volume 2832.750305
_symmetry_space_group_name_H-M "C 2 2 21"
_symmetry_group_IT_number 20
_symmetry_cell_setting 'orthorhombic'
loop_
_space_group_symop_operation_xyz
x,y,z
-x,-y,1/2+z
x,-y,-z
-x,y,1/2-z
1/2+x,1/2+y,z
1/2-x,1/2-y,1/2+z
1/2+x,1/2-y,-z
1/2-x,1/2+y,1/2-z
loop_
_atom_site_type_symbol
_atom_site_label
_atom_site_fract_x
_atom_site_fract_y
_atom_site_fract_z
Si Si1 0.386926 0.207719 0.054664
Si Si2 0.424054 0.093572 0.896327
Si Si3 0.245668 0.292114 0.335492
Si Si4 0.756945 0.861291 0.972326
Si Si5 0.590269 0.501502 0.380490
Si Si6 0.185469 0.069121 0.235101
Si Si7 0.039272 0.782514 0.829702
O O1 0.427176 0.345463 0.090297
O O2 0.398061 0.069046 0.102396
O O3 0.420818 0.156000 0.977147
O O4 0.293189 0.260902 0.034905
O O5 0.352459 0.175730 0.851462
O O6 0.513225 0.134030 0.863748
O O7 0.282820 0.233650 0.410252
O O8 0.250619 0.169289 0.276298
O O9 0.281596 0.437406 0.308374
O O10 0.838341 0.931173 0.931985
O O11 0.709671 0.000000 0.000000
O O12 0.628994 0.505181 0.300183
O O13 0.509248 0.599440 0.376301
O O14 0.132999 0.171025 0.182972
O O15 0.000000 0.783333 0.750000
#
# Coordination Sequence:
#
# PCOD9316384 Si02
#       7
#     8   8   8   8   8   8   8
#     4   9  17  28  53  88  99 132 189 248 254 318
#     4  10  18  32  54  80 113 134 185 236 283 317
#     4  10  19  34  50  83 108 151 184 228 279 341
#     4   8  14  30  54  81 108 139 184 238 277 320
#     4   9  16  31  53  80 106 143 180 225 275 327
#     4  10  21  33  54  77 116 148 186 222 283 344
#     4  10  17  35  52  75 109 146 173 220 281 334
#
# _framework density 19.768772999999999
#
# number of rings (size 3 to 8) (size 9 to 14) (size 15 to 20)
#    0.000    2.571    5.714    0.000    2.000    0.000 
#    0.000    3.571    0.000    6.857    3.714    0.000 
#    0.000    0.000    0.000    0.000    0.000    0.000 
#
# Total GULP energy -155878.829843 kJ/mol
# GULP energy per Si atom -5567.101066 kJ/mol
# Density = 1.972378 g / cm^3
# Si number density = 19.768773 Si / 1000 Ang^3
#
#
#
# Elastic Constant Matrix: (Units=GPa)
#
#
# Indices 1 2 3 4 5 6 
#
# 1 8.9532 8.7589 13.1461 0.0000 0.0000 0.0000
# 2 8.7589 153.5569 38.4221 0.0000 0.0000 0.0000
# 3 13.1461 38.4221 44.1133 0.0000 0.0000 0.0000
# 4 0.0000 0.0000 0.0000 46.0564 0.0000 0.0000
# 5 0.0000 0.0000 0.0000 0.0000 12.1453 0.0000
# 6 0.0000 0.0000 0.0000 0.0000 0.0000 24.1823
#
#
#
# Elastic Compliance Matrix: (Units=1/GPa)
#
#
# Indices 1 2 3 4 5 6 
#
# 1 0.200998 0.004504 -0.063822 0.000000 0.000000 0.000000
# 2 0.004504 0.008428 -0.008683 0.000000 0.000000 0.000000
# 3 -0.063822 -0.008683 0.049251 0.000000 0.000000 0.000000
# 4 0.000000 0.000000 0.000000 0.021713 0.000000 0.000000
# 5 0.000000 0.000000 0.000000 0.000000 0.082337 0.000000
# 6 0.000000 0.000000 0.000000 0.000000 0.000000 0.041353
#
#
# Mechanical properties :
#
#
# Convention : Reuss Voigt Hill
#
# Bulk Modulus (GPa) = 8.15162 36.36419 22.25790
# Shear Modulus (GPa) = 8.60627 26.22986 17.41807
#
# Velocity S-wave (km/s) = 2.08876 3.64652 2.97154
# Velocity P-wave (km/s) = 3.15431 6.01367 4.80176
#
# Compressibility (1/GPa) = 0.12267507
#
# Stress axis : x y z
#
# Youngs Moduli (GPa) = 4.97518 118.65362 20.30411
#
# Poissons Ratio (x) = -0.53444 1.29585
# Poissons Ratio (y) = -0.02241 0.17630
# Poissons Ratio (z) = 0.31753 1.03025
#
# Static dielectric constant tensor:
#      x y z
#    x 1.710970 0.000000 0.000000 
#    y 0.000000 1.738380 0.000000 
#    z 0.000000 0.000000 1.747260 
# 
# From -- ./inp_files/25435.got.cif
#   From: 2010.05.17/outbox.cif.g08.bks.cpg/sg20_13_cif.got.tgz:25435.got - 2010.06.03 22:52:26.
