data_PCOD9316104
_publ_section_title
;
Structure prediction by ZEFSAII (Michael W. Deem and Ramdas Pophale) SiO2 
 PCOD9316104
Probable space group: P 21 21 21
;
_chemical_formula_sum "Si O2"
_cell_formula_units_Z 20
_cell_length_a 27.552889
_cell_length_b 5.099872
_cell_length_c 5.099870
_cell_angle_alpha 90.000000
_cell_angle_beta 90.000000
_cell_angle_gamma 90.000000
_cell_volume 716.614389
_symmetry_space_group_name_H-M "P 21 21 21"
_symmetry_group_IT_number 19
_symmetry_cell_setting 'orthorhombic'
loop_
_space_group_symop_operation_xyz
x,y,z
1/2-x,-y,1/2+z
1/2+x,1/2-y,-z
-x,1/2+y,1/2-z
loop_
_atom_site_type_symbol
_atom_site_label
_atom_site_fract_x
_atom_site_fract_y
_atom_site_fract_z
Si Si1 0.808514 0.280430 0.895861
Si Si2 0.801695 0.756828 0.244045
Si Si3 0.558514 0.854140 0.530431
Si Si4 0.448305 0.005956 0.493171
Si Si5 0.375000 0.591741 0.341741
O O1 0.822973 0.538027 0.051718
O O2 0.804381 0.037383 0.100305
O O3 0.754903 0.308913 0.779386
O O4 0.847819 0.191244 0.681753
O O5 0.829822 0.760453 0.519392
O O6 0.504903 0.970614 0.558914
O O7 0.554381 0.649696 0.287383
O O8 0.597819 0.068248 0.441244
O O9 0.579822 0.230609 0.010453
O O10 0.427027 0.198283 0.711972
#
# Coordination Sequence:
#
# PCOD9316104 Si02
#       5
#     4   4   4   4   4
#     4  12  28  51  82 120 174 231 292 368 442 529
#     4  12  28  51  82 120 174 231 292 368 442 529
#     4  12  28  51  82 120 174 231 292 368 442 529
#     4  12  28  51  82 120 174 231 292 368 442 529
#     4  12  30  48  82 126 164 232 296 360 448 522
#
# _framework density 27.909008
#
# number of rings (size 3 to 8) (size 9 to 14) (size 15 to 20)
#    0.000    0.000    4.000    3.600   11.200    0.000 
#    0.000    0.000    0.000    0.000    0.000    0.000 
#    0.000    0.000    0.000    0.000    0.000    0.000 
#
# Total GULP energy -112050.024089 kJ/mol
# GULP energy per Si atom -5602.501204 kJ/mol
# Density = 2.784549 g / cm^3
# Si number density = 27.909008 Si / 1000 Ang^3
#
#
#
# Elastic Constant Matrix: (Units=GPa)
#
#
# Indices 1 2 3 4 5 6 
#
# 1 204.5416 27.1694 27.1699 0.0000 0.0000 0.0000
# 2 27.1694 159.8119 85.2701 0.0000 0.0000 0.0000
# 3 27.1699 85.2701 159.8123 0.0000 0.0000 0.0000
# 4 0.0000 0.0000 0.0000 74.8085 0.0000 0.0000
# 5 0.0000 0.0000 0.0000 0.0000 40.9470 0.0000
# 6 0.0000 0.0000 0.0000 0.0000 0.0000 40.9471
#
#
#
# Elastic Compliance Matrix: (Units=1/GPa)
#
#
# Indices 1 2 3 4 5 6 
#
# 1 0.005037 -0.000558 -0.000558 0.000000 0.000000 0.000000
# 2 -0.000558 0.008810 -0.004606 0.000000 0.000000 0.000000
# 3 -0.000558 -0.004606 0.008810 0.000000 0.000000 0.000000
# 4 0.000000 0.000000 0.000000 0.013367 0.000000 0.000000
# 5 0.000000 0.000000 0.000000 0.000000 0.024422 0.000000
# 6 0.000000 0.000000 0.000000 0.000000 0.000000 0.024422
#
#
# Mechanical properties :
#
#
# Convention : Reuss Voigt Hill
#
# Bulk Modulus (GPa) = 89.19213 89.26497 89.22855
# Shear Modulus (GPa) = 49.97507 56.97760 53.47634
#
# Velocity S-wave (km/s) = 4.23619 4.52325 4.38207
# Velocity P-wave (km/s) = 7.48028 7.70282 7.59237
#
# Compressibility (1/GPa) = 0.01121175
#
# Stress axis : x y z
#
# Youngs Moduli (GPa) = 198.51755 113.51158 113.51174
#
# Poissons Ratio (x) = 0.06339 0.06339
# Poissons Ratio (y) = 0.11086 0.52279
# Poissons Ratio (z) = 0.11086 0.52279
#
# Static dielectric constant tensor:
#      x y z
#    x 2.158880 0.000000 0.000000 
#    y 0.000000 2.224580 0.000000 
#    z 0.000000 0.000000 2.224580 
# 
# From -- ./inp_files/172.got.cif
#   From: 2010.05.17/outbox.cif.g08.bks.cpg/sg19_1_cif.got.tgz:172.got - 2010.06.03 22:46:19.
