data_PCOD9316397
_publ_section_title
;
Structure prediction by ZEFSAII (Michael W. Deem and Ramdas Pophale) SiO2 
 PCOD9316397
Probable space group: C 2 2 21
;
_chemical_formula_sum "Si O2"
_cell_formula_units_Z 48
_cell_length_a 23.808905
_cell_length_b 13.258198
_cell_length_c 8.629399
_cell_angle_alpha 90.000000
_cell_angle_beta 90.000000
_cell_angle_gamma 90.000000
_cell_volume 2723.983501
_symmetry_space_group_name_H-M "C 2 2 21"
_symmetry_group_IT_number 20
_symmetry_cell_setting 'orthorhombic'
loop_
_space_group_symop_operation_xyz
x,y,z
-x,-y,1/2+z
x,-y,-z
-x,y,1/2-z
1/2+x,1/2+y,z
1/2-x,1/2-y,1/2+z
1/2+x,1/2-y,-z
1/2-x,1/2+y,1/2-z
loop_
_atom_site_type_symbol
_atom_site_label
_atom_site_fract_x
_atom_site_fract_y
_atom_site_fract_z
Si Si1 0.672636 0.604790 0.225450
Si Si2 0.173431 0.271679 0.803826
Si Si3 0.409203 0.500000 0.500000
Si Si4 0.714764 0.809414 0.156445
Si Si5 0.297676 0.020011 0.179024
Si Si6 0.939700 0.147485 0.757102
Si Si7 0.607446 0.500000 0.500000
O O1 0.631182 0.579751 0.084987
O O2 0.680859 0.723271 0.249254
O O3 0.733131 0.558118 0.186837
O O4 0.646908 0.549715 0.371731
O O5 0.220133 0.212069 0.700877
O O6 0.167577 0.385192 0.740985
O O7 0.114462 0.214145 0.787780
O O8 0.199537 0.285249 0.977278
O O9 0.443318 0.558464 0.629474
O O10 0.698801 0.920337 0.215085
O O11 0.311207 0.000000 0.000000
O O12 0.000000 0.201219 0.750000
O O13 0.927185 0.089191 0.917433
#
# Coordination Sequence:
#
# PCOD9316397 Si02
#       7
#     8   8   4   8   8   8   4
#     4  10  20  33  56  85 123 145 188 235 292 349
#     4  11  24  36  61  87 118 158 191 248 295 349
#     4  10  17  38  58  82 114 156 187 232 294 336
#     4  11  21  37  57  90 120 153 192 237 303 359
#     4  11  23  35  56  86 124 156 189 239 298 361
#     4  11  23  40  58  85 119 159 202 238 284 344
#     4  10  23  32  60  88 112 156 193 240 284 350
#
# _framework density 17.621251999999998
#
# number of rings (size 3 to 8) (size 9 to 14) (size 15 to 20)
#    0.000    1.333    2.500    5.000   11.667    0.000 
#    0.000    0.000    0.000    2.000    0.000    0.000 
#    0.000    0.000    0.000    0.000    0.000    0.000 
#
# Total GULP energy -133950.983562 kJ/mol
# GULP energy per Si atom -5581.290982 kJ/mol
# Density = 1.758115 g / cm^3
# Si number density = 17.621252 Si / 1000 Ang^3
#
#
#
# Elastic Constant Matrix: (Units=GPa)
#
#
# Indices 1 2 3 4 5 6 
#
# 1 88.7420 31.1563 30.6912 0.0000 0.0000 0.0000
# 2 31.1563 105.3244 24.4931 0.0000 0.0000 0.0000
# 3 30.6912 24.4931 88.5064 0.0000 0.0000 0.0000
# 4 0.0000 0.0000 0.0000 23.0127 0.0000 0.0000
# 5 0.0000 0.0000 0.0000 0.0000 1.1117 0.0000
# 6 0.0000 0.0000 0.0000 0.0000 0.0000 16.6294
#
#
#
# Elastic Compliance Matrix: (Units=1/GPa)
#
#
# Indices 1 2 3 4 5 6 
#
# 1 0.013720 -0.003155 -0.003884 0.000000 0.000000 0.000000
# 2 -0.003155 0.010873 -0.001915 0.000000 0.000000 0.000000
# 3 -0.003884 -0.001915 0.013176 0.000000 0.000000 0.000000
# 4 0.000000 0.000000 0.000000 0.043454 0.000000 0.000000
# 5 0.000000 0.000000 0.000000 0.000000 0.899522 0.000000
# 6 0.000000 0.000000 0.000000 0.000000 0.000000 0.060135
#
#
# Mechanical properties :
#
#
# Convention : Reuss Voigt Hill
#
# Bulk Modulus (GPa) = 50.35384 50.58379 50.46881
# Shear Modulus (GPa) = 4.69304 21.23289 12.96297
#
# Velocity S-wave (km/s) = 1.63373 3.47502 2.71522
# Velocity P-wave (km/s) = 5.67419 6.69847 6.20749
#
# Compressibility (1/GPa) = 0.01985946
#
# Stress axis : x y z
#
# Youngs Moduli (GPa) = 72.88742 91.96988 75.89824
#
# Poissons Ratio (x) = 0.29018 0.29482
# Poissons Ratio (y) = 0.22997 0.14534
# Poissons Ratio (z) = 0.28313 0.17611
#
# Static dielectric constant tensor:
#      x y z
#    x 1.603700 0.000000 0.000000 
#    y 0.000000 1.608580 0.000000 
#    z 0.000000 0.000000 1.657300 
# 
# From -- ./inp_files/7423.got.cif
#   From: 2010.05.17/outbox.cif.g08.bks.cpg/sg20_4_cif.got.tgz:7423.got - 2010.06.03 22:52:26.
