data_PCOD9316418
_publ_section_title
;
Structure prediction by ZEFSAII (Michael W. Deem and Ramdas Pophale) SiO2 
 PCOD9316418
Probable space group: C 2 2 21
;
_chemical_formula_sum "Si O2"
_cell_formula_units_Z 56
_cell_length_a 19.347217
_cell_length_b 22.650218
_cell_length_c 8.342089
_cell_angle_alpha 90.000000
_cell_angle_beta 90.000000
_cell_angle_gamma 90.000000
_cell_volume 3655.659253
_symmetry_space_group_name_H-M "C 2 2 21"
_symmetry_group_IT_number 20
_symmetry_cell_setting 'orthorhombic'
loop_
_space_group_symop_operation_xyz
x,y,z
-x,-y,1/2+z
x,-y,-z
-x,y,1/2-z
1/2+x,1/2+y,z
1/2-x,1/2-y,1/2+z
1/2+x,1/2-y,-z
1/2-x,1/2+y,1/2-z
loop_
_atom_site_type_symbol
_atom_site_label
_atom_site_fract_x
_atom_site_fract_y
_atom_site_fract_z
Si Si1 0.184764 0.269759 0.067687
Si Si2 0.588390 0.000000 0.500000
Si Si3 0.292729 0.325439 0.298055
Si Si4 0.073597 0.275039 0.330436
Si Si5 0.833011 0.383330 0.044157
Si Si6 0.500000 0.925998 0.750000
Si Si7 0.427669 0.286387 0.166818
Si Si8 0.875864 0.341121 0.704974
O O1 0.251600 0.286696 0.168054
O O2 0.124127 0.253573 0.190115
O O3 0.198382 0.215358 0.953088
O O4 0.164389 0.325742 0.957081
O O5 0.636191 0.051913 0.569897
O O6 0.539542 0.033057 0.374606
O O7 0.238790 0.374588 0.360550
O O8 0.368158 0.332821 0.218866
O O9 0.111798 0.334392 0.393167
O O10 0.067057 0.228915 0.477717
O O11 0.000000 0.287691 0.250000
O O12 0.831678 0.368767 0.852262
O O13 0.441374 0.883398 0.675693
O O14 0.500000 0.301815 0.250000
O O15 0.404510 0.222756 0.239529
#
# Coordination Sequence:
#
# PCOD9316418 Si02
#       8
#     8   4   8   8   8   4   8   8
#     4  10  18  27  45  68  90 125 156 191 235 301
#     4  10  22  32  46  66  94 126 180 208 240 272
#     4  10  18  30  45  63  93 120 157 199 238 291
#     4  10  19  27  45  69  96 125 160 191 236 296
#     4   9  20  32  44  63  90 129 168 204 238 276
#     4  10  20  32  48  66  94 132 160 218 234 274
#     4  10  18  30  46  67  94 122 152 190 242 296
#     4   9  17  30  46  63  92 124 159 190 242 279
#
# _framework density 15.318714
#
# number of rings (size 3 to 8) (size 9 to 14) (size 15 to 20)
#    0.000    2.286    0.714    5.143    5.000    1.143 
#    0.000    0.000    0.000    0.000    0.000    0.000 
#    0.000    8.000    0.000    0.000    0.000    0.429 
#
# Total GULP energy -155934.208913 kJ/mol
# GULP energy per Si atom -5569.078890 kJ/mol
# Density = 1.528385 g / cm^3
# Si number density = 15.318714 Si / 1000 Ang^3
#
#
#
# Elastic Constant Matrix: (Units=GPa)
#
#
# Indices 1 2 3 4 5 6 
#
# 1 95.7605 20.8807 33.8317 0.0000 0.0000 0.0000
# 2 20.8807 45.8904 13.1456 0.0000 0.0000 0.0000
# 3 33.8317 13.1456 80.8952 0.0000 0.0000 0.0000
# 4 0.0000 0.0000 0.0000 15.3425 0.0000 0.0000
# 5 0.0000 0.0000 0.0000 0.0000 24.3236 0.0000
# 6 0.0000 0.0000 0.0000 0.0000 0.0000 20.3441
#
#
#
# Elastic Compliance Matrix: (Units=1/GPa)
#
#
# Indices 1 2 3 4 5 6 
#
# 1 0.013123 -0.004614 -0.004738 0.000000 0.000000 0.000000
# 2 -0.004614 0.024477 -0.002048 0.000000 0.000000 0.000000
# 3 -0.004738 -0.002048 0.014676 0.000000 0.000000 0.000000
# 4 0.000000 0.000000 0.000000 0.065179 0.000000 0.000000
# 5 0.000000 0.000000 0.000000 0.000000 0.041112 0.000000
# 6 0.000000 0.000000 0.000000 0.000000 0.000000 0.049154
#
#
# Mechanical properties :
#
#
# Convention : Reuss Voigt Hill
#
# Bulk Modulus (GPa) = 33.92625 39.80687 36.86656
# Shear Modulus (GPa) = 20.80328 22.31458 21.55893
#
# Velocity S-wave (km/s) = 3.68914 3.82080 3.75555
# Velocity P-wave (km/s) = 6.35149 6.74588 6.55165
#
# Compressibility (1/GPa) = 0.02947570
#
# Stress axis : x y z
#
# Youngs Moduli (GPa) = 76.20324 40.85464 68.13766
#
# Poissons Ratio (x) = 0.18849 0.32287
# Poissons Ratio (y) = 0.35158 0.13955
# Poissons Ratio (z) = 0.36108 0.08367
#
# Static dielectric constant tensor:
#      x y z
#    x 1.554470 0.000000 0.000000 
#    y 0.000000 1.489110 0.000000 
#    z 0.000000 0.000000 1.530970 
# 
# From -- ./inp_files/9691.got.cif
#   From: 2010.05.17/outbox.cif.g08.bks.cpg/sg20_5_cif.got.tgz:9691.got - 2010.06.03 22:52:26.
