data_PCOD9316295
_publ_section_title
;
Structure prediction by ZEFSAII (Michael W. Deem and Ramdas Pophale) SiO2 
 PCOD9316295
Probable space group: C 2 2 21
;
_chemical_formula_sum "Si O2"
_cell_formula_units_Z 56
_cell_length_a 19.078224
_cell_length_b 28.316871
_cell_length_c 5.203222
_cell_angle_alpha 90.000000
_cell_angle_beta 90.000000
_cell_angle_gamma 90.000000
_cell_volume 2810.965800
_symmetry_space_group_name_H-M "C 2 2 21"
_symmetry_group_IT_number 20
_symmetry_cell_setting 'orthorhombic'
loop_
_space_group_symop_operation_xyz
x,y,z
-x,-y,1/2+z
x,-y,-z
-x,y,1/2-z
1/2+x,1/2+y,z
1/2-x,1/2-y,1/2+z
1/2+x,1/2-y,-z
1/2-x,1/2+y,1/2-z
loop_
_atom_site_type_symbol
_atom_site_label
_atom_site_fract_x
_atom_site_fract_y
_atom_site_fract_z
Si Si1 0.245425 0.445803 0.059735
Si Si2 0.915772 0.237745 0.204401
Si Si3 0.750971 0.888207 0.562258
Si Si4 0.080535 0.102250 0.087383
Si Si5 0.573787 0.302779 0.206076
Si Si6 0.415663 0.448932 0.090030
Si Si7 0.720778 0.777679 0.470396
O O1 0.224681 0.421393 0.328419
O O2 0.330569 0.447821 0.074459
O O3 0.222963 0.500000 0.000000
O O4 0.224575 0.410652 0.828870
O O5 0.886349 0.225722 0.486895
O O6 0.863948 0.275603 0.079250
O O7 0.000000 0.245184 0.250000
O O8 0.900709 0.194834 0.998564
O O9 0.835145 0.892943 0.577796
O O10 0.737869 0.832818 0.513794
O O11 0.061250 0.089584 0.377988
O O12 0.056322 0.149744 0.946637
O O13 0.064879 0.061359 0.882216
O O14 0.500000 0.276805 0.250000
O O15 0.437591 0.500000 0.000000
O O16 0.743899 0.746127 0.716773
#
# Coordination Sequence:
#
# PCOD9316295 Si02
#       7
#     8   8   8   8   8   8   8
#     4   9  17  30  46  67  97 130 165 207 255 309
#     4  10  21  37  54  73 103 141 177 213 257 316
#     4  10  19  29  46  72  99 131 167 205 258 318
#     4  10  17  28  45  64  90 117 154 206 251 294
#     4  10  20  34  52  71  90 125 177 219 254 300
#     4   9  17  27  42  63  87 119 154 192 249 313
#     4  12  23  35  53  80 115 147 179 224 276 326
#
# _framework density 19.921977999999999
#
# number of rings (size 3 to 8) (size 9 to 14) (size 15 to 20)
#    0.000    2.000    0.000    5.143    0.000    5.714 
#    0.000    0.000    0.000    1.714    0.000    0.000 
#    0.000    2.286    0.000    0.143    0.000    0.000 
#
# Total GULP energy -156049.013896 kJ/mol
# GULP energy per Si atom -5573.179068 kJ/mol
# Density = 1.987664 g / cm^3
# Si number density = 19.921978 Si / 1000 Ang^3
#
#
#
# Elastic Constant Matrix: (Units=GPa)
#
#
# Indices 1 2 3 4 5 6 
#
# 1 49.5184 23.8717 29.5188 0.0000 0.0000 0.0000
# 2 23.8717 97.2412 43.2099 0.0000 0.0000 0.0000
# 3 29.5188 43.2099 161.6025 0.0000 0.0000 0.0000
# 4 0.0000 0.0000 0.0000 30.5723 0.0000 0.0000
# 5 0.0000 0.0000 0.0000 0.0000 21.6480 0.0000
# 6 0.0000 0.0000 0.0000 0.0000 0.0000 25.1944
#
#
#
# Elastic Compliance Matrix: (Units=1/GPa)
#
#
# Indices 1 2 3 4 5 6 
#
# 1 0.024303 -0.004532 -0.003228 0.000000 0.000000 0.000000
# 2 -0.004532 0.012515 -0.002519 0.000000 0.000000 0.000000
# 3 -0.003228 -0.002519 0.007451 0.000000 0.000000 0.000000
# 4 0.000000 0.000000 0.000000 0.032709 0.000000 0.000000
# 5 0.000000 0.000000 0.000000 0.000000 0.046194 0.000000
# 6 0.000000 0.000000 0.000000 0.000000 0.000000 0.039691
#
#
# Mechanical properties :
#
#
# Convention : Reuss Voigt Hill
#
# Bulk Modulus (GPa) = 42.17020 55.72921 48.94971
# Shear Modulus (GPa) = 26.13358 29.60040 27.86699
#
# Velocity S-wave (km/s) = 3.62580 3.85881 3.74412
# Velocity P-wave (km/s) = 6.22432 6.92014 6.58143
#
# Compressibility (1/GPa) = 0.02371343
#
# Stress axis : x y z
#
# Youngs Moduli (GPa) = 41.14671 79.90137 134.21013
#
# Poissons Ratio (x) = 0.36212 0.43317
# Poissons Ratio (y) = 0.18648 0.33802
# Poissons Ratio (z) = 0.13280 0.20124
#
# Static dielectric constant tensor:
#      x y z
#    x 1.784220 0.000000 0.000000 
#    y 0.000000 1.732880 0.000000 
#    z 0.000000 0.000000 1.797140 
# 
# From -- ./inp_files/3299.got.cif
#   From: 2010.05.17/outbox.cif.g08.bks.cpg/sg20_2_cif.got.tgz:3299.got - 2010.06.03 22:52:26.
