data_PCOD9316612
_publ_section_title
;
Structure prediction by ZEFSAII (Michael W. Deem and Ramdas Pophale) SiO2 
 PCOD9316612
Probable space group: C 2 2 21
;
_chemical_formula_sum "Si O2"
_cell_formula_units_Z 60
_cell_length_a 31.672433
_cell_length_b 5.314322
_cell_length_c 18.149231
_cell_angle_alpha 90.000000
_cell_angle_beta 90.000000
_cell_angle_gamma 90.000000
_cell_volume 3054.833325
_symmetry_space_group_name_H-M "C 2 2 21"
_symmetry_group_IT_number 20
_symmetry_cell_setting 'orthorhombic'
loop_
_space_group_symop_operation_xyz
x,y,z
-x,-y,1/2+z
x,-y,-z
-x,y,1/2-z
1/2+x,1/2+y,z
1/2-x,1/2-y,1/2+z
1/2+x,1/2-y,-z
1/2-x,1/2+y,1/2-z
loop_
_atom_site_type_symbol
_atom_site_label
_atom_site_fract_x
_atom_site_fract_y
_atom_site_fract_z
Si Si1 0.465281 0.588669 0.923297
Si Si2 0.500282 0.087915 0.869487
Si Si3 0.819871 0.798551 0.868604
Si Si4 0.740783 0.105596 0.924649
Si Si5 0.723626 0.918533 0.234701
Si Si6 0.893051 0.088033 0.800040
Si Si7 0.196453 0.500000 0.500000
Si Si8 0.927633 0.416472 0.258031
O O1 0.497559 0.365108 0.903162
O O2 0.429422 0.594907 0.861715
O O3 0.487834 0.858002 0.922217
O O4 0.445949 0.500000 0.000000
O O5 0.545301 0.047056 0.831548
O O6 0.463756 0.084096 0.806115
O O7 0.811426 0.633005 0.796329
O O8 0.850352 0.020318 0.842842
O O9 0.833013 0.646229 0.941460
O O10 0.775241 0.905414 0.896198
O O11 0.712714 0.135522 0.851310
O O12 0.771122 0.334559 0.950190
O O13 0.720388 0.000000 0.000000
O O14 0.758737 0.700328 0.251941
O O15 0.904415 0.850494 0.748278
O O16 0.896859 0.350308 0.757804
#
# Coordination Sequence:
#
# PCOD9316612 Si02
#       8
#     8   8   8   8   8   8   4   8
#     4  10  19  31  47  74 106 131 170 207 257 316
#     4   9  17  32  51  69  95 131 169 219 252 287
#     4  10  21  33  51  76 111 146 183 214 267 327
#     4   9  19  33  52  77 103 141 181 225 271 317
#     4  10  19  34  54  75 103 137 184 234 263 304
#     4  10  21  32  48  74 106 141 170 205 253 324
#     4  10  18  34  50  72 108 144 178 210 262 332
#     4   9  18  33  51  70  94 130 176 214 251 292
#
# _framework density 19.641003999999999
#
# number of rings (size 3 to 8) (size 9 to 14) (size 15 to 20)
#    0.000    2.400    1.333    1.200    1.867    4.800 
#    4.800    0.000    0.000    0.000    0.000    3.733 
#    2.000    0.000    0.000    0.000    0.000    0.000 
#
# Total GULP energy -167120.775619 kJ/mol
# GULP energy per Si atom -5570.692521 kJ/mol
# Density = 1.959630 g / cm^3
# Si number density = 19.641004 Si / 1000 Ang^3
#
#
#
# Elastic Constant Matrix: (Units=GPa)
#
#
# Indices 1 2 3 4 5 6 
#
# 1 24.6585 11.9343 10.5916 0.0000 0.0000 0.0000
# 2 11.9343 85.2313 13.2710 0.0000 0.0000 0.0000
# 3 10.5916 13.2710 76.2608 0.0000 0.0000 0.0000
# 4 0.0000 0.0000 0.0000 26.0327 0.0000 0.0000
# 5 0.0000 0.0000 0.0000 0.0000 1.9386 0.0000
# 6 0.0000 0.0000 0.0000 0.0000 0.0000 18.4269
#
#
#
# Elastic Compliance Matrix: (Units=1/GPa)
#
#
# Indices 1 2 3 4 5 6 
#
# 1 0.045539 -0.005542 -0.005360 0.000000 0.000000 0.000000
# 2 -0.005542 0.012734 -0.001446 0.000000 0.000000 0.000000
# 3 -0.005360 -0.001446 0.014109 0.000000 0.000000 0.000000
# 4 0.000000 0.000000 0.000000 0.038413 0.000000 0.000000
# 5 0.000000 0.000000 0.000000 0.000000 0.515836 0.000000
# 6 0.000000 0.000000 0.000000 0.000000 0.000000 0.054268
#
#
# Mechanical properties :
#
#
# Convention : Reuss Voigt Hill
#
# Bulk Modulus (GPa) = 20.97106 28.63827 24.80466
# Shear Modulus (GPa) = 6.93009 19.30321 13.11665
#
# Velocity S-wave (km/s) = 1.88044 3.13837 2.58702
# Velocity P-wave (km/s) = 3.92620 5.26735 4.64543
#
# Compressibility (1/GPa) = 0.04768477
#
# Stress axis : x y z
#
# Youngs Moduli (GPa) = 21.95941 78.53022 70.87644
#
# Poissons Ratio (x) = 0.43520 0.37992
# Poissons Ratio (y) = 0.12169 0.10251
# Poissons Ratio (z) = 0.11771 0.11358
#
# Static dielectric constant tensor:
#      x y z
#    x 1.671120 0.000000 0.000000 
#    y 0.000000 1.758990 0.000000 
#    z 0.000000 0.000000 1.768730 
# 
# From -- ./inp_files/25748.got.cif
#   From: 2010.05.17/outbox.cif.g08.bks.cpg/sg20_13_cif.got.tgz:25748.got - 2010.06.03 22:52:26.
