data_PCOD9316050
_publ_section_title
;
Structure prediction by ZEFSAII (Michael W. Deem and Ramdas Pophale) SiO2 
 PCOD9316050
Probable space group: P 21 21 21
;
_chemical_formula_sum "Si O2"
_cell_formula_units_Z 16
_cell_length_a 9.408258
_cell_length_b 13.286422
_cell_length_c 4.800051
_cell_angle_alpha 90.000000
_cell_angle_beta 90.000000
_cell_angle_gamma 90.000000
_cell_volume 600.016388
_symmetry_space_group_name_H-M "P 21 21 21"
_symmetry_group_IT_number 19
_symmetry_cell_setting 'orthorhombic'
loop_
_space_group_symop_operation_xyz
x,y,z
1/2-x,-y,1/2+z
1/2+x,1/2-y,-z
-x,1/2+y,1/2-z
loop_
_atom_site_type_symbol
_atom_site_label
_atom_site_fract_x
_atom_site_fract_y
_atom_site_fract_z
Si Si1 0.358025 0.382399 0.116261
Si Si2 0.028854 0.200556 0.379387
Si Si3 0.413834 0.610147 0.253751
Si Si4 0.777899 0.436151 0.798830
O O1 0.463721 0.317249 0.923773
O O2 0.204637 0.360886 0.980274
O O3 0.409071 0.352229 0.424538
O O4 0.373149 0.503617 0.111534
O O5 0.059747 0.307107 0.517405
O O6 0.180103 0.143796 0.358952
O O7 0.567425 0.596709 0.395371
O O8 0.801142 0.522243 0.568271
#
# Coordination Sequence:
#
# PCOD9316050 Si02
#       4
#     4   4   4   4
#     4  12  28  50  79 119 161 211 264 336 410 464
#     4  12  27  51  79 121 154 215 268 328 408 480
#     4  12  28  50  84 113 170 203 275 332 402 484
#     4  12  25  49  76 109 155 209 257 326 390 472
#
# _framework density 26.665938000000001
#
# number of rings (size 3 to 8) (size 9 to 14) (size 15 to 20)
#    0.000    0.000    5.000    3.000    0.000   14.000 
#    0.000    0.000    0.000    0.000    0.000    0.000 
#    0.000    0.000    0.000    0.000    0.000    0.000 
#
# Total GULP energy -89790.918726 kJ/mol
# GULP energy per Si atom -5611.932420 kJ/mol
# Density = 2.660525 g / cm^3
# Si number density = 26.665938 Si / 1000 Ang^3
#
#
#
# Elastic Constant Matrix: (Units=GPa)
#
#
# Indices 1 2 3 4 5 6 
#
# 1 147.8808 20.3977 2.7458 0.0000 0.0000 0.0000
# 2 20.3977 120.7553 25.2431 0.0000 0.0000 0.0000
# 3 2.7458 25.2431 99.1279 0.0000 0.0000 0.0000
# 4 0.0000 0.0000 0.0000 36.9390 0.0000 0.0000
# 5 0.0000 0.0000 0.0000 0.0000 34.5540 0.0000
# 6 0.0000 0.0000 0.0000 0.0000 0.0000 28.6185
#
#
#
# Elastic Compliance Matrix: (Units=1/GPa)
#
#
# Indices 1 2 3 4 5 6 
#
# 1 0.006925 -0.001193 0.000112 0.000000 0.000000 0.000000
# 2 -0.001193 0.008952 -0.002247 0.000000 0.000000 0.000000
# 3 0.000112 -0.002247 0.010657 0.000000 0.000000 0.000000
# 4 0.000000 0.000000 0.000000 0.027072 0.000000 0.000000
# 5 0.000000 0.000000 0.000000 0.000000 0.028940 0.000000
# 6 0.000000 0.000000 0.000000 0.000000 0.000000 0.034942
#
#
# Mechanical properties :
#
#
# Convention : Reuss Voigt Hill
#
# Bulk Modulus (GPa) = 50.30559 51.61524 50.96042
# Shear Modulus (GPa) = 38.23501 41.31412 39.77456
#
# Velocity S-wave (km/s) = 3.79073 3.94041 3.86630
# Velocity P-wave (km/s) = 6.16973 6.33251 6.25165
#
# Compressibility (1/GPa) = 0.01987851
#
# Stress axis : x y z
#
# Youngs Moduli (GPa) = 144.41070 111.70184 93.83500
#
# Poissons Ratio (x) = 0.13327 -0.01051
# Poissons Ratio (y) = 0.17230 0.21082
# Poissons Ratio (z) = -0.01618 0.25096
#
# Static dielectric constant tensor:
#      x y z
#    x 2.170650 0.000000 0.000000 
#    y 0.000000 2.127080 0.000000 
#    z 0.000000 0.000000 1.978820 
# 
# From -- ./inp_files/290.got.cif
#   From: 2010.05.17/outbox.cif.g08.bks.cpg/sg19_1_cif.got.tgz:290.got - 2010.06.03 22:46:19.
