data_PCOD9316147
_publ_section_title
;
Structure prediction by ZEFSAII (Michael W. Deem and Ramdas Pophale) SiO2 
 PCOD9316147
Probable space group: P 21 21 21
;
_chemical_formula_sum "Si O2"
_cell_formula_units_Z 32
_cell_length_a 21.000000
_cell_length_b 12.000000
_cell_length_c 6.000000
_cell_angle_alpha 90.000000
_cell_angle_beta 90.000000
_cell_angle_gamma 90.000000
_cell_volume 1512.000000
_symmetry_space_group_name_H-M "P 21 21 21"
_symmetry_group_IT_number 19
_symmetry_cell_setting 'orthorhombic'
loop_
_space_group_symop_operation_xyz
x,y,z
1/2-x,-y,1/2+z
1/2+x,1/2-y,-z
-x,1/2+y,1/2-z
loop_
_atom_site_type_symbol
_atom_site_label
_atom_site_fract_x
_atom_site_fract_y
_atom_site_fract_z
Si Si1 0.128639 0.275483 0.307990
Si Si2 0.129988 0.076720 0.952158
Si Si3 0.230796 0.763838 0.906264
Si Si4 0.962281 0.741378 0.800077
Si Si5 0.092028 0.687842 0.972507
Si Si6 0.949210 0.937189 0.462376
Si Si7 0.088933 0.894383 0.266472
Si Si8 0.773786 0.378997 0.092948
O O1 0.198035 0.287776 0.417394
O O2 0.067153 0.251750 0.457324
O O3 0.107335 0.387001 0.187128
O O4 0.133322 0.168744 0.147963
O O5 0.078995 0.137305 0.792686
O O6 0.204836 0.058200 0.890044
O O7 0.100120 0.962892 0.038516
O O8 0.165450 0.693380 0.899091
O O9 0.229907 0.821517 0.655431
O O10 0.226431 0.821838 0.155753
O O11 0.946269 0.855289 0.673433
O O12 0.038444 0.732337 0.800678
O O13 0.067795 0.564056 0.005861
O O14 0.087296 0.765080 0.193806
O O15 0.021163 0.926820 0.368431
O O16 0.153262 0.925548 0.405307
#
# Coordination Sequence:
#
# PCOD9316147 Si02
#       8
#     4   4   4   4   4   4   4   4
#     4  10  21  45  68  98 139 181 233 279 355 427
#     4  10  23  41  72 101 139 186 227 290 357 430
#     4  10  22  46  72 103 144 186 235 295 345 423
#     4  11  22  43  70  96 136 181 240 286 357 425
#     4  11  25  44  65 105 134 181 239 297 349 424
#     4  11  25  44  67 100 134 189 233 293 356 422
#     4  11  24  43  69 102 141 181 232 297 360 421
#     4  10  22  44  69 107 145 181 233 289 359 422
#
# _framework density 21.164021000000002
#
# number of rings (size 3 to 8) (size 9 to 14) (size 15 to 20)
#    0.000    1.500    2.500    1.500    3.500    4.000 
#   13.500    0.000    0.000    0.000    0.000    0.000 
#    0.000    0.000    0.000    0.000    0.000    0.000 
#
# Total GULP energy -178150.066407 kJ/mol
# GULP energy per Si atom -5567.189575 kJ/mol
# Density = 2.111585 g / cm^3
# Si number density = 21.164021 Si / 1000 Ang^3
#
#
#
# Elastic Constant Matrix: (Units=GPa)
#
#
# Indices 1 2 3 4 5 6 
#
# 1 141.8885 11.3100 6.8779 0.0000 0.0000 0.0000
# 2 11.3100 68.9500 15.3896 0.0000 0.0000 0.0000
# 3 6.8779 15.3896 57.9189 0.0000 0.0000 0.0000
# 4 0.0000 0.0000 0.0000 -20.1255 0.0000 0.0000
# 5 0.0000 0.0000 0.0000 0.0000 44.9242 0.0000
# 6 0.0000 0.0000 0.0000 0.0000 0.0000 20.2058
#
#
#
# Elastic Compliance Matrix: (Units=1/GPa)
#
#
# Indices 1 2 3 4 5 6 
#
# 1 0.007159 -0.001047 -0.000572 0.000000 0.000000 0.000000
# 2 -0.001047 0.015571 -0.004013 0.000000 0.000000 0.000000
# 3 -0.000572 -0.004013 0.018400 0.000000 0.000000 0.000000
# 4 0.000000 0.000000 0.000000 -0.049688 0.000000 0.000000
# 5 0.000000 0.000000 0.000000 0.000000 0.022260 0.000000
# 6 0.000000 0.000000 0.000000 0.000000 0.000000 0.049491
#
#
# Mechanical properties :
#
#
# Convention : Reuss Voigt Hill
#
# Bulk Modulus (GPa) = 33.48283 37.32360 35.40321
# Shear Modulus (GPa) = 59.23456 24.67956 41.95706
#
# Velocity S-wave (km/s) = 5.29614 3.41854 4.45733
# Velocity P-wave (km/s) = 7.29752 5.76676 6.57683
#
# Compressibility (1/GPa) = 0.02986606
#
# Stress axis : x y z
#
# Youngs Moduli (GPa) = 139.68545 64.22345 54.34856
#
# Poissons Ratio (x) = 0.06722 0.03109
# Poissons Ratio (y) = 0.14620 0.21810
# Poissons Ratio (z) = 0.07990 0.25773
#
# Static dielectric constant tensor:
#      x y z
#    x 1.789450 0.000000 0.000000 
#    y 0.000000 1.799770 0.000000 
#    z 0.000000 0.000000 1.844570 
# 
# From -- ./inp_files/2052.got.cif
#   From: 2010.05.17/outbox.ucp.g08.bks.cvg/sg19_2_cif.got.tgz:2052.got - 2010.06.11 13:13:52.
