data_PCOD9316780
_publ_section_title
;
Structure prediction by ZEFSAII (Michael W. Deem and Ramdas Pophale) SiO2 
 PCOD9316780
Probable space group: C 2 2 21
;
_chemical_formula_sum "Si O2"
_cell_formula_units_Z 48
_cell_length_a 11.110856
_cell_length_b 14.756340
_cell_length_c 13.954399
_cell_angle_alpha 90.000000
_cell_angle_beta 90.000000
_cell_angle_gamma 90.000000
_cell_volume 2287.901426
_symmetry_space_group_name_H-M "C 2 2 21"
_symmetry_group_IT_number 20
_symmetry_cell_setting 'orthorhombic'
loop_
_space_group_symop_operation_xyz
x,y,z
-x,-y,1/2+z
x,-y,-z
-x,y,1/2-z
1/2+x,1/2+y,z
1/2-x,1/2-y,1/2+z
1/2+x,1/2-y,-z
1/2-x,1/2+y,1/2-z
loop_
_atom_site_type_symbol
_atom_site_label
_atom_site_fract_x
_atom_site_fract_y
_atom_site_fract_z
Si Si1 0.773658 0.177572 0.610214
Si Si2 0.568173 0.505950 0.883795
Si Si3 0.820554 0.048644 0.101181
Si Si4 0.542101 0.730840 0.356056
Si Si5 0.800344 0.181231 0.391398
Si Si6 0.366215 0.844480 0.716117
O O1 0.848956 0.090336 0.639681
O O2 0.641550 0.191842 0.654418
O O3 0.747968 0.172062 0.496805
O O4 0.854879 0.263933 0.638666
O O5 0.429620 0.508023 0.849803
O O6 0.637575 0.413758 0.861653
O O7 0.555069 0.500000 0.000000
O O8 0.887894 0.147694 0.091432
O O9 0.707454 0.072217 0.168257
O O10 0.790126 0.000000 0.000000
O O11 0.500000 0.703640 0.250000
O O12 0.413273 0.749708 0.402978
O O13 0.704834 0.196286 0.308316
O O14 0.500000 0.866576 0.750000
#
# Coordination Sequence:
#
# PCOD9316780 Si02
#       6
#     8   8   8   8   8   8
#     4  10  21  38  65  98 130 176 227 273 336 407
#     4   8  17  36  64  96 121 166 231 272 323 396
#     4   9  18  38  67  94 122 175 230 268 334 401
#     4  10  18  37  67  98 136 172 218 281 341 383
#     4  10  20  39  65  90 135 179 218 280 334 397
#     4  11  24  42  60  99 141 177 221 286 343 390
#
# _framework density 20.979925000000001
#
# number of rings (size 3 to 8) (size 9 to 14) (size 15 to 20)
#    0.000    2.333    3.333    1.000    2.333    0.000 
#    3.000    3.333    0.000    0.000    0.000    0.000 
#    0.000    0.000    0.000    0.000    0.000    0.000 
#
# Total GULP energy -133674.681717 kJ/mol
# GULP energy per Si atom -5569.778405 kJ/mol
# Density = 2.093217 g / cm^3
# Si number density = 20.979925 Si / 1000 Ang^3
#
#
#
# Elastic Constant Matrix: (Units=GPa)
#
#
# Indices 1 2 3 4 5 6 
#
# 1 161.3594 48.4357 43.2133 0.0000 0.0000 0.0000
# 2 48.4357 67.1649 30.2450 0.0000 0.0000 0.0000
# 3 43.2133 30.2450 98.6887 0.0000 0.0000 0.0000
# 4 0.0000 0.0000 0.0000 26.9184 0.0000 0.0000
# 5 0.0000 0.0000 0.0000 0.0000 27.2636 0.0000
# 6 0.0000 0.0000 0.0000 0.0000 0.0000 33.0374
#
#
#
# Elastic Compliance Matrix: (Units=1/GPa)
#
#
# Indices 1 2 3 4 5 6 
#
# 1 0.008261 -0.005022 -0.002078 0.000000 0.000000 0.000000
# 2 -0.005022 0.020325 -0.004030 0.000000 0.000000 0.000000
# 3 -0.002078 -0.004030 0.012278 0.000000 0.000000 0.000000
# 4 0.000000 0.000000 0.000000 0.037149 0.000000 0.000000
# 5 0.000000 0.000000 0.000000 0.000000 0.036679 0.000000
# 6 0.000000 0.000000 0.000000 0.000000 0.000000 0.030269
#
#
# Mechanical properties :
#
#
# Convention : Reuss Voigt Hill
#
# Bulk Modulus (GPa) = 53.75223 63.44455 58.59839
# Shear Modulus (GPa) = 28.83125 31.13182 29.98153
#
# Velocity S-wave (km/s) = 3.71108 3.85630 3.78439
# Velocity P-wave (km/s) = 6.63621 7.08056 6.86198
#
# Compressibility (1/GPa) = 0.01860388
#
# Stress axis : x y z
#
# Youngs Moduli (GPa) = 121.04567 49.20085 81.44613
#
# Poissons Ratio (x) = 0.24707 0.16928
# Poissons Ratio (y) = 0.60785 0.32823
# Poissons Ratio (z) = 0.25159 0.19828
#
# Static dielectric constant tensor:
#      x y z
#    x 1.827410 0.000000 0.000000 
#    y 0.000000 1.785560 0.000000 
#    z 0.000000 0.000000 1.889620 
# 
# From -- ./inp_files/19921.got.cif
#   From: 2010.05.17/outbox.cif.g08.bks.cpg/sg20_10_cif.got.tgz:19921.got - 2010.06.03 22:52:26.
