data_PCOD9316662
_publ_section_title
;
Structure prediction by ZEFSAII (Michael W. Deem and Ramdas Pophale) SiO2 
 PCOD9316662
Probable space group: C 2 2 21
;
_chemical_formula_sum "Si O2"
_cell_formula_units_Z 60
_cell_length_a 12.444419
_cell_length_b 15.100399
_cell_length_c 13.456565
_cell_angle_alpha 90.000000
_cell_angle_beta 90.000000
_cell_angle_gamma 90.000000
_cell_volume 2528.699727
_symmetry_space_group_name_H-M "C 2 2 21"
_symmetry_group_IT_number 20
_symmetry_cell_setting 'orthorhombic'
loop_
_space_group_symop_operation_xyz
x,y,z
-x,-y,1/2+z
x,-y,-z
-x,y,1/2-z
1/2+x,1/2+y,z
1/2-x,1/2-y,1/2+z
1/2+x,1/2-y,-z
1/2-x,1/2+y,1/2-z
loop_
_atom_site_type_symbol
_atom_site_label
_atom_site_fract_x
_atom_site_fract_y
_atom_site_fract_z
Si Si1 0.375966 0.073475 0.586112
Si Si2 0.677707 0.494691 0.295143
Si Si3 0.095310 0.478368 0.390835
Si Si4 0.253409 0.269016 0.013828
Si Si5 0.451707 0.386357 0.060993
Si Si6 0.807900 0.646299 0.205209
Si Si7 0.824504 0.110423 0.598542
Si Si8 0.500000 0.261749 0.250000
O O1 0.288831 0.050694 0.670361
O O2 0.491675 0.077184 0.639122
O O3 0.344666 0.166582 0.539046
O O4 0.354201 0.000000 0.500000
O O5 0.598545 0.474735 0.387700
O O6 0.710963 0.593771 0.260903
O O7 0.638241 0.434813 0.202524
O O8 0.054941 0.500000 0.500000
O O9 0.114777 0.567409 0.332078
O O10 0.212015 0.439956 0.410885
O O11 0.358472 0.332902 0.002341
O O12 0.271370 0.203468 0.109039
O O13 0.221077 0.208531 0.921491
O O14 0.573843 0.401292 0.024209
O O15 0.476680 0.317927 0.151547
O O16 0.891864 0.705333 0.265987
#
# Coordination Sequence:
#
# PCOD9316662 Si02
#       8
#     8   8   8   8   8   8   8   4
#     4  10  23  42  63  95 138 166 219 289 338 398
#     4  10  21  40  64  96 128 174 223 273 344 403
#     4  10  20  37  60  92 121 170 212 266 334 386
#     4  10  23  38  63 102 134 167 225 281 330 400
#     4  10  21  40  62  93 129 178 222 270 333 409
#     4  10  20  35  64  97 128 161 228 272 321 397
#     4  11  21  36  65  92 131 178 215 275 328 408
#     4  10  18  34  62  96 112 170 224 272 308 390
#
# _framework density 23.727611
#
# number of rings (size 3 to 8) (size 9 to 14) (size 15 to 20)
#    0.000    1.867    2.667    0.800    1.867    3.733 
#    0.000    2.667    5.867    6.400    0.000    0.000 
#    0.000    0.000    0.000    0.000    0.000    0.000 
#
# Total GULP energy -167136.827300 kJ/mol
# GULP energy per Si atom -5571.227577 kJ/mol
# Density = 2.367361 g / cm^3
# Si number density = 23.727611 Si / 1000 Ang^3
#
#
#
# Elastic Constant Matrix: (Units=GPa)
#
#
# Indices 1 2 3 4 5 6 
#
# 1 151.3075 25.6112 1.0670 0.0000 0.0000 0.0000
# 2 25.6112 89.9611 19.4727 0.0000 0.0000 0.0000
# 3 1.0670 19.4727 45.3055 0.0000 0.0000 0.0000
# 4 0.0000 0.0000 0.0000 11.0927 0.0000 0.0000
# 5 0.0000 0.0000 0.0000 0.0000 -1.0251 0.0000
# 6 0.0000 0.0000 0.0000 0.0000 0.0000 33.4444
#
#
#
# Elastic Compliance Matrix: (Units=1/GPa)
#
#
# Indices 1 2 3 4 5 6 
#
# 1 0.006967 -0.002148 0.000759 0.000000 0.000000 0.000000
# 2 -0.002148 0.012918 -0.005502 0.000000 0.000000 0.000000
# 3 0.000759 -0.005502 0.024419 0.000000 0.000000 0.000000
# 4 0.000000 0.000000 0.000000 0.090149 0.000000 0.000000
# 5 0.000000 0.000000 0.000000 0.000000 -0.975493 0.000000
# 6 0.000000 0.000000 0.000000 0.000000 0.000000 0.029900
#
#
# Mechanical properties :
#
#
# Convention : Reuss Voigt Hill
#
# Bulk Modulus (GPa) = 32.76150 42.09733 37.42941
# Shear Modulus (GPa) = -6.35176 24.73060 9.18942
#
# Velocity S-wave (km/s) = -1.63791 3.23192 1.97010
# Velocity P-wave (km/s) = 3.20317 5.63095 4.58082
#
# Compressibility (1/GPa) = 0.03052364
#
# Stress axis : x y z
#
# Youngs Moduli (GPa) = 143.52847 77.40957 40.95130
#
# Poissons Ratio (x) = 0.16626 -0.03108
# Poissons Ratio (y) = 0.30827 0.22531
# Poissons Ratio (z) = -0.10895 0.42589
#
# Static dielectric constant tensor:
#      x y z
#    x 2.095890 0.000000 0.000000 
#    y 0.000000 2.016190 0.000000 
#    z 0.000000 0.000000 2.288780 
# 
# From -- ./inp_files/24413.got.cif
#   From: 2010.05.17/outbox.cif.g08.bks.cpg/sg20_13_cif.got.tgz:24413.got - 2010.06.03 22:52:26.
