data_PCOD9316948
_publ_section_title
;
Structure prediction by ZEFSAII (Michael W. Deem and Ramdas Pophale) SiO2 
 PCOD9316948
Probable space group: C 2 2 21
;
_chemical_formula_sum "Si O2"
_cell_formula_units_Z 40
_cell_length_a 14.095531
_cell_length_b 34.338474
_cell_length_c 5.067165
_cell_angle_alpha 90.000000
_cell_angle_beta 90.000000
_cell_angle_gamma 90.000000
_cell_volume 2452.604262
_symmetry_space_group_name_H-M "C 2 2 21"
_symmetry_group_IT_number 20
_symmetry_cell_setting 'orthorhombic'
loop_
_space_group_symop_operation_xyz
x,y,z
-x,-y,1/2+z
x,-y,-z
-x,y,1/2-z
1/2+x,1/2+y,z
1/2-x,1/2-y,1/2+z
1/2+x,1/2-y,-z
1/2-x,1/2+y,1/2-z
loop_
_atom_site_type_symbol
_atom_site_label
_atom_site_fract_x
_atom_site_fract_y
_atom_site_fract_z
Si Si1 0.201007 0.164589 0.307700
Si Si2 0.387219 0.375931 0.308327
Si Si3 0.069309 0.957968 0.003254
Si Si4 0.611305 0.746897 0.237824
Si Si5 0.888894 0.298665 0.766432
O O1 0.165628 0.137029 0.542759
O O2 0.168244 0.209431 0.333373
O O3 0.314551 0.167183 0.288842
O O4 0.149981 0.151420 0.039971
O O5 0.500000 0.372028 0.250000
O O6 0.372129 0.419645 0.421192
O O7 0.000000 0.950956 0.750000
O O8 0.000000 0.963027 0.250000
O O9 0.120834 0.000000 0.000000
O O10 0.500000 0.736571 0.250000
O O11 0.629666 0.781550 0.443829
O O12 0.627825 0.763920 0.946164
O O13 0.000000 0.309423 0.750000
#
# Coordination Sequence:
#
# PCOD9316948 Si02
#       5
#     8   8   8   8   8
#     4  12  21  32  49  70  96 125 158 201 246 278
#     4  11  21  32  47  73 101 125 153 189 234 284
#     4   9  17  31  49  68  96 133 160 179 216 278
#     4  10  19  32  48  66  90 124 161 199 244 289
#     4  10  21  35  49  65  89 125 169 206 238 281
#
# _framework density 16.309194000000002
#
# number of rings (size 3 to 8) (size 9 to 14) (size 15 to 20)
#    0.000    1.600    0.000    7.800    0.000    1.600 
#    0.000    0.000    0.000    0.000    0.000    0.000 
#    0.000    3.200    0.000    2.800    0.000    0.000 
#
# Total GULP energy -111509.363467 kJ/mol
# GULP energy per Si atom -5575.468173 kJ/mol
# Density = 1.627207 g / cm^3
# Si number density = 16.309194 Si / 1000 Ang^3
#
#
#
# Elastic Constant Matrix: (Units=GPa)
#
#
# Indices 1 2 3 4 5 6 
#
# 1 72.7360 49.7032 18.4809 0.0000 0.0000 0.0000
# 2 49.7032 55.0496 5.5631 0.0000 0.0000 0.0000
# 3 18.4809 5.5631 87.8953 0.0000 0.0000 0.0000
# 4 0.0000 0.0000 0.0000 13.9135 0.0000 0.0000
# 5 0.0000 0.0000 0.0000 0.0000 17.0551 0.0000
# 6 0.0000 0.0000 0.0000 0.0000 0.0000 10.5027
#
#
#
# Elastic Compliance Matrix: (Units=1/GPa)
#
#
# Indices 1 2 3 4 5 6 
#
# 1 0.038781 -0.034410 -0.005976 0.000000 0.000000 0.000000
# 2 -0.034410 0.048815 0.004146 0.000000 0.000000 0.000000
# 3 -0.005976 0.004146 0.012371 0.000000 0.000000 0.000000
# 4 0.000000 0.000000 0.000000 0.071872 0.000000 0.000000
# 5 0.000000 0.000000 0.000000 0.000000 0.058633 0.000000
# 6 0.000000 0.000000 0.000000 0.000000 0.000000 0.095214
#
#
# Mechanical properties :
#
#
# Convention : Reuss Voigt Hill
#
# Bulk Modulus (GPa) = 36.38347 40.35282 38.36814
# Shear Modulus (GPa) = 12.27507 17.75652 15.01579
#
# Velocity S-wave (km/s) = 2.74642 3.30319 3.03759
# Velocity P-wave (km/s) = 5.69334 6.27249 5.98992
#
# Compressibility (1/GPa) = 0.02748501
#
# Stress axis : x y z
#
# Youngs Moduli (GPa) = 25.78613 20.48558 80.83204
#
# Poissons Ratio (x) = 0.70491 0.48306
# Poissons Ratio (y) = 0.88731 -0.33509
# Poissons Ratio (z) = 0.15410 -0.08492
#
# Static dielectric constant tensor:
#      x y z
#    x 1.559180 0.000000 0.000000 
#    y 0.000000 1.598700 0.000000 
#    z 0.000000 0.000000 1.572710 
# 
# From -- ./inp_files/2136.got.cif
#   From: 2010.05.17/outbox.cif.g08.bks.cpg/sg20_2_cif.got.tgz:2136.got - 2010.06.03 22:52:26.
