data_PCOD9316200
_publ_section_title
;
Structure prediction by ZEFSAII (Michael W. Deem and Ramdas Pophale) SiO2 
 PCOD9316200
Probable space group: C 2 2 21
;
_chemical_formula_sum "Si O2"
_cell_formula_units_Z 52
_cell_length_a 17.588796
_cell_length_b 8.736650
_cell_length_c 14.249977
_cell_angle_alpha 90.000000
_cell_angle_beta 90.000000
_cell_angle_gamma 90.000000
_cell_volume 2189.753418
_symmetry_space_group_name_H-M "C 2 2 21"
_symmetry_group_IT_number 20
_symmetry_cell_setting 'orthorhombic'
loop_
_space_group_symop_operation_xyz
x,y,z
-x,-y,1/2+z
x,-y,-z
-x,y,1/2-z
1/2+x,1/2+y,z
1/2-x,1/2-y,1/2+z
1/2+x,1/2-y,-z
1/2-x,1/2+y,1/2-z
loop_
_atom_site_type_symbol
_atom_site_label
_atom_site_fract_x
_atom_site_fract_y
_atom_site_fract_z
Si Si1 0.791530 0.668205 0.519676
Si Si2 0.463123 0.000000 0.000000
Si Si3 0.013955 0.251237 0.637770
Si Si4 0.816171 0.226844 0.811354
Si Si5 0.861941 0.763436 0.905675
Si Si6 0.799071 0.000000 0.500000
Si Si7 0.273526 0.953380 0.197042
Si Si8 0.970498 0.000000 0.000000
O O1 0.825127 0.500000 0.500000
O O2 0.754374 0.677660 0.623011
O O3 0.716822 0.684791 0.453853
O O4 0.835340 0.829585 0.505022
O O5 0.409554 0.876512 0.050454
O O6 0.506229 0.092671 0.082557
O O7 0.106084 0.235597 0.633345
O O8 0.986171 0.112608 0.571793
O O9 0.000000 0.249066 0.750000
O O10 0.808673 0.095715 0.734633
O O11 0.806155 0.390982 0.761700
O O12 0.831867 0.689130 0.808030
O O13 0.918359 0.902856 0.926979
O O14 0.743554 0.998692 0.410224
#
# Coordination Sequence:
#
# PCOD9316200 Si02
#       8
#     8   4   8   8   8   4   8   4
#     4  10  16  28  51  76 111 147 194 239 287 361
#     4  10  17  38  66  84 116 160 220 277 302 364
#     4  11  23  41  65  95 122 167 226 270 319 388
#     4  11  21  33  54  94 122 157 196 260 318 373
#     4  10  15  31  54  85 114 149 202 246 307 367
#     4   8  19  32  43  72 116 159 190 223 292 380
#     4  10  21  31  54  86 128 152 194 254 309 383
#     4  10  20  34  67  90 118 167 210 276 312 376
#
# _framework density 23.746966
#
# number of rings (size 3 to 8) (size 9 to 14) (size 15 to 20)
#    0.000    1.846    5.385    1.846    6.462    0.000 
#    0.000    3.846    0.000    6.462    0.000    0.000 
#    0.000    0.000    0.000    0.000    0.000    0.000 
#
# Total GULP energy -144755.879576 kJ/mol
# GULP energy per Si atom -5567.533830 kJ/mol
# Density = 2.369292 g / cm^3
# Si number density = 23.746966 Si / 1000 Ang^3
#
#
#
# Elastic Constant Matrix: (Units=GPa)
#
#
# Indices 1 2 3 4 5 6 
#
# 1 48.9878 25.1803 18.4778 0.0000 0.0000 0.0000
# 2 25.1803 194.0895 36.8720 0.0000 0.0000 0.0000
# 3 18.4778 36.8720 95.6724 0.0000 0.0000 0.0000
# 4 0.0000 0.0000 0.0000 36.6126 0.0000 0.0000
# 5 0.0000 0.0000 0.0000 0.0000 26.5820 0.0000
# 6 0.0000 0.0000 0.0000 0.0000 0.0000 -21.9439
#
#
#
# Elastic Compliance Matrix: (Units=1/GPa)
#
#
# Indices 1 2 3 4 5 6 
#
# 1 0.022933 -0.002302 -0.003542 0.000000 0.000000 0.000000
# 2 -0.002302 0.005790 -0.001787 0.000000 0.000000 0.000000
# 3 -0.003542 -0.001787 0.011825 0.000000 0.000000 0.000000
# 4 0.000000 0.000000 0.000000 0.027313 0.000000 0.000000
# 5 0.000000 0.000000 0.000000 0.000000 0.037619 0.000000
# 6 0.000000 0.000000 0.000000 0.000000 0.000000 -0.045571
#
#
# Mechanical properties :
#
#
# Convention : Reuss Voigt Hill
#
# Bulk Modulus (GPa) = 39.54766 55.53443 47.54105
# Shear Modulus (GPa) = 59.80802 25.46476 42.63639
#
# Velocity S-wave (km/s) = 5.02396 3.27821 4.24187
# Velocity P-wave (km/s) = 7.09532 6.14537 6.63736
#
# Compressibility (1/GPa) = 0.02528594
#
# Stress axis : x y z
#
# Youngs Moduli (GPa) = 43.60599 172.69879 84.56601
#
# Poissons Ratio (x) = 0.39761 0.29952
# Poissons Ratio (y) = 0.10039 0.15112
# Poissons Ratio (z) = 0.15444 0.30861
#
# Static dielectric constant tensor:
#      x y z
#    x 1.862620 0.000000 0.000000 
#    y 0.000000 2.106520 0.000000 
#    z 0.000000 0.000000 2.031520 
# 
# From -- ./inp_files/21749.got.cif
#   From: 2010.05.17/outbox.cif.g08.bks.cpg/sg20_11_cif.got.tgz:21749.got - 2010.06.03 22:52:26.
