data_PCOD9316876
_publ_section_title
;
Structure prediction by ZEFSAII (Michael W. Deem and Ramdas Pophale) SiO2 
 PCOD9316876
Probable space group: C 2 2 21
;
_chemical_formula_sum "Si O2"
_cell_formula_units_Z 28
_cell_length_a 10.246463
_cell_length_b 9.463961
_cell_length_c 9.856162
_cell_angle_alpha 90.000000
_cell_angle_beta 90.000000
_cell_angle_gamma 90.000000
_cell_volume 955.772986
_symmetry_space_group_name_H-M "C 2 2 21"
_symmetry_group_IT_number 20
_symmetry_cell_setting 'orthorhombic'
loop_
_space_group_symop_operation_xyz
x,y,z
-x,-y,1/2+z
x,-y,-z
-x,y,1/2-z
1/2+x,1/2+y,z
1/2-x,1/2-y,1/2+z
1/2+x,1/2-y,-z
1/2-x,1/2+y,1/2-z
loop_
_atom_site_type_symbol
_atom_site_label
_atom_site_fract_x
_atom_site_fract_y
_atom_site_fract_z
Si Si1 0.122516 0.829484 0.488106
Si Si2 0.870712 0.294381 0.643214
Si Si3 0.500000 0.671517 0.250000
Si Si4 0.751338 0.007055 0.661260
O O1 0.016509 0.756799 0.390187
O O2 0.278757 0.813107 0.507795
O O3 0.069276 0.754147 0.626493
O O4 0.101144 0.000000 0.500000
O O5 0.846839 0.432883 0.733983
O O6 0.800149 0.159026 0.711374
O O7 0.614846 0.580969 0.181483
O O8 0.717208 0.000000 0.500000
#
# Coordination Sequence:
#
# PCOD9316876 Si02
#       4
#     8   8   4   8
#     4  11  23  49  83 118 162 216 281 347 421 491
#     4  11  25  48  88 116 164 222 274 347 419 503
#     4  10  18  42  82 104 156 212 264 334 408 480
#     4  11  23  47  82 121 160 216 280 341 415 501
#
# _framework density 29.295660000000002
#
# number of rings (size 3 to 8) (size 9 to 14) (size 15 to 20)
#    0.000    1.143    5.714    0.000    0.000    4.571 
#    0.000    2.857   37.714    0.000    0.000    0.000 
#    0.000    0.000    0.000    0.000    0.000    0.000 
#
# Total GULP energy -78267.601062 kJ/mol
# GULP energy per Si atom -5590.542933 kJ/mol
# Density = 2.922898 g / cm^3
# Si number density = 29.295660 Si / 1000 Ang^3
#
#
#
# Elastic Constant Matrix: (Units=GPa)
#
#
# Indices 1 2 3 4 5 6 
#
# 1 209.8413 57.2287 73.3851 0.0000 0.0000 0.0000
# 2 57.2287 119.9738 68.1943 0.0000 0.0000 0.0000
# 3 73.3851 68.1943 149.4157 0.0000 0.0000 0.0000
# 4 0.0000 0.0000 0.0000 54.6375 0.0000 0.0000
# 5 0.0000 0.0000 0.0000 0.0000 62.8305 0.0000
# 6 0.0000 0.0000 0.0000 0.0000 0.0000 38.1234
#
#
#
# Elastic Compliance Matrix: (Units=1/GPa)
#
#
# Indices 1 2 3 4 5 6 
#
# 1 0.005972 -0.001595 -0.002205 0.000000 0.000000 0.000000
# 2 -0.001595 0.011681 -0.004548 0.000000 0.000000 0.000000
# 3 -0.002205 -0.004548 0.009851 0.000000 0.000000 0.000000
# 4 0.000000 0.000000 0.000000 0.018302 0.000000 0.000000
# 5 0.000000 0.000000 0.000000 0.000000 0.015916 0.000000
# 6 0.000000 0.000000 0.000000 0.000000 0.000000 0.026231
#
#
# Mechanical properties :
#
#
# Convention : Reuss Voigt Hill
#
# Bulk Modulus (GPa) = 92.52269 97.42746 94.97507
# Shear Modulus (GPa) = 46.18864 49.81311 48.00088
#
# Velocity S-wave (km/s) = 3.97500 4.12801 4.05223
# Velocity P-wave (km/s) = 7.26075 7.48662 7.37455
#
# Compressibility (1/GPa) = 0.01080816
#
# Stress axis : x y z
#
# Youngs Moduli (GPa) = 167.45771 85.60804 101.50925
#
# Poissons Ratio (x) = 0.13657 0.22382
# Poissons Ratio (y) = 0.26714 0.46165
# Poissons Ratio (z) = 0.36922 0.38933
#
# Static dielectric constant tensor:
#      x y z
#    x 2.220090 0.000000 0.000000 
#    y 0.000000 2.321580 0.000000 
#    z 0.000000 0.000000 2.677810 
# 
# From -- ./inp_files/12372.got.cif
#   From: 2010.05.17/outbox.cif.g08.bks.cpg/sg20_7_cif.got.tgz:12372.got - 2010.06.03 22:52:26.
