data_PCOD9316750
_publ_section_title
;
Structure prediction by ZEFSAII (Michael W. Deem and Ramdas Pophale) SiO2 
 PCOD9316750
Probable space group: C 2 2 21
;
_chemical_formula_sum "Si O2"
_cell_formula_units_Z 56
_cell_length_a 11.045806
_cell_length_b 21.435935
_cell_length_c 11.147987
_cell_angle_alpha 90.000000
_cell_angle_beta 90.000000
_cell_angle_gamma 90.000000
_cell_volume 2639.588918
_symmetry_space_group_name_H-M "C 2 2 21"
_symmetry_group_IT_number 20
_symmetry_cell_setting 'orthorhombic'
loop_
_space_group_symop_operation_xyz
x,y,z
-x,-y,1/2+z
x,-y,-z
-x,y,1/2-z
1/2+x,1/2+y,z
1/2-x,1/2-y,1/2+z
1/2+x,1/2-y,-z
1/2-x,1/2+y,1/2-z
loop_
_atom_site_type_symbol
_atom_site_label
_atom_site_fract_x
_atom_site_fract_y
_atom_site_fract_z
Si Si1 0.392522 0.798821 0.348178
Si Si2 0.636141 0.658622 0.208602
Si Si3 0.690968 0.573998 0.994047
Si Si4 0.260481 0.905075 0.253706
Si Si5 0.921071 0.933724 0.069183
Si Si6 0.073942 0.489972 0.868328
Si Si7 0.212859 0.635307 0.067772
O O1 0.500000 0.812228 0.250000
O O2 0.383074 0.724707 0.356159
O O3 0.278336 0.833315 0.287465
O O4 0.383004 0.828208 0.482828
O O5 0.500000 0.637377 0.250000
O O6 0.727783 0.669707 0.318931
O O7 0.697177 0.608199 0.120666
O O8 0.780900 0.591671 0.887682
O O9 0.556198 0.589612 0.946951
O O10 0.697872 0.500000 0.000000
O O11 0.134430 0.935904 0.297375
O O12 0.356074 0.946917 0.328769
O O13 0.830560 0.885197 0.007503
O O14 0.911471 0.000000 0.000000
O O15 0.159431 0.430767 0.889664
O O16 0.000000 0.474427 0.750000
O O17 0.014445 0.500000 0.000000
#
# Coordination Sequence:
#
# PCOD9316750 Si02
#       7
#     8   8   8   8   8   8   8
#     4  10  24  44  67  87 124 179 222 265 313 385
#     4  11  24  43  65  96 132 170 213 269 332 394
#     4  11  24  35  63 103 132 163 209 271 327 400
#     4  11  21  40  63  94 128 168 219 261 326 383
#     4  10  18  36  65  92 125 163 203 258 325 387
#     4  12  24  41  67  95 130 170 218 274 326 384
#     4  11  21  43  67  90 125 175 208 263 328 385
#
# _framework density 21.215423000000001
#
# number of rings (size 3 to 8) (size 9 to 14) (size 15 to 20)
#    0.000    1.143    5.714    1.714    2.000    1.714 
#    0.000    0.000    0.000    0.000    0.000    0.000 
#    0.000    0.000    0.000    0.000    0.000    0.000 
#
# Total GULP energy -156008.323674 kJ/mol
# GULP energy per Si atom -5571.725846 kJ/mol
# Density = 2.116714 g / cm^3
# Si number density = 21.215423 Si / 1000 Ang^3
#
#
#
# Elastic Constant Matrix: (Units=GPa)
#
#
# Indices 1 2 3 4 5 6 
#
# 1 32.2051 4.3212 35.6973 0.0000 0.0000 0.0000
# 2 4.3212 75.2105 32.0840 0.0000 0.0000 0.0000
# 3 35.6973 32.0840 144.6677 0.0000 0.0000 0.0000
# 4 0.0000 0.0000 0.0000 28.8505 0.0000 0.0000
# 5 0.0000 0.0000 0.0000 0.0000 33.6094 0.0000
# 6 0.0000 0.0000 0.0000 0.0000 0.0000 10.6424
#
#
#
# Elastic Compliance Matrix: (Units=1/GPa)
#
#
# Indices 1 2 3 4 5 6 
#
# 1 0.043091 0.002275 -0.011137 0.000000 0.000000 0.000000
# 2 0.002275 0.014806 -0.003845 0.000000 0.000000 0.000000
# 3 -0.011137 -0.003845 0.010513 0.000000 0.000000 0.000000
# 4 0.000000 0.000000 0.000000 0.034661 0.000000 0.000000
# 5 0.000000 0.000000 0.000000 0.000000 0.029754 0.000000
# 6 0.000000 0.000000 0.000000 0.000000 0.000000 0.093964
#
#
# Mechanical properties :
#
#
# Convention : Reuss Voigt Hill
#
# Bulk Modulus (GPa) = 23.25822 44.03203 33.64513
# Shear Modulus (GPa) = 18.75927 26.61917 22.68922
#
# Velocity S-wave (km/s) = 2.97682 3.54603 3.27382
# Velocity P-wave (km/s) = 4.77514 6.12907 5.49398
#
# Compressibility (1/GPa) = 0.04299554
#
# Stress axis : x y z
#
# Youngs Moduli (GPa) = 23.20676 67.54241 95.11736
#
# Poissons Ratio (x) = -0.15368 1.05936
# Poissons Ratio (y) = -0.05280 0.36572
# Poissons Ratio (z) = 0.25846 0.25970
#
# Static dielectric constant tensor:
#      x y z
#    x 1.816910 0.000000 0.000000 
#    y 0.000000 1.740630 0.000000 
#    z 0.000000 0.000000 1.945520 
# 
# From -- ./inp_files/14318.got.cif
#   From: 2010.05.17/outbox.cif.g08.bks.cpg/sg20_8_cif.got.tgz:14318.got - 2010.06.03 22:52:26.
