data_PCOD9316745
_publ_section_title
;
Structure prediction by ZEFSAII (Michael W. Deem and Ramdas Pophale) SiO2 
 PCOD9316745
Probable space group: C 2 2 21
;
_chemical_formula_sum "Si O2"
_cell_formula_units_Z 40
_cell_length_a 23.235907
_cell_length_b 9.040966
_cell_length_c 8.285828
_cell_angle_alpha 90.000000
_cell_angle_beta 90.000000
_cell_angle_gamma 90.000000
_cell_volume 1740.645691
_symmetry_space_group_name_H-M "C 2 2 21"
_symmetry_group_IT_number 20
_symmetry_cell_setting 'orthorhombic'
loop_
_space_group_symop_operation_xyz
x,y,z
-x,-y,1/2+z
x,-y,-z
-x,y,1/2-z
1/2+x,1/2+y,z
1/2-x,1/2-y,1/2+z
1/2+x,1/2-y,-z
1/2-x,1/2+y,1/2-z
loop_
_atom_site_type_symbol
_atom_site_label
_atom_site_fract_x
_atom_site_fract_y
_atom_site_fract_z
Si Si1 0.813908 0.706870 0.849812
Si Si2 0.089425 0.745134 0.187552
Si Si3 0.939540 0.755815 0.931083
Si Si4 0.793572 0.626598 0.226078
Si Si5 0.015938 0.500000 0.000000
Si Si6 0.027026 0.000000 0.000000
O O1 0.879742 0.760431 0.836584
O O2 0.804999 0.548684 0.763413
O O3 0.768885 0.825685 0.785521
O O4 0.801437 0.673736 0.038870
O O5 0.074751 0.750964 0.377216
O O6 0.157165 0.713343 0.175272
O O7 0.055037 0.611851 0.102316
O O8 0.066768 0.895228 0.108315
O O9 0.972569 0.603973 0.900433
O O10 0.983057 0.889750 0.910597
#
# Coordination Sequence:
#
# PCOD9316745 Si02
#       6
#     8   8   8   8   4   4
#     4  10  23  43  69  92 124 167 211 262 315 377
#     4  10  22  40  61  90 129 165 210 262 313 375
#     4  10  21  41  62  90 127 169 209 255 318 377
#     4  10  23  44  66  94 126 165 212 261 317 373
#     4  10  18  36  64  88 122 166 210 256 304 370
#     4  10  20  36  62  92 126 166 206 256 308 370
#
# _framework density 22.979979
#
# number of rings (size 3 to 8) (size 9 to 14) (size 15 to 20)
#    0.000    2.000    0.000    4.800    0.000    7.200 
#    0.000   28.000    0.000    4.800    0.000    0.000 
#    0.000    0.000    0.000    0.000    0.000    0.000 
#
# Total GULP energy -112014.175775 kJ/mol
# GULP energy per Si atom -5600.708789 kJ/mol
# Density = 2.292768 g / cm^3
# Si number density = 22.979979 Si / 1000 Ang^3
#
#
#
# Elastic Constant Matrix: (Units=GPa)
#
#
# Indices 1 2 3 4 5 6 
#
# 1 169.3671 89.1755 52.9901 0.0000 0.0000 0.0000
# 2 89.1755 144.3903 41.9232 0.0000 0.0000 0.0000
# 3 52.9901 41.9232 52.8864 0.0000 0.0000 0.0000
# 4 0.0000 0.0000 0.0000 28.7814 0.0000 0.0000
# 5 0.0000 0.0000 0.0000 0.0000 39.4294 0.0000
# 6 0.0000 0.0000 0.0000 0.0000 0.0000 24.9331
#
#
#
# Elastic Compliance Matrix: (Units=1/GPa)
#
#
# Indices 1 2 3 4 5 6 
#
# 1 0.010389 -0.004409 -0.006915 0.000000 0.000000 0.000000
# 2 -0.004409 0.010867 -0.004197 0.000000 0.000000 0.000000
# 3 -0.006915 -0.004197 0.029164 0.000000 0.000000 0.000000
# 4 0.000000 0.000000 0.000000 0.034745 0.000000 0.000000
# 5 0.000000 0.000000 0.000000 0.000000 0.025362 0.000000
# 6 0.000000 0.000000 0.000000 0.000000 0.000000 0.040107
#
#
# Mechanical properties :
#
#
# Convention : Reuss Voigt Hill
#
# Bulk Modulus (GPa) = 51.60207 81.64680 66.62444
# Shear Modulus (GPa) = 26.57684 30.79911 28.68797
#
# Velocity S-wave (km/s) = 3.40446 3.66493 3.53709
# Velocity P-wave (km/s) = 6.16099 7.31543 6.76289
#
# Compressibility (1/GPa) = 0.01937907
#
# Stress axis : x y z
#
# Youngs Moduli (GPa) = 96.25625 92.02155 34.28920
#
# Poissons Ratio (x) = 0.40568 0.23710
# Poissons Ratio (y) = 0.42435 0.14391
# Poissons Ratio (z) = 0.66558 0.38622
#
# Static dielectric constant tensor:
#      x y z
#    x 1.827310 0.000000 0.000000 
#    y 0.000000 1.831800 0.000000 
#    z 0.000000 0.000000 1.900680 
# 
# From -- ./inp_files/10520.got.cif
#   From: 2010.05.17/outbox.cif.g08.bks.cpg/sg20_6_cif.got.tgz:10520.got - 2010.06.03 22:52:26.
