data_PCOD9316536
_publ_section_title
;
Structure prediction by ZEFSAII (Michael W. Deem and Ramdas Pophale) SiO2 
 PCOD9316536
Probable space group: C 2 2 21
;
_chemical_formula_sum "Si O2"
_cell_formula_units_Z 52
_cell_length_a 18.873068
_cell_length_b 17.333187
_cell_length_c 7.678081
_cell_angle_alpha 90.000000
_cell_angle_beta 90.000000
_cell_angle_gamma 90.000000
_cell_volume 2511.733839
_symmetry_space_group_name_H-M "C 2 2 21"
_symmetry_group_IT_number 20
_symmetry_cell_setting 'orthorhombic'
loop_
_space_group_symop_operation_xyz
x,y,z
-x,-y,1/2+z
x,-y,-z
-x,y,1/2-z
1/2+x,1/2+y,z
1/2-x,1/2-y,1/2+z
1/2+x,1/2-y,-z
1/2-x,1/2+y,1/2-z
loop_
_atom_site_type_symbol
_atom_site_label
_atom_site_fract_x
_atom_site_fract_y
_atom_site_fract_z
Si Si1 0.961258 0.767766 0.014188
Si Si2 0.641943 0.608848 0.634880
Si Si3 0.255119 0.766344 0.244952
Si Si4 0.605379 0.707000 0.129464
Si Si5 0.789210 0.500000 0.000000
Si Si6 0.160337 0.335822 0.571263
Si Si7 0.335264 0.449794 0.746748
O O1 0.931938 0.778068 0.816265
O O2 0.920004 0.692940 0.084479
O O3 0.045641 0.770172 0.008188
O O4 0.927185 0.839641 0.112652
O O5 0.702695 0.661721 0.722539
O O6 0.669503 0.585591 0.440990
O O7 0.623298 0.529859 0.731883
O O8 0.322274 0.755151 0.374622
O O9 0.207163 0.688853 0.260996
O O10 0.297710 0.781627 0.067336
O O11 0.629309 0.617244 0.130844
O O12 0.834057 0.578343 0.996871
O O13 0.737284 0.480355 0.838681
#
# Coordination Sequence:
#
# PCOD9316536 Si02
#       7
#     8   8   8   8   4   8   8
#     4   8  17  32  51  73 104 145 181 206 262 334
#     4   9  18  33  52  76 106 141 175 218 277 326
#     4  10  18  32  54  78 101 139 183 222 267 325
#     4   9  16  31  52  76 102 139 179 216 257 329
#     4  12  20  32  50  88 108 132 176 240 274 314
#     4  10  20  32  54  79 106 141 181 229 270 324
#     4  10  19  32  51  77 109 133 173 224 277 322
#
# _framework density 20.702829999999999
#
# number of rings (size 3 to 8) (size 9 to 14) (size 15 to 20)
#    0.000    2.462    3.077    0.923    0.000    0.000 
#    0.000    6.154    0.000    9.231    0.000    0.000 
#    0.000    0.000    0.000    0.000    0.000    0.000 
#
# Total GULP energy -144895.118783 kJ/mol
# GULP energy per Si atom -5572.889184 kJ/mol
# Density = 2.065571 g / cm^3
# Si number density = 20.702830 Si / 1000 Ang^3
#
#
#
# Elastic Constant Matrix: (Units=GPa)
#
#
# Indices 1 2 3 4 5 6 
#
# 1 100.0087 23.6918 5.1705 0.0000 0.0000 0.0000
# 2 23.6918 99.3115 3.2398 0.0000 0.0000 0.0000
# 3 5.1705 3.2398 45.8555 0.0000 0.0000 0.0000
# 4 0.0000 0.0000 0.0000 18.3962 0.0000 0.0000
# 5 0.0000 0.0000 0.0000 0.0000 19.4700 0.0000
# 6 0.0000 0.0000 0.0000 0.0000 0.0000 5.1895
#
#
#
# Elastic Compliance Matrix: (Units=1/GPa)
#
#
# Indices 1 2 3 4 5 6 
#
# 1 0.010646 -0.002506 -0.001023 0.000000 0.000000 0.000000
# 2 -0.002506 0.010683 -0.000472 0.000000 0.000000 0.000000
# 3 -0.001023 -0.000472 0.021956 0.000000 0.000000 0.000000
# 4 0.000000 0.000000 0.000000 0.054359 0.000000 0.000000
# 5 0.000000 0.000000 0.000000 0.000000 0.051361 0.000000
# 6 0.000000 0.000000 0.000000 0.000000 0.000000 0.192697
#
#
# Mechanical properties :
#
#
# Convention : Reuss Voigt Hill
#
# Bulk Modulus (GPa) = 28.34361 34.37554 31.35957
# Shear Modulus (GPa) = 13.83255 22.81604 18.32430
#
# Velocity S-wave (km/s) = 2.58766 3.32335 2.97831
# Velocity P-wave (km/s) = 4.75903 5.60058 5.19687
#
# Compressibility (1/GPa) = 0.03528132
#
# Stress axis : x y z
#
# Youngs Moduli (GPa) = 93.93401 93.60994 45.54483
#
# Poissons Ratio (x) = 0.23461 0.04661
# Poissons Ratio (y) = 0.23542 0.02150
# Poissons Ratio (z) = 0.09612 0.04420
#
# Static dielectric constant tensor:
#      x y z
#    x 1.739170 0.000000 0.000000 
#    y 0.000000 1.755940 0.000000 
#    z 0.000000 0.000000 1.894590 
# 
# From -- ./inp_files/9516.got.cif
#   From: 2010.05.17/outbox.cif.g08.bks.cpg/sg20_5_cif.got.tgz:9516.got - 2010.06.03 22:52:26.
