data_PCOD9316125
_publ_section_title
;
Structure prediction by ZEFSAII (Michael W. Deem and Ramdas Pophale) SiO2 
 PCOD9316125
Probable space group: P 21 21 21
;
_chemical_formula_sum "Si O2"
_cell_formula_units_Z 32
_cell_length_a 6.000000
_cell_length_b 18.000000
_cell_length_c 15.000000
_cell_angle_alpha 90.000000
_cell_angle_beta 90.000000
_cell_angle_gamma 90.000000
_cell_volume 1620.000000
_symmetry_space_group_name_H-M "P 21 21 21"
_symmetry_group_IT_number 19
_symmetry_cell_setting 'orthorhombic'
loop_
_space_group_symop_operation_xyz
x,y,z
1/2-x,-y,1/2+z
1/2+x,1/2-y,-z
-x,1/2+y,1/2-z
loop_
_atom_site_type_symbol
_atom_site_label
_atom_site_fract_x
_atom_site_fract_y
_atom_site_fract_z
Si Si1 0.321770 0.495804 0.856646
Si Si2 0.970160 0.854845 0.067797
Si Si3 0.950430 0.904767 0.780306
Si Si4 0.066373 0.263240 0.045860
Si Si5 0.029970 0.429099 0.013014
Si Si6 0.649472 0.807037 0.901776
Si Si7 0.195411 0.121548 0.140462
Si Si8 0.782919 0.571764 0.068163
O O1 0.348824 0.584356 0.869148
O O2 0.157280 0.469782 0.778466
O O3 0.542022 0.448294 0.834812
O O4 0.227814 0.459829 0.949344
O O5 0.085103 0.779818 0.105235
O O6 0.800793 0.824866 0.990206
O O7 0.161246 0.906784 0.023698
O O8 0.782322 0.843846 0.819869
O O9 0.125752 0.864118 0.716746
O O10 0.085893 0.939164 0.861958
O O11 0.068142 0.198023 0.119547
O O12 0.315643 0.249136 0.998979
O O13 0.079614 0.352133 0.064553
O O14 0.831882 0.405573 0.945901
O O15 0.941097 0.500248 0.066154
O O16 0.426416 0.855659 0.909035
#
# Coordination Sequence:
#
# PCOD9316125 Si02
#       8
#     4   4   4   4   4   4   4   4
#     4  11  20  40  67  97 127 176 217 273 339 421
#     4  11  22  37  73 101 124 169 233 273 335 409
#     4  10  25  40  66  88 140 178 212 272 354 408
#     4  10  20  36  65 101 128 166 227 283 331 405
#     4  10  20  35  67  97 123 163 225 277 329 400
#     4  11  22  41  66  98 131 167 218 288 337 395
#     4  10  20  39  65  91 128 176 212 268 342 408
#     4  11  21  40  65  97 127 171 214 282 335 396
#
# _framework density 19.753086
#
# number of rings (size 3 to 8) (size 9 to 14) (size 15 to 20)
#    0.000    1.500    5.000    0.750    0.000    0.000 
#    0.000    0.000   16.500    0.000    0.000    0.000 
#    0.000    0.000    0.000    0.000    0.000    0.000 
#
# Total GULP energy -178354.120481 kJ/mol
# GULP energy per Si atom -5573.566265 kJ/mol
# Density = 1.970813 g / cm^3
# Si number density = 19.753086 Si / 1000 Ang^3
#
#
#
# Elastic Constant Matrix: (Units=GPa)
#
#
# Indices 1 2 3 4 5 6 
#
# 1 65.2907 21.4915 12.6225 0.0000 0.0000 0.0000
# 2 21.4915 170.7144 37.0223 0.0000 0.0000 0.0000
# 3 12.6225 37.0223 45.1193 0.0000 0.0000 0.0000
# 4 0.0000 0.0000 0.0000 15.6428 0.0000 0.0000
# 5 0.0000 0.0000 0.0000 0.0000 12.8584 0.0000
# 6 0.0000 0.0000 0.0000 0.0000 0.0000 33.0885
#
#
#
# Elastic Compliance Matrix: (Units=1/GPa)
#
#
# Indices 1 2 3 4 5 6 
#
# 1 0.016427 -0.001303 -0.003526 0.000000 0.000000 0.000000
# 2 -0.001303 0.007229 -0.005567 0.000000 0.000000 0.000000
# 3 -0.003526 -0.005567 0.027718 0.000000 0.000000 0.000000
# 4 0.000000 0.000000 0.000000 0.063927 0.000000 0.000000
# 5 0.000000 0.000000 0.000000 0.000000 0.077770 0.000000
# 6 0.000000 0.000000 0.000000 0.000000 0.000000 0.030222
#
#
# Mechanical properties :
#
#
# Convention : Reuss Voigt Hill
#
# Bulk Modulus (GPa) = 32.70031 47.04410 39.87220
# Shear Modulus (GPa) = 19.66334 26.31714 22.99024
#
# Velocity S-wave (km/s) = 3.15851 3.65404 3.41527
# Velocity P-wave (km/s) = 5.46736 6.45526 5.98174
#
# Compressibility (1/GPa) = 0.03058075
#
# Stress axis : x y z
#
# Youngs Moduli (GPa) = 60.87600 138.32877 36.07751
#
# Poissons Ratio (x) = 0.18028 0.12721
# Poissons Ratio (y) = 0.07934 0.20085
# Poissons Ratio (z) = 0.21466 0.77011
#
# Static dielectric constant tensor:
#      x y z
#    x 1.747400 0.000000 0.000000 
#    y 0.000000 1.661810 0.000000 
#    z 0.000000 0.000000 1.736510 
# 
# From -- ./inp_files/5776.got.cif
#   From: 2010.05.17/outbox.ucp.g08.bks.cvg/sg19_3_cif.got.tgz:5776.got - 2010.06.11 13:13:52.
