data_PCOD9316892
_publ_section_title
;
Structure prediction by ZEFSAII (Michael W. Deem and Ramdas Pophale) SiO2 
 PCOD9316892
Probable space group: C 2 2 21
;
_chemical_formula_sum "Si O2"
_cell_formula_units_Z 48
_cell_length_a 20.834020
_cell_length_b 30.319882
_cell_length_c 5.100951
_cell_angle_alpha 90.000000
_cell_angle_beta 90.000000
_cell_angle_gamma 90.000000
_cell_volume 3222.194375
_symmetry_space_group_name_H-M "C 2 2 21"
_symmetry_group_IT_number 20
_symmetry_cell_setting 'orthorhombic'
loop_
_space_group_symop_operation_xyz
x,y,z
-x,-y,1/2+z
x,-y,-z
-x,y,1/2-z
1/2+x,1/2+y,z
1/2-x,1/2-y,1/2+z
1/2+x,1/2-y,-z
1/2-x,1/2+y,1/2-z
loop_
_atom_site_type_symbol
_atom_site_label
_atom_site_fract_x
_atom_site_fract_y
_atom_site_fract_z
Si Si1 0.000000 0.152427 0.750000
Si Si2 0.343237 0.635054 0.335409
Si Si3 0.673383 0.777380 0.939890
Si Si4 0.395943 0.408514 0.137670
Si Si5 0.930988 0.214812 0.385967
Si Si6 0.956291 0.000000 0.000000
Si Si7 0.266653 0.191461 0.940300
O O1 0.039116 0.119224 0.564910
O O2 0.947789 0.185839 0.639345
O O3 0.377987 0.606884 0.567394
O O4 0.380968 0.680597 0.253067
O O5 0.276260 0.651416 0.455923
O O6 0.343082 0.606583 0.071943
O O7 0.605251 0.759204 0.037642
O O8 0.703892 0.810409 0.151822
O O9 0.718382 0.733592 0.935951
O O10 0.678379 0.797240 0.651337
O O11 0.414078 0.459116 0.101563
O O12 0.000000 0.220642 0.250000
O O13 0.000000 0.013513 0.250000
#
# Coordination Sequence:
#
# PCOD9316892 Si02
#       7
#     4   8   8   8   8   4   8
#     4  10  20  30  42  60  88 110 152 174 220 260
#     4  10  20  32  49  61  80 106 146 186 219 259
#     4   9  18  27  43  58  82 104 133 174 226 256
#     4  11  21  33  46  64  81 113 141 181 222 269
#     4  10  19  27  41  61  86 111 141 181 220 260
#     4  12  24  34  48  62  92 116 138 178 228 278
#     4   9  17  31  43  60  76 103 137 178 221 257
#
# _framework density 14.89668
#
# number of rings (size 3 to 8) (size 9 to 14) (size 15 to 20)
#    0.000    2.000    2.500    2.000    4.667    4.000 
#    0.000    0.000    0.000    0.000    0.000    0.000 
#    0.000    0.000    0.000    0.000    0.000    0.000 
#
# Total GULP energy -133601.292155 kJ/mol
# GULP energy per Si atom -5566.720506 kJ/mol
# Density = 1.486277 g / cm^3
# Si number density = 14.896680 Si / 1000 Ang^3
#
#
#
# Elastic Constant Matrix: (Units=GPa)
#
#
# Indices 1 2 3 4 5 6 
#
# 1 27.9248 14.4673 -9.6864 0.0000 0.0000 0.0000
# 2 14.4673 36.1899 -4.8376 0.0000 0.0000 0.0000
# 3 -9.6864 -4.8376 40.7423 0.0000 0.0000 0.0000
# 4 0.0000 0.0000 0.0000 16.1913 0.0000 0.0000
# 5 0.0000 0.0000 0.0000 0.0000 13.5889 0.0000
# 6 0.0000 0.0000 0.0000 0.0000 0.0000 10.6697
#
#
#
# Elastic Compliance Matrix: (Units=1/GPa)
#
#
# Indices 1 2 3 4 5 6 
#
# 1 0.048444 -0.018114 0.009367 0.000000 0.000000 0.000000
# 2 -0.018114 0.034851 -0.000168 0.000000 0.000000 0.000000
# 3 0.009367 -0.000168 0.026751 0.000000 0.000000 0.000000
# 4 0.000000 0.000000 0.000000 0.061761 0.000000 0.000000
# 5 0.000000 0.000000 0.000000 0.000000 0.073589 0.000000
# 6 0.000000 0.000000 0.000000 0.000000 0.000000 0.093724
#
#
# Mechanical properties :
#
#
# Convention : Reuss Voigt Hill
#
# Bulk Modulus (GPa) = 10.84428 11.63818 11.24123
# Shear Modulus (GPa) = 12.89691 15.08424 13.99057
#
# Velocity S-wave (km/s) = 2.94557 3.18557 3.06792
# Velocity P-wave (km/s) = 4.34327 4.62170 4.48464
#
# Compressibility (1/GPa) = 0.09221451
#
# Stress axis : x y z
#
# Youngs Moduli (GPa) = 20.64247 28.69381 37.38127
#
# Poissons Ratio (x) = 0.51975 -0.35013
# Poissons Ratio (y) = 0.37391 0.00630
# Poissons Ratio (z) = -0.19335 0.00483
#
# Static dielectric constant tensor:
#      x y z
#    x 1.530660 0.000000 0.000000 
#    y 0.000000 1.479910 0.000000 
#    z 0.000000 0.000000 1.562170 
# 
# From -- ./inp_files/3358.got.cif
#   From: 2010.05.17/outbox.cif.g08.bks.cpg/sg20_2_cif.got.tgz:3358.got - 2010.06.03 22:52:26.
