data_PCOD9316883
_publ_section_title
;
Structure prediction by ZEFSAII (Michael W. Deem and Ramdas Pophale) SiO2 
 PCOD9316883
Probable space group: C 2 2 21
;
_chemical_formula_sum "Si O2"
_cell_formula_units_Z 40
_cell_length_a 19.989529
_cell_length_b 9.737368
_cell_length_c 8.283099
_cell_angle_alpha 90.000000
_cell_angle_beta 90.000000
_cell_angle_gamma 90.000000
_cell_volume 1612.267118
_symmetry_space_group_name_H-M "C 2 2 21"
_symmetry_group_IT_number 20
_symmetry_cell_setting 'orthorhombic'
loop_
_space_group_symop_operation_xyz
x,y,z
-x,-y,1/2+z
x,-y,-z
-x,y,1/2-z
1/2+x,1/2+y,z
1/2-x,1/2-y,1/2+z
1/2+x,1/2-y,-z
1/2-x,1/2+y,1/2-z
loop_
_atom_site_type_symbol
_atom_site_label
_atom_site_fract_x
_atom_site_fract_y
_atom_site_fract_z
Si Si1 0.462992 0.204413 0.923746
Si Si2 0.795073 0.000000 0.000000
Si Si3 0.343385 0.000000 0.000000
Si Si4 0.819515 0.379055 0.680686
Si Si5 0.002386 0.000000 0.000000
Si Si6 0.134157 0.068823 0.834164
Si Si7 0.431986 0.000000 0.500000
O O1 0.500000 0.192158 0.750000
O O2 0.393752 0.124360 0.946320
O O3 0.460992 0.362648 0.970021
O O4 0.518049 0.125085 0.029847
O O5 0.835933 0.976979 0.163245
O O6 0.741737 0.116469 0.055577
O O7 0.300465 0.930699 0.858014
O O8 0.852434 0.230948 0.665567
O O9 0.878128 0.489916 0.641919
O O10 0.056193 0.029936 0.855942
O O11 0.161912 0.000000 0.000000
#
# Coordination Sequence:
#
# PCOD9316883 Si02
#       7
#     8   4   4   8   4   8   4
#     4  11  22  40  68 101 145 189 243 294 362 446
#     4  11  28  43  79 102 142 197 247 304 391 434
#     4  11  26  40  74 108 146 195 251 298 375 440
#     4  11  24  45  73 104 147 190 248 314 365 447
#     4  10  24  43  69  99 153 190 238 308 372 438
#     4  10  25  48  71 107 151 189 249 318 373 449
#     4  10  18  44  64  97 127 188 228 300 342 426
#
# _framework density 24.809782999999999
#
# number of rings (size 3 to 8) (size 9 to 14) (size 15 to 20)
#    0.600    0.800    4.000    0.000    4.200    3.200 
#    3.600    0.000    0.000    0.000    0.000    0.000 
#    0.000    0.000    0.000    0.000    0.000    0.000 
#
# Total GULP energy -111644.096779 kJ/mol
# GULP energy per Si atom -5582.204839 kJ/mol
# Density = 2.475332 g / cm^3
# Si number density = 24.809783 Si / 1000 Ang^3
#
#
#
# Elastic Constant Matrix: (Units=GPa)
#
#
# Indices 1 2 3 4 5 6 
#
# 1 96.7406 41.2489 58.0071 0.0000 0.0000 0.0000
# 2 41.2489 149.4706 45.1333 0.0000 0.0000 0.0000
# 3 58.0071 45.1333 146.3440 0.0000 0.0000 0.0000
# 4 0.0000 0.0000 0.0000 27.4712 0.0000 0.0000
# 5 0.0000 0.0000 0.0000 0.0000 29.3645 0.0000
# 6 0.0000 0.0000 0.0000 0.0000 0.0000 -58.7271
#
#
#
# Elastic Compliance Matrix: (Units=1/GPa)
#
#
# Indices 1 2 3 4 5 6 
#
# 1 0.014343 -0.002472 -0.004923 0.000000 0.000000 0.000000
# 2 -0.002472 0.007803 -0.001427 0.000000 0.000000 0.000000
# 3 -0.004923 -0.001427 0.009225 0.000000 0.000000 0.000000
# 4 0.000000 0.000000 0.000000 0.036402 0.000000 0.000000
# 5 0.000000 0.000000 0.000000 0.000000 0.034055 0.000000
# 6 0.000000 0.000000 0.000000 0.000000 0.000000 -0.017028
#
#
# Mechanical properties :
#
#
# Convention : Reuss Voigt Hill
#
# Bulk Modulus (GPa) = 72.84493 75.70376 74.27434
# Shear Modulus (GPa) = 46.72141 16.16611 31.44376
#
# Velocity S-wave (km/s) = 4.34428 2.55542 3.56391
# Velocity P-wave (km/s) = 7.38842 6.26792 6.85112
#
# Compressibility (1/GPa) = 0.01372779
#
# Stress axis : x y z
#
# Youngs Moduli (GPa) = 69.72262 128.15236 108.40659
#
# Poissons Ratio (x) = 0.31674 0.53366
# Poissons Ratio (y) = 0.17233 0.15468
# Poissons Ratio (z) = 0.34323 0.18286
#
# Static dielectric constant tensor:
#      x y z
#    x 1.936120 0.000000 0.000000 
#    y 0.000000 2.024200 0.000000 
#    z 0.000000 0.000000 2.323980 
# 
# From -- ./inp_files/11016.got.cif
#   From: 2010.05.17/outbox.cif.g08.bks.cpg/sg20_6_cif.got.tgz:11016.got - 2010.06.03 22:52:26.
