data_PCOD9316408
_publ_section_title
;
Structure prediction by ZEFSAII (Michael W. Deem and Ramdas Pophale) SiO2 
 PCOD9316408
Probable space group: C 2 2 21
;
_chemical_formula_sum "Si O2"
_cell_formula_units_Z 48
_cell_length_a 13.147650
_cell_length_b 5.548239
_cell_length_c 27.255941
_cell_angle_alpha 90.000000
_cell_angle_beta 90.000000
_cell_angle_gamma 90.000000
_cell_volume 1988.220171
_symmetry_space_group_name_H-M "C 2 2 21"
_symmetry_group_IT_number 20
_symmetry_cell_setting 'orthorhombic'
loop_
_space_group_symop_operation_xyz
x,y,z
-x,-y,1/2+z
x,-y,-z
-x,y,1/2-z
1/2+x,1/2+y,z
1/2-x,1/2-y,1/2+z
1/2+x,1/2-y,-z
1/2-x,1/2+y,1/2-z
loop_
_atom_site_type_symbol
_atom_site_label
_atom_site_fract_x
_atom_site_fract_y
_atom_site_fract_z
Si Si1 0.367070 0.249956 0.770560
Si Si2 0.245821 0.750000 0.027553
Si Si3 0.031896 0.749999 0.488165
Si Si4 0.068641 0.749980 0.106575
Si Si5 0.606107 0.749980 0.159560
Si Si6 0.681882 0.749957 0.701646
O O1 0.419742 0.249993 0.717467
O O2 0.378813 0.501133 0.798551
O O3 0.245255 0.249939 0.753837
O O4 0.378828 0.998760 0.798543
O O5 0.174820 0.749994 0.075297
O O6 0.225400 0.500000 0.000000
O O7 0.369912 0.750003 0.023904
O O8 0.225398 0.000000 0.000000
O O9 0.978955 0.500000 0.500000
O O10 0.030304 0.749999 0.429186
O O11 0.978957 0.000000 0.500000
O O12 0.070825 0.498490 0.135510
O O13 0.070831 0.001447 0.135518
O O14 0.729968 0.750001 0.161049
#
# Coordination Sequence:
#
# PCOD9316408 Si02
#       6
#     8   8   8   8   8   8
#     4   8  13  24  39  58  95 146 163 180 231 296
#     4  10  21  37  53  68  92 132 171 206 257 314
#     4  10  21  37  53  68  92 132 171 206 257 314
#     4  12  20  30  50  76 100 126 170 224 248 276
#     4  10  18  26  42  74 104 130 168 214 244 274
#     4   8  13  24  39  58  95 146 163 180 231 296
#
# _framework density 24.142195000000001
#
# number of rings (size 3 to 8) (size 9 to 14) (size 15 to 20)
#    1.000    1.333    0.000    5.000    0.000    0.000 
#    0.000    0.000    0.000    0.000    0.000    0.000 
#    0.000    0.000    0.000 1680.000    0.000    0.000 
#
# Total GULP energy -133694.982364 kJ/mol
# GULP energy per Si atom -5570.624265 kJ/mol
# Density = 2.408725 g / cm^3
# Si number density = 24.142195 Si / 1000 Ang^3
#
#
#
# Elastic Constant Matrix: (Units=GPa)
#
#
# Indices 1 2 3 4 5 6 
#
# 1 86.6806 27.1383 27.4650 0.0000 0.0000 0.0000
# 2 27.1383 296.3163 62.3104 0.0000 0.0000 0.0000
# 3 27.4650 62.3104 76.1634 0.0000 0.0000 0.0000
# 4 0.0000 0.0000 0.0000 37.8146 0.0000 0.0000
# 5 0.0000 0.0000 0.0000 0.0000 28.6060 0.0000
# 6 0.0000 0.0000 0.0000 0.0000 0.0000 -75.7180
#
#
#
# Elastic Compliance Matrix: (Units=1/GPa)
#
#
# Indices 1 2 3 4 5 6 
#
# 1 0.013040 -0.000248 -0.004499 0.000000 0.000000 0.000000
# 2 -0.000248 0.004081 -0.003249 0.000000 0.000000 0.000000
# 3 -0.004499 -0.003249 0.017410 0.000000 0.000000 0.000000
# 4 0.000000 0.000000 0.000000 0.026445 0.000000 0.000000
# 5 0.000000 0.000000 0.000000 0.000000 0.034958 0.000000
# 6 0.000000 0.000000 0.000000 0.000000 0.000000 -0.013207
#
#
# Mechanical properties :
#
#
# Convention : Reuss Voigt Hill
#
# Bulk Modulus (GPa) = 53.94336 76.99866 65.47101
# Shear Modulus (GPa) = 47.66511 20.95697 34.31104
#
# Velocity S-wave (km/s) = 4.44818 2.94949 3.77398
# Velocity P-wave (km/s) = 6.98386 6.60018 6.79473
#
# Compressibility (1/GPa) = 0.01853796
#
# Stress axis : x y z
#
# Youngs Moduli (GPa) = 76.68771 245.05545 57.43769
#
# Poissons Ratio (x) = 0.06081 0.25843
# Poissons Ratio (y) = 0.01903 0.18662
# Poissons Ratio (z) = 0.34504 0.79619
#
# Static dielectric constant tensor:
#      x y z
#    x 2.046050 0.000000 0.000000 
#    y 0.000000 1.820340 0.000000 
#    z 0.000000 0.000000 1.968390 
# 
# From -- ./inp_files/31265.got.cif
#   From: 2010.05.17/outbox.cif.g08.bks.cpg/sg20_16_cif.got.tgz:31265.got - 2010.06.03 22:52:26.
