data_PCOD9316392
_publ_section_title
;
Structure prediction by ZEFSAII (Michael W. Deem and Ramdas Pophale) SiO2 
 PCOD9316392
Probable space group: C 2 2 21
;
_chemical_formula_sum "Si O2"
_cell_formula_units_Z 48
_cell_length_a 14.568966
_cell_length_b 18.921555
_cell_length_c 7.147487
_cell_angle_alpha 90.000000
_cell_angle_beta 90.000000
_cell_angle_gamma 90.000000
_cell_volume 1970.329812
_symmetry_space_group_name_H-M "C 2 2 21"
_symmetry_group_IT_number 20
_symmetry_cell_setting 'orthorhombic'
loop_
_space_group_symop_operation_xyz
x,y,z
-x,-y,1/2+z
x,-y,-z
-x,y,1/2-z
1/2+x,1/2+y,z
1/2-x,1/2-y,1/2+z
1/2+x,1/2-y,-z
1/2-x,1/2+y,1/2-z
loop_
_atom_site_type_symbol
_atom_site_label
_atom_site_fract_x
_atom_site_fract_y
_atom_site_fract_z
Si Si1 0.567877 0.063801 0.905325
Si Si2 0.421379 0.209287 0.480104
Si Si3 0.754926 0.022722 0.718737
Si Si4 0.120828 0.747458 0.584456
Si Si5 0.107940 0.899896 0.724071
Si Si6 0.693840 0.669139 0.909789
O O1 0.500000 0.095433 0.750000
O O2 0.596347 0.126520 0.044024
O O3 0.655653 0.027141 0.812231
O O4 0.513739 0.000000 0.000000
O O5 0.529330 0.222603 0.481460
O O6 0.388966 0.226868 0.693658
O O7 0.367227 0.264085 0.351010
O O8 0.788267 0.104053 0.726884
O O9 0.745868 0.000000 0.500000
O O10 0.826734 0.967248 0.806919
O O11 0.121938 0.832990 0.586177
O O12 0.210931 0.704782 0.525579
O O13 0.000000 0.917752 0.750000
O O14 0.140378 0.868217 0.921973
#
# Coordination Sequence:
#
# PCOD9316392 Si02
#       6
#     8   8   8   8   8   8
#     4  12  24  41  64  98 138 178 223 283 343 404
#     4  10  19  37  63  92 127 174 219 274 332 391
#     4  10  22  40  63  95 132 173 223 279 337 410
#     4  10  17  36  64  88 122 165 222 266 328 391
#     4  10  20  38  61  91 124 173 216 268 339 399
#     4  10  19  35  66  89 123 174 219 271 334 393
#
# _framework density 24.361402999999999
#
# number of rings (size 3 to 8) (size 9 to 14) (size 15 to 20)
#    0.000    1.667    6.667    0.500    2.333    1.333 
#    0.000    4.167    0.000    0.000    0.000    0.000 
#    0.000    0.000    0.000    0.000    0.000    0.000 
#
# Total GULP energy -134200.253125 kJ/mol
# GULP energy per Si atom -5591.677214 kJ/mol
# Density = 2.430596 g / cm^3
# Si number density = 24.361403 Si / 1000 Ang^3
#
#
#
# Elastic Constant Matrix: (Units=GPa)
#
#
# Indices 1 2 3 4 5 6 
#
# 1 169.7427 69.0403 18.7690 0.0000 0.0000 0.0000
# 2 69.0403 205.7087 15.9799 0.0000 0.0000 0.0000
# 3 18.7690 15.9799 47.3945 0.0000 0.0000 0.0000
# 4 0.0000 0.0000 0.0000 25.2615 0.0000 0.0000
# 5 0.0000 0.0000 0.0000 0.0000 28.6893 0.0000
# 6 0.0000 0.0000 0.0000 0.0000 0.0000 68.1868
#
#
#
# Elastic Compliance Matrix: (Units=1/GPa)
#
#
# Indices 1 2 3 4 5 6 
#
# 1 0.007009 -0.002194 -0.002036 0.000000 0.000000 0.000000
# 2 -0.002194 0.005679 -0.001046 0.000000 0.000000 0.000000
# 3 -0.002036 -0.001046 0.022258 0.000000 0.000000 0.000000
# 4 0.000000 0.000000 0.000000 0.039586 0.000000 0.000000
# 5 0.000000 0.000000 0.000000 0.000000 0.034856 0.000000
# 6 0.000000 0.000000 0.000000 0.000000 0.000000 0.014666
#
#
# Mechanical properties :
#
#
# Convention : Reuss Voigt Hill
#
# Bulk Modulus (GPa) = 40.99291 70.04714 55.52002
# Shear Modulus (GPa) = 35.02949 45.69796 40.36372
#
# Velocity S-wave (km/s) = 3.79609 4.33579 4.07489
# Velocity P-wave (km/s) = 6.00644 7.34038 6.70665
#
# Compressibility (1/GPa) = 0.02439446
#
# Stress axis : x y z
#
# Youngs Moduli (GPa) = 142.67738 176.09064 44.92701
#
# Poissons Ratio (x) = 0.38637 0.09146
# Poissons Ratio (y) = 0.31306 0.04699
# Poissons Ratio (z) = 0.29046 0.18416
#
# Static dielectric constant tensor:
#      x y z
#    x 1.879200 0.000000 0.000000 
#    y 0.000000 1.956750 0.000000 
#    z 0.000000 0.000000 1.984630 
# 
# From -- ./inp_files/8421.got.cif
#   From: 2010.05.17/outbox.cif.g08.bks.cpg/sg20_5_cif.got.tgz:8421.got - 2010.06.03 22:52:26.
