data_PCOD9316345
_publ_section_title
;
Structure prediction by ZEFSAII (Michael W. Deem and Ramdas Pophale) SiO2 
 PCOD9316345
Probable space group: C 2 2 21
;
_chemical_formula_sum "Si O2"
_cell_formula_units_Z 40
_cell_length_a 22.735710
_cell_length_b 9.196024
_cell_length_c 8.369836
_cell_angle_alpha 90.000000
_cell_angle_beta 90.000000
_cell_angle_gamma 90.000000
_cell_volume 1749.949700
_symmetry_space_group_name_H-M "C 2 2 21"
_symmetry_group_IT_number 20
_symmetry_cell_setting 'orthorhombic'
loop_
_space_group_symop_operation_xyz
x,y,z
-x,-y,1/2+z
x,-y,-z
-x,y,1/2-z
1/2+x,1/2+y,z
1/2-x,1/2-y,1/2+z
1/2+x,1/2-y,-z
1/2-x,1/2+y,1/2-z
loop_
_atom_site_type_symbol
_atom_site_label
_atom_site_fract_x
_atom_site_fract_y
_atom_site_fract_z
Si Si1 0.031801 0.367054 0.601403
Si Si2 0.435366 0.670856 0.192873
Si Si3 0.273747 0.103319 0.131123
Si Si4 0.188608 0.136723 0.408666
Si Si5 0.377032 0.044481 0.683278
O O1 0.001677 0.500000 0.500000
O O2 0.050566 0.251918 0.472663
O O3 0.081499 0.451200 0.699229
O O4 0.000000 0.292745 0.750000
O O5 0.500000 0.616362 0.250000
O O6 0.375911 0.583786 0.153127
O O7 0.407184 0.796293 0.306835
O O8 0.228035 0.171723 0.254492
O O9 0.315701 0.995384 0.231650
O O10 0.309187 0.227772 0.032376
O O11 0.243191 0.000000 0.000000
O O12 0.215419 0.000000 0.500000
O O13 0.372802 0.000000 0.500000
#
# Coordination Sequence:
#
# PCOD9316345 Si02
#       5
#     8   8   8   8   8
#     4  10  17  32  55  93 136 170 223 286 343 396
#     4  11  23  43  67 100 145 188 239 291 356 437
#     4  12  24  48  74 105 141 182 247 304 359 424
#     4  12  27  47  72 103 150 195 235 303 367 441
#     4  11  20  36  69 105 137 175 232 303 353 403
#
# _framework density 22.857800000000001
#
# number of rings (size 3 to 8) (size 9 to 14) (size 15 to 20)
#    0.000    0.800    4.000    6.600    2.800    0.000 
#    0.000    2.000    0.000    0.000    0.000    0.000 
#    0.000    0.000    0.000    0.000    0.000    0.000 
#
# Total GULP energy -111439.216215 kJ/mol
# GULP energy per Si atom -5571.960811 kJ/mol
# Density = 2.280577 g / cm^3
# Si number density = 22.857800 Si / 1000 Ang^3
#
#
#
# Elastic Constant Matrix: (Units=GPa)
#
#
# Indices 1 2 3 4 5 6 
#
# 1 109.4869 6.2123 32.9711 0.0000 0.0000 0.0000
# 2 6.2123 41.5907 23.7396 0.0000 0.0000 0.0000
# 3 32.9711 23.7396 157.4694 0.0000 0.0000 0.0000
# 4 0.0000 0.0000 0.0000 16.7331 0.0000 0.0000
# 5 0.0000 0.0000 0.0000 0.0000 35.9627 0.0000
# 6 0.0000 0.0000 0.0000 0.0000 0.0000 19.2519
#
#
#
# Elastic Compliance Matrix: (Units=1/GPa)
#
#
# Indices 1 2 3 4 5 6 
#
# 1 0.009752 -0.000319 -0.001994 0.000000 0.000000 0.000000
# 2 -0.000319 0.026318 -0.003901 0.000000 0.000000 0.000000
# 3 -0.001994 -0.003901 0.007356 0.000000 0.000000 0.000000
# 4 0.000000 0.000000 0.000000 0.059762 0.000000 0.000000
# 5 0.000000 0.000000 0.000000 0.000000 0.027807 0.000000
# 6 0.000000 0.000000 0.000000 0.000000 0.000000 0.051943
#
#
# Mechanical properties :
#
#
# Convention : Reuss Voigt Hill
#
# Bulk Modulus (GPa) = 32.25870 48.26588 40.26229
# Shear Modulus (GPa) = 24.30756 30.76445 27.53600
#
# Velocity S-wave (km/s) = 3.26456 3.67264 3.47459
# Velocity P-wave (km/s) = 5.32477 6.25667 5.80944
#
# Compressibility (1/GPa) = 0.03099938
#
# Stress axis : x y z
#
# Youngs Moduli (GPa) = 102.54275 37.99677 135.94321
#
# Poissons Ratio (x) = 0.01210 0.27105
# Poissons Ratio (y) = 0.03266 0.53030
# Poissons Ratio (z) = 0.20446 0.14822
#
# Static dielectric constant tensor:
#      x y z
#    x 1.954030 0.000000 0.000000 
#    y 0.000000 1.878820 0.000000 
#    z 0.000000 0.000000 2.053890 
# 
# From -- ./inp_files/10508.got.cif
#   From: 2010.05.17/outbox.cif.g08.bks.cpg/sg20_6_cif.got.tgz:10508.got - 2010.06.03 22:52:26.
