data_PCOD9316989
_publ_section_title
;
Structure prediction by ZEFSAII (Michael W. Deem and Ramdas Pophale) SiO2 
 PCOD9316989
Probable space group: C 2 2 21
;
_chemical_formula_sum "Si O2"
_cell_formula_units_Z 60
_cell_length_a 23.415714
_cell_length_b 8.422711
_cell_length_c 16.598674
_cell_angle_alpha 90.000000
_cell_angle_beta 90.000000
_cell_angle_gamma 90.000000
_cell_volume 3273.653426
_symmetry_space_group_name_H-M "C 2 2 21"
_symmetry_group_IT_number 20
_symmetry_cell_setting 'orthorhombic'
loop_
_space_group_symop_operation_xyz
x,y,z
-x,-y,1/2+z
x,-y,-z
-x,y,1/2-z
1/2+x,1/2+y,z
1/2-x,1/2-y,1/2+z
1/2+x,1/2-y,-z
1/2-x,1/2+y,1/2-z
loop_
_atom_site_type_symbol
_atom_site_label
_atom_site_fract_x
_atom_site_fract_y
_atom_site_fract_z
Si Si1 0.464495 0.534029 0.911712
Si Si2 0.897092 0.697395 0.165122
Si Si3 0.500000 0.632955 0.250000
Si Si4 0.291836 0.169535 0.042071
Si Si5 0.793007 0.763694 0.675278
Si Si6 0.156020 0.856156 0.601474
Si Si7 0.392728 0.136292 0.763167
Si Si8 0.310743 0.582079 0.764552
O O1 0.444821 0.713203 0.888263
O O2 0.496690 0.468077 0.832622
O O3 0.404847 0.436263 0.916487
O O4 0.491531 0.500000 0.000000
O O5 0.843462 0.657358 0.106886
O O6 0.913202 0.537833 0.211708
O O7 0.870077 0.822911 0.228748
O O8 0.555262 0.745448 0.247497
O O9 0.235786 0.227046 0.088528
O O10 0.312672 0.294525 0.976343
O O11 0.283433 0.000000 0.000000
O O12 0.847140 0.651114 0.690794
O O13 0.742589 0.700536 0.734923
O O14 0.808932 0.944338 0.698926
O O15 0.141685 0.710748 0.661033
O O16 0.191688 0.984212 0.651585
#
# Coordination Sequence:
#
# PCOD9316989 Si02
#       8
#     8   8   4   8   8   8   8   8
#     4  10  19  36  60  94 116 148 193 261 309 351
#     4  10  19  32  61  85 116 144 192 240 306 353
#     4  10  24  40  62  86 114 158 210 248 316 356
#     4  11  19  30  53  92 117 149 186 232 299 364
#     4  10  20  32  50  77 117 151 184 224 288 349
#     4   9  18  32  54  82 118 139 184 240 287 345
#     4  10  20  39  54  80 114 154 194 252 283 357
#     4   9  19  30  49  80 111 149 175 219 283 353
#
# _framework density 18.328147000000001
#
# number of rings (size 3 to 8) (size 9 to 14) (size 15 to 20)
#    0.000    2.133    2.667    2.400    1.867    0.533 
#    0.000    0.667    0.000    0.000    6.933    0.000 
#    0.000    0.000    0.000    0.000    0.000    0.000 
#
# Total GULP energy -167241.134504 kJ/mol
# GULP energy per Si atom -5574.704483 kJ/mol
# Density = 1.828643 g / cm^3
# Si number density = 18.328147 Si / 1000 Ang^3
#
#
#
# Elastic Constant Matrix: (Units=GPa)
#
#
# Indices 1 2 3 4 5 6 
#
# 1 39.5582 11.7669 39.2421 0.0000 0.0000 0.0000
# 2 11.7669 100.5989 38.0427 0.0000 0.0000 0.0000
# 3 39.2421 38.0427 103.1076 0.0000 0.0000 0.0000
# 4 0.0000 0.0000 0.0000 30.0894 0.0000 0.0000
# 5 0.0000 0.0000 0.0000 0.0000 31.5625 0.0000
# 6 0.0000 0.0000 0.0000 0.0000 0.0000 17.4709
#
#
#
# Elastic Compliance Matrix: (Units=1/GPa)
#
#
# Indices 1 2 3 4 5 6 
#
# 1 0.040753 0.001277 -0.015982 0.000000 0.000000 0.000000
# 2 0.001277 0.011592 -0.004763 0.000000 0.000000 0.000000
# 3 -0.015982 -0.004763 0.017538 0.000000 0.000000 0.000000
# 4 0.000000 0.000000 0.000000 0.033234 0.000000 0.000000
# 5 0.000000 0.000000 0.000000 0.000000 0.031683 0.000000
# 6 0.000000 0.000000 0.000000 0.000000 0.000000 0.057238
#
#
# Mechanical properties :
#
#
# Convention : Reuss Voigt Hill
#
# Bulk Modulus (GPa) = 32.31179 46.81868 39.56523
# Shear Modulus (GPa) = 20.72184 26.10541 23.41362
#
# Velocity S-wave (km/s) = 3.36609 3.77813 3.57805
# Velocity P-wave (km/s) = 5.72497 6.68076 6.22125
#
# Compressibility (1/GPa) = 0.03094845
#
# Stress axis : x y z
#
# Youngs Moduli (GPa) = 24.53790 86.26390 57.01759
#
# Poissons Ratio (x) = -0.11014 0.91123
# Poissons Ratio (y) = -0.03133 0.27158
# Poissons Ratio (z) = 0.39215 0.41088
#
# Static dielectric constant tensor:
#      x y z
#    x 1.628010 0.000000 0.000000 
#    y 0.000000 1.673150 0.000000 
#    z 0.000000 0.000000 1.665950 
# 
# From -- ./inp_files/22211.got.cif
#   From: 2010.05.17/outbox.cif.g08.bks.cpg/sg20_12_cif.got.tgz:22211.got - 2010.06.03 22:52:26.
