data_PCOD9316514
_publ_section_title
;
Structure prediction by ZEFSAII (Michael W. Deem and Ramdas Pophale) SiO2 
 PCOD9316514
Probable space group: C 2 2 21
;
_chemical_formula_sum "Si O2"
_cell_formula_units_Z 40
_cell_length_a 14.663643
_cell_length_b 12.609223
_cell_length_c 9.608508
_cell_angle_alpha 90.000000
_cell_angle_beta 90.000000
_cell_angle_gamma 90.000000
_cell_volume 1776.585693
_symmetry_space_group_name_H-M "C 2 2 21"
_symmetry_group_IT_number 20
_symmetry_cell_setting 'orthorhombic'
loop_
_space_group_symop_operation_xyz
x,y,z
-x,-y,1/2+z
x,-y,-z
-x,y,1/2-z
1/2+x,1/2+y,z
1/2-x,1/2-y,1/2+z
1/2+x,1/2-y,-z
1/2-x,1/2+y,1/2-z
loop_
_atom_site_type_symbol
_atom_site_label
_atom_site_fract_x
_atom_site_fract_y
_atom_site_fract_z
Si Si1 0.318920 0.500000 0.500000
Si Si2 0.914958 0.527040 0.655328
Si Si3 0.033992 0.165696 0.095269
Si Si4 0.266678 0.609996 0.765576
Si Si5 0.095889 0.711993 0.173996
Si Si6 0.615810 0.500000 0.500000
O O1 0.384845 0.421775 0.588467
O O2 0.260370 0.562603 0.611172
O O3 0.946532 0.500000 0.500000
O O4 0.834022 0.610912 0.671857
O O5 0.877374 0.410074 0.696220
O O6 0.000000 0.554215 0.750000
O O7 0.000000 0.196882 0.250000
O O8 0.069635 0.252279 0.983834
O O9 0.948196 0.100255 0.033468
O O10 0.325295 0.715694 0.740457
O O11 0.323150 0.534785 0.869850
O O12 0.000000 0.730485 0.250000
#
# Coordination Sequence:
#
# PCOD9316514 Si02
#       6
#     4   8   8   8   8   4
#     4   9  20  30  57 100 132 168 211 282 347 396
#     4  11  27  50  70  95 140 190 229 282 345 408
#     4  10  18  31  59 102 139 165 215 281 351 400
#     4  11  21  42  66  95 134 180 227 283 340 403
#     4  10  22  43  69  99 136 176 228 281 339 413
#     4  11  18  32  65 100 136 170 217 292 353 388
#
# _framework density 22.515096
#
# number of rings (size 3 to 8) (size 9 to 14) (size 15 to 20)
#    0.000    1.600    5.000    0.000    1.400    0.800 
#    7.200    2.000    0.000    1.200    0.000    0.000 
#    0.000    0.000    0.000    0.000    0.000    0.000 
#
# Total GULP energy -111699.960504 kJ/mol
# GULP energy per Si atom -5584.998025 kJ/mol
# Density = 2.246385 g / cm^3
# Si number density = 22.515096 Si / 1000 Ang^3
#
#
#
# Elastic Constant Matrix: (Units=GPa)
#
#
# Indices 1 2 3 4 5 6 
#
# 1 102.6897 34.1451 52.1130 0.0000 0.0000 0.0000
# 2 34.1451 85.1225 26.5733 0.0000 0.0000 0.0000
# 3 52.1130 26.5733 126.0840 0.0000 0.0000 0.0000
# 4 0.0000 0.0000 0.0000 19.4383 0.0000 0.0000
# 5 0.0000 0.0000 0.0000 0.0000 31.8079 0.0000
# 6 0.0000 0.0000 0.0000 0.0000 0.0000 -64.3721
#
#
#
# Elastic Compliance Matrix: (Units=1/GPa)
#
#
# Indices 1 2 3 4 5 6 
#
# 1 0.013440 -0.003915 -0.004730 0.000000 0.000000 0.000000
# 2 -0.003915 0.013715 -0.001273 0.000000 0.000000 0.000000
# 3 -0.004730 -0.001273 0.010154 0.000000 0.000000 0.000000
# 4 0.000000 0.000000 0.000000 0.051445 0.000000 0.000000
# 5 0.000000 0.000000 0.000000 0.000000 0.031439 0.000000
# 6 0.000000 0.000000 0.000000 0.000000 0.000000 -0.015535
#
#
# Mechanical properties :
#
#
# Convention : Reuss Voigt Hill
#
# Bulk Modulus (GPa) = 57.22349 59.95100 58.58725
# Shear Modulus (GPa) = 38.36754 10.77914 24.57334
#
# Velocity S-wave (km/s) = 4.13253 2.19041 3.30724
# Velocity P-wave (km/s) = 6.94559 5.75170 6.37665
#
# Compressibility (1/GPa) = 0.01747534
#
# Stress axis : x y z
#
# Youngs Moduli (GPa) = 74.40414 72.91115 98.47900
#
# Poissons Ratio (x) = 0.28542 0.46581
# Poissons Ratio (y) = 0.29126 0.12533
# Poissons Ratio (z) = 0.35193 0.09279
#
# Static dielectric constant tensor:
#      x y z
#    x 1.785420 0.000000 0.000000 
#    y 0.000000 1.886750 0.000000 
#    z 0.000000 0.000000 1.837240 
# 
# From -- ./inp_files/8167.got.cif
#   From: 2010.05.17/outbox.cif.g08.bks.cpg/sg20_5_cif.got.tgz:8167.got - 2010.06.03 22:52:26.
