data_PCOD9316984
_publ_section_title
;
Structure prediction by ZEFSAII (Michael W. Deem and Ramdas Pophale) SiO2 
 PCOD9316984
Probable space group: C 2 2 21
;
_chemical_formula_sum "Si O2"
_cell_formula_units_Z 40
_cell_length_a 30.938043
_cell_length_b 11.273861
_cell_length_c 5.210774
_cell_angle_alpha 90.000000
_cell_angle_beta 90.000000
_cell_angle_gamma 90.000000
_cell_volume 1817.472098
_symmetry_space_group_name_H-M "C 2 2 21"
_symmetry_group_IT_number 20
_symmetry_cell_setting 'orthorhombic'
loop_
_space_group_symop_operation_xyz
x,y,z
-x,-y,1/2+z
x,-y,-z
-x,y,1/2-z
1/2+x,1/2+y,z
1/2-x,1/2-y,1/2+z
1/2+x,1/2-y,-z
1/2-x,1/2+y,1/2-z
loop_
_atom_site_type_symbol
_atom_site_label
_atom_site_fract_x
_atom_site_fract_y
_atom_site_fract_z
Si Si1 0.764930 0.818432 0.208102
Si Si2 0.575683 0.500000 0.000000
Si Si3 0.710483 0.000000 0.500000
Si Si4 0.500000 0.618571 0.750000
Si Si5 0.149677 0.706121 0.285328
Si Si6 0.500000 0.224040 0.750000
Si Si7 0.903479 0.261132 0.297932
O O1 0.747856 0.725237 0.424898
O O2 0.741185 0.937575 0.291515
O O3 0.816655 0.815797 0.234392
O O4 0.542745 0.457385 0.218991
O O5 0.595932 0.622249 0.107007
O O6 0.679747 0.902516 0.627694
O O7 0.505467 0.698233 0.502697
O O8 0.116325 0.729990 0.515076
O O9 0.126648 0.681296 0.016005
O O10 0.548941 0.176511 0.793493
#
# Coordination Sequence:
#
# PCOD9316984 Si02
#       7
#     8   4   4   4   8   4   8
#     4  10  22  42  68  95 119 154 205 253 315 381
#     4  10  20  35  54  86 128 162 196 264 304 359
#     4  10  24  47  70  88 128 168 198 260 322 375
#     4  10  19  32  56  80 113 172 217 232 322 384
#     4  11  24  41  64  97 123 162 215 256 305 378
#     4  10  21  38  58  88 131 176 207 260 306 360
#     4  11  23  38  61  95 133 167 214 252 307 370
#
# _framework density 22.008592
#
# number of rings (size 3 to 8) (size 9 to 14) (size 15 to 20)
#    0.000    1.600    0.000    7.200    0.000   12.000 
#    0.000    8.000    0.000    2.400    0.000    1.400 
#    0.000    0.000    0.000    0.000    0.000    0.000 
#
# Total GULP energy -111635.341321 kJ/mol
# GULP energy per Si atom -5581.767066 kJ/mol
# Density = 2.195850 g / cm^3
# Si number density = 22.008592 Si / 1000 Ang^3
#
#
#
# Elastic Constant Matrix: (Units=GPa)
#
#
# Indices 1 2 3 4 5 6 
#
# 1 124.2205 2.0039 2.2284 0.0000 0.0000 0.0000
# 2 2.0039 51.7855 -14.1224 0.0000 0.0000 0.0000
# 3 2.2284 -14.1224 79.5913 0.0000 0.0000 0.0000
# 4 0.0000 0.0000 0.0000 23.2359 0.0000 0.0000
# 5 0.0000 0.0000 0.0000 0.0000 41.6251 0.0000
# 6 0.0000 0.0000 0.0000 0.0000 0.0000 16.0460
#
#
#
# Elastic Compliance Matrix: (Units=1/GPa)
#
#
# Indices 1 2 3 4 5 6 
#
# 1 0.008062 -0.000393 -0.000295 0.000000 0.000000 0.000000
# 2 -0.000393 0.020311 0.003615 0.000000 0.000000 0.000000
# 3 -0.000295 0.003615 0.013214 0.000000 0.000000 0.000000
# 4 0.000000 0.000000 0.000000 0.043037 0.000000 0.000000
# 5 0.000000 0.000000 0.000000 0.000000 0.024024 0.000000
# 6 0.000000 0.000000 0.000000 0.000000 0.000000 0.062321
#
#
# Mechanical properties :
#
#
# Convention : Reuss Voigt Hill
#
# Bulk Modulus (GPa) = 21.07864 26.20190 23.64027
# Shear Modulus (GPa) = 27.63526 33.88056 30.75791
#
# Velocity S-wave (km/s) = 3.54737 3.92781 3.74243
# Velocity P-wave (km/s) = 5.13583 5.70100 5.42578
#
# Compressibility (1/GPa) = 0.04744138
#
# Stress axis : x y z
#
# Youngs Moduli (GPa) = 124.04133 49.23334 75.67794
#
# Poissons Ratio (x) = 0.01932 0.02235
# Poissons Ratio (y) = 0.04869 -0.27357
# Poissons Ratio (z) = 0.03664 -0.17798
#
# Static dielectric constant tensor:
#      x y z
#    x 1.865140 0.000000 0.000000 
#    y 0.000000 1.860060 0.000000 
#    z 0.000000 0.000000 1.758180 
# 
# From -- ./inp_files/4146.got.cif
#   From: 2010.05.17/outbox.cif.g08.bks.cpg/sg20_3_cif.got.tgz:4146.got - 2010.06.03 22:52:26.
