data_PCOD9316331
_publ_section_title
;
Structure prediction by ZEFSAII (Michael W. Deem and Ramdas Pophale) SiO2 
 PCOD9316331
Probable space group: C 2 2 21
;
_chemical_formula_sum "Si O2"
_cell_formula_units_Z 64
_cell_length_a 15.908926
_cell_length_b 11.914580
_cell_length_c 17.552439
_cell_angle_alpha 90.000000
_cell_angle_beta 90.000000
_cell_angle_gamma 90.000000
_cell_volume 3327.032719
_symmetry_space_group_name_H-M "C 2 2 21"
_symmetry_group_IT_number 20
_symmetry_cell_setting 'orthorhombic'
loop_
_space_group_symop_operation_xyz
x,y,z
-x,-y,1/2+z
x,-y,-z
-x,y,1/2-z
1/2+x,1/2+y,z
1/2-x,1/2-y,1/2+z
1/2+x,1/2-y,-z
1/2-x,1/2+y,1/2-z
loop_
_atom_site_type_symbol
_atom_site_label
_atom_site_fract_x
_atom_site_fract_y
_atom_site_fract_z
Si Si1 0.113372 0.544987 0.417343
Si Si2 0.674285 0.753232 0.164664
Si Si3 0.751127 0.385987 0.697495
Si Si4 0.191290 0.056135 0.076842
Si Si5 0.330771 0.389187 0.162478
Si Si6 0.012830 0.750773 0.342570
Si Si7 0.401540 0.043041 0.757541
Si Si8 0.830836 0.174061 0.659267
O O1 0.084638 0.500000 0.500000
O O2 0.209360 0.586860 0.429673
O O3 0.054125 0.641672 0.381580
O O4 0.116566 0.454071 0.348283
O O5 0.710611 0.665393 0.226571
O O6 0.640389 0.666037 0.102396
O O7 0.750734 0.824473 0.128188
O O8 0.618873 0.843211 0.210775
O O9 0.690862 0.480260 0.663053
O O10 0.838475 0.448523 0.722236
O O11 0.769255 0.278569 0.644800
O O12 0.189340 0.949329 0.131782
O O13 0.160274 0.000000 0.000000
O O14 0.421776 0.349915 0.136948
O O15 0.329910 0.343212 0.249545
O O16 0.000000 0.738492 0.250000
O O17 0.920932 0.784992 0.369612
O O18 0.500000 0.018060 0.750000
#
# Coordination Sequence:
#
# PCOD9316331 Si02
#       8
#     8   8   8   8   8   8   8   8
#     4  11  20  35  60  84 111 152 198 234 282 348
#     4  10  18  34  55  80 108 142 187 228 277 332
#     4  10  17  31  58  79 107 136 186 235 271 327
#     4  11  21  37  58  78 111 153 194 229 286 358
#     4   9  16  30  55  81 105 133 179 223 279 317
#     4  10  19  33  57  86 113 143 189 233 278 339
#     4  11  21  36  57  86 116 143 187 245 291 329
#     4  10  19  32  54  83 106 141 180 232 276 329
#
# _framework density 19.236360000000001
#
# number of rings (size 3 to 8) (size 9 to 14) (size 15 to 20)
#    0.000    1.750    3.750    4.125    0.000    0.000 
#    4.500    0.000    0.000    0.000    0.000    0.000 
#    0.000    0.000    0.000    0.000    0.000    0.000 
#
# Total GULP energy -178156.523005 kJ/mol
# GULP energy per Si atom -5567.391344 kJ/mol
# Density = 1.919258 g / cm^3
# Si number density = 19.236360 Si / 1000 Ang^3
#
#
#
# Elastic Constant Matrix: (Units=GPa)
#
#
# Indices 1 2 3 4 5 6 
#
# 1 46.7934 8.2568 -13.3241 0.0000 0.0000 0.0000
# 2 8.2568 75.1640 -16.9343 0.0000 0.0000 0.0000
# 3 -13.3241 -16.9343 23.1424 0.0000 0.0000 0.0000
# 4 0.0000 0.0000 0.0000 14.2470 0.0000 0.0000
# 5 0.0000 0.0000 0.0000 0.0000 11.0623 0.0000
# 6 0.0000 0.0000 0.0000 0.0000 0.0000 9.8493
#
#
#
# Elastic Compliance Matrix: (Units=1/GPa)
#
#
# Indices 1 2 3 4 5 6 
#
# 1 0.025584 0.000609 0.015175 0.000000 0.000000 0.000000
# 2 0.000609 0.015945 0.012018 0.000000 0.000000 0.000000
# 3 0.015175 0.012018 0.060742 0.000000 0.000000 0.000000
# 4 0.000000 0.000000 0.000000 0.070190 0.000000 0.000000
# 5 0.000000 0.000000 0.000000 0.000000 0.090397 0.000000
# 6 0.000000 0.000000 0.000000 0.000000 0.000000 0.101530
#
#
# Mechanical properties :
#
#
# Convention : Reuss Voigt Hill
#
# Bulk Modulus (GPa) = 6.33416 11.23297 8.78356
# Shear Modulus (GPa) = 13.83471 18.17182 16.00327
#
# Velocity S-wave (km/s) = 2.68469 3.07687 2.88745
# Velocity P-wave (km/s) = 3.59306 4.29825 3.96137
#
# Compressibility (1/GPa) = 0.15787424
#
# Stress axis : x y z
#
# Youngs Moduli (GPa) = 39.08667 62.71548 16.46315
#
# Poissons Ratio (x) = -0.03816 -0.24983
# Poissons Ratio (y) = -0.02378 -0.19785
# Poissons Ratio (z) = -0.59315 -0.75371
#
# Static dielectric constant tensor:
#      x y z
#    x 1.703680 0.000000 0.000000 
#    y 0.000000 1.751160 0.000000 
#    z 0.000000 0.000000 1.873430 
# 
# From -- ./inp_files/25367.got.cif
#   From: 2010.05.17/outbox.cif.g08.bks.cpg/sg20_13_cif.got.tgz:25367.got - 2010.06.03 22:52:26.
