data_PCOD9316585
_publ_section_title
;
Structure prediction by ZEFSAII (Michael W. Deem and Ramdas Pophale) SiO2 
 PCOD9316585
Probable space group: C 2 2 21
;
_chemical_formula_sum "Si O2"
_cell_formula_units_Z 40
_cell_length_a 13.158857
_cell_length_b 16.111508
_cell_length_c 8.870002
_cell_angle_alpha 90.000000
_cell_angle_beta 90.000000
_cell_angle_gamma 90.000000
_cell_volume 1880.520519
_symmetry_space_group_name_H-M "C 2 2 21"
_symmetry_group_IT_number 20
_symmetry_cell_setting 'orthorhombic'
loop_
_space_group_symop_operation_xyz
x,y,z
-x,-y,1/2+z
x,-y,-z
-x,y,1/2-z
1/2+x,1/2+y,z
1/2-x,1/2-y,1/2+z
1/2+x,1/2-y,-z
1/2-x,1/2+y,1/2-z
loop_
_atom_site_type_symbol
_atom_site_label
_atom_site_fract_x
_atom_site_fract_y
_atom_site_fract_z
Si Si1 0.714544 0.821638 0.119153
Si Si2 0.622934 0.755540 0.417838
Si Si3 0.950508 0.339351 0.600046
Si Si4 0.009294 0.918922 0.575983
Si Si5 0.605918 0.649153 0.828582
O O1 0.645737 0.776595 0.245167
O O2 0.797891 0.868255 0.223320
O O3 0.777186 0.753935 0.021213
O O4 0.642866 0.871872 0.002533
O O5 0.544497 0.819884 0.489762
O O6 0.573739 0.664938 0.433251
O O7 0.906896 0.248922 0.653592
O O8 0.000000 0.379751 0.750000
O O9 0.000000 0.936728 0.750000
O O10 0.904187 0.896666 0.488589
O O11 0.055700 0.000000 0.500000
O O12 0.500000 0.624244 0.750000
#
# Coordination Sequence:
#
# PCOD9316585 Si02
#       5
#     8   8   8   8   8
#     4  12  19  31  56  76 116 160 191 250 303 357
#     4  11  21  33  54  82 116 155 201 241 304 361
#     4  10  18  33  46  76 114 147 191 239 294 363
#     4  11  23  37  56  77 119 167 200 234 296 361
#     4  10  18  34  50  77 113 155 194 242 286 355
#
# _framework density 21.270706000000001
#
# number of rings (size 3 to 8) (size 9 to 14) (size 15 to 20)
#    0.000    1.200    8.000    3.600    0.000    0.000 
#    0.000    0.000    0.000    0.000    0.000    0.000 
#    0.000   19.200    0.000    0.000    0.000    0.000 
#
# Total GULP energy -111498.484702 kJ/mol
# GULP energy per Si atom -5574.924235 kJ/mol
# Density = 2.122229 g / cm^3
# Si number density = 21.270706 Si / 1000 Ang^3
#
#
#
# Elastic Constant Matrix: (Units=GPa)
#
#
# Indices 1 2 3 4 5 6 
#
# 1 120.7027 0.3850 57.2853 0.0000 0.0000 0.0000
# 2 0.3850 23.3236 7.1596 0.0000 0.0000 0.0000
# 3 57.2853 7.1596 157.8211 0.0000 0.0000 0.0000
# 4 0.0000 0.0000 0.0000 12.3286 0.0000 0.0000
# 5 0.0000 0.0000 0.0000 0.0000 66.5884 0.0000
# 6 0.0000 0.0000 0.0000 0.0000 0.0000 2.4065
#
#
#
# Elastic Compliance Matrix: (Units=1/GPa)
#
#
# Indices 1 2 3 4 5 6 
#
# 1 0.010030 0.000965 -0.003685 0.000000 0.000000 0.000000
# 2 0.000965 0.043573 -0.002327 0.000000 0.000000 0.000000
# 3 -0.003685 -0.002327 0.007779 0.000000 0.000000 0.000000
# 4 0.000000 0.000000 0.000000 0.081112 0.000000 0.000000
# 5 0.000000 0.000000 0.000000 0.000000 0.015018 0.000000
# 6 0.000000 0.000000 0.000000 0.000000 0.000000 0.415549
#
#
# Mechanical properties :
#
#
# Convention : Reuss Voigt Hill
#
# Bulk Modulus (GPa) = 19.49678 47.94524 33.72101
# Shear Modulus (GPa) = 8.32984 32.06587 20.19786
#
# Velocity S-wave (km/s) = 1.98106 3.88688 3.08484
# Velocity P-wave (km/s) = 3.79720 6.53707 5.34565
#
# Compressibility (1/GPa) = 0.05129053
#
# Stress axis : x y z
#
# Youngs Moduli (GPa) = 99.69650 22.94979 128.54657
#
# Poissons Ratio (x) = -0.02216 0.47364
# Poissons Ratio (y) = -0.09626 0.29915
# Poissons Ratio (z) = 0.36734 0.05341
#
# Static dielectric constant tensor:
#      x y z
#    x 1.863210 0.000000 0.000000 
#    y 0.000000 1.721340 0.000000 
#    z 0.000000 0.000000 1.887020 
# 
# From -- ./inp_files/7082.got.cif
#   From: 2010.05.17/outbox.cif.g08.bks.cpg/sg20_4_cif.got.tgz:7082.got - 2010.06.03 22:52:26.
