data_PCOD9316798
_publ_section_title
;
Structure prediction by ZEFSAII (Michael W. Deem and Ramdas Pophale) SiO2 
 PCOD9316798
Probable space group: C 2 2 21
;
_chemical_formula_sum "Si O2"
_cell_formula_units_Z 36
_cell_length_a 9.172757
_cell_length_b 24.348517
_cell_length_c 7.844755
_cell_angle_alpha 90.000000
_cell_angle_beta 90.000000
_cell_angle_gamma 90.000000
_cell_volume 1752.071349
_symmetry_space_group_name_H-M "C 2 2 21"
_symmetry_group_IT_number 20
_symmetry_cell_setting 'orthorhombic'
loop_
_space_group_symop_operation_xyz
x,y,z
-x,-y,1/2+z
x,-y,-z
-x,y,1/2-z
1/2+x,1/2+y,z
1/2-x,1/2-y,1/2+z
1/2+x,1/2-y,-z
1/2-x,1/2+y,1/2-z
loop_
_atom_site_type_symbol
_atom_site_label
_atom_site_fract_x
_atom_site_fract_y
_atom_site_fract_z
Si Si1 0.238969 0.795133 0.830193
Si Si2 0.173289 0.420241 0.741731
Si Si3 0.946531 0.788231 0.015429
Si Si4 0.654713 0.500000 0.000000
Si Si5 0.064564 0.091358 0.450753
O O1 0.288749 0.859087 0.833589
O O2 0.152292 0.785103 0.655609
O O3 0.114880 0.780557 0.968501
O O4 0.373497 0.754964 0.860147
O O5 0.240735 0.470119 0.633647
O O6 0.267242 0.423524 0.916346
O O7 0.000000 0.424454 0.750000
O O8 0.936731 0.852538 0.054401
O O9 0.539242 0.548130 0.957300
O O10 0.000000 0.097680 0.250000
#
# Coordination Sequence:
#
# PCOD9316798 Si02
#       5
#     8   8   8   4   8
#     4  10  21  36  60  88 125 159 202 244 305 365
#     4  10  21  37  60  88 116 153 201 254 311 354
#     4  10  19  37  57  90 121 162 201 243 298 367
#     4  10  18  38  64  80 108 158 208 238 288 380
#     4   9  17  37  59  81 113 159 198 239 303 369
#
# _framework density 20.547108999999999
#
# number of rings (size 3 to 8) (size 9 to 14) (size 15 to 20)
#    0.000    2.222    6.667    0.000    6.222    0.889 
#    0.000    6.667    4.889    0.000    0.000    0.000 
#    0.000    0.000    0.000    0.000    0.000    0.000 
#
# Total GULP energy -100231.725710 kJ/mol
# GULP energy per Si atom -5568.429206 kJ/mol
# Density = 2.050034 g / cm^3
# Si number density = 20.547109 Si / 1000 Ang^3
#
#
#
# Elastic Constant Matrix: (Units=GPa)
#
#
# Indices 1 2 3 4 5 6 
#
# 1 216.3277 82.5644 37.4226 0.0000 0.0000 0.0000
# 2 82.5644 147.5042 38.2473 0.0000 0.0000 0.0000
# 3 37.4226 38.2473 50.3250 0.0000 0.0000 0.0000
# 4 0.0000 0.0000 0.0000 4.2468 0.0000 0.0000
# 5 0.0000 0.0000 0.0000 0.0000 33.9906 0.0000
# 6 0.0000 0.0000 0.0000 0.0000 0.0000 51.7902
#
#
#
# Elastic Compliance Matrix: (Units=1/GPa)
#
#
# Indices 1 2 3 4 5 6 
#
# 1 0.006106 -0.002790 -0.002420 0.000000 0.000000 0.000000
# 2 -0.002790 0.009719 -0.005311 0.000000 0.000000 0.000000
# 3 -0.002420 -0.005311 0.025707 0.000000 0.000000 0.000000
# 4 0.000000 0.000000 0.000000 0.235469 0.000000 0.000000
# 5 0.000000 0.000000 0.000000 0.000000 0.029420 0.000000
# 6 0.000000 0.000000 0.000000 0.000000 0.000000 0.019309
#
#
# Mechanical properties :
#
#
# Convention : Reuss Voigt Hill
#
# Bulk Modulus (GPa) = 48.80767 81.18059 64.99413
# Shear Modulus (GPa) = 14.14019 35.06705 24.60362
#
# Velocity S-wave (km/s) = 2.62617 4.13566 3.46414
# Velocity P-wave (km/s) = 5.74468 7.89938 6.90657
#
# Compressibility (1/GPa) = 0.02048858
#
# Stress axis : x y z
#
# Youngs Moduli (GPa) = 163.76637 102.89600 38.90014
#
# Poissons Ratio (x) = 0.28713 0.09414
# Poissons Ratio (y) = 0.45698 0.20660
# Poissons Ratio (z) = 0.39631 0.54649
#
# Static dielectric constant tensor:
#      x y z
#    x 1.751940 0.000000 0.000000 
#    y 0.000000 1.752570 0.000000 
#    z 0.000000 0.000000 1.789610 
# 
# From -- ./inp_files/6221.got.cif
#   From: 2010.05.17/outbox.cif.g08.bks.cpg/sg20_4_cif.got.tgz:6221.got - 2010.06.03 22:52:26.
