data_PCOD9316027
_publ_section_title
;
Structure prediction by ZEFSAII (Michael W. Deem and Ramdas Pophale) SiO2 
 PCOD9316027
Probable space group: P 21 21 21
;
_chemical_formula_sum "Si O2"
_cell_formula_units_Z 20
_cell_length_a 4.885981
_cell_length_b 17.444938
_cell_length_c 8.620068
_cell_angle_alpha 90.000000
_cell_angle_beta 90.000000
_cell_angle_gamma 90.000000
_cell_volume 734.736975
_symmetry_space_group_name_H-M "P 21 21 21"
_symmetry_group_IT_number 19
_symmetry_cell_setting 'orthorhombic'
loop_
_space_group_symop_operation_xyz
x,y,z
1/2-x,-y,1/2+z
1/2+x,1/2-y,-z
-x,1/2+y,1/2-z
loop_
_atom_site_type_symbol
_atom_site_label
_atom_site_fract_x
_atom_site_fract_y
_atom_site_fract_z
Si Si1 0.865714 0.601823 0.260239
Si Si2 0.615974 0.027161 0.091259
Si Si3 0.251451 0.194316 0.530827
Si Si4 0.386402 0.605919 0.741074
Si Si5 0.903314 0.247518 0.906084
O O1 0.664379 0.533571 0.312484
O O2 0.849666 0.626843 0.082935
O O3 0.726048 0.675670 0.338257
O O4 0.161972 0.583581 0.327817
O O5 0.755449 0.945925 0.124594
O O6 0.568271 0.053643 0.913465
O O7 0.512559 0.241860 0.461568
O O8 0.364583 0.152104 0.682856
O O9 0.180154 0.671831 0.684574
O O10 0.721739 0.242555 0.063241
#
# Coordination Sequence:
#
# PCOD9316027 Si02
#       5
#     4   4   4   4   4
#     4  12  25  50  74 115 154 207 267 325 398 469
#     4  12  29  48  79 110 162 212 257 327 405 481
#     4  12  28  46  79 117 158 202 265 335 390 462
#     4  12  28  52  78 118 162 209 266 326 402 477
#     4  12  24  46  82 110 150 208 269 329 389 467
#
# _framework density 27.220627
#
# number of rings (size 3 to 8) (size 9 to 14) (size 15 to 20)
#    0.000    0.000    6.000    2.400    2.800    8.000 
#    0.000    0.000    0.000    0.000    0.000    0.000 
#    0.000    0.000    0.000    0.000    0.000    0.000 
#
# Total GULP energy -112231.939215 kJ/mol
# GULP energy per Si atom -5611.596961 kJ/mol
# Density = 2.715867 g / cm^3
# Si number density = 27.220627 Si / 1000 Ang^3
#
#
#
# Elastic Constant Matrix: (Units=GPa)
#
#
# Indices 1 2 3 4 5 6 
#
# 1 155.4816 24.3030 77.4870 0.0000 0.0000 0.0000
# 2 24.3030 118.1979 53.9062 0.0000 0.0000 0.0000
# 3 77.4870 53.9062 167.3178 0.0000 0.0000 0.0000
# 4 0.0000 0.0000 0.0000 73.4114 0.0000 0.0000
# 5 0.0000 0.0000 0.0000 0.0000 47.1691 0.0000
# 6 0.0000 0.0000 0.0000 0.0000 0.0000 47.6911
#
#
#
# Elastic Compliance Matrix: (Units=1/GPa)
#
#
# Indices 1 2 3 4 5 6 
#
# 1 0.008362 0.000055 -0.003890 0.000000 0.000000 0.000000
# 2 0.000055 0.009918 -0.003221 0.000000 0.000000 0.000000
# 3 -0.003890 -0.003221 0.008816 0.000000 0.000000 0.000000
# 4 0.000000 0.000000 0.000000 0.013622 0.000000 0.000000
# 5 0.000000 0.000000 0.000000 0.000000 0.021200 0.000000
# 6 0.000000 0.000000 0.000000 0.000000 0.000000 0.020968
#
#
# Mechanical properties :
#
#
# Convention : Reuss Voigt Hill
#
# Bulk Modulus (GPa) = 77.02030 83.59886 80.30958
# Shear Modulus (GPa) = 49.34568 52.67440 51.01004
#
# Velocity S-wave (km/s) = 4.26232 4.40374 4.33361
# Velocity P-wave (km/s) = 7.25117 7.52566 7.38969
#
# Compressibility (1/GPa) = 0.01298359
#
# Stress axis : x y z
#
# Youngs Moduli (GPa) = 119.59205 100.82681 113.43172
#
# Poissons Ratio (x) = -0.00553 0.44126
# Poissons Ratio (y) = -0.00656 0.36534
# Poissons Ratio (z) = 0.46523 0.32474
#
# Static dielectric constant tensor:
#      x y z
#    x 2.027360 0.000000 0.000000 
#    y 0.000000 2.111110 0.000000 
#    z 0.000000 0.000000 2.233440 
# 
# From -- ./inp_files/1670.got.cif
#   From: 2010.05.17/outbox.cif.g08.bks.cpg/sg19_1_cif.got.tgz:1670.got - 2010.06.03 22:46:19.
