data_PCOD9316686
_publ_section_title
;
Structure prediction by ZEFSAII (Michael W. Deem and Ramdas Pophale) SiO2 
 PCOD9316686
Probable space group: C 2 2 21
;
_chemical_formula_sum "Si O2"
_cell_formula_units_Z 48
_cell_length_a 9.114060
_cell_length_b 16.522247
_cell_length_c 16.655789
_cell_angle_alpha 90.000000
_cell_angle_beta 90.000000
_cell_angle_gamma 90.000000
_cell_volume 2508.107831
_symmetry_space_group_name_H-M "C 2 2 21"
_symmetry_group_IT_number 20
_symmetry_cell_setting 'orthorhombic'
loop_
_space_group_symop_operation_xyz
x,y,z
-x,-y,1/2+z
x,-y,-z
-x,y,1/2-z
1/2+x,1/2+y,z
1/2-x,1/2-y,1/2+z
1/2+x,1/2-y,-z
1/2-x,1/2+y,1/2-z
loop_
_atom_site_type_symbol
_atom_site_label
_atom_site_fract_x
_atom_site_fract_y
_atom_site_fract_z
Si Si1 0.711387 0.671198 0.847333
Si Si2 0.353762 0.599232 0.079223
Si Si3 0.327201 0.265547 0.175963
Si Si4 0.456220 0.427249 0.103911
Si Si5 0.501350 0.233126 0.617956
Si Si6 0.565261 0.807766 0.936531
O O1 0.656230 0.724118 0.771372
O O2 0.621577 0.589295 0.863898
O O3 0.885817 0.670932 0.840321
O O4 0.664573 0.727403 0.922268
O O5 0.394075 0.515641 0.122471
O O6 0.424012 0.678535 0.118367
O O7 0.179406 0.618185 0.073259
O O8 0.427254 0.589075 0.990778
O O9 0.368567 0.354874 0.145071
O O10 0.429955 0.203181 0.125954
O O11 0.157544 0.254973 0.155216
O O12 0.488230 0.200052 0.527274
#
# Coordination Sequence:
#
# PCOD9316686 Si02
#       6
#     8   8   8   8   8   8
#     4  10  21  35  58  87 117 160 197 235 301 364
#     4  10  20  34  59  87 111 144 202 248 294 338
#     4  11  20  36  60  84 121 158 191 241 302 362
#     4  10  19  36  56  82 116 152 193 241 299 357
#     4  11  19  36  60  91 113 151 202 251 285 356
#     4  10  18  35  58  85 111 150 196 247 285 344
#
# _framework density 19.137931999999999
#
# number of rings (size 3 to 8) (size 9 to 14) (size 15 to 20)
#    0.000    1.667    5.000    3.500    0.000    0.000 
#    0.000    8.333    0.000    4.000    0.000    0.000 
#    0.000    0.000    0.000    0.000    0.000    0.000 
#
# Total GULP energy -133613.563676 kJ/mol
# GULP energy per Si atom -5567.231820 kJ/mol
# Density = 1.909437 g / cm^3
# Si number density = 19.137932 Si / 1000 Ang^3
#
#
#
# Elastic Constant Matrix: (Units=GPa)
#
#
# Indices 1 2 3 4 5 6 
#
# 1 144.9743 42.4654 28.0330 0.0000 0.0000 0.0000
# 2 42.4654 87.5569 3.6068 0.0000 0.0000 0.0000
# 3 28.0330 3.6068 65.2859 0.0000 0.0000 0.0000
# 4 0.0000 0.0000 0.0000 14.0592 0.0000 0.0000
# 5 0.0000 0.0000 0.0000 0.0000 24.9469 0.0000
# 6 0.0000 0.0000 0.0000 0.0000 0.0000 29.4170
#
#
#
# Elastic Compliance Matrix: (Units=1/GPa)
#
#
# Indices 1 2 3 4 5 6 
#
# 1 0.008789 -0.004117 -0.003547 0.000000 0.000000 0.000000
# 2 -0.004117 0.013375 0.001029 0.000000 0.000000 0.000000
# 3 -0.003547 0.001029 0.016783 0.000000 0.000000 0.000000
# 4 0.000000 0.000000 0.000000 0.071128 0.000000 0.000000
# 5 0.000000 0.000000 0.000000 0.000000 0.040085 0.000000
# 6 0.000000 0.000000 0.000000 0.000000 0.000000 0.033994
#
#
# Mechanical properties :
#
#
# Convention : Reuss Voigt Hill
#
# Bulk Modulus (GPa) = 38.94263 49.55859 44.25061
# Shear Modulus (GPa) = 24.27374 28.59875 26.43624
#
# Velocity S-wave (km/s) = 3.56526 3.86987 3.72069
# Velocity P-wave (km/s) = 6.11071 6.77640 6.45214
#
# Compressibility (1/GPa) = 0.02567880
#
# Stress axis : x y z
#
# Youngs Moduli (GPa) = 113.77263 74.76391 59.58305
#
# Poissons Ratio (x) = 0.30779 0.21132
# Poissons Ratio (y) = 0.46838 -0.06130
# Poissons Ratio (z) = 0.40351 -0.07691
#
# Static dielectric constant tensor:
#      x y z
#    x 1.766150 0.000000 0.000000 
#    y 0.000000 1.652300 0.000000 
#    z 0.000000 0.000000 1.906980 
# 
# From -- ./inp_files/23602.got.cif
#   From: 2010.05.17/outbox.cif.g08.bks.cpg/sg20_12_cif.got.tgz:23602.got - 2010.06.03 22:52:26.
