data_PCOD9316819
_publ_section_title
;
Structure prediction by ZEFSAII (Michael W. Deem and Ramdas Pophale) SiO2 
 PCOD9316819
Probable space group: C 2 2 21
;
_chemical_formula_sum "Si O2"
_cell_formula_units_Z 60
_cell_length_a 11.428586
_cell_length_b 21.312923
_cell_length_c 12.189564
_cell_angle_alpha 90.000000
_cell_angle_beta 90.000000
_cell_angle_gamma 90.000000
_cell_volume 2969.092231
_symmetry_space_group_name_H-M "C 2 2 21"
_symmetry_group_IT_number 20
_symmetry_cell_setting 'orthorhombic'
loop_
_space_group_symop_operation_xyz
x,y,z
-x,-y,1/2+z
x,-y,-z
-x,y,1/2-z
1/2+x,1/2+y,z
1/2-x,1/2-y,1/2+z
1/2+x,1/2-y,-z
1/2-x,1/2+y,1/2-z
loop_
_atom_site_type_symbol
_atom_site_label
_atom_site_fract_x
_atom_site_fract_y
_atom_site_fract_z
Si Si1 0.927991 0.105852 0.645378
Si Si2 0.999596 0.242443 0.912458
Si Si3 0.180064 0.665993 0.702417
Si Si4 0.691873 0.787094 0.736877
Si Si5 0.953159 0.339325 0.425217
Si Si6 0.423388 0.054625 0.411307
Si Si7 0.182456 0.431824 0.688983
Si Si8 0.665865 0.500000 0.000000
O O1 0.989535 0.168605 0.601199
O O2 0.800310 0.130028 0.683104
O O3 0.910885 0.054251 0.553803
O O4 0.000000 0.082536 0.750000
O O5 0.089089 0.275685 0.826662
O O6 0.869255 0.261874 0.875178
O O7 0.039434 0.268724 0.029225
O O8 0.208531 0.740296 0.717828
O O9 0.120171 0.649347 0.816844
O O10 0.088378 0.647532 0.607575
O O11 0.719629 0.859523 0.712521
O O12 0.900671 0.382598 0.519759
O O13 0.335068 0.040369 0.311621
O O14 0.551656 0.066749 0.360708
O O15 0.427949 0.000000 0.500000
O O16 0.259370 0.469353 0.600355
#
# Coordination Sequence:
#
# PCOD9316819 Si02
#       8
#     8   8   8   8   8   8   8   4
#     4  11  24  49  67  91 129 190 236 273 328 404
#     4  10  18  38  67  91 124 163 225 275 343 392
#     4  10  24  37  65  95 141 163 217 284 344 410
#     4  10  18  39  61  94 120 171 210 275 332 398
#     4  11  22  38  59 107 134 168 211 285 357 407
#     4  11  22  37  61  91 137 180 213 272 345 424
#     4  11  22  40  62  96 136 172 228 276 338 409
#     4  12  28  42  68  98 132 194 236 280 328 404
#
# _framework density 20.208196999999998
#
# number of rings (size 3 to 8) (size 9 to 14) (size 15 to 20)
#    0.000    1.333    6.000    1.600    3.733    2.133 
#    0.000    2.667    0.000    0.000    0.000    0.000 
#    0.000    0.000    0.000    0.000    0.000    0.000 
#
# Total GULP energy -167349.397117 kJ/mol
# GULP energy per Si atom -5578.313237 kJ/mol
# Density = 2.016220 g / cm^3
# Si number density = 20.208197 Si / 1000 Ang^3
#
#
#
# Elastic Constant Matrix: (Units=GPa)
#
#
# Indices 1 2 3 4 5 6 
#
# 1 18.3256 -1.4437 5.1710 0.0000 0.0000 0.0000
# 2 -1.4437 85.4157 35.2512 0.0000 0.0000 0.0000
# 3 5.1710 35.2512 103.4931 0.0000 0.0000 0.0000
# 4 0.0000 0.0000 0.0000 42.2777 0.0000 0.0000
# 5 0.0000 0.0000 0.0000 0.0000 18.0124 0.0000
# 6 0.0000 0.0000 0.0000 0.0000 0.0000 6.6458
#
#
#
# Elastic Compliance Matrix: (Units=1/GPa)
#
#
# Indices 1 2 3 4 5 6 
#
# 1 0.055781 0.002435 -0.003617 0.000000 0.000000 0.000000
# 2 0.002435 0.013729 -0.004798 0.000000 0.000000 0.000000
# 3 -0.003617 -0.004798 0.011477 0.000000 0.000000 0.000000
# 4 0.000000 0.000000 0.000000 0.023653 0.000000 0.000000
# 5 0.000000 0.000000 0.000000 0.000000 0.055517 0.000000
# 6 0.000000 0.000000 0.000000 0.000000 0.000000 0.150470
#
#
# Mechanical properties :
#
#
# Convention : Reuss Voigt Hill
#
# Bulk Modulus (GPa) = 14.48669 31.68792 23.08731
# Shear Modulus (GPa) = 14.46779 24.60424 19.53601
#
# Velocity S-wave (km/s) = 2.67860 3.49311 3.11261
# Velocity P-wave (km/s) = 4.09278 5.65543 4.93633
#
# Compressibility (1/GPa) = 0.06902886
#
# Stress axis : x y z
#
# Youngs Moduli (GPa) = 17.92728 72.84009 87.12768
#
# Poissons Ratio (x) = -0.17739 0.31511
# Poissons Ratio (y) = -0.04366 0.41803
# Poissons Ratio (z) = 0.06484 0.34948
#
# Static dielectric constant tensor:
#      x y z
#    x 1.712490 0.000000 0.000000 
#    y 0.000000 1.742490 0.000000 
#    z 0.000000 0.000000 1.763730 
# 
# From -- ./inp_files/14370.got.cif
#   From: 2010.05.17/outbox.cif.g08.bks.cpg/sg20_8_cif.got.tgz:14370.got - 2010.06.03 22:52:26.
