data_PCOD9316245
_publ_section_title
;
Structure prediction by ZEFSAII (Michael W. Deem and Ramdas Pophale) SiO2 
 PCOD9316245
Probable space group: C 2 2 21
;
_chemical_formula_sum "Si O2"
_cell_formula_units_Z 36
_cell_length_a 17.955156
_cell_length_b 5.174968
_cell_length_c 20.244157
_cell_angle_alpha 90.000000
_cell_angle_beta 90.000000
_cell_angle_gamma 90.000000
_cell_volume 1881.033578
_symmetry_space_group_name_H-M "C 2 2 21"
_symmetry_group_IT_number 20
_symmetry_cell_setting 'orthorhombic'
loop_
_space_group_symop_operation_xyz
x,y,z
-x,-y,1/2+z
x,-y,-z
-x,y,1/2-z
1/2+x,1/2+y,z
1/2-x,1/2-y,1/2+z
1/2+x,1/2-y,-z
1/2-x,1/2+y,1/2-z
loop_
_atom_site_type_symbol
_atom_site_label
_atom_site_fract_x
_atom_site_fract_y
_atom_site_fract_z
Si Si1 0.094691 0.500000 0.500000
Si Si2 0.725263 0.728405 0.709985
Si Si3 0.706469 0.392235 0.430521
Si Si4 0.550629 0.174259 0.313045
Si Si5 0.938141 0.161111 0.108565
O O1 0.149879 0.663307 0.452632
O O2 0.044638 0.706291 0.538769
O O3 0.740546 0.471603 0.752006
O O4 0.752693 0.695845 0.633449
O O5 0.636700 0.773961 0.704441
O O6 0.739385 0.500000 0.500000
O O7 0.650786 0.610715 0.401218
O O8 0.500000 0.213517 0.250000
O O9 0.529460 0.389137 0.368127
O O10 0.545168 0.882487 0.338762
#
# Coordination Sequence:
#
# PCOD9316245 Si02
#       5
#     4   8   8   8   8
#     4  10  16  32  56  82 116 132 192 256 280 310
#     4  11  22  36  56  88 118 146 189 241 286 334
#     4   9  19  32  56  83 116 146 191 244 288 328
#     4  11  22  37  55  82 118 152 183 223 288 356
#     4  10  18  32  53  84 110 137 187 235 283 314
#
# _framework density 19.138417
#
# number of rings (size 3 to 8) (size 9 to 14) (size 15 to 20)
#    0.000    1.778    4.444    3.333    3.111    0.000 
#    0.000    0.000    0.000    0.000   17.333    0.000 
#    0.000    0.000    0.000    0.000    0.000    0.000 
#
# Total GULP energy -100217.504403 kJ/mol
# GULP energy per Si atom -5567.639134 kJ/mol
# Density = 1.909486 g / cm^3
# Si number density = 19.138417 Si / 1000 Ang^3
#
#
#
# Elastic Constant Matrix: (Units=GPa)
#
#
# Indices 1 2 3 4 5 6 
#
# 1 6.7962 -1.8058 8.9442 0.0000 0.0000 0.0000
# 2 -1.8058 122.9743 42.7111 0.0000 0.0000 0.0000
# 3 8.9442 42.7111 128.1997 0.0000 0.0000 0.0000
# 4 0.0000 0.0000 0.0000 54.3396 0.0000 0.0000
# 5 0.0000 0.0000 0.0000 0.0000 33.7566 0.0000
# 6 0.0000 0.0000 0.0000 0.0000 0.0000 10.2787
#
#
#
# Elastic Compliance Matrix: (Units=1/GPa)
#
#
# Indices 1 2 3 4 5 6 
#
# 1 0.167742 0.007382 -0.014162 0.000000 0.000000 0.000000
# 2 0.007382 0.009521 -0.003687 0.000000 0.000000 0.000000
# 3 -0.014162 -0.003687 0.010017 0.000000 0.000000 0.000000
# 4 0.000000 0.000000 0.000000 0.018403 0.000000 0.000000
# 5 0.000000 0.000000 0.000000 0.000000 0.029624 0.000000
# 6 0.000000 0.000000 0.000000 0.000000 0.000000 0.097289
#
#
# Mechanical properties :
#
#
# Convention : Reuss Voigt Hill
#
# Bulk Modulus (GPa) = 6.01160 39.74101 22.87631
# Shear Modulus (GPa) = 12.22559 33.54967 22.88763
#
# Velocity S-wave (km/s) = 2.53019 4.19143 3.46193
# Velocity P-wave (km/s) = 3.41815 6.65088 5.28763
#
# Compressibility (1/GPa) = 0.16634493
#
# Stress axis : x y z
#
# Youngs Moduli (GPa) = 5.96153 105.03398 99.83263
#
# Poissons Ratio (x) = -0.77537 1.41387
# Poissons Ratio (y) = -0.04401 0.36808
# Poissons Ratio (z) = 0.08443 0.38726
#
# Static dielectric constant tensor:
#      x y z
#    x 1.632790 0.000000 0.000000 
#    y 0.000000 1.734970 0.000000 
#    z 0.000000 0.000000 1.787580 
# 
# From -- ./inp_files/25377.got.cif
#   From: 2010.05.17/outbox.cif.g08.bks.cpg/sg20_13_cif.got.tgz:25377.got - 2010.06.03 22:52:26.
