data_PCOD9316713
_publ_section_title
;
Structure prediction by ZEFSAII (Michael W. Deem and Ramdas Pophale) SiO2 
 PCOD9316713
Probable space group: C 2 2 21
;
_chemical_formula_sum "Si O2"
_cell_formula_units_Z 64
_cell_length_a 8.728049
_cell_length_b 18.724010
_cell_length_c 20.379173
_cell_angle_alpha 90.000000
_cell_angle_beta 90.000000
_cell_angle_gamma 90.000000
_cell_volume 3330.447533
_symmetry_space_group_name_H-M "C 2 2 21"
_symmetry_group_IT_number 20
_symmetry_cell_setting 'orthorhombic'
loop_
_space_group_symop_operation_xyz
x,y,z
-x,-y,1/2+z
x,-y,-z
-x,y,1/2-z
1/2+x,1/2+y,z
1/2-x,1/2-y,1/2+z
1/2+x,1/2-y,-z
1/2-x,1/2+y,1/2-z
loop_
_atom_site_type_symbol
_atom_site_label
_atom_site_fract_x
_atom_site_fract_y
_atom_site_fract_z
Si Si1 0.614760 0.413781 0.855545
Si Si2 0.527672 0.799102 0.445712
Si Si3 0.176538 0.619780 0.233115
Si Si4 0.824998 0.562859 0.410047
Si Si5 0.936050 0.967213 0.070163
Si Si6 0.412531 0.276587 0.813531
Si Si7 0.842322 0.576779 0.029156
Si Si8 0.180418 0.168290 0.517751
O O1 0.727237 0.415105 0.792684
O O2 0.527532 0.487709 0.874728
O O3 0.499980 0.349157 0.837926
O O4 0.714464 0.395908 0.920183
O O5 0.581313 0.777081 0.373492
O O6 0.615658 0.868710 0.471689
O O7 0.343505 0.809600 0.450260
O O8 0.583298 0.735514 0.493600
O O9 0.188898 0.575273 0.166697
O O10 0.250486 0.695676 0.213080
O O11 0.000000 0.627099 0.250000
O O12 0.743274 0.488345 0.424284
O O13 0.731893 0.621241 0.453691
O O14 0.999725 0.566893 0.431026
O O15 0.927923 0.882291 0.062551
O O16 0.984066 0.000000 0.000000
O O17 0.500000 0.247904 0.750000
O O18 0.802764 0.500000 0.000000
#
# Coordination Sequence:
#
# PCOD9316713 Si02
#       8
#     8   8   8   8   8   8   8   8
#     4  11  21  34  60  93 120 159 209 259 300 364
#     4  11  21  38  61  91 125 162 209 256 313 377
#     4  11  20  36  61  90 125 167 216 256 293 367
#     4  10  18  36  57  86 125 164 207 244 312 357
#     4  10  19  35  58  85 126 159 197 254 314 354
#     4  10  21  38  62  88 122 165 209 251 304 369
#     4  11  23  37  59  92 124 156 203 262 316 370
#     4  10  21  35  61  92 121 166 199 259 312 372
#
# _framework density 19.216635
#
# number of rings (size 3 to 8) (size 9 to 14) (size 15 to 20)
#    0.000    1.500    3.750    3.750    0.000    1.000 
#    0.000    0.000    5.500    0.000    0.000    0.000 
#    0.000    0.000    0.000    0.000    0.000    0.000 
#
# Total GULP energy -178573.175165 kJ/mol
# GULP energy per Si atom -5580.411724 kJ/mol
# Density = 1.917290 g / cm^3
# Si number density = 19.216635 Si / 1000 Ang^3
#
#
#
# Elastic Constant Matrix: (Units=GPa)
#
#
# Indices 1 2 3 4 5 6 
#
# 1 94.2097 26.8496 34.6113 0.0000 0.0000 0.0000
# 2 26.8496 87.7862 41.2851 0.0000 0.0000 0.0000
# 3 34.6113 41.2851 120.2200 0.0000 0.0000 0.0000
# 4 0.0000 0.0000 0.0000 27.3009 0.0000 0.0000
# 5 0.0000 0.0000 0.0000 0.0000 27.2369 0.0000
# 6 0.0000 0.0000 0.0000 0.0000 0.0000 18.0905
#
#
#
# Elastic Compliance Matrix: (Units=1/GPa)
#
#
# Indices 1 2 3 4 5 6 
#
# 1 0.012315 -0.002503 -0.002686 0.000000 0.000000 0.000000
# 2 -0.002503 0.014094 -0.004119 0.000000 0.000000 0.000000
# 3 -0.002686 -0.004119 0.010506 0.000000 0.000000 0.000000
# 4 0.000000 0.000000 0.000000 0.036629 0.000000 0.000000
# 5 0.000000 0.000000 0.000000 0.000000 0.036715 0.000000
# 6 0.000000 0.000000 0.000000 0.000000 0.000000 0.055278
#
#
# Mechanical properties :
#
#
# Convention : Reuss Voigt Hill
#
# Bulk Modulus (GPa) = 54.65105 56.41200 55.53152
# Shear Modulus (GPa) = 26.28082 27.82366 27.05224
#
# Velocity S-wave (km/s) = 3.70213 3.80925 3.75607
# Velocity P-wave (km/s) = 6.83926 6.98332 6.91167
#
# Compressibility (1/GPa) = 0.01829791
#
# Stress axis : x y z
#
# Youngs Moduli (GPa) = 81.20322 70.95043 95.18403
#
# Poissons Ratio (x) = 0.17762 0.25564
# Poissons Ratio (y) = 0.20329 0.39211
# Poissons Ratio (z) = 0.21809 0.29228
#
# Static dielectric constant tensor:
#      x y z
#    x 1.720610 0.000000 0.000000 
#    y 0.000000 1.677250 0.000000 
#    z 0.000000 0.000000 1.666450 
# 
# From -- ./inp_files/26865.got.cif
#   From: 2010.05.17/outbox.cif.g08.bks.cpg/sg20_14_cif.got.tgz:26865.got - 2010.06.03 22:52:26.
