data_PCOD9316544
_publ_section_title
;
Structure prediction by ZEFSAII (Michael W. Deem and Ramdas Pophale) SiO2 
 PCOD9316544
Probable space group: C 2 2 21
;
_chemical_formula_sum "Si O2"
_cell_formula_units_Z 60
_cell_length_a 18.791416
_cell_length_b 13.170082
_cell_length_c 13.491089
_cell_angle_alpha 90.000000
_cell_angle_beta 90.000000
_cell_angle_gamma 90.000000
_cell_volume 3338.835276
_symmetry_space_group_name_H-M "C 2 2 21"
_symmetry_group_IT_number 20
_symmetry_cell_setting 'orthorhombic'
loop_
_space_group_symop_operation_xyz
x,y,z
-x,-y,1/2+z
x,-y,-z
-x,y,1/2-z
1/2+x,1/2+y,z
1/2-x,1/2-y,1/2+z
1/2+x,1/2-y,-z
1/2-x,1/2+y,1/2-z
loop_
_atom_site_type_symbol
_atom_site_label
_atom_site_fract_x
_atom_site_fract_y
_atom_site_fract_z
Si Si1 0.102126 0.704467 0.583787
Si Si2 0.646697 0.939303 0.258319
Si Si3 0.500000 0.936838 0.750000
Si Si4 0.717401 0.522218 0.337852
Si Si5 0.420571 0.624696 0.249137
Si Si6 0.361103 0.233045 0.588842
Si Si7 0.216086 0.170602 0.520892
Si Si8 0.469592 0.115347 0.468638
O O1 0.152678 0.625341 0.641248
O O2 0.076164 0.783544 0.668162
O O3 0.145599 0.766802 0.502491
O O4 0.036855 0.645999 0.535347
O O5 0.714937 0.007880 0.233834
O O6 0.640259 0.859013 0.168528
O O7 0.571744 0.997274 0.262659
O O8 0.511482 0.879220 0.853231
O O9 0.644096 0.553474 0.285270
O O10 0.734102 0.609031 0.419650
O O11 0.706849 0.416823 0.396971
O O12 0.500000 0.579546 0.250000
O O13 0.397147 0.674093 0.353615
O O14 0.280140 0.243537 0.553795
O O15 0.407440 0.192016 0.498214
O O16 0.449169 0.000000 0.500000
#
# Coordination Sequence:
#
# PCOD9316544 Si02
#       8
#     8   8   4   8   8   8   8   8
#     4  10  20  35  56  80 115 148 184 237 292 343
#     4  10  18  32  54  85 111 143 185 230 284 345
#     4  12  22  30  52  88 114 146 186 220 288 354
#     4   9  19  34  57  83 110 151 202 235 270 344
#     4  10  19  35  60  84 106 150 205 239 276 335
#     4  10  19  33  56  80 113 145 188 237 282 343
#     4   9  19  35  55  80 112 154 187 233 289 333
#     4  12  21  33  54  83 115 152 180 233 286 341
#
# _framework density 17.97034
#
# number of rings (size 3 to 8) (size 9 to 14) (size 15 to 20)
#    0.000    1.867    4.000    0.800    3.733    1.067 
#    0.000    2.667    4.400    0.000    0.000    0.000 
#    0.000    0.000    0.000    0.000    0.000    0.000 
#
# Total GULP energy -167323.116874 kJ/mol
# GULP energy per Si atom -5577.437229 kJ/mol
# Density = 1.792944 g / cm^3
# Si number density = 17.970340 Si / 1000 Ang^3
#
#
#
# Elastic Constant Matrix: (Units=GPa)
#
#
# Indices 1 2 3 4 5 6 
#
# 1 99.4437 23.5142 18.8913 0.0000 0.0000 0.0000
# 2 23.5142 27.1584 5.3094 0.0000 0.0000 0.0000
# 3 18.8913 5.3094 53.5278 0.0000 0.0000 0.0000
# 4 0.0000 0.0000 0.0000 15.5981 0.0000 0.0000
# 5 0.0000 0.0000 0.0000 0.0000 32.4105 0.0000
# 6 0.0000 0.0000 0.0000 0.0000 0.0000 17.3123
#
#
#
# Elastic Compliance Matrix: (Units=1/GPa)
#
#
# Indices 1 2 3 4 5 6 
#
# 1 0.013299 -0.010807 -0.003622 0.000000 0.000000 0.000000
# 2 -0.010807 0.046330 -0.000782 0.000000 0.000000 0.000000
# 3 -0.003622 -0.000782 0.020038 0.000000 0.000000 0.000000
# 4 0.000000 0.000000 0.000000 0.064110 0.000000 0.000000
# 5 0.000000 0.000000 0.000000 0.000000 0.030854 0.000000
# 6 0.000000 0.000000 0.000000 0.000000 0.000000 0.057762
#
#
# Mechanical properties :
#
#
# Convention : Reuss Voigt Hill
#
# Bulk Modulus (GPa) = 20.30564 30.61773 25.46169
# Shear Modulus (GPa) = 17.90638 21.89184 19.89911
#
# Velocity S-wave (km/s) = 3.16007 3.49409 3.33127
# Velocity P-wave (km/s) = 4.96375 5.77522 5.38479
#
# Compressibility (1/GPa) = 0.04924740
#
# Stress axis : x y z
#
# Youngs Moduli (GPa) = 75.19192 21.58409 49.90612
#
# Poissons Ratio (x) = 0.23325 0.18075
# Poissons Ratio (y) = 0.81258 0.03900
# Poissons Ratio (z) = 0.27233 0.01687
#
# Static dielectric constant tensor:
#      x y z
#    x 1.615100 0.000000 0.000000 
#    y 0.000000 1.607550 0.000000 
#    z 0.000000 0.000000 1.624680 
# 
# From -- ./inp_files/21451.got.cif
#   From: 2010.05.17/outbox.cif.g08.bks.cpg/sg20_11_cif.got.tgz:21451.got - 2010.06.03 22:52:26.
