data_PCOD9316294
_publ_section_title
;
Structure prediction by ZEFSAII (Michael W. Deem and Ramdas Pophale) SiO2 
 PCOD9316294
Probable space group: C 2 2 21
;
_chemical_formula_sum "Si O2"
_cell_formula_units_Z 60
_cell_length_a 5.606135
_cell_length_b 14.438081
_cell_length_c 30.115696
_cell_angle_alpha 90.000000
_cell_angle_beta 90.000000
_cell_angle_gamma 90.000000
_cell_volume 2437.619583
_symmetry_space_group_name_H-M "C 2 2 21"
_symmetry_group_IT_number 20
_symmetry_cell_setting 'orthorhombic'
loop_
_space_group_symop_operation_xyz
x,y,z
-x,-y,1/2+z
x,-y,-z
-x,y,1/2-z
1/2+x,1/2+y,z
1/2-x,1/2-y,1/2+z
1/2+x,1/2-y,-z
1/2-x,1/2+y,1/2-z
loop_
_atom_site_type_symbol
_atom_site_label
_atom_site_fract_x
_atom_site_fract_y
_atom_site_fract_z
Si Si1 0.037751 0.582972 0.657086
Si Si2 0.518323 0.198195 0.325218
Si Si3 0.651436 0.165195 0.511999
Si Si4 0.980218 0.783000 0.800600
Si Si5 0.483325 0.500000 0.000000
Si Si6 0.035559 0.082362 0.698574
Si Si7 0.517154 0.746118 0.923201
Si Si8 0.212656 0.571377 0.930265
O O1 0.037503 0.694943 0.665828
O O2 0.796675 0.551023 0.682205
O O3 0.986585 0.555992 0.606392
O O4 0.296460 0.550662 0.673037
O O5 0.778290 0.161941 0.311519
O O6 0.533846 0.305302 0.307967
O O7 0.489584 0.196489 0.378327
O O8 0.269831 0.163444 0.304862
O O9 0.854705 0.088760 0.508136
O O10 0.627227 0.212428 0.464615
O O11 0.727940 0.228997 0.553612
O O12 0.411074 0.115841 0.526612
O O13 0.000000 0.747111 0.750000
O O14 0.345657 0.486819 0.953194
O O15 0.000000 0.061075 0.750000
O O16 0.396370 0.647078 0.910925
#
# Coordination Sequence:
#
# PCOD9316294 Si02
#       8
#     8   8   8   8   4   8   8   8
#     4  10  18  28  49  72 108 152 193 231 284 367
#     4  10  18  28  44  75 109 151 188 236 284 365
#     4  11  22  39  59  83 116 158 207 261 301 373
#     4  10  17  28  45  72 114 161 184 226 300 373
#     4  10  26  40  58  80 118 166 208 258 314 368
#     4  10  17  28  44  74 114 157 181 227 302 371
#     4  11  21  33  58  85 113 155 206 248 311 352
#     4  11  21  39  54  84 113 162 205 248 308 364
#
# _framework density 24.614179
#
# number of rings (size 3 to 8) (size 9 to 14) (size 15 to 20)
#    0.000    1.600    4.000    6.000    1.867    0.000 
#    0.000    0.000    0.000    0.000    0.000    0.000 
#    0.000    1.067    2.667    0.800    0.000    0.000 
#
# Total GULP energy -167633.622206 kJ/mol
# GULP energy per Si atom -5587.787407 kJ/mol
# Density = 2.455816 g / cm^3
# Si number density = 24.614179 Si / 1000 Ang^3
#
#
#
# Elastic Constant Matrix: (Units=GPa)
#
#
# Indices 1 2 3 4 5 6 
#
# 1 156.7454 2.8340 19.0772 0.0000 0.0000 0.0000
# 2 2.8340 44.0386 -0.2588 0.0000 0.0000 0.0000
# 3 19.0772 -0.2588 117.2742 0.0000 0.0000 0.0000
# 4 0.0000 0.0000 0.0000 3.5303 0.0000 0.0000
# 5 0.0000 0.0000 0.0000 0.0000 49.9856 0.0000
# 6 0.0000 0.0000 0.0000 0.0000 0.0000 -1.9832
#
#
#
# Elastic Compliance Matrix: (Units=1/GPa)
#
#
# Indices 1 2 3 4 5 6 
#
# 1 0.006517 -0.000426 -0.001061 0.000000 0.000000 0.000000
# 2 -0.000426 0.022735 0.000119 0.000000 0.000000 0.000000
# 3 -0.001061 0.000119 0.008700 0.000000 0.000000 0.000000
# 4 0.000000 0.000000 0.000000 0.283261 0.000000 0.000000
# 5 0.000000 0.000000 0.000000 0.000000 0.020006 0.000000
# 6 0.000000 0.000000 0.000000 0.000000 0.000000 -0.504234
#
#
# Mechanical properties :
#
#
# Convention : Reuss Voigt Hill
#
# Bulk Modulus (GPa) = 28.39493 40.15143 34.27318
# Shear Modulus (GPa) = -33.66048 30.06693 -1.79677
#
# Velocity S-wave (km/s) = -3.70202 3.49883 -0.85531
# Velocity P-wave (km/s) = 2.59079 5.71578 3.60263
#
# Compressibility (1/GPa) = 0.03521756
#
# Stress axis : x y z
#
# Youngs Moduli (GPa) = 153.45421 43.98416 114.94404
#
# Poissons Ratio (x) = 0.01872 0.12196
# Poissons Ratio (y) = 0.06531 -0.01373
# Poissons Ratio (z) = 0.16282 -0.00525
#
# Static dielectric constant tensor:
#      x y z
#    x 2.056570 0.000000 0.000000 
#    y 0.000000 1.977720 0.000000 
#    z 0.000000 0.000000 1.892370 
# 
# From -- ./inp_files/30824.got.cif
#   From: 2010.05.17/outbox.cif.g08.bks.cpg/sg20_16_cif.got.tgz:30824.got - 2010.06.03 22:52:26.
