data_PCOD9316378
_publ_section_title
;
Structure prediction by ZEFSAII (Michael W. Deem and Ramdas Pophale) SiO2 
 PCOD9316378
Probable space group: C 2 2 21
;
_chemical_formula_sum "Si O2"
_cell_formula_units_Z 48
_cell_length_a 8.751987
_cell_length_b 27.763548
_cell_length_c 8.416602
_cell_angle_alpha 90.000000
_cell_angle_beta 90.000000
_cell_angle_gamma 90.000000
_cell_volume 2045.118231
_symmetry_space_group_name_H-M "C 2 2 21"
_symmetry_group_IT_number 20
_symmetry_cell_setting 'orthorhombic'
loop_
_space_group_symop_operation_xyz
x,y,z
-x,-y,1/2+z
x,-y,-z
-x,y,1/2-z
1/2+x,1/2+y,z
1/2-x,1/2-y,1/2+z
1/2+x,1/2-y,-z
1/2-x,1/2+y,1/2-z
loop_
_atom_site_type_symbol
_atom_site_label
_atom_site_fract_x
_atom_site_fract_y
_atom_site_fract_z
Si Si1 0.154267 0.823843 0.678597
Si Si2 0.068272 0.266805 0.927123
Si Si3 0.582661 0.428990 0.583233
Si Si4 0.288807 0.429918 0.410805
Si Si5 0.678519 0.022032 0.259245
Si Si6 0.224920 0.676485 0.520175
O O1 0.271068 0.795557 0.567711
O O2 0.100341 0.871778 0.593362
O O3 0.251922 0.837352 0.834786
O O4 0.000000 0.799302 0.750000
O O5 0.000000 0.268068 0.750000
O O6 0.935896 0.293775 0.030305
O O7 0.133190 0.212610 0.947152
O O8 0.500000 0.443566 0.750000
O O9 0.469570 0.438231 0.439588
O O10 0.743674 0.453862 0.606371
O O11 0.231316 0.467194 0.281775
O O12 0.220919 0.448393 0.580012
O O13 0.242941 0.374053 0.387922
O O14 0.500000 0.023529 0.250000
#
# Coordination Sequence:
#
# PCOD9316378 Si02
#       6
#     8   8   8   8   8   8
#     4  10  17  34  62  89 114 157 204 259 299 363
#     4  10  24  36  59  93 127 162 209 258 318 367
#     4   9  17  35  64  88 118 156 212 253 304 366
#     4  10  21  39  63  90 126 165 209 258 316 380
#     4  10  21  38  62  93 126 159 211 266 315 370
#     4  11  20  38  60  88 129 163 213 252 314 375
#
# _framework density 23.470526
#
# number of rings (size 3 to 8) (size 9 to 14) (size 15 to 20)
#    0.000    2.000    5.000    1.000    2.333    0.000 
#    0.000   18.333    0.000    0.000    0.000    0.000 
#    0.000    0.000    0.000    0.000    0.000    0.000 
#
# Total GULP energy -133943.503977 kJ/mol
# GULP energy per Si atom -5580.979332 kJ/mol
# Density = 2.341711 g / cm^3
# Si number density = 23.470526 Si / 1000 Ang^3
#
#
#
# Elastic Constant Matrix: (Units=GPa)
#
#
# Indices 1 2 3 4 5 6 
#
# 1 188.7443 68.8723 24.2898 0.0000 0.0000 0.0000
# 2 68.8723 130.5450 14.4203 0.0000 0.0000 0.0000
# 3 24.2898 14.4203 31.7604 0.0000 0.0000 0.0000
# 4 0.0000 0.0000 0.0000 18.0310 0.0000 0.0000
# 5 0.0000 0.0000 0.0000 0.0000 13.2144 0.0000
# 6 0.0000 0.0000 0.0000 0.0000 0.0000 33.9615
#
#
#
# Elastic Compliance Matrix: (Units=1/GPa)
#
#
# Indices 1 2 3 4 5 6 
#
# 1 0.006984 -0.003258 -0.003862 0.000000 0.000000 0.000000
# 2 -0.003258 0.009584 -0.001860 0.000000 0.000000 0.000000
# 3 -0.003862 -0.001860 0.035284 0.000000 0.000000 0.000000
# 4 0.000000 0.000000 0.000000 0.055460 0.000000 0.000000
# 5 0.000000 0.000000 0.000000 0.000000 0.075675 0.000000
# 6 0.000000 0.000000 0.000000 0.000000 0.000000 0.029445
#
#
# Mechanical properties :
#
#
# Convention : Reuss Voigt Hill
#
# Bulk Modulus (GPa) = 29.50524 62.91273 46.20899
# Shear Modulus (GPa) = 20.68768 29.27255 24.98011
#
# Velocity S-wave (km/s) = 2.97211 3.53541 3.26593
# Velocity P-wave (km/s) = 4.93725 6.59763 5.82688
#
# Compressibility (1/GPa) = 0.03389229
#
# Stress axis : x y z
#
# Youngs Moduli (GPa) = 143.18421 104.33522 28.34158
#
# Poissons Ratio (x) = 0.33992 0.10946
# Poissons Ratio (y) = 0.46649 0.05272
# Poissons Ratio (z) = 0.55298 0.19407
#
# Static dielectric constant tensor:
#      x y z
#    x 1.925200 0.000000 0.000000 
#    y 0.000000 1.906260 0.000000 
#    z 0.000000 0.000000 1.784300 
# 
# From -- ./inp_files/13105.got.cif
#   From: 2010.05.17/outbox.cif.g08.bks.cpg/sg20_7_cif.got.tgz:13105.got - 2010.06.03 22:52:26.
