data_PCOD9316501
_publ_section_title
;
Structure prediction by ZEFSAII (Michael W. Deem and Ramdas Pophale) SiO2 
 PCOD9316501
Probable space group: C 2 2 21
;
_chemical_formula_sum "Si O2"
_cell_formula_units_Z 48
_cell_length_a 13.519470
_cell_length_b 23.784853
_cell_length_c 8.356426
_cell_angle_alpha 90.000000
_cell_angle_beta 90.000000
_cell_angle_gamma 90.000000
_cell_volume 2687.080701
_symmetry_space_group_name_H-M "C 2 2 21"
_symmetry_group_IT_number 20
_symmetry_cell_setting 'orthorhombic'
loop_
_space_group_symop_operation_xyz
x,y,z
-x,-y,1/2+z
x,-y,-z
-x,y,1/2-z
1/2+x,1/2+y,z
1/2-x,1/2-y,1/2+z
1/2+x,1/2-y,-z
1/2-x,1/2+y,1/2-z
loop_
_atom_site_type_symbol
_atom_site_label
_atom_site_fract_x
_atom_site_fract_y
_atom_site_fract_z
Si Si1 0.008848 0.801702 0.070126
Si Si2 0.290258 0.714384 0.888291
Si Si3 0.217128 0.171004 0.983352
Si Si4 0.000000 0.409972 0.750000
Si Si5 0.908718 0.323475 0.537616
Si Si6 0.000000 0.608299 0.750000
Si Si7 0.648463 0.060522 0.521023
O O1 0.099037 0.831898 0.978997
O O2 0.000000 0.825341 0.250000
O O3 0.893962 0.799411 0.024469
O O4 0.045239 0.736868 0.078883
O O5 0.283202 0.694170 0.702548
O O6 0.201747 0.684828 0.980448
O O7 0.268561 0.780923 0.908528
O O8 0.277065 0.113084 0.996946
O O9 0.918878 0.367957 0.677282
O O10 0.941021 0.440961 0.889954
O O11 0.970554 0.350841 0.393888
O O12 0.091943 0.571462 0.688975
O O13 0.698679 0.000000 0.500000
#
# Coordination Sequence:
#
# PCOD9316501 Si02
#       7
#     8   8   8   4   8   4   8
#     4   9  18  31  50  78 110 139 171 211 277 324
#     4  10  19  33  54  83 112 138 174 222 281 334
#     4  10  21  34  55  81 108 144 177 225 271 333
#     4  10  21  34  56  76 112 148 177 224 272 328
#     4  10  18  31  51  78 111 140 173 219 268 327
#     4  10  19  32  52  80 106 136 187 220 264 314
#     4  11  22  37  54  79 109 149 188 225 267 323
#
# _framework density 17.863251999999999
#
# number of rings (size 3 to 8) (size 9 to 14) (size 15 to 20)
#    0.000    2.000    2.500    2.500    4.667    0.000 
#    0.000    0.000    0.000    0.000   13.000    0.000 
#    0.000    0.000    0.000    0.000    0.000    0.000 
#
# Total GULP energy -133672.538169 kJ/mol
# GULP energy per Si atom -5569.689090 kJ/mol
# Density = 1.782259 g / cm^3
# Si number density = 17.863252 Si / 1000 Ang^3
#
#
#
# Elastic Constant Matrix: (Units=GPa)
#
#
# Indices 1 2 3 4 5 6 
#
# 1 97.3164 27.7241 0.7616 0.0000 0.0000 0.0000
# 2 27.7241 95.6636 9.9374 0.0000 0.0000 0.0000
# 3 0.7616 9.9374 35.9580 0.0000 0.0000 0.0000
# 4 0.0000 0.0000 0.0000 8.9610 0.0000 0.0000
# 5 0.0000 0.0000 0.0000 0.0000 23.2372 0.0000
# 6 0.0000 0.0000 0.0000 0.0000 0.0000 20.4794
#
#
#
# Elastic Compliance Matrix: (Units=1/GPa)
#
#
# Indices 1 2 3 4 5 6 
#
# 1 0.011217 -0.003321 0.000680 0.000000 0.000000 0.000000
# 2 -0.003321 0.011746 -0.003176 0.000000 0.000000 0.000000
# 3 0.000680 -0.003176 0.028673 0.000000 0.000000 0.000000
# 4 0.000000 0.000000 0.000000 0.111594 0.000000 0.000000
# 5 0.000000 0.000000 0.000000 0.000000 0.043034 0.000000
# 6 0.000000 0.000000 0.000000 0.000000 0.000000 0.048830
#
#
# Mechanical properties :
#
#
# Convention : Reuss Voigt Hill
#
# Bulk Modulus (GPa) = 24.99855 33.97603 29.48729
# Shear Modulus (GPa) = 17.85320 23.23651 20.54486
#
# Velocity S-wave (km/s) = 3.16482 3.61057 3.39502
# Velocity P-wave (km/s) = 5.23255 6.03680 5.64901
#
# Compressibility (1/GPa) = 0.04000232
#
# Stress axis : x y z
#
# Youngs Moduli (GPa) = 89.15322 85.13726 34.87546
#
# Poissons Ratio (x) = 0.28277 -0.02373
# Poissons Ratio (y) = 0.29611 0.11075
# Poissons Ratio (z) = -0.06065 0.27037
#
# Static dielectric constant tensor:
#      x y z
#    x 1.647880 0.000000 0.000000 
#    y 0.000000 1.616970 0.000000 
#    z 0.000000 0.000000 1.677860 
# 
# From -- ./inp_files/8816.got.cif
#   From: 2010.05.17/outbox.cif.g08.bks.cpg/sg20_5_cif.got.tgz:8816.got - 2010.06.03 22:52:26.
