data_PCOD9316574
_publ_section_title
;
Structure prediction by ZEFSAII (Michael W. Deem and Ramdas Pophale) SiO2 
 PCOD9316574
Probable space group: C 2 2 21
;
_chemical_formula_sum "Si O2"
_cell_formula_units_Z 56
_cell_length_a 21.735267
_cell_length_b 5.838938
_cell_length_c 19.543030
_cell_angle_alpha 90.000000
_cell_angle_beta 90.000000
_cell_angle_gamma 90.000000
_cell_volume 2480.223065
_symmetry_space_group_name_H-M "C 2 2 21"
_symmetry_group_IT_number 20
_symmetry_cell_setting 'orthorhombic'
loop_
_space_group_symop_operation_xyz
x,y,z
-x,-y,1/2+z
x,-y,-z
-x,y,1/2-z
1/2+x,1/2+y,z
1/2-x,1/2-y,1/2+z
1/2+x,1/2-y,-z
1/2-x,1/2+y,1/2-z
loop_
_atom_site_type_symbol
_atom_site_label
_atom_site_fract_x
_atom_site_fract_y
_atom_site_fract_z
Si Si1 0.009426 0.957338 0.121887
Si Si2 0.081554 0.346611 0.336114
Si Si3 0.699384 0.500000 0.500000
Si Si4 0.000000 0.374374 0.750000
Si Si5 0.829167 0.014155 0.799738
Si Si6 0.895882 0.734339 0.072966
Si Si7 0.789595 0.524465 0.627916
Si Si8 0.646488 0.473427 0.140751
O O1 0.079910 0.999281 0.105311
O O2 0.974499 0.171752 0.154439
O O3 0.011323 0.770638 0.182427
O O4 0.960661 0.865061 0.066787
O O5 0.146865 0.232481 0.323895
O O6 0.085984 0.481452 0.406853
O O7 0.060575 0.483897 0.269215
O O8 0.652612 0.708358 0.514779
O O9 0.742621 0.490862 0.565118
O O10 0.755935 0.031759 0.806141
O O11 0.854840 0.036727 0.723605
O O12 0.862909 0.178096 0.855511
O O13 0.819326 0.781380 0.623877
O O14 0.827913 0.285124 0.625023
#
# Coordination Sequence:
#
# PCOD9316574 Si02
#       8
#     8   8   4   4   8   8   8   8
#     4  10  21  36  57 102 134 168 224 259 353 410
#     4  10  19  34  64  98 130 183 210 276 343 407
#     4  10  24  54  70  96 124 174 254 298 336 402
#     4  10  18  32  58  98 140 176 202 262 342 412
#     4  10  22  39  62 102 139 175 236 273 342 411
#     4   9  21  40  70  98 127 177 224 300 342 406
#     4  11  28  44  69  96 132 194 236 278 338 395
#     4  12  25  42  67 102 147 181 217 285 343 430
#
# _framework density 22.578612
#
# number of rings (size 3 to 8) (size 9 to 14) (size 15 to 20)
#    0.000    1.714    0.000    4.714   12.000    0.571 
#    5.143    1.429    0.000    0.000    0.000    0.000 
#    0.000    0.000    0.000    0.000    0.000    0.000 
#
# Total GULP energy -156108.957758 kJ/mol
# GULP energy per Si atom -5575.319920 kJ/mol
# Density = 2.252722 g / cm^3
# Si number density = 22.578612 Si / 1000 Ang^3
#
#
#
# Elastic Constant Matrix: (Units=GPa)
#
#
# Indices 1 2 3 4 5 6 
#
# 1 140.0940 56.7890 15.5880 0.0000 0.0000 0.0000
# 2 56.7890 115.3331 16.9504 0.0000 0.0000 0.0000
# 3 15.5880 16.9504 51.6342 0.0000 0.0000 0.0000
# 4 0.0000 0.0000 0.0000 25.3444 0.0000 0.0000
# 5 0.0000 0.0000 0.0000 0.0000 28.1945 0.0000
# 6 0.0000 0.0000 0.0000 0.0000 0.0000 18.6767
#
#
#
# Elastic Compliance Matrix: (Units=1/GPa)
#
#
# Indices 1 2 3 4 5 6 
#
# 1 0.009004 -0.004238 -0.001327 0.000000 0.000000 0.000000
# 2 -0.004238 0.011105 -0.002366 0.000000 0.000000 0.000000
# 3 -0.001327 -0.002366 0.020544 0.000000 0.000000 0.000000
# 4 0.000000 0.000000 0.000000 0.039457 0.000000 0.000000
# 5 0.000000 0.000000 0.000000 0.000000 0.035468 0.000000
# 6 0.000000 0.000000 0.000000 0.000000 0.000000 0.053543
#
#
# Mechanical properties :
#
#
# Convention : Reuss Voigt Hill
#
# Bulk Modulus (GPa) = 40.33757 53.96844 47.15300
# Shear Modulus (GPa) = 25.87370 28.95871 27.41620
#
# Velocity S-wave (km/s) = 3.38884 3.58519 3.48840
# Velocity P-wave (km/s) = 5.76338 6.41034 6.09545
#
# Compressibility (1/GPa) = 0.02479079
#
# Stress axis : x y z
#
# Youngs Moduli (GPa) = 111.06447 90.04780 48.67530
#
# Poissons Ratio (x) = 0.38166 0.06458
# Poissons Ratio (y) = 0.47073 0.11517
# Poissons Ratio (z) = 0.14736 0.21306
#
# Static dielectric constant tensor:
#      x y z
#    x 1.862210 0.000000 0.000000 
#    y 0.000000 1.963620 0.000000 
#    z 0.000000 0.000000 1.895510 
# 
# From -- ./inp_files/28007.got.cif
#   From: 2010.05.17/outbox.cif.g08.bks.cpg/sg20_15_cif.got.tgz:28007.got - 2010.06.03 22:52:26.
