data_PCOD9316516
_publ_section_title
;
Structure prediction by ZEFSAII (Michael W. Deem and Ramdas Pophale) SiO2 
 PCOD9316516
Probable space group: C 2 2 21
;
_chemical_formula_sum "Si O2"
_cell_formula_units_Z 64
_cell_length_a 24.671745
_cell_length_b 16.830598
_cell_length_c 8.016321
_cell_angle_alpha 90.000000
_cell_angle_beta 90.000000
_cell_angle_gamma 90.000000
_cell_volume 3328.698912
_symmetry_space_group_name_H-M "C 2 2 21"
_symmetry_group_IT_number 20
_symmetry_cell_setting 'orthorhombic'
loop_
_space_group_symop_operation_xyz
x,y,z
-x,-y,1/2+z
x,-y,-z
-x,y,1/2-z
1/2+x,1/2+y,z
1/2-x,1/2-y,1/2+z
1/2+x,1/2-y,-z
1/2-x,1/2+y,1/2-z
loop_
_atom_site_type_symbol
_atom_site_label
_atom_site_fract_x
_atom_site_fract_y
_atom_site_fract_z
Si Si1 0.789609 0.172803 0.031671
Si Si2 0.228020 0.445040 0.159913
Si Si3 0.750996 0.591693 0.127647
Si Si4 0.649216 0.792502 0.625075
Si Si5 0.813283 0.786503 0.470940
Si Si6 0.878393 0.335552 0.350115
Si Si7 0.563061 0.112762 0.190850
Si Si8 0.058926 0.547082 0.674523
O O1 0.780882 0.105220 0.892912
O O2 0.843088 0.226388 0.017344
O O3 0.741869 0.236581 0.998777
O O4 0.775153 0.131539 0.205041
O O5 0.236618 0.501440 0.318923
O O6 0.177484 0.385482 0.165443
O O7 0.216343 0.500000 0.000000
O O8 0.808709 0.634830 0.098481
O O9 0.706766 0.623536 0.994964
O O10 0.593109 0.830321 0.678923
O O11 0.668025 0.743247 0.790247
O O12 0.857807 0.752317 0.600659
O O13 0.917533 0.360150 0.506970
O O14 0.909863 0.369851 0.189389
O O15 0.500000 0.112261 0.250000
O O16 0.584403 0.022292 0.210127
O O17 0.055640 0.500000 0.500000
O O18 0.000000 0.561860 0.750000
#
# Coordination Sequence:
#
# PCOD9316516 Si02
#       8
#     8   8   8   8   8   8   8   8
#     4   8  15  25  40  61  83 109 142 177 210 261
#     4   9  15  26  45  64  85 117 149 175 219 276
#     4   9  15  26  43  63  86 114 147 178 214 273
#     4   9  16  28  43  59  86 116 142 179 230 266
#     4   8  16  27  42  61  84 116 144 174 219 268
#     4  10  18  32  47  61  87 122 153 182 227 274
#     4  10  19  31  47  64  84 117 159 195 224 267
#     4  11  21  31  43  61  85 113 150 192 225 255
#
# _framework density 19.226731999999998
#
# number of rings (size 3 to 8) (size 9 to 14) (size 15 to 20)
#    0.000    2.750    0.000    5.625    0.000    1.000 
#    0.000    5.625    0.000    0.000    0.000    0.000 
#    0.000   13.000    0.000    0.000    0.000    0.000 
#
# Total GULP energy -178244.603671 kJ/mol
# GULP energy per Si atom -5570.143865 kJ/mol
# Density = 1.918297 g / cm^3
# Si number density = 19.226732 Si / 1000 Ang^3
#
#
#
# Elastic Constant Matrix: (Units=GPa)
#
#
# Indices 1 2 3 4 5 6 
#
# 1 59.6085 24.7733 8.1922 0.0000 0.0000 0.0000
# 2 24.7733 47.9374 3.4502 0.0000 0.0000 0.0000
# 3 8.1922 3.4502 74.1666 0.0000 0.0000 0.0000
# 4 0.0000 0.0000 0.0000 23.5930 0.0000 0.0000
# 5 0.0000 0.0000 0.0000 0.0000 20.4336 0.0000
# 6 0.0000 0.0000 0.0000 0.0000 0.0000 21.6494
#
#
#
# Elastic Compliance Matrix: (Units=1/GPa)
#
#
# Indices 1 2 3 4 5 6 
#
# 1 0.021622 -0.011039 -0.001875 0.000000 0.000000 0.000000
# 2 -0.011039 0.026566 -0.000017 0.000000 0.000000 0.000000
# 3 -0.001875 -0.000017 0.013691 0.000000 0.000000 0.000000
# 4 0.000000 0.000000 0.000000 0.042385 0.000000 0.000000
# 5 0.000000 0.000000 0.000000 0.000000 0.048939 0.000000
# 6 0.000000 0.000000 0.000000 0.000000 0.000000 0.046191
#
#
# Mechanical properties :
#
#
# Convention : Reuss Voigt Hill
#
# Bulk Modulus (GPa) = 27.76323 28.28266 28.02295
# Shear Modulus (GPa) = 21.07389 22.82165 21.94777
#
# Velocity S-wave (km/s) = 3.31429 3.44899 3.38231
# Velocity P-wave (km/s) = 5.39604 5.53197 5.46443
#
# Compressibility (1/GPa) = 0.03601886
#
# Stress axis : x y z
#
# Youngs Moduli (GPa) = 46.25026 37.64156 73.04067
#
# Poissons Ratio (x) = 0.41552 0.13693
# Poissons Ratio (y) = 0.51054 0.00121
# Poissons Ratio (z) = 0.08671 0.00062
#
# Static dielectric constant tensor:
#      x y z
#    x 1.669540 0.000000 0.000000 
#    y 0.000000 1.717210 0.000000 
#    z 0.000000 0.000000 1.861920 
# 
# From -- ./inp_files/10861.got.cif
#   From: 2010.05.17/outbox.cif.g08.bks.cpg/sg20_6_cif.got.tgz:10861.got - 2010.06.03 22:52:26.
