data_PCOD9316084
_publ_section_title
;
Structure prediction by ZEFSAII (Michael W. Deem and Ramdas Pophale) SiO2 
 PCOD9316084
Probable space group: P 21 21 21
;
_chemical_formula_sum "Si O2"
_cell_formula_units_Z 20
_cell_length_a 7.181971
_cell_length_b 15.739513
_cell_length_c 6.095778
_cell_angle_alpha 90.000000
_cell_angle_beta 90.000000
_cell_angle_gamma 90.000000
_cell_volume 689.071170
_symmetry_space_group_name_H-M "P 21 21 21"
_symmetry_group_IT_number 19
_symmetry_cell_setting 'orthorhombic'
loop_
_space_group_symop_operation_xyz
x,y,z
1/2-x,-y,1/2+z
1/2+x,1/2-y,-z
-x,1/2+y,1/2-z
loop_
_atom_site_type_symbol
_atom_site_label
_atom_site_fract_x
_atom_site_fract_y
_atom_site_fract_z
Si Si1 0.268573 0.049947 0.652364
Si Si2 0.857249 0.635391 0.436370
Si Si3 0.157784 0.489485 0.887411
Si Si4 0.075280 0.348395 0.601832
Si Si5 0.149539 0.703657 0.749586
O O1 0.277186 0.109712 0.863163
O O2 0.398678 0.098679 0.483227
O O3 0.220787 0.217665 0.181711
O O4 0.137367 0.043063 0.177556
O O5 0.952871 0.534354 0.878529
O O6 0.051907 0.661988 0.541751
O O7 0.254139 0.505133 0.636920
O O8 0.118019 0.389109 0.836341
O O9 0.238063 0.354394 0.420711
O O10 0.020127 0.250434 0.623941
#
# Coordination Sequence:
#
# PCOD9316084 Si02
#       5
#     4   4   4   4   4
#     4  12  26  53  88 125 180 241 316 379 465 565
#     4  12  26  52  82 127 175 243 300 391 459 570
#     4  12  30  53  92 137 179 239 321 394 468 562
#     4  12  28  54  85 131 178 249 306 397 472 573
#     4  12  28  52  83 126 182 238 311 387 490 554
#
# _framework density 29.02458
#
# number of rings (size 3 to 8) (size 9 to 14) (size 15 to 20)
#    0.000    0.000    4.000    3.600    2.800    6.400 
#    0.000    0.000    0.000    0.000    0.000    0.000 
#    0.000    0.000    0.000    0.000    0.000    0.000 
#
# Total GULP energy -111966.476769 kJ/mol
# GULP energy per Si atom -5598.323838 kJ/mol
# Density = 2.895852 g / cm^3
# Si number density = 29.024580 Si / 1000 Ang^3
#
#
#
# Elastic Constant Matrix: (Units=GPa)
#
#
# Indices 1 2 3 4 5 6 
#
# 1 177.1711 64.4279 113.3556 0.0000 0.0000 0.0000
# 2 64.4279 97.6239 46.6863 0.0000 0.0000 0.0000
# 3 113.3556 46.6863 150.4196 0.0000 0.0000 0.0000
# 4 0.0000 0.0000 0.0000 75.2318 0.0000 0.0000
# 5 0.0000 0.0000 0.0000 0.0000 87.3625 0.0000
# 6 0.0000 0.0000 0.0000 0.0000 0.0000 53.2502
#
#
#
# Elastic Compliance Matrix: (Units=1/GPa)
#
#
# Indices 1 2 3 4 5 6 
#
# 1 0.012276 -0.004319 -0.007911 0.000000 0.000000 0.000000
# 2 -0.004319 0.013548 -0.000950 0.000000 0.000000 0.000000
# 3 -0.007911 -0.000950 0.012905 0.000000 0.000000 0.000000
# 4 0.000000 0.000000 0.000000 0.013292 0.000000 0.000000
# 5 0.000000 0.000000 0.000000 0.000000 0.011447 0.000000
# 6 0.000000 0.000000 0.000000 0.000000 0.000000 0.018779
#
#
# Mechanical properties :
#
#
# Convention : Reuss Voigt Hill
#
# Bulk Modulus (GPa) = 80.84750 97.12824 88.98787
# Shear Modulus (GPa) = 44.35380 56.55188 50.45284
#
# Velocity S-wave (km/s) = 3.91339 4.41887 4.17379
# Velocity P-wave (km/s) = 6.95232 7.71829 7.34530
#
# Compressibility (1/GPa) = 0.01236897
#
# Stress axis : x y z
#
# Youngs Moduli (GPa) = 81.45860 73.81142 77.49119
#
# Poissons Ratio (x) = 0.31876 0.61302
# Poissons Ratio (y) = 0.35179 0.07365
# Poissons Ratio (z) = 0.64441 0.07016
#
# Static dielectric constant tensor:
#      x y z
#    x 2.294040 0.000000 0.000000 
#    y 0.000000 2.328530 0.000000 
#    z 0.000000 0.000000 2.354980 
# 
# From -- ./inp_files/387.got.cif
#   From: 2010.05.17/outbox.cif.g08.bks.cpg/sg19_1_cif.got.tgz:387.got - 2010.06.03 22:46:19.
