data_PCOD9316682
_publ_section_title
;
Structure prediction by ZEFSAII (Michael W. Deem and Ramdas Pophale) SiO2 
 PCOD9316682
Probable space group: C 2 2 21
;
_chemical_formula_sum "Si O2"
_cell_formula_units_Z 64
_cell_length_a 26.353027
_cell_length_b 10.455244
_cell_length_c 12.068221
_cell_angle_alpha 90.000000
_cell_angle_beta 90.000000
_cell_angle_gamma 90.000000
_cell_volume 3325.124679
_symmetry_space_group_name_H-M "C 2 2 21"
_symmetry_group_IT_number 20
_symmetry_cell_setting 'orthorhombic'
loop_
_space_group_symop_operation_xyz
x,y,z
-x,-y,1/2+z
x,-y,-z
-x,y,1/2-z
1/2+x,1/2+y,z
1/2-x,1/2-y,1/2+z
1/2+x,1/2-y,-z
1/2-x,1/2+y,1/2-z
loop_
_atom_site_type_symbol
_atom_site_label
_atom_site_fract_x
_atom_site_fract_y
_atom_site_fract_z
Si Si1 0.345105 0.297488 0.372818
Si Si2 0.065692 0.516466 0.867478
Si Si3 0.432735 0.710319 0.273127
Si Si4 0.463337 0.739622 0.655294
Si Si5 0.673086 0.744207 0.124898
Si Si6 0.176798 0.484104 0.805082
Si Si7 0.761933 0.989605 0.631186
Si Si8 0.492624 0.376154 0.934179
O O1 0.403640 0.297574 0.331884
O O2 0.348135 0.299954 0.506181
O O3 0.318155 0.162225 0.343715
O O4 0.307957 0.413128 0.338647
O O5 0.047624 0.656061 0.829488
O O6 0.032717 0.393586 0.843091
O O7 0.116367 0.496887 0.795039
O O8 0.078378 0.500000 0.000000
O O9 0.372729 0.718787 0.289852
O O10 0.459604 0.602756 0.350202
O O11 0.451249 0.686469 0.148155
O O12 0.500000 0.685518 0.750000
O O13 0.484179 0.703651 0.535055
O O14 0.719293 0.653757 0.154874
O O15 0.687707 0.893264 0.116754
O O16 0.211068 0.511893 0.699195
O O17 0.753327 0.000000 0.500000
O O18 0.473138 0.500000 0.000000
#
# Coordination Sequence:
#
# PCOD9316682 Si02
#       8
#     8   8   8   8   8   8   8   8
#     4  10  20  37  56  85 116 148 198 248 292 365
#     4  10  19  39  63  88 115 147 204 252 305 372
#     4  10  21  39  61  83 115 162 201 258 300 351
#     4  11  23  35  58  88 121 157 201 255 301 362
#     4  10  19  36  62  83 111 151 196 246 296 360
#     4  10  18  35  57  86 110 141 189 247 300 351
#     4  10  22  34  57  82 113 150 196 240 303 367
#     4  11  24  36  56  86 123 161 206 247 301 359
#
# _framework density 19.247398
#
# number of rings (size 3 to 8) (size 9 to 14) (size 15 to 20)
#    0.000    1.750    2.500    3.375    5.250    0.000 
#    0.000    5.000    0.000   12.750    0.000    0.000 
#    0.000    0.000    0.000    0.000    0.000    0.000 
#
# Total GULP energy -178148.521505 kJ/mol
# GULP energy per Si atom -5567.141297 kJ/mol
# Density = 1.920359 g / cm^3
# Si number density = 19.247398 Si / 1000 Ang^3
#
#
#
# Elastic Constant Matrix: (Units=GPa)
#
#
# Indices 1 2 3 4 5 6 
#
# 1 79.6628 23.2504 65.9610 0.0000 0.0000 0.0000
# 2 23.2504 87.1299 28.4038 0.0000 0.0000 0.0000
# 3 65.9610 28.4038 99.0155 0.0000 0.0000 0.0000
# 4 0.0000 0.0000 0.0000 25.4027 0.0000 0.0000
# 5 0.0000 0.0000 0.0000 0.0000 35.3409 0.0000
# 6 0.0000 0.0000 0.0000 0.0000 0.0000 14.9468
#
#
#
# Elastic Compliance Matrix: (Units=1/GPa)
#
#
# Indices 1 2 3 4 5 6 
#
# 1 0.028181 -0.001544 -0.018331 0.000000 0.000000 0.000000
# 2 -0.001544 0.012746 -0.002627 0.000000 0.000000 0.000000
# 3 -0.018331 -0.002627 0.023064 0.000000 0.000000 0.000000
# 4 0.000000 0.000000 0.000000 0.039366 0.000000 0.000000
# 5 0.000000 0.000000 0.000000 0.000000 0.028296 0.000000
# 6 0.000000 0.000000 0.000000 0.000000 0.000000 0.066904
#
#
# Mechanical properties :
#
#
# Convention : Reuss Voigt Hill
#
# Bulk Modulus (GPa) = 52.66837 55.67096 54.16966
# Shear Modulus (GPa) = 20.00872 25.01761 22.51317
#
# Velocity S-wave (km/s) = 3.22771 3.60917 3.42376
# Velocity P-wave (km/s) = 6.42761 6.80844 6.62076
#
# Compressibility (1/GPa) = 0.01898673
#
# Stress axis : x y z
#
# Youngs Moduli (GPa) = 35.48439 78.45738 43.35694
#
# Poissons Ratio (x) = 0.12118 0.79476
# Poissons Ratio (y) = 0.05481 0.11392
# Poissons Ratio (z) = 0.65045 0.20614
#
# Static dielectric constant tensor:
#      x y z
#    x 1.658500 0.000000 0.000000 
#    y 0.000000 1.779730 0.000000 
#    z 0.000000 0.000000 1.668100 
# 
# From -- ./inp_files/16804.got.cif
#   From: 2010.05.17/outbox.cif.g08.bks.cpg/sg20_9_cif.got.tgz:16804.got - 2010.06.03 22:52:26.
