data_PCOD9316553
_publ_section_title
;
Structure prediction by ZEFSAII (Michael W. Deem and Ramdas Pophale) SiO2 
 PCOD9316553
Probable space group: C 2 2 21
;
_chemical_formula_sum "Si O2"
_cell_formula_units_Z 48
_cell_length_a 9.837593
_cell_length_b 20.291469
_cell_length_c 12.862777
_cell_angle_alpha 90.000000
_cell_angle_beta 90.000000
_cell_angle_gamma 90.000000
_cell_volume 2567.657427
_symmetry_space_group_name_H-M "C 2 2 21"
_symmetry_group_IT_number 20
_symmetry_cell_setting 'orthorhombic'
loop_
_space_group_symop_operation_xyz
x,y,z
-x,-y,1/2+z
x,-y,-z
-x,y,1/2-z
1/2+x,1/2+y,z
1/2-x,1/2-y,1/2+z
1/2+x,1/2-y,-z
1/2-x,1/2+y,1/2-z
loop_
_atom_site_type_symbol
_atom_site_label
_atom_site_fract_x
_atom_site_fract_y
_atom_site_fract_z
Si Si1 0.258622 0.848278 0.607729
Si Si2 0.055394 0.143583 0.037431
Si Si3 0.199553 0.709422 0.696824
Si Si4 0.623947 0.579858 0.829633
Si Si5 0.424758 0.791004 0.428204
Si Si6 0.837924 0.063891 0.280206
O O1 0.268223 0.779504 0.670923
O O2 0.360222 0.842901 0.509483
O O3 0.258788 0.908822 0.689087
O O4 0.102674 0.852586 0.568472
O O5 0.092251 0.219564 0.017410
O O6 0.153411 0.116982 0.127853
O O7 0.068613 0.092118 0.944734
O O8 0.287573 0.644054 0.691562
O O9 0.080006 0.700468 0.610240
O O10 0.147884 0.712655 0.815830
O O11 0.500000 0.580658 0.750000
O O12 0.697112 0.509648 0.816485
O O13 0.000000 0.061137 0.250000
#
# Coordination Sequence:
#
# PCOD9316553 Si02
#       6
#     8   8   8   8   8   8
#     4  10  18  34  57  85 115 150 195 241 298 360
#     4  10  18  32  55  84 115 145 188 245 302 350
#     4  10  20  34  55  85 118 152 197 240 292 356
#     4  11  21  34  54  87 119 151 193 248 297 353
#     4  10  19  34  57  83 112 156 193 240 293 353
#     4   9  19  34  56  83 115 146 189 242 302 353
#
# _framework density 18.694082999999999
#
# number of rings (size 3 to 8) (size 9 to 14) (size 15 to 20)
#    0.000    2.000    3.333    1.500    0.000    0.000 
#    0.000    2.500    0.000    8.000    0.000    0.000 
#    0.000    0.000    0.000    0.000    0.000    0.000 
#
# Total GULP energy -133612.194967 kJ/mol
# GULP energy per Si atom -5567.174790 kJ/mol
# Density = 1.865153 g / cm^3
# Si number density = 18.694083 Si / 1000 Ang^3
#
#
#
# Elastic Constant Matrix: (Units=GPa)
#
#
# Indices 1 2 3 4 5 6 
#
# 1 20.3007 28.6798 14.7715 0.0000 0.0000 0.0000
# 2 28.6798 127.9574 34.9070 0.0000 0.0000 0.0000
# 3 14.7715 34.9070 89.4734 0.0000 0.0000 0.0000
# 4 0.0000 0.0000 0.0000 -72.6834 0.0000 0.0000
# 5 0.0000 0.0000 0.0000 0.0000 15.7041 0.0000
# 6 0.0000 0.0000 0.0000 0.0000 0.0000 22.1226
#
#
#
# Elastic Compliance Matrix: (Units=1/GPa)
#
#
# Indices 1 2 3 4 5 6 
#
# 1 0.075365 -0.015105 -0.006549 0.000000 0.000000 0.000000
# 2 -0.015105 0.011773 -0.002099 0.000000 0.000000 0.000000
# 3 -0.006549 -0.002099 0.013077 0.000000 0.000000 0.000000
# 4 0.000000 0.000000 0.000000 -0.013758 0.000000 0.000000
# 5 0.000000 0.000000 0.000000 0.000000 0.063678 0.000000
# 6 0.000000 0.000000 0.000000 0.000000 0.000000 0.045203
#
#
# Mechanical properties :
#
#
# Convention : Reuss Voigt Hill
#
# Bulk Modulus (GPa) = 18.97273 43.82756 31.40014
# Shear Modulus (GPa) = 19.20020 3.65355 11.42688
#
# Velocity S-wave (km/s) = 3.20828 1.39951 2.47504
# Velocity P-wave (km/s) = 4.88826 5.10950 5.00011
#
# Compressibility (1/GPa) = 0.05270724
#
# Stress axis : x y z
#
# Youngs Moduli (GPa) = 13.26879 84.93673 76.47115
#
# Poissons Ratio (x) = 1.28299 0.50082
# Poissons Ratio (y) = 0.20043 0.16055
# Poissons Ratio (z) = 0.08690 0.17832
#
# Static dielectric constant tensor:
#      x y z
#    x 1.679630 0.000000 0.000000 
#    y 0.000000 1.641410 0.000000 
#    z 0.000000 0.000000 1.697630 
# 
# From -- ./inp_files/15200.got.cif
#   From: 2010.05.17/outbox.cif.g08.bks.cpg/sg20_8_cif.got.tgz:15200.got - 2010.06.03 22:52:26.
