data_PCOD9316348
_publ_section_title
;
Structure prediction by ZEFSAII (Michael W. Deem and Ramdas Pophale) SiO2 
 PCOD9316348
Probable space group: C 2 2 21
;
_chemical_formula_sum "Si O2"
_cell_formula_units_Z 56
_cell_length_a 23.774393
_cell_length_b 14.991825
_cell_length_c 7.381045
_cell_angle_alpha 90.000000
_cell_angle_beta 90.000000
_cell_angle_gamma 90.000000
_cell_volume 2630.763421
_symmetry_space_group_name_H-M "C 2 2 21"
_symmetry_group_IT_number 20
_symmetry_cell_setting 'orthorhombic'
loop_
_space_group_symop_operation_xyz
x,y,z
-x,-y,1/2+z
x,-y,-z
-x,y,1/2-z
1/2+x,1/2+y,z
1/2-x,1/2-y,1/2+z
1/2+x,1/2-y,-z
1/2-x,1/2+y,1/2-z
loop_
_atom_site_type_symbol
_atom_site_label
_atom_site_fract_x
_atom_site_fract_y
_atom_site_fract_z
Si Si1 0.161499 0.316251 0.368045
Si Si2 0.354462 0.396448 0.551201
Si Si3 0.229019 0.073003 0.350516
Si Si4 0.160174 0.510016 0.222117
Si Si5 0.765801 0.245655 0.472850
Si Si6 0.560735 0.743018 0.167753
Si Si7 0.551443 0.092501 0.113758
O O1 0.147810 0.418957 0.326524
O O2 0.202106 0.293226 0.536015
O O3 0.103041 0.266610 0.333405
O O4 0.202472 0.282046 0.205288
O O5 0.360048 0.500000 0.500000
O O6 0.327277 0.402632 0.749827
O O7 0.307253 0.332884 0.452825
O O8 0.411359 0.339904 0.561853
O O9 0.276730 0.033243 0.220102
O O10 0.258051 0.161599 0.424220
O O11 0.216286 0.000000 0.500000
O O12 0.108318 0.577835 0.232148
O O13 0.164901 0.500000 0.000000
O O14 0.500000 0.725578 0.250000
O O15 0.558826 0.827591 0.030241
O O16 0.500000 0.107134 0.250000
O O17 0.542803 0.000000 0.000000
#
# Coordination Sequence:
#
# PCOD9316348 Si02
#       7
#     8   8   8   8   8   8   8
#     4  11  20  37  62  90 127 170 201 257 317 384
#     4  11  25  43  64  93 127 171 214 273 320 373
#     4  11  20  36  63  96 129 166 200 255 328 394
#     4  10  17  32  58  86 125 161 188 247 316 377
#     4  11  20  37  61  93 128 165 207 250 326 382
#     4  11  23  45  66  86 127 175 220 269 319 372
#     4  11  22  40  65  95 131 170 209 260 319 388
#
# _framework density 21.286595999999999
#
# number of rings (size 3 to 8) (size 9 to 14) (size 15 to 20)
#    0.000    1.143    8.571    2.143    0.000    0.000 
#    2.571    3.571    0.000    0.000    0.000    0.000 
#    0.000    0.000    0.000    0.000    0.000    0.000 
#
# Total GULP energy -156122.704185 kJ/mol
# GULP energy per Si atom -5575.810864 kJ/mol
# Density = 2.123815 g / cm^3
# Si number density = 21.286596 Si / 1000 Ang^3
#
#
#
# Elastic Constant Matrix: (Units=GPa)
#
#
# Indices 1 2 3 4 5 6 
#
# 1 144.4152 49.7104 32.1454 0.0000 0.0000 0.0000
# 2 49.7104 172.0942 33.7221 0.0000 0.0000 0.0000
# 3 32.1454 33.7221 45.3067 0.0000 0.0000 0.0000
# 4 0.0000 0.0000 0.0000 38.6191 0.0000 0.0000
# 5 0.0000 0.0000 0.0000 0.0000 33.3602 0.0000
# 6 0.0000 0.0000 0.0000 0.0000 0.0000 27.8440
#
#
#
# Elastic Compliance Matrix: (Units=1/GPa)
#
#
# Indices 1 2 3 4 5 6 
#
# 1 0.008541 -0.001498 -0.004945 0.000000 0.000000 0.000000
# 2 -0.001498 0.007066 -0.004196 0.000000 0.000000 0.000000
# 3 -0.004945 -0.004196 0.028703 0.000000 0.000000 0.000000
# 4 0.000000 0.000000 0.000000 0.025894 0.000000 0.000000
# 5 0.000000 0.000000 0.000000 0.000000 0.029976 0.000000
# 6 0.000000 0.000000 0.000000 0.000000 0.000000 0.035914
#
#
# Mechanical properties :
#
#
# Convention : Reuss Voigt Hill
#
# Bulk Modulus (GPa) = 43.41799 65.88578 54.65188
# Shear Modulus (GPa) = 30.29398 36.38054 33.33726
#
# Velocity S-wave (km/s) = 3.77656 4.13859 3.96171
# Velocity P-wave (km/s) = 6.28153 7.33868 6.83059
#
# Compressibility (1/GPa) = 0.02303193
#
# Stress axis : x y z
#
# Youngs Moduli (GPa) = 117.08493 141.52756 34.83915
#
# Poissons Ratio (x) = 0.21203 0.17227
# Poissons Ratio (y) = 0.17541 0.14619
# Poissons Ratio (z) = 0.57895 0.59387
#
# Static dielectric constant tensor:
#      x y z
#    x 1.799290 0.000000 0.000000 
#    y 0.000000 1.848620 0.000000 
#    z 0.000000 0.000000 1.955740 
# 
# From -- ./inp_files/10195.got.cif
#   From: 2010.05.17/outbox.cif.g08.bks.cpg/sg20_6_cif.got.tgz:10195.got - 2010.06.03 22:52:26.
