data_PCOD9316991
_publ_section_title
;
Structure prediction by ZEFSAII (Michael W. Deem and Ramdas Pophale) SiO2 
 PCOD9316991
Probable space group: C 2 2 21
;
_chemical_formula_sum "Si O2"
_cell_formula_units_Z 40
_cell_length_a 12.378454
_cell_length_b 14.067159
_cell_length_c 11.861194
_cell_angle_alpha 90.000000
_cell_angle_beta 90.000000
_cell_angle_gamma 90.000000
_cell_volume 2065.385923
_symmetry_space_group_name_H-M "C 2 2 21"
_symmetry_group_IT_number 20
_symmetry_cell_setting 'orthorhombic'
loop_
_space_group_symop_operation_xyz
x,y,z
-x,-y,1/2+z
x,-y,-z
-x,y,1/2-z
1/2+x,1/2+y,z
1/2-x,1/2-y,1/2+z
1/2+x,1/2-y,-z
1/2-x,1/2+y,1/2-z
loop_
_atom_site_type_symbol
_atom_site_label
_atom_site_fract_x
_atom_site_fract_y
_atom_site_fract_z
Si Si1 0.993575 0.835982 0.913000
Si Si2 0.875291 0.641029 0.927693
Si Si3 0.343867 0.430345 0.756214
Si Si4 0.896320 0.564243 0.178504
Si Si5 0.358900 0.411796 0.411420
O O1 0.946450 0.731627 0.899167
O O2 0.899196 0.908345 0.874748
O O3 0.094023 0.857906 0.829099
O O4 0.039204 0.858932 0.036394
O O5 0.903591 0.547291 0.855725
O O6 0.746748 0.653747 0.909235
O O7 0.890783 0.617838 0.059482
O O8 0.215871 0.419778 0.744916
O O9 0.372087 0.534052 0.706143
O O10 0.000000 0.592021 0.250000
O O11 0.334236 0.500000 0.500000
#
# Coordination Sequence:
#
# PCOD9316991 Si02
#       5
#     8   8   8   8   8
#     4  10  19  32  69  85 112 151 210 237 280 364
#     4  10  19  36  61  90 113 160 193 244 301 343
#     4   9  19  37  60  86 114 160 190 235 308 348
#     4  10  20  38  62  83 125 157 191 239 307 357
#     4   9  16  38  62  76 123 162 179 239 309 346
#
# _framework density 19.366838999999999
#
# number of rings (size 3 to 8) (size 9 to 14) (size 15 to 20)
#    0.000    2.400    6.000    0.000    2.800    1.600 
#    0.000    0.000   92.400    0.000    0.000    0.000 
#    0.000    0.000    0.000    0.000    0.000    0.000 
#
# Total GULP energy -111510.065153 kJ/mol
# GULP energy per Si atom -5575.503258 kJ/mol
# Density = 1.932276 g / cm^3
# Si number density = 19.366839 Si / 1000 Ang^3
#
#
#
# Elastic Constant Matrix: (Units=GPa)
#
#
# Indices 1 2 3 4 5 6 
#
# 1 152.0070 55.9214 42.2603 0.0000 0.0000 0.0000
# 2 55.9214 78.7132 17.2470 0.0000 0.0000 0.0000
# 3 42.2603 17.2470 39.9706 0.0000 0.0000 0.0000
# 4 0.0000 0.0000 0.0000 8.8372 0.0000 0.0000
# 5 0.0000 0.0000 0.0000 0.0000 28.9046 0.0000
# 6 0.0000 0.0000 0.0000 0.0000 0.0000 37.5726
#
#
#
# Elastic Compliance Matrix: (Units=1/GPa)
#
#
# Indices 1 2 3 4 5 6 
#
# 1 0.011442 -0.006050 -0.009487 0.000000 0.000000 0.000000
# 2 -0.006050 0.017230 -0.001038 0.000000 0.000000 0.000000
# 3 -0.009487 -0.001038 0.035496 0.000000 0.000000 0.000000
# 4 0.000000 0.000000 0.000000 0.113158 0.000000 0.000000
# 5 0.000000 0.000000 0.000000 0.000000 0.034597 0.000000
# 6 0.000000 0.000000 0.000000 0.000000 0.000000 0.026615
#
#
# Mechanical properties :
#
#
# Convention : Reuss Voigt Hill
#
# Bulk Modulus (GPa) = 32.23853 55.72757 43.98305
# Shear Modulus (GPa) = 17.72879 25.41369 21.57124
#
# Velocity S-wave (km/s) = 3.02887 3.62640 3.34102
# Velocity P-wave (km/s) = 5.37722 6.80967 6.13539
#
# Compressibility (1/GPa) = 0.03101878
#
# Stress axis : x y z
#
# Youngs Moduli (GPa) = 87.39835 58.03807 28.17188
#
# Poissons Ratio (x) = 0.35114 0.26726
# Poissons Ratio (y) = 0.52877 0.02924
# Poissons Ratio (z) = 0.82912 0.06024
#
# Static dielectric constant tensor:
#      x y z
#    x 1.685950 0.000000 0.000000 
#    y 0.000000 1.681360 0.000000 
#    z 0.000000 0.000000 1.742790 
# 
# From -- ./inp_files/19758.got.cif
#   From: 2010.05.17/outbox.cif.g08.bks.cpg/sg20_10_cif.got.tgz:19758.got - 2010.06.03 22:52:26.
