data_PCOD9316199
_publ_section_title
;
Structure prediction by ZEFSAII (Michael W. Deem and Ramdas Pophale) SiO2 
 PCOD9316199
Probable space group: C 2 2 21
;
_chemical_formula_sum "Si O2"
_cell_formula_units_Z 36
_cell_length_a 17.095530
_cell_length_b 6.833571
_cell_length_c 13.497265
_cell_angle_alpha 90.000000
_cell_angle_beta 90.000000
_cell_angle_gamma 90.000000
_cell_volume 1576.797981
_symmetry_space_group_name_H-M "C 2 2 21"
_symmetry_group_IT_number 20
_symmetry_cell_setting 'orthorhombic'
loop_
_space_group_symop_operation_xyz
x,y,z
-x,-y,1/2+z
x,-y,-z
-x,y,1/2-z
1/2+x,1/2+y,z
1/2-x,1/2-y,1/2+z
1/2+x,1/2-y,-z
1/2-x,1/2+y,1/2-z
loop_
_atom_site_type_symbol
_atom_site_label
_atom_site_fract_x
_atom_site_fract_y
_atom_site_fract_z
Si Si1 0.324972 0.873426 0.739463
Si Si2 0.384711 0.777026 0.538358
Si Si3 0.450715 0.916685 0.898587
Si Si4 0.845395 0.177573 0.323576
Si Si5 0.500000 0.257463 0.750000
O O1 0.335770 0.747064 0.639379
O O2 0.386796 0.823908 0.825894
O O3 0.238060 0.883463 0.781981
O O4 0.346021 0.091417 0.704764
O O5 0.476142 0.779321 0.571069
O O6 0.360670 0.659409 0.440407
O O7 0.371237 0.000000 0.500000
O O8 0.485484 0.892265 0.158413
O O9 0.414326 0.000000 0.000000
O O10 0.924061 0.111323 0.268442
#
# Coordination Sequence:
#
# PCOD9316199 Si02
#       5
#     8   8   8   8   4
#     4  10  20  32  53  83 104 136 175 224 257 309
#     4   9  15  32  52  74 105 138 174 214 260 310
#     4  10  15  29  55  79  96 133 188 213 244 303
#     4  10  20  33  54  80 107 137 175 219 265 306
#     4  10  16  30  52  72 100 138 176 208 244 312
#
# _framework density 22.831078999999999
#
# number of rings (size 3 to 8) (size 9 to 14) (size 15 to 20)
#    0.000    2.222    8.889    0.000    0.000    3.556 
#    0.000    0.000    4.889    0.000    0.000    0.000 
#    0.000    0.000    0.000    0.000    0.000    0.000 
#
# Total GULP energy -100472.970319 kJ/mol
# GULP energy per Si atom -5581.831684 kJ/mol
# Density = 2.277911 g / cm^3
# Si number density = 22.831079 Si / 1000 Ang^3
#
#
#
# Elastic Constant Matrix: (Units=GPa)
#
#
# Indices 1 2 3 4 5 6 
#
# 1 212.0888 17.2176 121.4808 0.0000 0.0000 0.0000
# 2 17.2176 35.0377 23.5050 0.0000 0.0000 0.0000
# 3 121.4808 23.5050 204.2301 0.0000 0.0000 0.0000
# 4 0.0000 0.0000 0.0000 35.4782 0.0000 0.0000
# 5 0.0000 0.0000 0.0000 0.0000 36.2929 0.0000
# 6 0.0000 0.0000 0.0000 0.0000 0.0000 25.0734
#
#
#
# Elastic Compliance Matrix: (Units=1/GPa)
#
#
# Indices 1 2 3 4 5 6 
#
# 1 0.007168 -0.000717 -0.004181 0.000000 0.000000 0.000000
# 2 -0.000717 0.031000 -0.003141 0.000000 0.000000 0.000000
# 3 -0.004181 -0.003141 0.007745 0.000000 0.000000 0.000000
# 4 0.000000 0.000000 0.000000 0.028186 0.000000 0.000000
# 5 0.000000 0.000000 0.000000 0.000000 0.027554 0.000000
# 6 0.000000 0.000000 0.000000 0.000000 0.000000 0.039883
#
#
# Mechanical properties :
#
#
# Convention : Reuss Voigt Hill
#
# Bulk Modulus (GPa) = 33.51871 86.19594 59.85732
# Shear Modulus (GPa) = 29.83990 38.64577 34.24284
#
# Velocity S-wave (km/s) = 3.61915 4.11869 3.87697
# Velocity P-wave (km/s) = 5.67251 7.77521 6.80556
#
# Compressibility (1/GPa) = 0.02983409
#
# Stress axis : x y z
#
# Youngs Moduli (GPa) = 139.50525 32.25756 129.11492
#
# Poissons Ratio (x) = 0.02314 0.53986
# Poissons Ratio (y) = 0.10009 0.40556
# Poissons Ratio (z) = 0.58330 0.10132
#
# Static dielectric constant tensor:
#      x y z
#    x 1.858300 0.000000 0.000000 
#    y 0.000000 1.953760 0.000000 
#    z 0.000000 0.000000 1.868000 
# 
# From -- ./inp_files/14810.got.cif
#   From: 2010.05.17/outbox.cif.g08.bks.cpg/sg20_8_cif.got.tgz:14810.got - 2010.06.03 22:52:26.
