data_PCOD9316529
_publ_section_title
;
Structure prediction by ZEFSAII (Michael W. Deem and Ramdas Pophale) SiO2 
 PCOD9316529
Probable space group: C 2 2 21
;
_chemical_formula_sum "Si O2"
_cell_formula_units_Z 36
_cell_length_a 25.356659
_cell_length_b 12.708728
_cell_length_c 5.268156
_cell_angle_alpha 90.000000
_cell_angle_beta 90.000000
_cell_angle_gamma 90.000000
_cell_volume 1697.667919
_symmetry_space_group_name_H-M "C 2 2 21"
_symmetry_group_IT_number 20
_symmetry_cell_setting 'orthorhombic'
loop_
_space_group_symop_operation_xyz
x,y,z
-x,-y,1/2+z
x,-y,-z
-x,y,1/2-z
1/2+x,1/2+y,z
1/2-x,1/2-y,1/2+z
1/2+x,1/2-y,-z
1/2-x,1/2+y,1/2-z
loop_
_atom_site_type_symbol
_atom_site_label
_atom_site_fract_x
_atom_site_fract_y
_atom_site_fract_z
Si Si1 0.440491 0.609019 0.340775
Si Si2 0.288918 0.368952 0.331721
Si Si3 0.180473 0.332580 0.541689
Si Si4 0.638068 0.500000 0.500000
Si Si5 0.366819 0.217789 0.546040
O O1 0.437321 0.500000 0.500000
O O2 0.500000 0.622282 0.250000
O O3 0.401331 0.589921 0.102153
O O4 0.418994 0.711645 0.487689
O O5 0.230593 0.392230 0.424496
O O6 0.323539 0.463265 0.223837
O O7 0.321275 0.307732 0.546435
O O8 0.292971 0.281957 0.105490
O O9 0.137305 0.333446 0.320099
O O10 0.151534 0.354587 0.810017
#
# Coordination Sequence:
#
# PCOD9316529 Si02
#       5
#     8   8   8   4   8
#     4  12  22  34  49  71 109 158 198 237 279 313
#     4  10  19  31  53  73  98 135 185 234 285 329
#     4  10  18  32  53  69  93 132 186 234 276 336
#     4  12  22  34  50  80 114 146 194 248 268 340
#     4  10  19  33  49  68  94 135 190 233 266 318
#
# _framework density 21.205560999999999
#
# number of rings (size 3 to 8) (size 9 to 14) (size 15 to 20)
#    1.333    0.000    7.778    0.000    0.000    0.000 
#    0.000    0.000    0.000    0.000    0.000    0.000 
#    0.000    0.000    0.000    0.000    8.444    8.667 
#
# Total GULP energy -100262.495964 kJ/mol
# GULP energy per Si atom -5570.138665 kJ/mol
# Density = 2.115730 g / cm^3
# Si number density = 21.205561 Si / 1000 Ang^3
#
#
#
# Elastic Constant Matrix: (Units=GPa)
#
#
# Indices 1 2 3 4 5 6 
#
# 1 125.0532 17.2515 37.2404 0.0000 0.0000 0.0000
# 2 17.2515 12.0283 14.2345 0.0000 0.0000 0.0000
# 3 37.2404 14.2345 130.6892 0.0000 0.0000 0.0000
# 4 0.0000 0.0000 0.0000 11.2601 0.0000 0.0000
# 5 0.0000 0.0000 0.0000 0.0000 26.4328 0.0000
# 6 0.0000 0.0000 0.0000 0.0000 0.0000 11.8898
#
#
#
# Elastic Compliance Matrix: (Units=1/GPa)
#
#
# Indices 1 2 3 4 5 6 
#
# 1 0.010222 -0.012874 -0.001511 0.000000 0.000000 0.000000
# 2 -0.012874 0.111651 -0.008493 0.000000 0.000000 0.000000
# 3 -0.001511 -0.008493 0.009007 0.000000 0.000000 0.000000
# 4 0.000000 0.000000 0.000000 0.088809 0.000000 0.000000
# 5 0.000000 0.000000 0.000000 0.000000 0.037832 0.000000
# 6 0.000000 0.000000 0.000000 0.000000 0.000000 0.084106
#
#
# Mechanical properties :
#
#
# Convention : Reuss Voigt Hill
#
# Bulk Modulus (GPa) = 11.74717 45.02483 28.38600
# Shear Modulus (GPa) = 12.02627 23.18616 17.60621
#
# Velocity S-wave (km/s) = 2.38403 3.31025 2.88456
# Velocity P-wave (km/s) = 3.62351 5.99074 4.95070
#
# Compressibility (1/GPa) = 0.08512690
#
# Stress axis : x y z
#
# Youngs Moduli (GPa) = 97.82405 8.95650 111.02191
#
# Poissons Ratio (x) = 0.11530 0.16773
# Poissons Ratio (y) = 1.25934 0.94285
# Poissons Ratio (z) = 0.14779 0.07606
#
# Static dielectric constant tensor:
#      x y z
#    x 1.741190 0.000000 0.000000 
#    y 0.000000 1.881310 0.000000 
#    z 0.000000 0.000000 1.879300 
# 
# From -- ./inp_files/3705.got.cif
#   From: 2010.05.17/outbox.cif.g08.bks.cpg/sg20_2_cif.got.tgz:3705.got - 2010.06.03 22:52:26.
