data_PCOD9316999
_publ_section_title
;
Structure prediction by ZEFSAII (Michael W. Deem and Ramdas Pophale) SiO2 
 PCOD9316999
Probable space group: C 2 2 21
;
_chemical_formula_sum "Si O2"
_cell_formula_units_Z 64
_cell_length_a 24.142348
_cell_length_b 16.619280
_cell_length_c 8.852084
_cell_angle_alpha 90.000000
_cell_angle_beta 90.000000
_cell_angle_gamma 90.000000
_cell_volume 3551.707865
_symmetry_space_group_name_H-M "C 2 2 21"
_symmetry_group_IT_number 20
_symmetry_cell_setting 'orthorhombic'
loop_
_space_group_symop_operation_xyz
x,y,z
-x,-y,1/2+z
x,-y,-z
-x,y,1/2-z
1/2+x,1/2+y,z
1/2-x,1/2-y,1/2+z
1/2+x,1/2-y,-z
1/2-x,1/2+y,1/2-z
loop_
_atom_site_type_symbol
_atom_site_label
_atom_site_fract_x
_atom_site_fract_y
_atom_site_fract_z
Si Si1 0.357533 0.584223 0.054581
Si Si2 0.929467 0.413321 0.930158
Si Si3 0.238668 0.198161 0.954342
Si Si4 0.135327 0.262333 0.426881
Si Si5 0.747439 0.589025 0.668585
Si Si6 0.297815 0.550485 0.355977
Si Si7 0.939808 0.414532 0.571845
Si Si8 0.349545 0.817297 0.414215
O O1 0.385050 0.671949 0.033724
O O2 0.342676 0.575376 0.231436
O O3 0.385045 0.500000 0.000000
O O4 0.299800 0.586228 0.958690
O O5 0.926988 0.417335 0.749321
O O6 0.995057 0.402613 0.962013
O O7 0.911945 0.500000 0.000000
O O8 0.895660 0.337272 0.994800
O O9 0.299408 0.235422 0.968297
O O10 0.234141 0.160116 0.787855
O O11 0.232564 0.127074 0.075849
O O12 0.189062 0.258285 0.988887
O O13 0.135181 0.278699 0.246967
O O14 0.743486 0.508039 0.766028
O O15 0.808739 0.606689 0.611744
O O16 0.320122 0.500000 0.500000
O O17 0.924532 0.500000 0.500000
O O18 0.904061 0.344789 0.497882
#
# Coordination Sequence:
#
# PCOD9316999 Si02
#       8
#     8   8   8   8   8   8   8   8
#     4  10  19  33  51  78 111 150 190 227 278 335
#     4  10  23  43  63  86 115 149 199 246 299 347
#     4  10  20  33  49  79 117 148 192 231 285 350
#     4  11  22  34  57  84 117 157 191 244 294 344
#     4   9  20  32  49  75 110 157 188 227 281 338
#     4   9  18  34  50  68 110 156 188 229 271 339
#     4  10  23  41  62  85 114 154 193 245 292 355
#     4  11  21  34  52  85 117 151 195 232 292 350
#
# _framework density 18.019500000000001
#
# number of rings (size 3 to 8) (size 9 to 14) (size 15 to 20)
#    0.000    2.000    2.500    0.750    1.750    7.500 
#    0.000    0.000    0.000    0.000    0.000    6.125 
#    0.000    0.000    0.000    0.000    0.000    0.000 
#
# Total GULP energy -178494.642902 kJ/mol
# GULP energy per Si atom -5577.957591 kJ/mol
# Density = 1.797849 g / cm^3
# Si number density = 18.019500 Si / 1000 Ang^3
#
#
#
# Elastic Constant Matrix: (Units=GPa)
#
#
# Indices 1 2 3 4 5 6 
#
# 1 40.2133 43.3341 28.1404 0.0000 0.0000 0.0000
# 2 43.3341 137.3546 37.3599 0.0000 0.0000 0.0000
# 3 28.1404 37.3599 67.5468 0.0000 0.0000 0.0000
# 4 0.0000 0.0000 0.0000 21.8394 0.0000 0.0000
# 5 0.0000 0.0000 0.0000 0.0000 12.9297 0.0000
# 6 0.0000 0.0000 0.0000 0.0000 0.0000 30.4331
#
#
#
# Elastic Compliance Matrix: (Units=1/GPa)
#
#
# Indices 1 2 3 4 5 6 
#
# 1 0.045701 -0.010876 -0.013024 0.000000 0.000000 0.000000
# 2 -0.010876 0.011158 -0.001640 0.000000 0.000000 0.000000
# 3 -0.013024 -0.001640 0.021138 0.000000 0.000000 0.000000
# 4 0.000000 0.000000 0.000000 0.045789 0.000000 0.000000
# 5 0.000000 0.000000 0.000000 0.000000 0.077341 0.000000
# 6 0.000000 0.000000 0.000000 0.000000 0.000000 0.032859
#
#
# Mechanical properties :
#
#
# Convention : Reuss Voigt Hill
#
# Bulk Modulus (GPa) = 37.15230 51.42041 44.28635
# Shear Modulus (GPa) = 17.00460 22.12580 19.56520
#
# Velocity S-wave (km/s) = 3.07527 3.50791 3.29869
# Velocity P-wave (km/s) = 5.76821 6.70859 6.25610
#
# Compressibility (1/GPa) = 0.02691624
#
# Stress axis : x y z
#
# Youngs Moduli (GPa) = 21.88128 89.62303 47.30870
#
# Poissons Ratio (x) = 0.97472 0.61615
# Poissons Ratio (y) = 0.23798 0.07761
# Poissons Ratio (z) = 0.28498 0.14702
#
# Static dielectric constant tensor:
#      x y z
#    x 1.581710 0.000000 0.000000 
#    y 0.000000 1.668720 0.000000 
#    z 0.000000 0.000000 1.633040 
# 
# From -- ./inp_files/10813.got.cif
#   From: 2010.05.17/outbox.cif.g08.bks.cpg/sg20_6_cif.got.tgz:10813.got - 2010.06.03 22:52:26.
