data_PCOD9316422
_publ_section_title
;
Structure prediction by ZEFSAII (Michael W. Deem and Ramdas Pophale) SiO2 
 PCOD9316422
Probable space group: C 2 2 21
;
_chemical_formula_sum "Si O2"
_cell_formula_units_Z 40
_cell_length_a 23.388887
_cell_length_b 8.985567
_cell_length_c 8.099588
_cell_angle_alpha 90.000000
_cell_angle_beta 90.000000
_cell_angle_gamma 90.000000
_cell_volume 1702.228944
_symmetry_space_group_name_H-M "C 2 2 21"
_symmetry_group_IT_number 20
_symmetry_cell_setting 'orthorhombic'
loop_
_space_group_symop_operation_xyz
x,y,z
-x,-y,1/2+z
x,-y,-z
-x,y,1/2-z
1/2+x,1/2+y,z
1/2-x,1/2-y,1/2+z
1/2+x,1/2-y,-z
1/2-x,1/2+y,1/2-z
loop_
_atom_site_type_symbol
_atom_site_label
_atom_site_fract_x
_atom_site_fract_y
_atom_site_fract_z
Si Si1 0.024381 0.000000 0.500000
Si Si2 0.874256 0.691463 0.768004
Si Si3 0.628346 0.452626 0.275577
Si Si4 0.178394 0.278420 0.940859
Si Si5 0.000000 0.756874 0.750000
Si Si6 0.300556 0.206254 0.078387
O O1 0.068051 0.072641 0.632790
O O2 0.991900 0.130294 0.405112
O O3 0.848743 0.637760 0.595343
O O4 0.942082 0.666527 0.777656
O O5 0.865944 0.871816 0.760249
O O6 0.841186 0.646929 0.933457
O O7 0.634866 0.353092 0.113269
O O8 0.677907 0.375033 0.384784
O O9 0.193369 0.356321 0.764855
O O10 0.236987 0.206978 0.009046
#
# Coordination Sequence:
#
# PCOD9316422 Si02
#       6
#     4   8   8   8   4   8
#     4  10  18  28  40  62  90 118 160 186 208 252
#     4  11  18  33  43  65  91 119 160 177 219 256
#     4   9  17  30  40  61  86 118 152 189 206 258
#     4  10  19  28  46  59  83 120 152 184 231 253
#     4  10  20  26  42  64  88 120 152 192 204 260
#     4  10  18  30  42  63  83 117 154 191 218 261
#
# _framework density 23.498602999999999
#
# number of rings (size 3 to 8) (size 9 to 14) (size 15 to 20)
#    1.200    0.800    6.000    0.600    5.600    0.000 
#    0.000    0.000    0.000    0.000    0.000    0.000 
#    0.000    0.000    0.000   28.800    0.000    4.400 
#
# Total GULP energy -111567.167583 kJ/mol
# GULP energy per Si atom -5578.358379 kJ/mol
# Density = 2.344512 g / cm^3
# Si number density = 23.498603 Si / 1000 Ang^3
#
#
#
# Elastic Constant Matrix: (Units=GPa)
#
#
# Indices 1 2 3 4 5 6 
#
# 1 144.0091 -0.2264 66.1529 0.0000 0.0000 0.0000
# 2 -0.2264 62.3561 28.3915 0.0000 0.0000 0.0000
# 3 66.1529 28.3915 210.4886 0.0000 0.0000 0.0000
# 4 0.0000 0.0000 0.0000 35.6394 0.0000 0.0000
# 5 0.0000 0.0000 0.0000 0.0000 20.0632 0.0000
# 6 0.0000 0.0000 0.0000 0.0000 0.0000 -12.8759
#
#
#
# Elastic Compliance Matrix: (Units=1/GPa)
#
#
# Indices 1 2 3 4 5 6 
#
# 1 0.008211 0.001284 -0.002754 0.000000 0.000000 0.000000
# 2 0.001284 0.017287 -0.002735 0.000000 0.000000 0.000000
# 3 -0.002754 -0.002735 0.005985 0.000000 0.000000 0.000000
# 4 0.000000 0.000000 0.000000 0.028059 0.000000 0.000000
# 5 0.000000 0.000000 0.000000 0.000000 0.049843 0.000000
# 6 0.000000 0.000000 0.000000 0.000000 0.000000 -0.077665
#
#
# Mechanical properties :
#
#
# Convention : Reuss Voigt Hill
#
# Bulk Modulus (GPa) = 43.34140 67.27666 55.30903
# Shear Modulus (GPa) = 104.55605 30.06772 67.31188
#
# Velocity S-wave (km/s) = 6.67766 3.58097 5.35791
# Velocity P-wave (km/s) = 8.82832 6.76683 7.86540
#
# Compressibility (1/GPa) = 0.02307263
#
# Stress axis : x y z
#
# Youngs Moduli (GPa) = 121.78810 57.84721 167.07829
#
# Poissons Ratio (x) = -0.07425 0.46008
# Poissons Ratio (y) = -0.15633 0.45698
# Poissons Ratio (z) = 0.33537 0.15822
#
# Static dielectric constant tensor:
#      x y z
#    x 1.852410 0.000000 0.000000 
#    y 0.000000 1.940030 0.000000 
#    z 0.000000 0.000000 1.980970 
# 
# From -- ./inp_files/9424.got.cif
#   From: 2010.05.17/outbox.cif.g08.bks.cpg/sg20_5_cif.got.tgz:9424.got - 2010.06.03 22:52:26.
