data_PCOD9316116
_publ_section_title
;
Structure prediction by ZEFSAII (Michael W. Deem and Ramdas Pophale) SiO2 
 PCOD9316116
Probable space group: P 21 21 21
;
_chemical_formula_sum "Si O2"
_cell_formula_units_Z 16
_cell_length_a 5.379913
_cell_length_b 13.408972
_cell_length_c 7.834951
_cell_angle_alpha 90.000000
_cell_angle_beta 90.000000
_cell_angle_gamma 90.000000
_cell_volume 565.206335
_symmetry_space_group_name_H-M "P 21 21 21"
_symmetry_group_IT_number 19
_symmetry_cell_setting 'orthorhombic'
loop_
_space_group_symop_operation_xyz
x,y,z
1/2-x,-y,1/2+z
1/2+x,1/2-y,-z
-x,1/2+y,1/2-z
loop_
_atom_site_type_symbol
_atom_site_label
_atom_site_fract_x
_atom_site_fract_y
_atom_site_fract_z
Si Si1 0.927363 0.467065 0.185714
Si Si2 0.695481 0.141157 0.526323
Si Si3 0.826403 0.325746 0.730589
Si Si4 0.427002 0.379916 0.148332
O O1 0.977953 0.409203 0.361608
O O2 0.851577 0.579143 0.230493
O O3 0.695714 0.414989 0.093100
O O4 0.189000 0.444502 0.088273
O O5 0.706372 0.256841 0.581824
O O6 0.599068 0.138775 0.333720
O O7 0.923325 0.102051 0.644081
O O8 0.868203 0.237910 0.870601
#
# Coordination Sequence:
#
# PCOD9316116 Si02
#       4
#     4   4   4   4
#     4   9  18  33  47  76 108 131 163 216 262 293
#     4   8  19  30  50  84  96 130 184 196 261 302
#     4   9  17  33  57  73 110 133 165 232 241 298
#     4   8  20  30  46  79 100 128 178 202 254 313
#
# _framework density 28.308247000000001
#
# number of rings (size 3 to 8) (size 9 to 14) (size 15 to 20)
#    3.000    0.000    0.000    1.500    0.000    6.000 
#    0.000    0.000    0.000    6.000    0.000    0.000 
#    0.000    0.000    0.000    0.000    0.000    0.000 
#
# Total GULP energy -89099.394246 kJ/mol
# GULP energy per Si atom -5568.712140 kJ/mol
# Density = 2.824382 g / cm^3
# Si number density = 28.308247 Si / 1000 Ang^3
#
#
#
# Elastic Constant Matrix: (Units=GPa)
#
#
# Indices 1 2 3 4 5 6 
#
# 1 201.3926 77.3296 1.3501 0.0000 0.0000 0.0000
# 2 77.3296 133.8520 0.1896 0.0000 0.0000 0.0000
# 3 1.3501 0.1896 48.8385 0.0000 0.0000 0.0000
# 4 0.0000 0.0000 0.0000 40.1914 0.0000 0.0000
# 5 0.0000 0.0000 0.0000 0.0000 16.1164 0.0000
# 6 0.0000 0.0000 0.0000 0.0000 0.0000 47.0360
#
#
#
# Elastic Compliance Matrix: (Units=1/GPa)
#
#
# Indices 1 2 3 4 5 6 
#
# 1 0.006382 -0.003687 -0.000162 0.000000 0.000000 0.000000
# 2 -0.003687 0.009601 0.000065 0.000000 0.000000 0.000000
# 3 -0.000162 0.000065 0.020480 0.000000 0.000000 0.000000
# 4 0.000000 0.000000 0.000000 0.024881 0.000000 0.000000
# 5 0.000000 0.000000 0.000000 0.000000 0.062049 0.000000
# 6 0.000000 0.000000 0.000000 0.000000 0.000000 0.021260
#
#
# Mechanical properties :
#
#
# Convention : Reuss Voigt Hill
#
# Bulk Modulus (GPa) = 34.60906 60.20240 47.40573
# Shear Modulus (GPa) = 30.89225 41.01635 35.95430
#
# Velocity S-wave (km/s) = 3.30704 3.81060 3.56771
# Velocity P-wave (km/s) = 5.18019 6.37760 5.80982
#
# Compressibility (1/GPa) = 0.02889417
#
# Stress axis : x y z
#
# Youngs Moduli (GPa) = 156.68579 104.15719 48.82845
#
# Poissons Ratio (x) = 0.38402 0.00792
# Poissons Ratio (y) = 0.57769 -0.00316
# Poissons Ratio (z) = 0.02540 -0.00673
#
# Static dielectric constant tensor:
#      x y z
#    x 2.330730 0.000000 0.000000 
#    y 0.000000 2.229870 0.000000 
#    z 0.000000 0.000000 2.279060 
# 
# From -- ./inp_files/277.got.cif
#   From: 2010.05.17/outbox.cif.g08.bks.cpg/sg19_1_cif.got.tgz:277.got - 2010.06.03 22:46:19.
