data_PCOD9316273
_publ_section_title
;
Structure prediction by ZEFSAII (Michael W. Deem and Ramdas Pophale) SiO2 
 PCOD9316273
Probable space group: C 2 2 21
;
_chemical_formula_sum "Si O2"
_cell_formula_units_Z 60
_cell_length_a 5.375294
_cell_length_b 18.402146
_cell_length_c 27.913959
_cell_angle_alpha 90.000000
_cell_angle_beta 90.000000
_cell_angle_gamma 90.000000
_cell_volume 2761.163547
_symmetry_space_group_name_H-M "C 2 2 21"
_symmetry_group_IT_number 20
_symmetry_cell_setting 'orthorhombic'
loop_
_space_group_symop_operation_xyz
x,y,z
-x,-y,1/2+z
x,-y,-z
-x,y,1/2-z
1/2+x,1/2+y,z
1/2-x,1/2-y,1/2+z
1/2+x,1/2-y,-z
1/2-x,1/2+y,1/2-z
loop_
_atom_site_type_symbol
_atom_site_label
_atom_site_fract_x
_atom_site_fract_y
_atom_site_fract_z
Si Si1 0.529345 0.370605 0.414383
Si Si2 0.032024 0.455941 0.394037
Si Si3 0.777586 0.273233 0.339763
Si Si4 0.238527 0.434903 0.532476
Si Si5 0.888127 0.404070 0.200867
Si Si6 0.025339 0.198035 0.425442
Si Si7 0.500000 0.298981 0.250000
Si Si8 0.152926 0.674688 0.996918
O O1 0.250357 0.397781 0.407601
O O2 0.579340 0.303603 0.378447
O O3 0.601224 0.353588 0.469200
O O4 0.749319 0.427755 0.400123
O O5 0.074344 0.523775 0.427882
O O6 0.110281 0.466564 0.338674
O O7 0.954759 0.221482 0.371812
O O8 0.652374 0.251582 0.289056
O O9 0.935250 0.342902 0.322641
O O10 0.353671 0.500000 0.500000
O O11 0.414347 0.380491 0.561630
O O12 0.051631 0.387603 0.500090
O O13 0.653896 0.355605 0.216794
O O14 0.000000 0.432438 0.250000
O O15 0.919609 0.259129 0.462392
O O16 0.302047 0.195417 0.447683
#
# Coordination Sequence:
#
# PCOD9316273 Si02
#       8
#     8   8   8   8   8   8   4   8
#     4  10  21  38  62  91 133 172 217 271 333 388
#     4  11  22  39  62  96 133 168 219 278 332 399
#     4   9  20  35  61  96 127 173 219 285 334 408
#     4  12  25  41  63  95 132 179 224 274 338 398
#     4   9  19  35  62  97 127 164 221 279 339 403
#     4  11  24  40  61  91 131 176 232 272 341 405
#     4  10  16  36  64  98 128 164 224 288 346 398
#     4  11  23  40  60  89 132 182 219 277 327 407
#
# _framework density 21.729970000000002
#
# number of rings (size 3 to 8) (size 9 to 14) (size 15 to 20)
#    0.000    1.600    4.000    0.800    1.867    2.667 
#    0.000    0.000    1.467    0.000    5.200    0.000 
#    0.000    0.000    0.000    0.000    0.000    0.000 
#
# Total GULP energy -167217.749615 kJ/mol
# GULP energy per Si atom -5573.924987 kJ/mol
# Density = 2.168051 g / cm^3
# Si number density = 21.729970 Si / 1000 Ang^3
#
#
#
# Elastic Constant Matrix: (Units=GPa)
#
#
# Indices 1 2 3 4 5 6 
#
# 1 49.4357 6.5460 22.9840 0.0000 0.0000 0.0000
# 2 6.5460 65.8794 25.6750 0.0000 0.0000 0.0000
# 3 22.9840 25.6750 143.9553 0.0000 0.0000 0.0000
# 4 0.0000 0.0000 0.0000 29.3786 0.0000 0.0000
# 5 0.0000 0.0000 0.0000 0.0000 45.4090 0.0000
# 6 0.0000 0.0000 0.0000 0.0000 0.0000 26.8888
#
#
#
# Elastic Compliance Matrix: (Units=1/GPa)
#
#
# Indices 1 2 3 4 5 6 
#
# 1 0.021897 -0.000874 -0.003340 0.000000 0.000000 0.000000
# 2 -0.000874 0.016348 -0.002776 0.000000 0.000000 0.000000
# 3 -0.003340 -0.002776 0.007975 0.000000 0.000000 0.000000
# 4 0.000000 0.000000 0.000000 0.034038 0.000000 0.000000
# 5 0.000000 0.000000 0.000000 0.000000 0.022022 0.000000
# 6 0.000000 0.000000 0.000000 0.000000 0.000000 0.037190
#
#
# Mechanical properties :
#
#
# Convention : Reuss Voigt Hill
#
# Bulk Modulus (GPa) = 31.01804 41.07560 36.04682
# Shear Modulus (GPa) = 30.45105 33.93964 32.19535
#
# Velocity S-wave (km/s) = 3.74751 3.95635 3.85334
# Velocity P-wave (km/s) = 5.74721 6.30984 6.03508
#
# Compressibility (1/GPa) = 0.03223931
#
# Stress axis : x y z
#
# Youngs Moduli (GPa) = 45.66838 61.16940 125.39103
#
# Poissons Ratio (x) = 0.05346 0.41883
# Poissons Ratio (y) = 0.03991 0.34811
# Poissons Ratio (z) = 0.15254 0.16982
#
# Static dielectric constant tensor:
#      x y z
#    x 1.909700 0.000000 0.000000 
#    y 0.000000 1.846600 0.000000 
#    z 0.000000 0.000000 1.904530 
# 
# From -- ./inp_files/30816.got.cif
#   From: 2010.05.17/outbox.cif.g08.bks.cpg/sg20_16_cif.got.tgz:30816.got - 2010.06.03 22:52:26.
