data_PCOD9316303
_publ_section_title
;
Structure prediction by ZEFSAII (Michael W. Deem and Ramdas Pophale) SiO2 
 PCOD9316303
Probable space group: C 2 2 21
;
_chemical_formula_sum "Si O2"
_cell_formula_units_Z 40
_cell_length_a 22.552290
_cell_length_b 6.918059
_cell_length_c 10.675497
_cell_angle_alpha 90.000000
_cell_angle_beta 90.000000
_cell_angle_gamma 90.000000
_cell_volume 1665.570468
_symmetry_space_group_name_H-M "C 2 2 21"
_symmetry_group_IT_number 20
_symmetry_cell_setting 'orthorhombic'
loop_
_space_group_symop_operation_xyz
x,y,z
-x,-y,1/2+z
x,-y,-z
-x,y,1/2-z
1/2+x,1/2+y,z
1/2-x,1/2-y,1/2+z
1/2+x,1/2-y,-z
1/2-x,1/2+y,1/2-z
loop_
_atom_site_type_symbol
_atom_site_label
_atom_site_fract_x
_atom_site_fract_y
_atom_site_fract_z
Si Si1 0.651372 0.274250 0.125652
Si Si2 0.853592 0.216090 0.894491
Si Si3 0.500000 0.695106 0.250000
Si Si4 0.208839 0.206819 0.363935
Si Si5 0.623949 0.731287 0.150926
Si Si6 0.537976 0.500000 0.500000
O O1 0.636849 0.184920 0.261193
O O2 0.722139 0.246092 0.121099
O O3 0.629454 0.496485 0.139441
O O4 0.625950 0.203776 0.993179
O O5 0.814365 0.017854 0.868700
O O6 0.820739 0.300380 0.013994
O O7 0.917797 0.160776 0.946320
O O8 0.564665 0.789367 0.227222
O O9 0.504280 0.575858 0.379255
O O10 0.181970 0.282530 0.233235
#
# Coordination Sequence:
#
# PCOD9316303 Si02
#       6
#     8   8   4   8   8   4
#     4  10  17  29  45  65  93 121 159 185 223 285
#     4   9  17  31  39  69  93 121 156 177 244 259
#     4  12  18  32  46  62 104 124 150 188 232 298
#     4   9  16  30  45  60  96 125 150 192 224 276
#     4  10  20  29  43  73  91 126 151 186 237 270
#     4  10  18  28  44  58  92 130 142 182 218 282
#
# _framework density 24.015796000000002
#
# number of rings (size 3 to 8) (size 9 to 14) (size 15 to 20)
#    0.000    2.400    6.000    2.400    0.000    0.000 
#    0.000    0.000    0.000    0.000    0.000    0.000 
#    0.000   44.800    0.000    0.000    0.000    0.000 
#
# Total GULP energy -111472.834737 kJ/mol
# GULP energy per Si atom -5573.641737 kJ/mol
# Density = 2.396113 g / cm^3
# Si number density = 24.015796 Si / 1000 Ang^3
#
#
#
# Elastic Constant Matrix: (Units=GPa)
#
#
# Indices 1 2 3 4 5 6 
#
# 1 122.9920 8.5418 31.5730 0.0000 0.0000 0.0000
# 2 8.5418 89.1627 -8.2580 0.0000 0.0000 0.0000
# 3 31.5730 -8.2580 226.0256 0.0000 0.0000 0.0000
# 4 0.0000 0.0000 0.0000 -28.8355 0.0000 0.0000
# 5 0.0000 0.0000 0.0000 0.0000 52.7818 0.0000
# 6 0.0000 0.0000 0.0000 0.0000 0.0000 8.8577
#
#
#
# Elastic Compliance Matrix: (Units=1/GPa)
#
#
# Indices 1 2 3 4 5 6 
#
# 1 0.008509 -0.000928 -0.001223 0.000000 0.000000 0.000000
# 2 -0.000928 0.011355 0.000545 0.000000 0.000000 0.000000
# 3 -0.001223 0.000545 0.004615 0.000000 0.000000 0.000000
# 4 0.000000 0.000000 0.000000 -0.034680 0.000000 0.000000
# 5 0.000000 0.000000 0.000000 0.000000 0.018946 0.000000
# 6 0.000000 0.000000 0.000000 0.000000 0.000000 0.112896
#
#
# Mechanical properties :
#
#
# Convention : Reuss Voigt Hill
#
# Bulk Modulus (GPa) = 47.02345 55.76598 51.39471
# Shear Modulus (GPa) = 37.89541 33.64904 35.77223
#
# Velocity S-wave (km/s) = 3.97663 3.74722 3.86363
# Velocity P-wave (km/s) = 6.38025 6.48021 6.43042
#
# Compressibility (1/GPa) = 0.02126599
#
# Stress axis : x y z
#
# Youngs Moduli (GPa) = 117.52377 88.06823 216.68739
#
# Poissons Ratio (x) = 0.08176 0.26490
# Poissons Ratio (y) = 0.10911 -0.11800
# Poissons Ratio (z) = 0.14367 -0.04796
#
# Static dielectric constant tensor:
#      x y z
#    x 1.908360 0.000000 0.000000 
#    y 0.000000 1.960900 0.000000 
#    z 0.000000 0.000000 1.965640 
# 
# From -- ./inp_files/16177.got.cif
#   From: 2010.05.17/outbox.cif.g08.bks.cpg/sg20_9_cif.got.tgz:16177.got - 2010.06.03 22:52:26.
