data_PCOD9316024
_publ_section_title
;
Structure prediction by ZEFSAII (Michael W. Deem and Ramdas Pophale) SiO2 
 PCOD9316024
Probable space group: P 21 21 21
;
_chemical_formula_sum "Si O2"
_cell_formula_units_Z 24
_cell_length_a 9.835651
_cell_length_b 6.531226
_cell_length_c 16.945520
_cell_angle_alpha 90.000000
_cell_angle_beta 90.000000
_cell_angle_gamma 90.000000
_cell_volume 1088.560879
_symmetry_space_group_name_H-M "P 21 21 21"
_symmetry_group_IT_number 19
_symmetry_cell_setting 'orthorhombic'
loop_
_space_group_symop_operation_xyz
x,y,z
1/2-x,-y,1/2+z
1/2+x,1/2-y,-z
-x,1/2+y,1/2-z
loop_
_atom_site_type_symbol
_atom_site_label
_atom_site_fract_x
_atom_site_fract_y
_atom_site_fract_z
Si Si1 0.210660 0.501870 0.911391
Si Si2 0.148601 0.146830 0.798091
Si Si3 0.789340 0.001865 0.411391
Si Si4 0.021361 0.298228 0.359076
Si Si5 0.478640 0.701766 0.140924
Si Si6 0.851399 0.646824 0.298091
O O1 0.222745 0.325785 0.845802
O O2 0.334264 0.660090 0.898999
O O3 0.069711 0.621060 0.896457
O O4 0.215070 0.419601 1.000000
O O5 0.050641 0.244569 0.732303
O O6 0.250000 0.000003 0.750000
O O7 0.064014 0.007643 0.858306
O O8 0.777255 0.825778 0.345803
O O9 0.665736 0.160084 0.398998
O O10 0.930289 0.121054 0.396457
O O11 0.050643 0.244564 0.267697
O O12 0.935987 0.507638 0.358306
#
# Coordination Sequence:
#
# PCOD9316024 Si02
#       6
#     4   4   4   4   4   4
#     4  12  28  45  71 109 147 185 235 302 365 417
#     4  12  24  46  75 103 140 188 243 286 348 436
#     4  12  28  45  71 109 147 185 235 302 365 417
#     4  12  24  47  74 103 141 190 238 290 358 431
#     4  12  24  47  74 103 141 190 238 290 358 431
#     4  12  24  46  75 103 140 188 243 286 348 436
#
# _framework density 22.047460000000001
#
# number of rings (size 3 to 8) (size 9 to 14) (size 15 to 20)
#    0.000    0.000    6.667    4.000    0.000    2.667 
#    0.000    0.000    0.000    0.000    0.000    0.000 
#    0.000    0.000    0.000    0.000    0.000    0.000 
#
# Total GULP energy -134406.953754 kJ/mol
# GULP energy per Si atom -5600.289740 kJ/mol
# Density = 2.199728 g / cm^3
# Si number density = 22.047460 Si / 1000 Ang^3
#
#
#
# Elastic Constant Matrix: (Units=GPa)
#
#
# Indices 1 2 3 4 5 6 
#
# 1 101.4415 41.0405 28.4875 0.0000 0.0000 0.0000
# 2 41.0405 83.1622 25.3979 0.0000 0.0000 0.0000
# 3 28.4875 25.3979 95.0246 0.0000 0.0000 0.0000
# 4 0.0000 0.0000 0.0000 25.9159 0.0000 0.0000
# 5 0.0000 0.0000 0.0000 0.0000 -0.1250 0.0000
# 6 0.0000 0.0000 0.0000 0.0000 0.0000 39.9302
#
#
#
# Elastic Compliance Matrix: (Units=1/GPa)
#
#
# Indices 1 2 3 4 5 6 
#
# 1 0.012776 -0.005592 -0.002336 0.000000 0.000000 0.000000
# 2 -0.005592 0.015541 -0.002477 0.000000 0.000000 0.000000
# 3 -0.002336 -0.002477 0.011886 0.000000 0.000000 0.000000
# 4 0.000000 0.000000 0.000000 0.038586 0.000000 0.000000
# 5 0.000000 0.000000 0.000000 0.000000 -7.997618 0.000000
# 6 0.000000 0.000000 0.000000 0.000000 0.000000 0.025044
#
#
# Mechanical properties :
#
#
# Convention : Reuss Voigt Hill
#
# Bulk Modulus (GPa) = 51.56379 52.16445 51.86412
# Shear Modulus (GPa) = -0.63561 25.45772 12.41106
#
# Velocity S-wave (km/s) = -0.53751 3.40174 2.37518
# Velocity P-wave (km/s) = 4.80137 6.25624 5.57646
#
# Compressibility (1/GPa) = 0.01939345
#
# Stress axis : x y z
#
# Youngs Moduli (GPa) = 78.27159 64.34689 84.13309
#
# Poissons Ratio (x) = 0.35981 0.19650
# Poissons Ratio (y) = 0.43767 0.20843
# Poissons Ratio (z) = 0.18281 0.15941
#
# Static dielectric constant tensor:
#      x y z
#    x 1.829930 0.000000 0.000000 
#    y 0.000000 1.803130 0.000000 
#    z 0.000000 0.000000 1.794840 
# 
# From -- ./inp_files/410.got.cif
#   From: 2010.05.17/outbox.cif.g08.bks.cpg/sg19_1_cif.got.tgz:410.got - 2010.06.03 22:46:19.
