data_PCOD9316462
_publ_section_title
;
Structure prediction by ZEFSAII (Michael W. Deem and Ramdas Pophale) SiO2 
 PCOD9316462
Probable space group: C 2 2 21
;
_chemical_formula_sum "Si O2"
_cell_formula_units_Z 48
_cell_length_a 24.344520
_cell_length_b 11.410614
_cell_length_c 7.663204
_cell_angle_alpha 90.000000
_cell_angle_beta 90.000000
_cell_angle_gamma 90.000000
_cell_volume 2128.730179
_symmetry_space_group_name_H-M "C 2 2 21"
_symmetry_group_IT_number 20
_symmetry_cell_setting 'orthorhombic'
loop_
_space_group_symop_operation_xyz
x,y,z
-x,-y,1/2+z
x,-y,-z
-x,y,1/2-z
1/2+x,1/2+y,z
1/2-x,1/2-y,1/2+z
1/2+x,1/2-y,-z
1/2-x,1/2+y,1/2-z
loop_
_atom_site_type_symbol
_atom_site_label
_atom_site_fract_x
_atom_site_fract_y
_atom_site_fract_z
Si Si1 0.684226 0.879084 0.103578
Si Si2 0.521123 0.362770 0.451139
Si Si3 0.367862 0.697088 0.827843
Si Si4 0.740239 0.765580 0.788570
Si Si5 0.828026 0.044732 0.310111
Si Si6 0.911941 0.231681 0.437336
O O1 0.725237 0.854391 0.263093
O O2 0.709890 0.780305 0.973330
O O3 0.621335 0.842762 0.139200
O O4 0.687476 0.000000 0.000000
O O5 0.522340 0.500000 0.500000
O O6 0.500000 0.359947 0.250000
O O7 0.581925 0.306959 0.461123
O O8 0.476538 0.290316 0.561851
O O9 0.312033 0.771109 0.843928
O O10 0.345200 0.565441 0.805072
O O11 0.395171 0.731944 0.642683
O O12 0.782888 0.871779 0.774380
O O13 0.882683 0.119838 0.350449
O O14 0.809683 0.000000 0.500000
#
# Coordination Sequence:
#
# PCOD9316462 Si02
#       6
#     8   8   8   8   8   8
#     4  10  20  34  53  77 105 140 180 218 261 316
#     4  10  18  30  49  72  99 129 166 215 268 315
#     4   9  17  28  45  73  98 125 163 209 261 304
#     4  10  20  32  49  76 107 136 170 214 261 313
#     4   9  16  30  49  68  99 137 169 201 254 319
#     4   8  16  30  47  68  94 129 167 203 253 313
#
# _framework density 22.548652000000001
#
# number of rings (size 3 to 8) (size 9 to 14) (size 15 to 20)
#    0.000    2.667    0.000    4.500    0.000    2.000 
#    0.000    0.000    0.000    1.000    0.000   26.833 
#    0.000    0.000    0.000    0.000    0.000    0.000 
#
# Total GULP energy -133939.415048 kJ/mol
# GULP energy per Si atom -5580.808960 kJ/mol
# Density = 2.249733 g / cm^3
# Si number density = 22.548652 Si / 1000 Ang^3
#
#
#
# Elastic Constant Matrix: (Units=GPa)
#
#
# Indices 1 2 3 4 5 6 
#
# 1 175.7421 10.5464 17.1205 0.0000 0.0000 0.0000
# 2 10.5464 44.1096 -4.3879 0.0000 0.0000 0.0000
# 3 17.1205 -4.3879 48.2400 0.0000 0.0000 0.0000
# 4 0.0000 0.0000 0.0000 25.6730 0.0000 0.0000
# 5 0.0000 0.0000 0.0000 0.0000 28.5979 0.0000
# 6 0.0000 0.0000 0.0000 0.0000 0.0000 25.1501
#
#
#
# Elastic Compliance Matrix: (Units=1/GPa)
#
#
# Indices 1 2 3 4 5 6 
#
# 1 0.006013 -0.001665 -0.002285 0.000000 0.000000 0.000000
# 2 -0.001665 0.023339 0.002714 0.000000 0.000000 0.000000
# 3 -0.002285 0.002714 0.021788 0.000000 0.000000 0.000000
# 4 0.000000 0.000000 0.000000 0.038951 0.000000 0.000000
# 5 0.000000 0.000000 0.000000 0.000000 0.034968 0.000000
# 6 0.000000 0.000000 0.000000 0.000000 0.000000 0.039761
#
#
# Mechanical properties :
#
#
# Convention : Reuss Voigt Hill
#
# Bulk Modulus (GPa) = 20.54817 34.96107 27.75462
# Shear Modulus (GPa) = 27.24579 32.20505 29.72542
#
# Velocity S-wave (km/s) = 3.47985 3.78332 3.63475
# Velocity P-wave (km/s) = 5.02776 5.88413 5.47272
#
# Compressibility (1/GPa) = 0.04866614
#
# Stress axis : x y z
#
# Youngs Moduli (GPa) = 166.31438 42.84701 45.89765
#
# Poissons Ratio (x) = 0.07134 0.10489
# Poissons Ratio (y) = 0.27691 -0.12456
# Poissons Ratio (z) = 0.38009 -0.11628
#
# Static dielectric constant tensor:
#      x y z
#    x 1.892320 0.000000 0.000000 
#    y 0.000000 1.826640 0.000000 
#    z 0.000000 0.000000 1.976810 
# 
# From -- ./inp_files/10652.got.cif
#   From: 2010.05.17/outbox.cif.g08.bks.cpg/sg20_6_cif.got.tgz:10652.got - 2010.06.03 22:52:26.
