data_PCOD9316372
_publ_section_title
;
Structure prediction by ZEFSAII (Michael W. Deem and Ramdas Pophale) SiO2 
 PCOD9316372
Probable space group: C 2 2 21
;
_chemical_formula_sum "Si O2"
_cell_formula_units_Z 48
_cell_length_a 23.472075
_cell_length_b 5.724070
_cell_length_c 18.046714
_cell_angle_alpha 90.000000
_cell_angle_beta 90.000000
_cell_angle_gamma 90.000000
_cell_volume 2424.680703
_symmetry_space_group_name_H-M "C 2 2 21"
_symmetry_group_IT_number 20
_symmetry_cell_setting 'orthorhombic'
loop_
_space_group_symop_operation_xyz
x,y,z
-x,-y,1/2+z
x,-y,-z
-x,y,1/2-z
1/2+x,1/2+y,z
1/2-x,1/2-y,1/2+z
1/2+x,1/2-y,-z
1/2-x,1/2+y,1/2-z
loop_
_atom_site_type_symbol
_atom_site_label
_atom_site_fract_x
_atom_site_fract_y
_atom_site_fract_z
Si Si1 0.927415 0.597202 0.812886
Si Si2 0.814494 0.812729 0.808628
Si Si3 0.108918 0.195222 0.774663
Si Si4 0.043841 0.188283 0.151690
Si Si5 0.296020 0.032120 0.665480
Si Si6 0.641922 0.250840 0.959048
O O1 0.866834 0.675073 0.845434
O O2 0.923064 0.324578 0.793496
O O3 0.933740 0.689258 0.727522
O O4 0.979757 0.718299 0.853989
O O5 0.787914 0.641868 0.746768
O O6 0.847236 0.017490 0.764315
O O7 0.762419 0.907129 0.856184
O O8 0.150320 0.358309 0.824024
O O9 0.061264 0.076689 0.826860
O O10 0.080147 0.249628 0.080015
O O11 0.313657 0.232661 0.608763
O O12 0.648731 0.500000 0.000000
O O13 0.649110 0.000000 0.000000
#
# Coordination Sequence:
#
# PCOD9316372 Si02
#       6
#     8   8   8   8   8   8
#     4   9  20  33  57  92 115 153 191 266 332 361
#     4  10  19  32  58  92 117 157 188 268 328 361
#     4  10  17  34  55  91 124 151 190 257 333 372
#     4  10  20  37  56  88 125 152 207 253 317 374
#     4  11  20  35  59  90 126 158 211 254 320 380
#     4  12  26  42  62  91 127 177 214 252 303 383
#
# _framework density 19.796420999999999
#
# number of rings (size 3 to 8) (size 9 to 14) (size 15 to 20)
#    0.000    1.667    6.667    1.000    0.000    5.333 
#    0.000    0.000    0.000    1.000    0.000    0.000 
#    0.000    0.000    0.000    0.000    0.000    0.000 
#
# Total GULP energy -133602.671501 kJ/mol
# GULP energy per Si atom -5566.777979 kJ/mol
# Density = 1.975136 g / cm^3
# Si number density = 19.796421 Si / 1000 Ang^3
#
#
#
# Elastic Constant Matrix: (Units=GPa)
#
#
# Indices 1 2 3 4 5 6 
#
# 1 132.1016 27.9597 7.7129 0.0000 0.0000 0.0000
# 2 27.9597 71.2073 4.3874 0.0000 0.0000 0.0000
# 3 7.7129 4.3874 15.6598 0.0000 0.0000 0.0000
# 4 0.0000 0.0000 0.0000 28.5687 0.0000 0.0000
# 5 0.0000 0.0000 0.0000 0.0000 13.2128 0.0000
# 6 0.0000 0.0000 0.0000 0.0000 0.0000 21.6086
#
#
#
# Elastic Compliance Matrix: (Units=1/GPa)
#
#
# Indices 1 2 3 4 5 6 
#
# 1 0.008418 -0.003104 -0.003277 0.000000 0.000000 0.000000
# 2 -0.003104 0.015434 -0.002796 0.000000 0.000000 0.000000
# 3 -0.003277 -0.002796 0.066255 0.000000 0.000000 0.000000
# 4 0.000000 0.000000 0.000000 0.035003 0.000000 0.000000
# 5 0.000000 0.000000 0.000000 0.000000 0.075684 0.000000
# 6 0.000000 0.000000 0.000000 0.000000 0.000000 0.046278
#
#
# Mechanical properties :
#
#
# Convention : Reuss Voigt Hill
#
# Bulk Modulus (GPa) = 13.93618 33.23208 23.58413
# Shear Modulus (GPa) = 17.28053 24.60526 20.94290
#
# Velocity S-wave (km/s) = 2.95771 3.52932 3.25609
# Velocity P-wave (km/s) = 4.32656 5.78200 5.10640
#
# Compressibility (1/GPa) = 0.07175569
#
# Stress axis : x y z
#
# Youngs Moduli (GPa) = 118.79156 64.79050 15.09324
#
# Poissons Ratio (x) = 0.20108 0.04946
# Poissons Ratio (y) = 0.36867 0.04220
# Poissons Ratio (z) = 0.38924 0.18113
#
# Static dielectric constant tensor:
#      x y z
#    x 1.728060 0.000000 0.000000 
#    y 0.000000 1.884630 0.000000 
#    z 0.000000 0.000000 1.714400 
# 
# From -- ./inp_files/25581.got.cif
#   From: 2010.05.17/outbox.cif.g08.bks.cpg/sg20_13_cif.got.tgz:25581.got - 2010.06.03 22:52:26.
