data_PCOD9316664
_publ_section_title
;
Structure prediction by ZEFSAII (Michael W. Deem and Ramdas Pophale) SiO2 
 PCOD9316664
Probable space group: C 2 2 21
;
_chemical_formula_sum "Si O2"
_cell_formula_units_Z 52
_cell_length_a 10.684639
_cell_length_b 16.640350
_cell_length_c 15.366131
_cell_angle_alpha 90.000000
_cell_angle_beta 90.000000
_cell_angle_gamma 90.000000
_cell_volume 2732.038665
_symmetry_space_group_name_H-M "C 2 2 21"
_symmetry_group_IT_number 20
_symmetry_cell_setting 'orthorhombic'
loop_
_space_group_symop_operation_xyz
x,y,z
-x,-y,1/2+z
x,-y,-z
-x,y,1/2-z
1/2+x,1/2+y,z
1/2-x,1/2-y,1/2+z
1/2+x,1/2-y,-z
1/2-x,1/2+y,1/2-z
loop_
_atom_site_type_symbol
_atom_site_label
_atom_site_fract_x
_atom_site_fract_y
_atom_site_fract_z
Si Si1 0.000000 0.042073 0.250000
Si Si2 0.000000 0.809185 0.250000
Si Si3 0.374355 0.771913 0.131394
Si Si4 0.267197 0.993166 0.774044
Si Si5 0.727913 0.194239 0.293118
Si Si6 0.500000 0.101404 0.750000
Si Si7 0.932449 0.150296 0.416700
Si Si8 0.158018 0.889395 0.096747
O O1 0.966247 0.094234 0.334685
O O2 0.867594 0.000902 0.226708
O O3 0.891349 0.751997 0.210961
O O4 0.937583 0.861046 0.327442
O O5 0.318044 0.723397 0.214230
O O6 0.465460 0.839959 0.170792
O O7 0.454407 0.712592 0.072692
O O8 0.258718 0.817560 0.088689
O O9 0.378270 0.046338 0.734789
O O10 0.233229 0.033503 0.867358
O O11 0.304807 0.899894 0.779315
O O12 0.809185 0.196432 0.381155
O O13 0.907003 0.102684 0.504450
#
# Coordination Sequence:
#
# PCOD9316664 Si02
#       8
#     4   4   8   8   8   4   8   8
#     4  10  20  36  62  84 122 154 210 234 310 358
#     4  10  22  40  53  95 118 152 190 264 288 358
#     4  10  18  38  57  88 110 159 200 239 293 371
#     4  10  20  37  56  93 111 159 192 254 288 364
#     4  10  19  35  62  80 118 154 198 231 304 354
#     4  10  18  34  63  85 116 150 202 248 300 344
#     4  11  19  37  60  87 112 168 195 248 287 374
#     4  10  24  34  60  87 127 144 207 248 306 337
#
# _framework density 19.033407
#
# number of rings (size 3 to 8) (size 9 to 14) (size 15 to 20)
#    0.000    1.846    4.615    0.923    2.154    2.462 
#    0.000    0.000    0.000    0.000    0.000    0.000 
#    0.000    0.000    0.000    0.000    0.000    0.000 
#
# Total GULP energy -144949.948892 kJ/mol
# GULP energy per Si atom -5574.998034 kJ/mol
# Density = 1.899009 g / cm^3
# Si number density = 19.033407 Si / 1000 Ang^3
#
#
#
# Elastic Constant Matrix: (Units=GPa)
#
#
# Indices 1 2 3 4 5 6 
#
# 1 105.0520 31.2064 28.8004 0.0000 0.0000 0.0000
# 2 31.2064 91.6664 29.2498 0.0000 0.0000 0.0000
# 3 28.8004 29.2498 89.3158 0.0000 0.0000 0.0000
# 4 0.0000 0.0000 0.0000 7.8250 0.0000 0.0000
# 5 0.0000 0.0000 0.0000 0.0000 19.2797 0.0000
# 6 0.0000 0.0000 0.0000 0.0000 0.0000 44.2108
#
#
#
# Elastic Compliance Matrix: (Units=1/GPa)
#
#
# Indices 1 2 3 4 5 6 
#
# 1 0.011112 -0.002948 -0.002618 0.000000 0.000000 0.000000
# 2 -0.002948 0.012964 -0.003295 0.000000 0.000000 0.000000
# 3 -0.002618 -0.003295 0.013119 0.000000 0.000000 0.000000
# 4 0.000000 0.000000 0.000000 0.127796 0.000000 0.000000
# 5 0.000000 0.000000 0.000000 0.000000 0.051868 0.000000
# 6 0.000000 0.000000 0.000000 0.000000 0.000000 0.022619
#
#
# Mechanical properties :
#
#
# Convention : Reuss Voigt Hill
#
# Bulk Modulus (GPa) = 51.34900 51.61639 51.48269
# Shear Modulus (GPa) = 18.96156 27.38160 23.17158
#
# Velocity S-wave (km/s) = 3.15973 3.79701 3.49293
# Velocity P-wave (km/s) = 6.35207 6.81181 6.58595
#
# Compressibility (1/GPa) = 0.01947458
#
# Stress axis : x y z
#
# Youngs Moduli (GPa) = 89.98920 77.13645 76.22246
#
# Poissons Ratio (x) = 0.22737 0.19955
# Poissons Ratio (y) = 0.26526 0.25116
# Poissons Ratio (z) = 0.23559 0.25417
#
# Static dielectric constant tensor:
#      x y z
#    x 1.699390 0.000000 0.000000 
#    y 0.000000 1.717740 0.000000 
#    z 0.000000 0.000000 1.634530 
# 
# From -- ./inp_files/20212.got.cif
#   From: 2010.05.17/outbox.cif.g08.bks.cpg/sg20_11_cif.got.tgz:20212.got - 2010.06.03 22:52:26.
