data_PCOD9316867
_publ_section_title
;
Structure prediction by ZEFSAII (Michael W. Deem and Ramdas Pophale) SiO2 
 PCOD9316867
Probable space group: C 2 2 21
;
_chemical_formula_sum "Si O2"
_cell_formula_units_Z 44
_cell_length_a 23.302523
_cell_length_b 9.779456
_cell_length_c 10.446241
_cell_angle_alpha 90.000000
_cell_angle_beta 90.000000
_cell_angle_gamma 90.000000
_cell_volume 2380.552059
_symmetry_space_group_name_H-M "C 2 2 21"
_symmetry_group_IT_number 20
_symmetry_cell_setting 'orthorhombic'
loop_
_space_group_symop_operation_xyz
x,y,z
-x,-y,1/2+z
x,-y,-z
-x,y,1/2-z
1/2+x,1/2+y,z
1/2-x,1/2-y,1/2+z
1/2+x,1/2-y,-z
1/2-x,1/2+y,1/2-z
loop_
_atom_site_type_symbol
_atom_site_label
_atom_site_fract_x
_atom_site_fract_y
_atom_site_fract_z
Si Si1 0.917459 0.071004 0.364361
Si Si2 0.596303 0.148462 0.552779
Si Si3 0.897291 0.896272 0.116410
Si Si4 0.500000 0.212525 0.750000
Si Si5 0.686229 0.275476 0.749728
Si Si6 0.236681 0.961240 0.358819
O O1 0.857488 0.152331 0.347903
O O2 0.964639 0.186367 0.341679
O O3 0.922347 0.000000 0.500000
O O4 0.920815 0.961243 0.247722
O O5 0.582300 0.249234 0.433790
O O6 0.544776 0.135773 0.656952
O O7 0.647113 0.227255 0.629589
O O8 0.612458 0.000000 0.500000
O O9 0.827927 0.899415 0.132751
O O10 0.911075 0.000000 0.000000
O O11 0.720128 0.145515 0.798842
O O12 0.729886 0.395564 0.713570
O O13 0.256037 0.000000 0.500000
#
# Coordination Sequence:
#
# PCOD9316867 Si02
#       6
#     8   8   8   4   8   8
#     4  10  22  39  63  94 123 155 211 264 303 368
#     4  11  23  43  64  90 128 167 209 265 323 378
#     4  10  18  42  64  87 120 163 209 252 304 372
#     4  10  22  42  64  90 124 156 214 268 310 374
#     4  10  22  38  59  92 124 162 209 257 305 368
#     4  10  20  36  59  88 124 160 206 252 302 375
#
# _framework density 18.483108000000001
#
# number of rings (size 3 to 8) (size 9 to 14) (size 15 to 20)
#    0.000    1.818    7.273    0.000    5.091    2.909 
#    3.273    1.818    0.000    0.000    0.000    0.000 
#    0.000    0.000    0.000    0.000    0.000    0.000 
#
# Total GULP energy -122710.652852 kJ/mol
# GULP energy per Si atom -5577.756948 kJ/mol
# Density = 1.844104 g / cm^3
# Si number density = 18.483108 Si / 1000 Ang^3
#
#
#
# Elastic Constant Matrix: (Units=GPa)
#
#
# Indices 1 2 3 4 5 6 
#
# 1 25.4315 11.8287 11.6038 0.0000 0.0000 0.0000
# 2 11.8287 80.6479 13.6070 0.0000 0.0000 0.0000
# 3 11.6038 13.6070 82.8247 0.0000 0.0000 0.0000
# 4 0.0000 0.0000 0.0000 32.1845 0.0000 0.0000
# 5 0.0000 0.0000 0.0000 0.0000 80.4357 0.0000
# 6 0.0000 0.0000 0.0000 0.0000 0.0000 13.2422
#
#
#
# Elastic Compliance Matrix: (Units=1/GPa)
#
#
# Indices 1 2 3 4 5 6 
#
# 1 0.044345 -0.005612 -0.005291 0.000000 0.000000 0.000000
# 2 -0.005612 0.013463 -0.001426 0.000000 0.000000 0.000000
# 3 -0.005291 -0.001426 0.013049 0.000000 0.000000 0.000000
# 4 0.000000 0.000000 0.000000 0.031071 0.000000 0.000000
# 5 0.000000 0.000000 0.000000 0.000000 0.012432 0.000000
# 6 0.000000 0.000000 0.000000 0.000000 0.000000 0.075516
#
#
# Mechanical properties :
#
#
# Convention : Reuss Voigt Hill
#
# Bulk Modulus (GPa) = 21.64426 29.22035 25.43231
# Shear Modulus (GPa) = 21.74540 35.29679 28.52110
#
# Velocity S-wave (km/s) = 3.43374 4.37473 3.93248
# Velocity P-wave (km/s) = 5.23989 6.43127 5.86590
#
# Compressibility (1/GPa) = 0.04620162
#
# Stress axis : x y z
#
# Youngs Moduli (GPa) = 22.55024 74.27681 76.63329
#
# Poissons Ratio (x) = 0.41681 0.40546
# Poissons Ratio (y) = 0.12654 0.10925
# Poissons Ratio (z) = 0.11931 0.10589
#
# Static dielectric constant tensor:
#      x y z
#    x 1.674020 0.000000 0.000000 
#    y 0.000000 1.455910 0.000000 
#    z 0.000000 0.000000 1.642140 
# 
# From -- ./inp_files/13012.got.cif
#   From: 2010.05.17/outbox.cif.g08.bks.cpg/sg20_7_cif.got.tgz:13012.got - 2010.06.03 22:52:26.
