data_PCOD9316497
_publ_section_title
;
Structure prediction by ZEFSAII (Michael W. Deem and Ramdas Pophale) SiO2 
 PCOD9316497
Probable space group: C 2 2 21
;
_chemical_formula_sum "Si O2"
_cell_formula_units_Z 64
_cell_length_a 14.539259
_cell_length_b 19.605567
_cell_length_c 13.308426
_cell_angle_alpha 90.000000
_cell_angle_beta 90.000000
_cell_angle_gamma 90.000000
_cell_volume 3793.572374
_symmetry_space_group_name_H-M "C 2 2 21"
_symmetry_group_IT_number 20
_symmetry_cell_setting 'orthorhombic'
loop_
_space_group_symop_operation_xyz
x,y,z
-x,-y,1/2+z
x,-y,-z
-x,y,1/2-z
1/2+x,1/2+y,z
1/2-x,1/2-y,1/2+z
1/2+x,1/2-y,-z
1/2-x,1/2+y,1/2-z
loop_
_atom_site_type_symbol
_atom_site_label
_atom_site_fract_x
_atom_site_fract_y
_atom_site_fract_z
Si Si1 0.030575 0.686451 0.642580
Si Si2 0.473604 0.989160 0.612135
Si Si3 0.774855 0.664094 0.780150
Si Si4 0.654328 0.746176 0.109183
Si Si5 0.659801 0.985130 0.290066
Si Si6 0.214522 0.359498 0.702329
Si Si7 0.646466 0.764070 0.874081
Si Si8 0.472621 0.159697 0.088712
O O1 0.139019 0.697444 0.657866
O O2 0.022019 0.652848 0.532470
O O3 0.000000 0.652084 0.750000
O O4 0.954781 0.746453 0.633171
O O5 0.398995 0.017584 0.687766
O O6 0.577372 0.016631 0.627935
O O7 0.483912 0.909044 0.633043
O O8 0.442661 0.000000 0.500000
O O9 0.796697 0.691412 0.668624
O O10 0.781314 0.583352 0.795118
O O11 0.681180 0.696674 0.818580
O O12 0.696875 0.676973 0.154032
O O13 0.671324 0.756562 0.991327
O O14 0.710852 0.058134 0.295749
O O15 0.195116 0.325362 0.811342
O O16 0.129484 0.336190 0.631165
O O17 0.537967 0.779524 0.875441
#
# Coordination Sequence:
#
# PCOD9316497 Si02
#       8
#     8   8   8   8   8   8   8   8
#     4   9  18  30  48  70  98 131 164 204 242 287
#     4  10  20  28  46  72 102 135 159 194 247 308
#     4  10  20  32  49  72 105 129 163 210 248 302
#     4   9  20  31  50  69  98 133 173 203 247 295
#     4  10  21  31  47  72 103 133 163 198 259 301
#     4  10  19  35  49  73 103 132 166 208 251 304
#     4  10  19  33  47  71  98 135 171 205 243 301
#     4  10  18  31  50  72 101 135 165 199 250 298
#
# _framework density 16.870642
#
# number of rings (size 3 to 8) (size 9 to 14) (size 15 to 20)
#    0.000    2.250    1.250    1.875   10.500    1.000 
#    0.000    0.000    0.000    0.000    0.000   17.500 
#    0.000   14.000    0.000    0.000    0.000    0.000 
#
# Total GULP energy -178172.078555 kJ/mol
# GULP energy per Si atom -5567.877455 kJ/mol
# Density = 1.683224 g / cm^3
# Si number density = 16.870642 Si / 1000 Ang^3
#
#
#
# Elastic Constant Matrix: (Units=GPa)
#
#
# Indices 1 2 3 4 5 6 
#
# 1 36.6295 41.2555 8.7608 0.0000 0.0000 0.0000
# 2 41.2555 111.5541 13.4131 0.0000 0.0000 0.0000
# 3 8.7608 13.4131 79.8231 0.0000 0.0000 0.0000
# 4 0.0000 0.0000 0.0000 15.9890 0.0000 0.0000
# 5 0.0000 0.0000 0.0000 0.0000 17.4733 0.0000
# 6 0.0000 0.0000 0.0000 0.0000 0.0000 30.1932
#
#
#
# Elastic Compliance Matrix: (Units=1/GPa)
#
#
# Indices 1 2 3 4 5 6 
#
# 1 0.047198 -0.017179 -0.002293 0.000000 0.000000 0.000000
# 2 -0.017179 0.015402 -0.000703 0.000000 0.000000 0.000000
# 3 -0.002293 -0.000703 0.012897 0.000000 0.000000 0.000000
# 4 0.000000 0.000000 0.000000 0.062543 0.000000 0.000000
# 5 0.000000 0.000000 0.000000 0.000000 0.057230 0.000000
# 6 0.000000 0.000000 0.000000 0.000000 0.000000 0.033120
#
#
# Mechanical properties :
#
#
# Convention : Reuss Voigt Hill
#
# Bulk Modulus (GPa) = 28.45204 39.42950 33.94077
# Shear Modulus (GPa) = 17.82812 23.70294 20.76553
#
# Velocity S-wave (km/s) = 3.25430 3.75237 3.51218
# Velocity P-wave (km/s) = 5.56975 6.49586 6.05055
#
# Compressibility (1/GPa) = 0.03514687
#
# Stress axis : x y z
#
# Youngs Moduli (GPa) = 21.18753 64.92668 77.53462
#
# Poissons Ratio (x) = 1.11538 0.17782
# Poissons Ratio (y) = 0.36398 0.05448
# Poissons Ratio (z) = 0.04859 0.04562
#
# Static dielectric constant tensor:
#      x y z
#    x 1.568840 0.000000 0.000000 
#    y 0.000000 1.601830 0.000000 
#    z 0.000000 0.000000 1.619180 
# 
# From -- ./inp_files/20978.got.cif
#   From: 2010.05.17/outbox.cif.g08.bks.cpg/sg20_11_cif.got.tgz:20978.got - 2010.06.03 22:52:26.
