data_PCOD9316778
_publ_section_title
;
Structure prediction by ZEFSAII (Michael W. Deem and Ramdas Pophale) SiO2 
 PCOD9316778
Probable space group: C 2 2 21
;
_chemical_formula_sum "Si O2"
_cell_formula_units_Z 32
_cell_length_a 5.222893
_cell_length_b 14.341733
_cell_length_c 18.164371
_cell_angle_alpha 90.000000
_cell_angle_beta 90.000000
_cell_angle_gamma 90.000000
_cell_volume 1360.608329
_symmetry_space_group_name_H-M "C 2 2 21"
_symmetry_group_IT_number 20
_symmetry_cell_setting 'orthorhombic'
loop_
_space_group_symop_operation_xyz
x,y,z
-x,-y,1/2+z
x,-y,-z
-x,y,1/2-z
1/2+x,1/2+y,z
1/2-x,1/2-y,1/2+z
1/2+x,1/2-y,-z
1/2-x,1/2+y,1/2-z
loop_
_atom_site_type_symbol
_atom_site_label
_atom_site_fract_x
_atom_site_fract_y
_atom_site_fract_z
Si Si1 0.563666 0.804130 0.524854
Si Si2 0.379350 0.083903 0.602105
Si Si3 0.911211 0.408403 0.830708
Si Si4 0.624177 0.404476 0.173561
O O1 0.306711 0.745322 0.511681
O O2 0.495983 0.897011 0.477469
O O3 0.628546 0.829765 0.608785
O O4 0.592368 0.133108 0.655215
O O5 0.089798 0.115875 0.612495
O O6 0.382100 0.978326 0.631698
O O7 0.681949 0.483772 0.822970
O O8 0.000000 0.377859 0.750000
O O9 0.500000 0.374683 0.250000
#
# Coordination Sequence:
#
# PCOD9316778 Si02
#       4
#     8   8   8   8
#     4  12  28  46  64 100 146 183 217 267 345 418
#     4  10  21  41  70  95 127 171 228 278 321 388
#     4  10  23  44  72  99 126 176 231 285 329 388
#     4  10  18  37  67 104 122 157 222 291 324 365
#
# _framework density 23.518894
#
# number of rings (size 3 to 8) (size 9 to 14) (size 15 to 20)
#    1.500    0.000    2.500    3.000    3.500    0.000 
#    4.500   10.000    0.000    0.000    0.000    0.000 
#    0.000    0.000    0.000    0.000    0.000    0.000 
#
# Total GULP energy -89169.332104 kJ/mol
# GULP energy per Si atom -5573.083256 kJ/mol
# Density = 2.346536 g / cm^3
# Si number density = 23.518894 Si / 1000 Ang^3
#
#
#
# Elastic Constant Matrix: (Units=GPa)
#
#
# Indices 1 2 3 4 5 6 
#
# 1 126.0958 6.0708 12.1516 0.0000 0.0000 0.0000
# 2 6.0708 62.5884 27.9866 0.0000 0.0000 0.0000
# 3 12.1516 27.9866 154.6411 0.0000 0.0000 0.0000
# 4 0.0000 0.0000 0.0000 17.3863 0.0000 0.0000
# 5 0.0000 0.0000 0.0000 0.0000 30.3094 0.0000
# 6 0.0000 0.0000 0.0000 0.0000 0.0000 18.1808
#
#
#
# Elastic Compliance Matrix: (Units=1/GPa)
#
#
# Indices 1 2 3 4 5 6 
#
# 1 0.008008 -0.000539 -0.000532 0.000000 0.000000 0.000000
# 2 -0.000539 0.017420 -0.003110 0.000000 0.000000 0.000000
# 3 -0.000532 -0.003110 0.007071 0.000000 0.000000 0.000000
# 4 0.000000 0.000000 0.000000 0.057517 0.000000 0.000000
# 5 0.000000 0.000000 0.000000 0.000000 0.032993 0.000000
# 6 0.000000 0.000000 0.000000 0.000000 0.000000 0.055003
#
#
# Mechanical properties :
#
#
# Convention : Reuss Voigt Hill
#
# Bulk Modulus (GPa) = 41.42951 48.41592 44.92272
# Shear Modulus (GPa) = 25.71752 32.98305 29.35028
#
# Velocity S-wave (km/s) = 3.31037 3.74893 3.53646
# Velocity P-wave (km/s) = 5.68024 6.27455 5.98478
#
# Compressibility (1/GPa) = 0.02413738
#
# Stress axis : x y z
#
# Youngs Moduli (GPa) = 124.88038 57.40363 141.41717
#
# Poissons Ratio (x) = 0.03094 0.07519
# Poissons Ratio (y) = 0.06730 0.43986
# Poissons Ratio (z) = 0.06640 0.17855
#
# Static dielectric constant tensor:
#      x y z
#    x 1.853210 0.000000 0.000000 
#    y 0.000000 1.977250 0.000000 
#    z 0.000000 0.000000 1.917160 
# 
# From -- ./inp_files/22549.got.cif
#   From: 2010.05.17/outbox.cif.g08.bks.cpg/sg20_12_cif.got.tgz:22549.got - 2010.06.03 22:52:26.
