data_PCOD9316911
_publ_section_title
;
Structure prediction by ZEFSAII (Michael W. Deem and Ramdas Pophale) SiO2 
 PCOD9316911
Probable space group: C 2 2 21
;
_chemical_formula_sum "Si O2"
_cell_formula_units_Z 52
_cell_length_a 30.788564
_cell_length_b 11.728305
_cell_length_c 7.747262
_cell_angle_alpha 90.000000
_cell_angle_beta 90.000000
_cell_angle_gamma 90.000000
_cell_volume 2797.518250
_symmetry_space_group_name_H-M "C 2 2 21"
_symmetry_group_IT_number 20
_symmetry_cell_setting 'orthorhombic'
loop_
_space_group_symop_operation_xyz
x,y,z
-x,-y,1/2+z
x,-y,-z
-x,y,1/2-z
1/2+x,1/2+y,z
1/2-x,1/2-y,1/2+z
1/2+x,1/2-y,-z
1/2-x,1/2+y,1/2-z
loop_
_atom_site_type_symbol
_atom_site_label
_atom_site_fract_x
_atom_site_fract_y
_atom_site_fract_z
Si Si1 0.696968 0.050573 0.329017
Si Si2 0.123279 0.718692 0.463042
Si Si3 0.097011 0.500000 0.000000
Si Si4 0.196569 0.874730 0.418289
Si Si5 0.761267 0.243261 0.231882
Si Si6 0.344363 0.831129 0.337480
Si Si7 0.545982 0.918845 0.668112
O O1 0.654019 0.117385 0.391021
O O2 0.730061 0.135009 0.241603
O O3 0.717946 0.000000 0.500000
O O4 0.680795 0.946329 0.216623
O O5 0.146969 0.833478 0.395201
O O6 0.128029 0.712312 0.672017
O O7 0.075941 0.686403 0.394752
O O8 0.124681 0.618147 0.983759
O O9 0.070120 0.486709 0.823491
O O10 0.215011 0.777148 0.550112
O O11 0.229391 0.850803 0.261228
O O12 0.199196 0.000000 0.500000
O O13 0.802958 0.248052 0.362011
O O14 0.500000 0.884506 0.750000
O O15 0.540888 0.000000 0.500000
#
# Coordination Sequence:
#
# PCOD9316911 Si02
#       7
#     8   8   4   8   8   8   8
#     4   9  16  31  47  63 102 149 182 235 280 311
#     4   9  18  36  51  71 111 146 182 236 291 344
#     4  12  22  32  56  80 114 156 180 222 298 354
#     4  10  21  35  53  78 114 158 204 244 295 337
#     4  10  21  30  47  78 105 147 203 244 268 326
#     4  10  19  30  49  72 108 152 188 225 280 344
#     4  12  22  37  58  89 117 144 184 239 301 377
#
# _framework density 18.587904999999999
#
# number of rings (size 3 to 8) (size 9 to 14) (size 15 to 20)
#    0.000    1.846    3.846    2.308    3.231    0.000 
#    0.000    0.000    0.000    0.000    0.000    5.385 
#    0.000    0.000    0.000    0.000    0.000    0.000 
#
# Total GULP energy -144862.831883 kJ/mol
# GULP energy per Si atom -5571.647380 kJ/mol
# Density = 1.854560 g / cm^3
# Si number density = 18.587905 Si / 1000 Ang^3
#
#
#
# Elastic Constant Matrix: (Units=GPa)
#
#
# Indices 1 2 3 4 5 6 
#
# 1 108.3118 24.1829 33.8452 0.0000 0.0000 0.0000
# 2 24.1829 62.0331 8.5983 0.0000 0.0000 0.0000
# 3 33.8452 8.5983 72.2719 0.0000 0.0000 0.0000
# 4 0.0000 0.0000 0.0000 23.5458 0.0000 0.0000
# 5 0.0000 0.0000 0.0000 0.0000 34.0565 0.0000
# 6 0.0000 0.0000 0.0000 0.0000 0.0000 22.2531
#
#
#
# Elastic Compliance Matrix: (Units=1/GPa)
#
#
# Indices 1 2 3 4 5 6 
#
# 1 0.011655 -0.003850 -0.005000 0.000000 0.000000 0.000000
# 2 -0.003850 0.017663 -0.000298 0.000000 0.000000 0.000000
# 3 -0.005000 -0.000298 0.016214 0.000000 0.000000 0.000000
# 4 0.000000 0.000000 0.000000 0.042471 0.000000 0.000000
# 5 0.000000 0.000000 0.000000 0.000000 0.029363 0.000000
# 6 0.000000 0.000000 0.000000 0.000000 0.000000 0.044938
#
#
# Mechanical properties :
#
#
# Convention : Reuss Voigt Hill
#
# Bulk Modulus (GPa) = 36.71867 41.76331 39.24099
# Shear Modulus (GPa) = 26.36060 27.70375 27.03218
#
# Velocity S-wave (km/s) = 3.76993 3.86478 3.81765
# Velocity P-wave (km/s) = 6.22469 6.51400 6.37099
#
# Compressibility (1/GPa) = 0.02723410
#
# Stress axis : x y z
#
# Youngs Moduli (GPa) = 85.80280 56.61617 61.67684
#
# Poissons Ratio (x) = 0.21800 0.30837
# Poissons Ratio (y) = 0.33038 0.01839
# Poissons Ratio (z) = 0.42900 0.01688
#
# Static dielectric constant tensor:
#      x y z
#    x 1.704960 0.000000 0.000000 
#    y 0.000000 1.670450 0.000000 
#    z 0.000000 0.000000 1.760400 
# 
# From -- ./inp_files/11561.got.cif
#   From: 2010.05.17/outbox.cif.g08.bks.cpg/sg20_6_cif.got.tgz:11561.got - 2010.06.03 22:52:26.
