data_PCOD9316002
_publ_section_title
;
Structure prediction by ZEFSAII (Michael W. Deem and Ramdas Pophale) SiO2 
 PCOD9316002
Probable space group: P 21 21 21
;
_chemical_formula_sum "Si O2"
_cell_formula_units_Z 32
_cell_length_a 19.149187
_cell_length_b 12.203120
_cell_length_c 6.873249
_cell_angle_alpha 90.000000
_cell_angle_beta 90.000000
_cell_angle_gamma 90.000000
_cell_volume 1606.139636
_symmetry_space_group_name_H-M "P 21 21 21"
_symmetry_group_IT_number 19
_symmetry_cell_setting 'orthorhombic'
loop_
_space_group_symop_operation_xyz
x,y,z
1/2-x,-y,1/2+z
1/2+x,1/2-y,-z
-x,1/2+y,1/2-z
loop_
_atom_site_type_symbol
_atom_site_label
_atom_site_fract_x
_atom_site_fract_y
_atom_site_fract_z
Si Si1 0.899777 0.684931 0.264761
Si Si2 0.234286 0.334409 0.199221
Si Si3 0.539576 0.013024 0.139467
Si Si4 0.565437 0.565632 0.704433
Si Si5 0.356817 0.284080 0.909607
Si Si6 0.980572 0.829984 0.949924
Si Si7 0.179829 0.567278 0.045178
Si Si8 0.996354 0.174311 0.883658
O O1 0.825480 0.743525 0.280374
O O2 0.901669 0.555027 0.223044
O O3 0.940284 0.746899 0.090387
O O4 0.942113 0.701955 0.466932
O O5 0.203567 0.444567 0.100369
O O6 0.265285 0.376013 0.402665
O O7 0.297672 0.287402 0.072272
O O8 0.566564 0.094854 0.308446
O O9 0.488224 0.933113 0.258105
O O10 0.495502 0.061417 0.960162
O O11 0.604747 0.946596 0.057115
O O12 0.619213 0.661967 0.650018
O O13 0.528768 0.599925 0.906708
O O14 0.330103 0.355679 0.730400
O O15 0.427314 0.341217 0.988621
O O16 0.020754 0.764019 0.781338
#
# Coordination Sequence:
#
# PCOD9316002 Si02
#       8
#     4   4   4   4   4   4   4   4
#     4  12  27  46  69 109 148 188 245 304 365 443
#     4  12  28  47  70 102 145 192 250 303 371 436
#     4  12  24  41  74 106 141 182 236 305 363 430
#     4  12  25  46  69 107 147 187 241 296 364 437
#     4  12  26  47  72 104 144 190 247 297 369 436
#     4  12  23  41  74 103 141 181 233 299 366 426
#     4  12  26  47  73 104 141 191 247 308 368 434
#     4  12  23  43  73 107 139 183 239 302 368 424
#
# _framework density 19.923549000000001
#
# number of rings (size 3 to 8) (size 9 to 14) (size 15 to 20)
#    0.000    0.000    7.500    3.000    3.500    1.000 
#    2.250    0.000    0.000    0.000    0.000    0.000 
#    0.000    0.000    0.000    0.000    0.000    0.000 
#
# Total GULP energy -178856.817368 kJ/mol
# GULP energy per Si atom -5589.275543 kJ/mol
# Density = 1.987820 g / cm^3
# Si number density = 19.923549 Si / 1000 Ang^3
#
#
#
# Elastic Constant Matrix: (Units=GPa)
#
#
# Indices 1 2 3 4 5 6 
#
# 1 58.3413 16.7806 5.8038 0.0000 0.0000 0.0000
# 2 16.7806 97.0973 22.9193 0.0000 0.0000 0.0000
# 3 5.8038 22.9193 95.9526 0.0000 0.0000 0.0000
# 4 0.0000 0.0000 0.0000 41.0709 0.0000 0.0000
# 5 0.0000 0.0000 0.0000 0.0000 30.7174 0.0000
# 6 0.0000 0.0000 0.0000 0.0000 0.0000 38.7380
#
#
#
# Elastic Compliance Matrix: (Units=1/GPa)
#
#
# Indices 1 2 3 4 5 6 
#
# 1 0.018049 -0.003033 -0.000367 0.000000 0.000000 0.000000
# 2 -0.003033 0.011424 -0.002545 0.000000 0.000000 0.000000
# 3 -0.000367 -0.002545 0.011052 0.000000 0.000000 0.000000
# 4 0.000000 0.000000 0.000000 0.024348 0.000000 0.000000
# 5 0.000000 0.000000 0.000000 0.000000 0.032555 0.000000
# 6 0.000000 0.000000 0.000000 0.000000 0.000000 0.025814
#
#
# Mechanical properties :
#
#
# Convention : Reuss Voigt Hill
#
# Bulk Modulus (GPa) = 34.92271 38.04430 36.48350
# Shear Modulus (GPa) = 34.55951 35.83109 35.19530
#
# Velocity S-wave (km/s) = 4.16938 4.24539 4.20756
# Velocity P-wave (km/s) = 6.38316 6.57021 6.47736
#
# Compressibility (1/GPa) = 0.02863466
#
# Stress axis : x y z
#
# Youngs Moduli (GPa) = 55.40370 87.53621 90.48143
#
# Poissons Ratio (x) = 0.26546 0.03324
# Poissons Ratio (y) = 0.16802 0.23030
# Poissons Ratio (z) = 0.02035 0.22280
#
# Static dielectric constant tensor:
#      x y z
#    x 1.663600 0.000000 0.000000 
#    y 0.000000 1.782060 0.000000 
#    z 0.000000 0.000000 1.693740 
# 
# From -- ./inp_files/2035.got.cif
#   From: 2010.05.17/outbox.cif.g08.bks.cpg/sg19_2_cif.got.tgz:2035.got - 2010.06.03 22:46:19.
