data_PCOD9316221
_publ_section_title
;
Structure prediction by ZEFSAII (Michael W. Deem and Ramdas Pophale) SiO2 
 PCOD9316221
Probable space group: C 2 2 21
;
_chemical_formula_sum "Si O2"
_cell_formula_units_Z 52
_cell_length_a 30.246327
_cell_length_b 7.207771
_cell_length_c 8.988328
_cell_angle_alpha 90.000000
_cell_angle_beta 90.000000
_cell_angle_gamma 90.000000
_cell_volume 1959.532791
_symmetry_space_group_name_H-M "C 2 2 21"
_symmetry_group_IT_number 20
_symmetry_cell_setting 'orthorhombic'
loop_
_space_group_symop_operation_xyz
x,y,z
-x,-y,1/2+z
x,-y,-z
-x,y,1/2-z
1/2+x,1/2+y,z
1/2-x,1/2-y,1/2+z
1/2+x,1/2-y,-z
1/2-x,1/2+y,1/2-z
loop_
_atom_site_type_symbol
_atom_site_label
_atom_site_fract_x
_atom_site_fract_y
_atom_site_fract_z
Si Si1 0.632618 0.326683 0.233271
Si Si2 0.526635 0.691223 0.412088
Si Si3 0.889925 0.734559 0.753652
Si Si4 0.708502 0.684923 0.559000
Si Si5 0.059635 0.225502 0.961745
Si Si6 0.310517 0.500000 0.500000
Si Si7 0.209503 0.296737 0.238929
O O1 0.620679 0.542882 0.266564
O O2 0.668633 0.236526 0.342599
O O3 0.659290 0.343923 0.077680
O O4 0.585606 0.239601 0.190840
O O5 0.537402 0.500000 0.500000
O O6 0.500000 0.661632 0.250000
O O7 0.572412 0.794360 0.377118
O O8 0.490779 0.783506 0.520871
O O9 0.913617 0.691274 0.598915
O O10 0.841506 0.645821 0.748290
O O11 0.685901 0.500000 0.500000
O O12 0.751225 0.611173 0.647445
O O13 0.722905 0.792917 0.412093
O O14 0.059937 0.000000 0.000000
O O15 0.290177 0.394395 0.641264
#
# Coordination Sequence:
#
# PCOD9316221 Si02
#       7
#     8   8   8   8   8   4   8
#     4  10  16  30  48  69  97 140 183 227 267 323
#     4   9  17  25  40  67  97 138 181 210 250 321
#     4   9  16  27  46  65  99 133 178 220 259 320
#     4  12  24  36  54  78 102 143 201 235 283 331
#     4   8  13  26  43  64  94 137 175 206 254 313
#     4  10  16  34  56  70 102 138 184 228 284 330
#     4  11  23  35  53  76 102 143 189 240 272 329
#
# _framework density 26.536939
#
# number of rings (size 3 to 8) (size 9 to 14) (size 15 to 20)
#    0.000    2.154    6.923    1.846    2.154    0.000 
#    0.000    0.000    0.000    0.000    0.000    0.000 
#    0.000    0.000    0.000   24.923   34.154    2.923 
#
# Total GULP energy -144937.152736 kJ/mol
# GULP energy per Si atom -5574.505874 kJ/mol
# Density = 2.647654 g / cm^3
# Si number density = 26.536939 Si / 1000 Ang^3
#
#
#
# Elastic Constant Matrix: (Units=GPa)
#
#
# Indices 1 2 3 4 5 6 
#
# 1 194.3781 14.9114 87.9016 0.0000 0.0000 0.0000
# 2 14.9114 65.7077 9.8250 0.0000 0.0000 0.0000
# 3 87.9016 9.8250 131.3413 0.0000 0.0000 0.0000
# 4 0.0000 0.0000 0.0000 22.7653 0.0000 0.0000
# 5 0.0000 0.0000 0.0000 0.0000 -32.1743 0.0000
# 6 0.0000 0.0000 0.0000 0.0000 0.0000 3.8120
#
#
#
# Elastic Compliance Matrix: (Units=1/GPa)
#
#
# Indices 1 2 3 4 5 6 
#
# 1 0.007436 -0.000954 -0.004905 0.000000 0.000000 0.000000
# 2 -0.000954 0.015513 -0.000522 0.000000 0.000000 0.000000
# 3 -0.004905 -0.000522 0.010936 0.000000 0.000000 0.000000
# 4 0.000000 0.000000 0.000000 0.043926 0.000000 0.000000
# 5 0.000000 0.000000 0.000000 0.000000 -0.031081 0.000000
# 6 0.000000 0.000000 0.000000 0.000000 0.000000 0.262332
#
#
# Mechanical properties :
#
#
# Convention : Reuss Voigt Hill
#
# Bulk Modulus (GPa) = 47.34264 68.52258 57.93261
# Shear Modulus (GPa) = 15.20375 17.46654 16.33515
#
# Velocity S-wave (km/s) = 2.39619 2.56832 2.48375
# Velocity P-wave (km/s) = 5.05318 5.88835 5.48668
#
# Compressibility (1/GPa) = 0.02112261
#
# Stress axis : x y z
#
# Youngs Moduli (GPa) = 134.47957 64.46011 91.44338
#
# Poissons Ratio (x) = 0.06150 0.44856
# Poissons Ratio (y) = 0.12830 0.04773
# Poissons Ratio (z) = 0.65966 0.03365
#
# Static dielectric constant tensor:
#      x y z
#    x 2.200140 0.000000 0.000000 
#    y 0.000000 2.286440 0.000000 
#    z 0.000000 0.000000 2.124890 
# 
# From -- ./inp_files/11562.got.cif
#   From: 2010.05.17/outbox.cif.g08.bks.cpg/sg20_6_cif.got.tgz:11562.got - 2010.06.03 22:52:26.
