data_PCOD9316610
_publ_section_title
;
Structure prediction by ZEFSAII (Michael W. Deem and Ramdas Pophale) SiO2 
 PCOD9316610
Probable space group: C 2 2 21
;
_chemical_formula_sum "Si O2"
_cell_formula_units_Z 48
_cell_length_a 8.532627
_cell_length_b 27.943122
_cell_length_c 9.432189
_cell_angle_alpha 90.000000
_cell_angle_beta 90.000000
_cell_angle_gamma 90.000000
_cell_volume 2248.900197
_symmetry_space_group_name_H-M "C 2 2 21"
_symmetry_group_IT_number 20
_symmetry_cell_setting 'orthorhombic'
loop_
_space_group_symop_operation_xyz
x,y,z
-x,-y,1/2+z
x,-y,-z
-x,y,1/2-z
1/2+x,1/2+y,z
1/2-x,1/2-y,1/2+z
1/2+x,1/2-y,-z
1/2-x,1/2+y,1/2-z
loop_
_atom_site_type_symbol
_atom_site_label
_atom_site_fract_x
_atom_site_fract_y
_atom_site_fract_z
Si Si1 0.335272 0.846739 0.665022
Si Si2 0.001449 0.257665 0.921341
Si Si3 0.611781 0.430519 0.611227
Si Si4 0.300073 0.425896 0.466119
Si Si5 0.683119 0.005886 0.279083
Si Si6 0.295870 0.681957 0.453777
O O1 0.500000 0.859422 0.750000
O O2 0.380427 0.802932 0.564187
O O3 0.245637 0.890464 0.594386
O O4 0.218657 0.828384 0.787332
O O5 0.000000 0.249950 0.750000
O O6 0.841655 0.279814 0.979876
O O7 0.050085 0.209042 0.996290
O O8 0.500000 0.419743 0.750000
O O9 0.486129 0.433117 0.486749
O O10 0.707418 0.477680 0.650896
O O11 0.235490 0.454076 0.332468
O O12 0.220412 0.454486 0.598309
O O13 0.269715 0.369420 0.473787
O O14 0.500000 0.007033 0.250000
#
# Coordination Sequence:
#
# PCOD9316610 Si02
#       6
#     8   8   8   8   8   8
#     4   9  18  34  59  88 117 158 204 253 293 361
#     4   9  22  36  56  88 125 156 206 248 302 362
#     4  10  18  33  64  88 118 152 208 254 301 355
#     4  10  22  38  62  93 123 156 210 258 306 377
#     4  10  21  40  62  88 126 162 206 259 316 371
#     4  10  19  38  59  86 127 159 208 246 302 365
#
# _framework density 21.343765999999999
#
# number of rings (size 3 to 8) (size 9 to 14) (size 15 to 20)
#    0.000    2.667    3.333    0.500    4.667    0.000 
#    0.000   17.500    0.000    0.000    0.000    0.000 
#    0.000    0.000    0.000    0.000    0.000    0.000 
#
# Total GULP energy -133900.616844 kJ/mol
# GULP energy per Si atom -5579.192369 kJ/mol
# Density = 2.129519 g / cm^3
# Si number density = 21.343766 Si / 1000 Ang^3
#
#
#
# Elastic Constant Matrix: (Units=GPa)
#
#
# Indices 1 2 3 4 5 6 
#
# 1 115.9809 51.7274 23.1571 0.0000 0.0000 0.0000
# 2 51.7274 116.4230 18.1146 0.0000 0.0000 0.0000
# 3 23.1571 18.1146 13.5840 0.0000 0.0000 0.0000
# 4 0.0000 0.0000 0.0000 10.4107 0.0000 0.0000
# 5 0.0000 0.0000 0.0000 0.0000 20.0131 0.0000
# 6 0.0000 0.0000 0.0000 0.0000 0.0000 42.7927
#
#
#
# Elastic Compliance Matrix: (Units=1/GPa)
#
#
# Indices 1 2 3 4 5 6 
#
# 1 0.013929 -0.003147 -0.019548 0.000000 0.000000 0.000000
# 2 -0.003147 0.011549 -0.010036 0.000000 0.000000 0.000000
# 3 -0.019548 -0.010036 0.120324 0.000000 0.000000 0.000000
# 4 0.000000 0.000000 0.000000 0.096055 0.000000 0.000000
# 5 0.000000 0.000000 0.000000 0.000000 0.049967 0.000000
# 6 0.000000 0.000000 0.000000 0.000000 0.000000 0.023368
#
#
# Mechanical properties :
#
#
# Convention : Reuss Voigt Hill
#
# Bulk Modulus (GPa) = 12.44725 47.99845 30.22285
# Shear Modulus (GPa) = 12.27191 24.84257 18.55724
#
# Velocity S-wave (km/s) = 2.40044 3.41534 2.95183
# Velocity P-wave (km/s) = 3.67795 6.17169 5.08021
#
# Compressibility (1/GPa) = 0.08033901
#
# Stress axis : x y z
#
# Youngs Moduli (GPa) = 71.79418 86.58608 8.31090
#
# Poissons Ratio (x) = 0.27249 0.16246
# Poissons Ratio (y) = 0.22594 0.08341
# Poissons Ratio (z) = 1.40343 0.86900
#
# Static dielectric constant tensor:
#      x y z
#    x 1.818200 0.000000 0.000000 
#    y 0.000000 1.787960 0.000000 
#    z 0.000000 0.000000 1.822330 
# 
# From -- ./inp_files/13104.got.cif
#   From: 2010.05.17/outbox.cif.g08.bks.cpg/sg20_7_cif.got.tgz:13104.got - 2010.06.03 22:52:26.
