data_PCOD9316916
_publ_section_title
;
Structure prediction by ZEFSAII (Michael W. Deem and Ramdas Pophale) SiO2 
 PCOD9316916
Probable space group: C 2 2 21
;
_chemical_formula_sum "Si O2"
_cell_formula_units_Z 48
_cell_length_a 23.455150
_cell_length_b 11.708389
_cell_length_c 7.965280
_cell_angle_alpha 90.000000
_cell_angle_beta 90.000000
_cell_angle_gamma 90.000000
_cell_volume 2187.441285
_symmetry_space_group_name_H-M "C 2 2 21"
_symmetry_group_IT_number 20
_symmetry_cell_setting 'orthorhombic'
loop_
_space_group_symop_operation_xyz
x,y,z
-x,-y,1/2+z
x,-y,-z
-x,y,1/2-z
1/2+x,1/2+y,z
1/2-x,1/2-y,1/2+z
1/2+x,1/2-y,-z
1/2-x,1/2+y,1/2-z
loop_
_atom_site_type_symbol
_atom_site_label
_atom_site_fract_x
_atom_site_fract_y
_atom_site_fract_z
Si Si1 0.624771 0.221537 0.806600
Si Si2 0.240839 0.000000 0.000000
Si Si3 0.000000 0.825758 0.750000
Si Si4 0.996294 0.500000 0.500000
Si Si5 0.586871 0.015966 0.251404
Si Si6 0.541074 0.500000 0.000000
Si Si7 0.854470 0.866416 0.357011
Si Si8 0.666078 0.808719 0.559960
O O1 0.559582 0.261131 0.776177
O O2 0.625732 0.083162 0.824902
O O3 0.656404 0.237940 0.628227
O O4 0.646766 0.287779 0.971923
O O5 0.196680 0.957289 0.139399
O O6 0.278923 0.108325 0.053459
O O7 0.998896 0.908752 0.589671
O O8 0.952511 0.424593 0.609062
O O9 0.040174 0.451494 0.366787
O O10 0.618662 0.102933 0.369391
O O11 0.585326 0.565721 0.873644
O O12 0.840929 0.790079 0.196255
#
# Coordination Sequence:
#
# PCOD9316916 Si02
#       8
#     8   4   4   4   8   4   8   8
#     4  11  22  42  64 101 132 172 219 262 324 407
#     4  11  25  50  68  98 134 162 233 293 326 404
#     4  10  22  38  70  92 140 174 214 260 316 396
#     4  10  19  30  55  82 129 182 193 248 332 366
#     4  11  20  37  55  94 136 164 218 268 314 398
#     4   9  22  46  61 100 133 172 222 273 308 394
#     4  10  26  46  68  93 133 170 222 283 332 388
#     4  12  24  43  68  96 130 173 221 278 336 396
#
# _framework density 21.943445000000001
#
# number of rings (size 3 to 8) (size 9 to 14) (size 15 to 20)
#    0.000    1.333    3.333    2.000    4.667    1.333 
#    0.000    1.667    0.000    0.000    0.000    0.000 
#    0.000    0.000    0.000    0.000    0.000    0.000 
#
# Total GULP energy -133606.328259 kJ/mol
# GULP energy per Si atom -5566.930344 kJ/mol
# Density = 2.189350 g / cm^3
# Si number density = 21.943445 Si / 1000 Ang^3
#
#
#
# Elastic Constant Matrix: (Units=GPa)
#
#
# Indices 1 2 3 4 5 6 
#
# 1 47.9978 -12.4883 3.2783 0.0000 0.0000 0.0000
# 2 -12.4883 49.3851 11.9857 0.0000 0.0000 0.0000
# 3 3.2783 11.9857 66.2245 0.0000 0.0000 0.0000
# 4 0.0000 0.0000 0.0000 46.2128 0.0000 0.0000
# 5 0.0000 0.0000 0.0000 0.0000 2.2558 0.0000
# 6 0.0000 0.0000 0.0000 0.0000 0.0000 20.4370
#
#
#
# Elastic Compliance Matrix: (Units=1/GPa)
#
#
# Indices 1 2 3 4 5 6 
#
# 1 0.022619 0.006267 -0.002254 0.000000 0.000000 0.000000
# 2 0.006267 0.022916 -0.004458 0.000000 0.000000 0.000000
# 3 -0.002254 -0.004458 0.016019 0.000000 0.000000 0.000000
# 4 0.000000 0.000000 0.000000 0.021639 0.000000 0.000000
# 5 0.000000 0.000000 0.000000 0.000000 0.443310 0.000000
# 6 0.000000 0.000000 0.000000 0.000000 0.000000 0.048931
#
#
# Mechanical properties :
#
#
# Convention : Reuss Voigt Hill
#
# Bulk Modulus (GPa) = 16.48443 18.79543 17.63993
# Shear Modulus (GPa) = 8.38162 24.50323 16.44243
#
# Velocity S-wave (km/s) = 1.95651 3.34526 2.74032
# Velocity P-wave (km/s) = 3.55422 4.84820 4.25073
#
# Compressibility (1/GPa) = 0.06066332
#
# Stress axis : x y z
#
# Youngs Moduli (GPa) = 44.21108 43.63838 62.42781
#
# Poissons Ratio (x) = -0.27347 0.14071
# Poissons Ratio (y) = -0.27706 0.27828
# Poissons Ratio (z) = 0.09965 0.19452
#
# Static dielectric constant tensor:
#      x y z
#    x 1.825210 0.000000 0.000000 
#    y 0.000000 1.903390 0.000000 
#    z 0.000000 0.000000 1.891520 
# 
# From -- ./inp_files/10682.got.cif
#   From: 2010.05.17/outbox.cif.g08.bks.cpg/sg20_6_cif.got.tgz:10682.got - 2010.06.03 22:52:26.
