data_PCOD9316433
_publ_section_title
;
Structure prediction by ZEFSAII (Michael W. Deem and Ramdas Pophale) SiO2 
 PCOD9316433
Probable space group: C 2 2 21
;
_chemical_formula_sum "Si O2"
_cell_formula_units_Z 40
_cell_length_a 25.284926
_cell_length_b 17.147174
_cell_length_c 5.271671
_cell_angle_alpha 90.000000
_cell_angle_beta 90.000000
_cell_angle_gamma 90.000000
_cell_volume 2285.612173
_symmetry_space_group_name_H-M "C 2 2 21"
_symmetry_group_IT_number 20
_symmetry_cell_setting 'orthorhombic'
loop_
_space_group_symop_operation_xyz
x,y,z
-x,-y,1/2+z
x,-y,-z
-x,y,1/2-z
1/2+x,1/2+y,z
1/2-x,1/2-y,1/2+z
1/2+x,1/2-y,-z
1/2-x,1/2+y,1/2-z
loop_
_atom_site_type_symbol
_atom_site_label
_atom_site_fract_x
_atom_site_fract_y
_atom_site_fract_z
Si Si1 0.113531 0.828758 0.119430
Si Si2 0.442058 0.332030 0.875308
Si Si3 0.757635 0.471432 0.248106
Si Si4 0.154832 0.000000 0.000000
Si Si5 0.730152 0.290745 0.277789
Si Si6 0.533718 0.500000 0.500000
O O1 0.070393 0.808341 0.336202
O O2 0.168113 0.793251 0.215275
O O3 0.097431 0.801175 0.839086
O O4 0.123148 0.922934 0.082984
O O5 0.500000 0.321395 0.750000
O O6 0.434991 0.425857 0.900446
O O7 0.784144 0.500000 0.500000
O O8 0.748862 0.379899 0.251168
O O9 0.787349 0.500000 0.000000
O O10 0.699490 0.514386 0.219771
O O11 0.741980 0.259751 0.558475
O O12 0.500000 0.525156 0.750000
#
# Coordination Sequence:
#
# PCOD9316433 Si02
#       6
#     8   8   8   4   8   4
#     4  11  21  32  50  65  91 127 164 209 249 284
#     4  11  21  32  44  63  90 122 166 205 250 287
#     4   9  18  31  50  68  94 124 168 205 244 293
#     4   8  20  27  48  66  90 118 172 202 240 283
#     4  11  22  35  51  73 100 125 168 215 258 299
#     4  10  18  29  44  62  92 122 158 214 264 273
#
# _framework density 17.500782000000001
#
# number of rings (size 3 to 8) (size 9 to 14) (size 15 to 20)
#    0.600    1.200    0.000    6.600    5.600    0.800 
#    0.000    0.000    0.000    0.000    0.000    0.000 
#    0.000    0.000    0.000    0.000    0.000  252.000 
#
# Total GULP energy -111376.391155 kJ/mol
# GULP energy per Si atom -5568.819558 kJ/mol
# Density = 1.746095 g / cm^3
# Si number density = 17.500782 Si / 1000 Ang^3
#
#
#
# Elastic Constant Matrix: (Units=GPa)
#
#
# Indices 1 2 3 4 5 6 
#
# 1 32.7302 1.2676 3.8792 0.0000 0.0000 0.0000
# 2 1.2676 31.5161 3.0553 0.0000 0.0000 0.0000
# 3 3.8792 3.0553 113.1264 0.0000 0.0000 0.0000
# 4 0.0000 0.0000 0.0000 23.8802 0.0000 0.0000
# 5 0.0000 0.0000 0.0000 0.0000 19.6020 0.0000
# 6 0.0000 0.0000 0.0000 0.0000 0.0000 5.7468
#
#
#
# Elastic Compliance Matrix: (Units=1/GPa)
#
#
# Indices 1 2 3 4 5 6 
#
# 1 0.030718 -0.001136 -0.001023 0.000000 0.000000 0.000000
# 2 -0.001136 0.031855 -0.000821 0.000000 0.000000 0.000000
# 3 -0.001023 -0.000821 0.008897 0.000000 0.000000 0.000000
# 4 0.000000 0.000000 0.000000 0.041876 0.000000 0.000000
# 5 0.000000 0.000000 0.000000 0.000000 0.051015 0.000000
# 6 0.000000 0.000000 0.000000 0.000000 0.000000 0.174010
#
#
# Mechanical properties :
#
#
# Convention : Reuss Voigt Hill
#
# Bulk Modulus (GPa) = 15.26500 21.53077 18.39789
# Shear Modulus (GPa) = 13.65492 21.12383 17.38937
#
# Velocity S-wave (km/s) = 2.79632 3.47799 3.15562
# Velocity P-wave (km/s) = 4.37804 5.33461 4.87982
#
# Compressibility (1/GPa) = 0.06550935
#
# Stress axis : x y z
#
# Youngs Moduli (GPa) = 32.55412 31.39212 112.39845
#
# Poissons Ratio (x) = 0.03567 0.11495
# Poissons Ratio (y) = 0.03699 0.09232
# Poissons Ratio (z) = 0.03329 0.02578
#
# Static dielectric constant tensor:
#      x y z
#    x 1.619530 0.000000 0.000000 
#    y 0.000000 1.576110 0.000000 
#    z 0.000000 0.000000 1.797610 
# 
# From -- ./inp_files/3650.got.cif
#   From: 2010.05.17/outbox.cif.g08.bks.cpg/sg20_2_cif.got.tgz:3650.got - 2010.06.03 22:52:26.
