data_PCOD9316206
_publ_section_title
;
Structure prediction by ZEFSAII (Michael W. Deem and Ramdas Pophale) SiO2 
 PCOD9316206
Probable space group: C 2 2 21
;
_chemical_formula_sum "Si O2"
_cell_formula_units_Z 60
_cell_length_a 13.978638
_cell_length_b 5.464427
_cell_length_c 31.042247
_cell_angle_alpha 90.000000
_cell_angle_beta 90.000000
_cell_angle_gamma 90.000000
_cell_volume 2371.169702
_symmetry_space_group_name_H-M "C 2 2 21"
_symmetry_group_IT_number 20
_symmetry_cell_setting 'orthorhombic'
loop_
_space_group_symop_operation_xyz
x,y,z
-x,-y,1/2+z
x,-y,-z
-x,y,1/2-z
1/2+x,1/2+y,z
1/2-x,1/2-y,1/2+z
1/2+x,1/2-y,-z
1/2-x,1/2+y,1/2-z
loop_
_atom_site_type_symbol
_atom_site_label
_atom_site_fract_x
_atom_site_fract_y
_atom_site_fract_z
Si Si1 0.196603 0.221154 0.394787
Si Si2 0.490939 0.211482 0.374541
Si Si3 0.711752 0.044889 0.766658
Si Si4 0.504680 0.704867 0.155093
Si Si5 0.533369 0.750758 0.524890
Si Si6 0.000000 0.358542 0.250000
Si Si7 0.757936 0.748998 0.992968
Si Si8 0.716216 0.772217 0.644349
O O1 0.090042 0.205565 0.374964
O O2 0.198829 0.261225 0.445361
O O3 0.241710 0.459357 0.372616
O O4 0.239844 0.954626 0.386651
O O5 0.443618 0.454604 0.356116
O O6 0.498022 0.232891 0.426062
O O7 0.599190 0.213048 0.354318
O O8 0.446707 0.958301 0.358614
O O9 0.740748 0.273602 0.734696
O O10 0.598982 0.000790 0.758652
O O11 0.740866 0.184498 0.810552
O O12 0.484415 0.709530 0.205862
O O13 0.507794 0.500000 0.500000
O O14 0.650099 0.746578 0.524402
O O15 0.508556 0.000000 0.500000
O O16 0.702214 0.500000 0.000000
O O17 0.703598 0.000000 0.000000
#
# Coordination Sequence:
#
# PCOD9316206 Si02
#       8
#     8   8   8   8   8   4   8   8
#     4  10  18  32  52  80 121 162 206 264 325 389
#     4  10  18  32  52  79 120 162 204 263 328 387
#     4  12  26  46  70  99 134 175 224 284 346 403
#     4  10  20  34  52  78 114 158 203 264 325 377
#     4  10  16  24  42  74 115 152 197 256 309 380
#     4  12  28  46  72 102 134 178 244 294 344 418
#     4  10  16  24  42  74 116 154 198 257 310 377
#     4  10  18  32  52  76 111 158 200 248 321 383
#
# _framework density 25.303968000000001
#
# number of rings (size 3 to 8) (size 9 to 14) (size 15 to 20)
#    0.000    1.600    0.000   12.000    0.000    2.133 
#    0.000    0.000    0.000    0.000    0.000    0.000 
#    0.000   78.933    0.000    0.000    0.000    0.000 
#
# Total GULP energy -167691.395371 kJ/mol
# GULP energy per Si atom -5589.713179 kJ/mol
# Density = 2.524637 g / cm^3
# Si number density = 25.303968 Si / 1000 Ang^3
#
#
#
# Elastic Constant Matrix: (Units=GPa)
#
#
# Indices 1 2 3 4 5 6 
#
# 1 122.6241 17.3930 -10.7799 0.0000 0.0000 0.0000
# 2 17.3930 219.8451 38.0617 0.0000 0.0000 0.0000
# 3 -10.7799 38.0617 109.3199 0.0000 0.0000 0.0000
# 4 0.0000 0.0000 0.0000 54.3552 0.0000 0.0000
# 5 0.0000 0.0000 0.0000 0.0000 -4.2877 0.0000
# 6 0.0000 0.0000 0.0000 0.0000 0.0000 -28.0354
#
#
#
# Elastic Compliance Matrix: (Units=1/GPa)
#
#
# Indices 1 2 3 4 5 6 
#
# 1 0.008375 -0.000857 0.001124 0.000000 0.000000 0.000000
# 2 -0.000857 0.004928 -0.001800 0.000000 0.000000 0.000000
# 3 0.001124 -0.001800 0.009885 0.000000 0.000000 0.000000
# 4 0.000000 0.000000 0.000000 0.018397 0.000000 0.000000
# 5 0.000000 0.000000 0.000000 0.000000 -0.233223 0.000000
# 6 0.000000 0.000000 0.000000 0.000000 0.000000 -0.035669
#
#
# Mechanical properties :
#
#
# Convention : Reuss Voigt Hill
#
# Bulk Modulus (GPa) = 49.69627 60.12651 54.91139
# Shear Modulus (GPa) = -22.98513 31.54736 4.28112
#
# Velocity S-wave (km/s) = -3.01717 3.53475 1.30213
# Velocity P-wave (km/s) = 2.74674 6.36180 4.89985
#
# Compressibility (1/GPa) = 0.02012224
#
# Stress axis : x y z
#
# Youngs Moduli (GPa) = 119.39663 202.91466 101.16162
#
# Poissons Ratio (x) = 0.17396 -0.11374
# Poissons Ratio (y) = 0.10236 0.18213
# Poissons Ratio (z) = -0.13425 0.36532
#
# Static dielectric constant tensor:
#      x y z
#    x 1.933970 0.000000 0.000000 
#    y 0.000000 2.091940 0.000000 
#    z 0.000000 0.000000 1.804990 
# 
# From -- ./inp_files/31356.got.cif
#   From: 2010.05.17/outbox.cif.g08.bks.cpg/sg20_16_cif.got.tgz:31356.got - 2010.06.03 22:52:26.
