data_PCOD9316115
_publ_section_title
;
Structure prediction by ZEFSAII (Michael W. Deem and Ramdas Pophale) SiO2 
 PCOD9316115
Probable space group: P 21 21 21
;
_chemical_formula_sum "Si O2"
_cell_formula_units_Z 20
_cell_length_a 11.002212
_cell_length_b 11.002201
_cell_length_c 6.548252
_cell_angle_alpha 90.000000
_cell_angle_beta 90.000000
_cell_angle_gamma 90.000000
_cell_volume 792.656396
_symmetry_space_group_name_H-M "P 21 21 21"
_symmetry_group_IT_number 19
_symmetry_cell_setting 'orthorhombic'
loop_
_space_group_symop_operation_xyz
x,y,z
1/2-x,-y,1/2+z
1/2+x,1/2-y,-z
-x,1/2+y,1/2-z
loop_
_atom_site_type_symbol
_atom_site_label
_atom_site_fract_x
_atom_site_fract_y
_atom_site_fract_z
Si Si1 0.625916 0.134133 0.500448
Si Si2 0.615868 0.624084 0.750448
Si Si3 0.000000 0.750000 0.625000
Si Si4 0.615867 0.375917 0.749552
Si Si5 0.874083 0.134132 0.499552
O O1 0.505290 0.090976 0.616395
O O2 0.581835 0.169292 0.275243
O O3 0.659024 0.255291 0.633604
O O4 0.749999 0.057885 0.500001
O O5 0.580709 0.668166 0.525243
O O6 0.692115 0.500000 0.750000
O O7 0.659025 0.744710 0.866395
O O8 0.919292 0.668165 0.474757
O O9 0.081835 0.669292 0.775244
O O10 0.494709 0.409025 0.616395
#
# Coordination Sequence:
#
# PCOD9316115 Si02
#       5
#     4   4   4   4   4
#     4   9  19  35  52  78 106 139 179 213 266 318
#     4   9  19  35  52  78 106 139 179 213 266 318
#     4   8  18  36  56  66 116 140 154 232 264 294
#     4   9  19  35  52  78 106 139 179 213 266 318
#     4   9  19  35  52  78 106 139 179 213 266 318
#
# _framework density 25.231612999999999
#
# number of rings (size 3 to 8) (size 9 to 14) (size 15 to 20)
#    0.000    4.000    0.000    0.000    0.000   12.800 
#   14.400    0.000    0.000    0.000    0.000    0.000 
#    0.000    0.000    0.000    0.000    0.000    0.000 
#
# Total GULP energy -111630.673633 kJ/mol
# GULP energy per Si atom -5581.533682 kJ/mol
# Density = 2.517418 g / cm^3
# Si number density = 25.231613 Si / 1000 Ang^3
#
#
#
# Elastic Constant Matrix: (Units=GPa)
#
#
# Indices 1 2 3 4 5 6 
#
# 1 76.0965 -45.5225 22.0600 0.0000 0.0000 0.0000
# 2 -45.5225 76.0965 22.0601 0.0000 0.0000 0.0000
# 3 22.0600 22.0601 206.4412 0.0000 0.0000 0.0000
# 4 0.0000 0.0000 0.0000 14.2670 0.0000 0.0000
# 5 0.0000 0.0000 0.0000 0.0000 14.2672 0.0000
# 6 0.0000 0.0000 0.0000 0.0000 0.0000 -6.5253
#
#
#
# Elastic Compliance Matrix: (Units=1/GPa)
#
#
# Indices 1 2 3 4 5 6 
#
# 1 0.023447 0.015224 -0.004132 0.000000 0.000000 0.000000
# 2 0.015224 0.023447 -0.004132 0.000000 0.000000 0.000000
# 3 -0.004132 -0.004132 0.005727 0.000000 0.000000 0.000000
# 4 0.000000 0.000000 0.000000 0.070092 0.000000 0.000000
# 5 0.000000 0.000000 0.000000 0.000000 0.070091 0.000000
# 6 0.000000 0.000000 0.000000 0.000000 0.000000 -0.153250
#
#
# Mechanical properties :
#
#
# Convention : Reuss Voigt Hill
#
# Bulk Modulus (GPa) = 15.02871 39.53658 27.28264
# Shear Modulus (GPa) = 104.57378 28.40423 66.48900
#
# Velocity S-wave (km/s) = 6.44481 3.35884 5.13894
# Velocity P-wave (km/s) = 7.83262 5.54490 6.78586
#
# Compressibility (1/GPa) = 0.06653932
#
# Stress axis : x y z
#
# Youngs Moduli (GPa) = 42.65022 42.65021 174.60728
#
# Poissons Ratio (x) = -0.64931 0.72153
# Poissons Ratio (y) = -0.64931 0.72153
# Poissons Ratio (z) = 0.17624 0.17624
#
# Static dielectric constant tensor:
#      x y z
#    x 2.036600 0.000000 0.000000 
#    y 0.000000 2.036600 0.000000 
#    z 0.000000 0.000000 1.944910 
# 
# From -- ./inp_files/1393.got.cif
#   From: 2010.05.17/outbox.cif.g08.bks.cpg/sg19_1_cif.got.tgz:1393.got - 2010.06.03 22:46:19.
