data_PCOD9316159
_publ_section_title
;
Structure prediction by ZEFSAII (Michael W. Deem and Ramdas Pophale) SiO2 
 PCOD9316159
Probable space group: P 21 21 21
;
_chemical_formula_sum "Si O2"
_cell_formula_units_Z 32
_cell_length_a 9.000000
_cell_length_b 6.000000
_cell_length_c 30.000000
_cell_angle_alpha 90.000000
_cell_angle_beta 90.000000
_cell_angle_gamma 90.000000
_cell_volume 1620.000000
_symmetry_space_group_name_H-M "P 21 21 21"
_symmetry_group_IT_number 19
_symmetry_cell_setting 'orthorhombic'
loop_
_space_group_symop_operation_xyz
x,y,z
1/2-x,-y,1/2+z
1/2+x,1/2-y,-z
-x,1/2+y,1/2-z
loop_
_atom_site_type_symbol
_atom_site_label
_atom_site_fract_x
_atom_site_fract_y
_atom_site_fract_z
Si Si1 0.058312 0.661636 0.143455
Si Si2 0.220997 0.697661 0.627345
Si Si3 0.845694 0.347126 0.199413
Si Si4 0.212430 0.955521 0.463391
Si Si5 0.832645 0.882379 0.073472
Si Si6 0.373637 0.943432 0.709384
Si Si7 0.365238 0.726414 0.379109
Si Si8 0.078570 0.216165 0.041524
O O1 0.213197 0.554148 0.126945
O O2 0.100068 0.834042 0.181505
O O3 0.953177 0.475108 0.165085
O O4 0.951338 0.771907 0.107119
O O5 0.321856 0.794553 0.586586
O O6 0.044061 0.736909 0.620564
O O7 0.272636 0.796459 0.675531
O O8 0.807238 0.498857 0.242173
O O9 0.706304 0.267704 0.169818
O O10 0.960617 0.157849 0.216384
O O11 0.282229 0.883194 0.415561
O O12 0.309015 0.835001 0.501359
O O13 0.031637 0.928284 0.465454
O O14 0.236964 0.218827 0.462708
O O15 0.700919 0.991673 0.102806
O O16 0.939770 0.049294 0.047178
#
# Coordination Sequence:
#
# PCOD9316159 Si02
#       8
#     4   4   4   4   4   4   4   4
#     4  11  19  41  66  86 120 167 210 255 316 374
#     4  11  24  41  60  90 133 166 205 266 328 377
#     4  11  21  38  66  90 121 163 215 263 313 382
#     4  11  23  42  65  93 126 167 208 264 322 382
#     4  11  21  42  68  88 122 167 216 258 318 384
#     4  11  21  38  64  92 117 166 216 257 313 388
#     4  11  24  42  61  94 130 165 210 270 323 384
#     4  11  23  40  64  91 125 163 210 261 315 389
#
# _framework density 19.753086
#
# number of rings (size 3 to 8) (size 9 to 14) (size 15 to 20)
#    0.000    1.000    6.250    2.250    0.000    4.000 
#    4.500    0.000    0.000    0.000    0.000    0.000 
#    0.000    0.000    0.000    0.000    0.000    0.000 
#
# Total GULP energy -178202.936905 kJ/mol
# GULP energy per Si atom -5568.841778 kJ/mol
# Density = 1.970813 g / cm^3
# Si number density = 19.753086 Si / 1000 Ang^3
#
#
#
# Elastic Constant Matrix: (Units=GPa)
#
#
# Indices 1 2 3 4 5 6 
#
# 1 131.8797 10.9883 18.7804 0.0000 0.0000 0.0000
# 2 10.9883 36.3923 -3.7478 0.0000 0.0000 0.0000
# 3 18.7804 -3.7478 79.7891 0.0000 0.0000 0.0000
# 4 0.0000 0.0000 0.0000 25.8818 0.0000 0.0000
# 5 0.0000 0.0000 0.0000 0.0000 34.2696 0.0000
# 6 0.0000 0.0000 0.0000 0.0000 0.0000 21.5590
#
#
#
# Elastic Compliance Matrix: (Units=1/GPa)
#
#
# Indices 1 2 3 4 5 6 
#
# 1 0.008093 -0.002653 -0.002029 0.000000 0.000000 0.000000
# 2 -0.002653 0.028481 0.001962 0.000000 0.000000 0.000000
# 3 -0.002029 0.001962 0.013103 0.000000 0.000000 0.000000
# 4 0.000000 0.000000 0.000000 0.038637 0.000000 0.000000
# 5 0.000000 0.000000 0.000000 0.000000 0.029180 0.000000
# 6 0.000000 0.000000 0.000000 0.000000 0.000000 0.046384
#
#
# Mechanical properties :
#
#
# Convention : Reuss Voigt Hill
#
# Bulk Modulus (GPa) = 22.60532 33.34475 27.97504
# Shear Modulus (GPa) = 27.16445 31.14476 29.15460
#
# Velocity S-wave (km/s) = 3.71239 3.97508 3.84598
# Velocity P-wave (km/s) = 5.46302 6.16326 5.82367
#
# Compressibility (1/GPa) = 0.04423737
#
# Stress axis : x y z
#
# Youngs Moduli (GPa) = 123.56853 35.11072 76.31912
#
# Poissons Ratio (x) = 0.09313 0.15488
# Poissons Ratio (y) = 0.32777 -0.14975
# Poissons Ratio (z) = 0.25077 -0.06889
#
# Static dielectric constant tensor:
#      x y z
#    x 1.640510 0.000000 0.000000 
#    y 0.000000 1.901230 0.000000 
#    z 0.000000 0.000000 1.697140 
# 
# From -- ./inp_files/681.got.cif
#   From: 2010.05.17/outbox.ucp.g08.bks.cvg/sg19_1_cif.got.tgz:681.got - 2010.06.11 13:13:52.
