data_PCOD9316359
_publ_section_title
;
Structure prediction by ZEFSAII (Michael W. Deem and Ramdas Pophale) SiO2 
 PCOD9316359
Probable space group: C 2 2 21
;
_chemical_formula_sum "Si O2"
_cell_formula_units_Z 48
_cell_length_a 15.874742
_cell_length_b 7.465633
_cell_length_c 18.631611
_cell_angle_alpha 90.000000
_cell_angle_beta 90.000000
_cell_angle_gamma 90.000000
_cell_volume 2208.125336
_symmetry_space_group_name_H-M "C 2 2 21"
_symmetry_group_IT_number 20
_symmetry_cell_setting 'orthorhombic'
loop_
_space_group_symop_operation_xyz
x,y,z
-x,-y,1/2+z
x,-y,-z
-x,y,1/2-z
1/2+x,1/2+y,z
1/2-x,1/2-y,1/2+z
1/2+x,1/2-y,-z
1/2-x,1/2+y,1/2-z
loop_
_atom_site_type_symbol
_atom_site_label
_atom_site_fract_x
_atom_site_fract_y
_atom_site_fract_z
Si Si1 0.321800 0.341836 0.094179
Si Si2 0.173692 0.259338 0.438012
Si Si3 0.557373 0.858730 0.311568
Si Si4 0.178380 0.156781 0.842595
Si Si5 0.502797 0.738869 0.667223
Si Si6 0.278467 0.048736 0.719322
O O1 0.309261 0.547962 0.072170
O O2 0.411817 0.325051 0.131744
O O3 0.249537 0.320225 0.154516
O O4 0.327930 0.218726 0.023701
O O5 0.090454 0.289242 0.388836
O O6 0.251686 0.367081 0.403630
O O7 0.500000 0.763942 0.250000
O O8 0.644202 0.891885 0.268613
O O9 0.508886 0.044213 0.330228
O O10 0.082167 0.161450 0.867381
O O11 0.199143 0.035932 0.773447
O O12 0.196113 0.356613 0.811461
O O13 0.500000 0.683537 0.750000
#
# Coordination Sequence:
#
# PCOD9316359 Si02
#       6
#     8   8   8   8   8   8
#     4  10  20  37  55  76 112 148 185 221 279 330
#     4   9  22  38  53  76 112 149 182 224 276 338
#     4  10  19  35  56  84 112 134 187 233 275 324
#     4  10  19  35  56  82 107 144 182 224 272 328
#     4  11  19  35  59  86 111 137 187 237 270 330
#     4  10  17  33  56  77 110 142 176 226 270 326
#
# _framework density 21.737895000000002
#
# number of rings (size 3 to 8) (size 9 to 14) (size 15 to 20)
#    0.000    2.000    5.000    0.000    0.000    1.333 
#    6.000    1.667    0.000    0.000    0.000    0.000 
#    0.000    0.000    0.000    0.000    0.000    0.000 
#
# Total GULP energy -133795.727696 kJ/mol
# GULP energy per Si atom -5574.821987 kJ/mol
# Density = 2.168842 g / cm^3
# Si number density = 21.737895 Si / 1000 Ang^3
#
#
#
# Elastic Constant Matrix: (Units=GPa)
#
#
# Indices 1 2 3 4 5 6 
#
# 1 73.3984 -0.8975 23.1191 0.0000 0.0000 0.0000
# 2 -0.8975 32.6098 11.7577 0.0000 0.0000 0.0000
# 3 23.1191 11.7577 103.0840 0.0000 0.0000 0.0000
# 4 0.0000 0.0000 0.0000 22.0156 0.0000 0.0000
# 5 0.0000 0.0000 0.0000 0.0000 15.7767 0.0000
# 6 0.0000 0.0000 0.0000 0.0000 0.0000 23.8681
#
#
#
# Elastic Compliance Matrix: (Units=1/GPa)
#
#
# Indices 1 2 3 4 5 6 
#
# 1 0.014746 0.001667 -0.003497 0.000000 0.000000 0.000000
# 2 0.001667 0.032169 -0.004043 0.000000 0.000000 0.000000
# 3 -0.003497 -0.004043 0.010946 0.000000 0.000000 0.000000
# 4 0.000000 0.000000 0.000000 0.045422 0.000000 0.000000
# 5 0.000000 0.000000 0.000000 0.000000 0.063385 0.000000
# 6 0.000000 0.000000 0.000000 0.000000 0.000000 0.041897
#
#
# Mechanical properties :
#
#
# Convention : Reuss Voigt Hill
#
# Bulk Modulus (GPa) = 21.68501 30.78343 26.23422
# Shear Modulus (GPa) = 21.21479 24.00626 22.61052
#
# Velocity S-wave (km/s) = 3.12739 3.32678 3.22862
# Velocity P-wave (km/s) = 4.79980 5.38039 5.09836
#
# Compressibility (1/GPa) = 0.04611480
#
# Stress axis : x y z
#
# Youngs Moduli (GPa) = 67.81386 31.08556 91.35473
#
# Poissons Ratio (x) = -0.05181 0.31950
# Poissons Ratio (y) = -0.11304 0.36935
# Poissons Ratio (z) = 0.23717 0.12568
#
# Static dielectric constant tensor:
#      x y z
#    x 1.799980 0.000000 0.000000 
#    y 0.000000 1.878990 0.000000 
#    z 0.000000 0.000000 1.856000 
# 
# From -- ./inp_files/24816.got.cif
#   From: 2010.05.17/outbox.cif.g08.bks.cpg/sg20_13_cif.got.tgz:24816.got - 2010.06.03 22:52:26.
