data_PCOD9316383
_publ_section_title
;
Structure prediction by ZEFSAII (Michael W. Deem and Ramdas Pophale) SiO2 
 PCOD9316383
Probable space group: C 2 2 21
;
_chemical_formula_sum "Si O2"
_cell_formula_units_Z 44
_cell_length_a 6.846356
_cell_length_b 19.004598
_cell_length_c 13.873187
_cell_angle_alpha 90.000000
_cell_angle_beta 90.000000
_cell_angle_gamma 90.000000
_cell_volume 1805.071486
_symmetry_space_group_name_H-M "C 2 2 21"
_symmetry_group_IT_number 20
_symmetry_cell_setting 'orthorhombic'
loop_
_space_group_symop_operation_xyz
x,y,z
-x,-y,1/2+z
x,-y,-z
-x,y,1/2-z
1/2+x,1/2+y,z
1/2-x,1/2-y,1/2+z
1/2+x,1/2-y,-z
1/2-x,1/2+y,1/2-z
loop_
_atom_site_type_symbol
_atom_site_label
_atom_site_fract_x
_atom_site_fract_y
_atom_site_fract_z
Si Si1 0.466115 0.330504 0.037369
Si Si2 0.206094 0.283214 0.874933
Si Si3 0.636605 0.562189 0.081706
Si Si4 0.273844 0.933136 0.703704
Si Si5 0.699040 0.579558 0.685736
Si Si6 0.500000 0.802032 0.250000
O O1 0.541962 0.275888 0.116083
O O2 0.386656 0.401874 0.082926
O O3 0.285073 0.298400 0.981367
O O4 0.640250 0.361821 0.971461
O O5 0.148890 0.357147 0.827798
O O6 0.394473 0.249550 0.824201
O O7 0.427679 0.563702 0.139138
O O8 0.766726 0.562955 0.179056
O O9 0.670010 0.500000 0.000000
O O10 0.337855 0.012222 0.679402
O O11 0.500000 0.569418 0.750000
O O12 0.827624 0.646125 0.716202
#
# Coordination Sequence:
#
# PCOD9316383 Si02
#       6
#     8   8   8   8   8   4
#     4  11  22  40  68  96 135 182 227 285 349 416
#     4  11  24  42  65 101 139 182 231 294 352 417
#     4  10  17  34  66  99 122 178 237 266 338 422
#     4  10  21  38  69  99 134 186 229 283 348 419
#     4  12  22  44  69  95 131 182 228 276 345 412
#     4  12  26  42  64 102 138 176 230 290 338 418
#
# _framework density 24.375764
#
# number of rings (size 3 to 8) (size 9 to 14) (size 15 to 20)
#    0.000    1.091    5.455    3.273    0.000    0.000 
#    0.000    3.636    0.000    0.000    0.000    0.000 
#    0.000    0.000    0.000    0.000    0.000    0.000 
#
# Total GULP energy -122572.020709 kJ/mol
# GULP energy per Si atom -5571.455487 kJ/mol
# Density = 2.432028 g / cm^3
# Si number density = 24.375764 Si / 1000 Ang^3
#
#
#
# Elastic Constant Matrix: (Units=GPa)
#
#
# Indices 1 2 3 4 5 6 
#
# 1 69.7263 36.3567 18.7755 0.0000 0.0000 0.0000
# 2 36.3567 177.0565 60.0177 0.0000 0.0000 0.0000
# 3 18.7755 60.0177 101.9095 0.0000 0.0000 0.0000
# 4 0.0000 0.0000 0.0000 21.1762 0.0000 0.0000
# 5 0.0000 0.0000 0.0000 0.0000 31.0522 0.0000
# 6 0.0000 0.0000 0.0000 0.0000 0.0000 -25.1693
#
#
#
# Elastic Compliance Matrix: (Units=1/GPa)
#
#
# Indices 1 2 3 4 5 6 
#
# 1 0.016194 -0.002891 -0.001281 0.000000 0.000000 0.000000
# 2 -0.002891 0.007573 -0.003927 0.000000 0.000000 0.000000
# 3 -0.001281 -0.003927 0.012361 0.000000 0.000000 0.000000
# 4 0.000000 0.000000 0.000000 0.047223 0.000000 0.000000
# 5 0.000000 0.000000 0.000000 0.000000 0.032204 0.000000
# 6 0.000000 0.000000 0.000000 0.000000 0.000000 -0.039731
#
#
# Mechanical properties :
#
#
# Convention : Reuss Voigt Hill
#
# Bulk Modulus (GPa) = 50.17557 64.33246 57.25402
# Shear Modulus (GPa) = 50.67596 20.98130 35.82863
#
# Velocity S-wave (km/s) = 4.56450 2.93703 3.83802
# Velocity P-wave (km/s) = 6.95761 6.16042 6.57112
#
# Compressibility (1/GPa) = 0.01993002
#
# Stress axis : x y z
#
# Youngs Moduli (GPa) = 61.75055 132.05147 80.89653
#
# Poissons Ratio (x) = 0.38178 0.10362
# Poissons Ratio (y) = 0.17853 0.31770
# Poissons Ratio (z) = 0.07910 0.51859
#
# Static dielectric constant tensor:
#      x y z
#    x 2.060880 0.000000 0.000000 
#    y 0.000000 1.954520 0.000000 
#    z 0.000000 0.000000 2.236980 
# 
# From -- ./inp_files/18797.got.cif
#   From: 2010.05.17/outbox.cif.g08.bks.cpg/sg20_10_cif.got.tgz:18797.got - 2010.06.03 22:52:26.
