data_PCOD9316005
_publ_section_title
;
Structure prediction by ZEFSAII (Michael W. Deem and Ramdas Pophale) SiO2 
 PCOD9316005
Probable space group: P 21 21 21
;
_chemical_formula_sum "Si O2"
_cell_formula_units_Z 24
_cell_length_a 12.223047
_cell_length_b 7.046200
_cell_length_c 11.818523
_cell_angle_alpha 90.000000
_cell_angle_beta 90.000000
_cell_angle_gamma 90.000000
_cell_volume 1017.882511
_symmetry_space_group_name_H-M "P 21 21 21"
_symmetry_group_IT_number 19
_symmetry_cell_setting 'orthorhombic'
loop_
_space_group_symop_operation_xyz
x,y,z
1/2-x,-y,1/2+z
1/2+x,1/2-y,-z
-x,1/2+y,1/2-z
loop_
_atom_site_type_symbol
_atom_site_label
_atom_site_fract_x
_atom_site_fract_y
_atom_site_fract_z
Si Si1 0.670490 0.302844 0.536328
Si Si2 0.739366 0.991487 0.868090
Si Si3 0.370420 0.284478 0.316784
Si Si4 0.561787 0.286784 0.913075
Si Si5 0.457041 0.203677 0.680660
Si Si6 0.956440 0.426510 0.893963
O O1 0.780513 0.321489 0.608669
O O2 0.567231 0.274206 0.618463
O O3 0.646909 0.479479 0.455273
O O4 0.687149 0.115075 0.460041
O O5 0.807254 0.062055 0.760812
O O6 0.676010 0.174901 0.915007
O O7 0.930393 0.356973 0.768682
O O8 0.455231 0.403437 0.391189
O O9 0.988860 0.307427 0.187398
O O10 0.571989 0.502889 0.875186
O O11 0.644484 0.844069 0.833688
O O12 0.502390 0.245242 0.031053
#
# Coordination Sequence:
#
# PCOD9316005 Si02
#       6
#     4   4   4   4   4   4
#     4  12  24  48  74 108 155 201 262 313 381 463
#     4  12  26  46  77 111 149 202 258 310 390 460
#     4  12  27  51  75 114 159 201 261 317 393 461
#     4  12  23  45  75 105 149 199 249 316 386 445
#     4  12  24  47  74 112 155 194 262 326 367 471
#     4  12  28  51  75 112 159 207 254 330 383 456
#
# _framework density 23.578358999999999
#
# number of rings (size 3 to 8) (size 9 to 14) (size 15 to 20)
#    0.000    0.000    6.667    2.000    2.333    1.333 
#    0.000    1.667    0.000    0.000    0.000    0.000 
#    0.000    0.000    0.000    0.000    0.000    0.000 
#
# Total GULP energy -134627.993012 kJ/mol
# GULP energy per Si atom -5609.499709 kJ/mol
# Density = 2.352469 g / cm^3
# Si number density = 23.578359 Si / 1000 Ang^3
#
#
#
# Elastic Constant Matrix: (Units=GPa)
#
#
# Indices 1 2 3 4 5 6 
#
# 1 93.6419 23.5814 20.9223 0.0000 0.0000 0.0000
# 2 23.5814 78.1269 -21.1629 0.0000 0.0000 0.0000
# 3 20.9223 -21.1629 54.9031 0.0000 0.0000 0.0000
# 4 0.0000 0.0000 0.0000 47.8897 0.0000 0.0000
# 5 0.0000 0.0000 0.0000 0.0000 52.4043 0.0000
# 6 0.0000 0.0000 0.0000 0.0000 0.0000 36.1092
#
#
#
# Elastic Compliance Matrix: (Units=1/GPa)
#
#
# Indices 1 2 3 4 5 6 
#
# 1 0.014014 -0.006338 -0.007784 0.000000 0.000000 0.000000
# 2 -0.006338 0.017159 0.009029 0.000000 0.000000 0.000000
# 3 -0.007784 0.009029 0.024661 0.000000 0.000000 0.000000
# 4 0.000000 0.000000 0.000000 0.020881 0.000000 0.000000
# 5 0.000000 0.000000 0.000000 0.000000 0.019082 0.000000
# 6 0.000000 0.000000 0.000000 0.000000 0.000000 0.027694
#
#
# Mechanical properties :
#
#
# Convention : Reuss Voigt Hill
#
# Bulk Modulus (GPa) = 21.90674 30.37262 26.13968
# Shear Modulus (GPa) = 33.58127 40.83605 37.20866
#
# Velocity S-wave (km/s) = 3.77801 4.16616 3.97682
# Velocity P-wave (km/s) = 5.32375 6.00434 5.67426
#
# Compressibility (1/GPa) = 0.04564806
#
# Stress axis : x y z
#
# Youngs Moduli (GPa) = 71.35582 58.27938 40.55060
#
# Poissons Ratio (x) = 0.36940 0.31563
# Poissons Ratio (y) = 0.45228 -0.36615
# Poissons Ratio (z) = 0.55541 -0.52623
#
# Static dielectric constant tensor:
#      x y z
#    x 1.874720 0.000000 0.000000 
#    y 0.000000 1.876860 0.000000 
#    z 0.000000 0.000000 1.890610 
# 
# From -- ./inp_files/6690.got.cif
#   From: 2010.05.17/outbox.cif.g08.bks.cpg/sg19_4_cif.got.tgz:6690.got - 2010.06.03 22:46:19.
