data_PCOD9316112
_publ_section_title
;
Structure prediction by ZEFSAII (Michael W. Deem and Ramdas Pophale) SiO2 
 PCOD9316112
Probable space group: P 21 21 21
;
_chemical_formula_sum "Si O2"
_cell_formula_units_Z 20
_cell_length_a 4.929979
_cell_length_b 5.174274
_cell_length_c 26.850944
_cell_angle_alpha 90.000000
_cell_angle_beta 90.000000
_cell_angle_gamma 90.000000
_cell_volume 684.942400
_symmetry_space_group_name_H-M "P 21 21 21"
_symmetry_group_IT_number 19
_symmetry_cell_setting 'orthorhombic'
loop_
_space_group_symop_operation_xyz
x,y,z
1/2-x,-y,1/2+z
1/2+x,1/2-y,-z
-x,1/2+y,1/2-z
loop_
_atom_site_type_symbol
_atom_site_label
_atom_site_fract_x
_atom_site_fract_y
_atom_site_fract_z
Si Si1 0.417438 0.729013 0.688758
Si Si2 0.722149 0.763553 0.211371
Si Si3 0.989477 0.084777 0.086825
Si Si4 0.521743 0.246571 0.390857
Si Si5 0.373826 0.069517 0.488395
O O1 0.609247 0.977547 0.698989
O O2 0.388796 0.730248 0.629274
O O3 0.578418 0.474255 0.702165
O O4 0.171458 0.746910 0.728926
O O5 0.498142 0.721859 0.168800
O O6 0.178892 0.833204 0.095735
O O7 0.687916 0.981980 0.096796
O O8 0.042930 0.147081 0.028904
O O9 0.413849 0.027699 0.429219
O O10 0.586882 0.301263 0.500321
#
# Coordination Sequence:
#
# PCOD9316112 Si02
#       5
#     4   4   4   4   4
#     4   9  18  35  58  84 114 149 189 233 282 336
#     4   9  18  35  58  84 114 149 189 233 282 336
#     4   9  17  32  54  82 112 147 186 231 280 334
#     4   9  17  32  54  82 112 147 186 231 280 334
#     4   8  14  26  50  78 108 142 182 226 276 330
#
# _framework density 29.199536999999999
#
# number of rings (size 3 to 8) (size 9 to 14) (size 15 to 20)
#    0.000    3.200    0.000    0.000    0.000    0.000 
#    0.000   24.000    0.000   31.200    0.000    0.000 
#    0.000    0.000    0.000    0.000    0.000    0.000 
#
# Total GULP energy -112018.467671 kJ/mol
# GULP energy per Si atom -5600.923384 kJ/mol
# Density = 2.913308 g / cm^3
# Si number density = 29.199537 Si / 1000 Ang^3
#
#
#
# Elastic Constant Matrix: (Units=GPa)
#
#
# Indices 1 2 3 4 5 6 
#
# 1 103.6001 23.3995 45.4682 0.0000 0.0000 0.0000
# 2 23.3995 128.7036 53.7712 0.0000 0.0000 0.0000
# 3 45.4682 53.7712 196.1548 0.0000 0.0000 0.0000
# 4 0.0000 0.0000 0.0000 67.4240 0.0000 0.0000
# 5 0.0000 0.0000 0.0000 0.0000 55.9971 0.0000
# 6 0.0000 0.0000 0.0000 0.0000 0.0000 12.7573
#
#
#
# Elastic Compliance Matrix: (Units=1/GPa)
#
#
# Indices 1 2 3 4 5 6 
#
# 1 0.010868 -0.001043 -0.002233 0.000000 0.000000 0.000000
# 2 -0.001043 0.008875 -0.002191 0.000000 0.000000 0.000000
# 3 -0.002233 -0.002191 0.006216 0.000000 0.000000 0.000000
# 4 0.000000 0.000000 0.000000 0.014832 0.000000 0.000000
# 5 0.000000 0.000000 0.000000 0.000000 0.017858 0.000000
# 6 0.000000 0.000000 0.000000 0.000000 0.000000 0.078386
#
#
# Mechanical properties :
#
#
# Convention : Reuss Voigt Hill
#
# Bulk Modulus (GPa) = 66.55682 74.85960 70.70821
# Shear Modulus (GPa) = 32.68441 47.62366 40.15404
#
# Velocity S-wave (km/s) = 3.34929 4.04291 3.71234
# Velocity P-wave (km/s) = 6.14819 6.89104 6.53019
#
# Compressibility (1/GPa) = 0.01502476
#
# Stress axis : x y z
#
# Youngs Moduli (GPa) = 92.01130 112.67844 160.86653
#
# Poissons Ratio (x) = 0.11751 0.35927
# Poissons Ratio (y) = 0.09596 0.35247
# Poissons Ratio (z) = 0.20549 0.24689
#
# Static dielectric constant tensor:
#      x y z
#    x 2.137790 0.000000 0.000000 
#    y 0.000000 2.200260 0.000000 
#    z 0.000000 0.000000 2.528520 
# 
# From -- ./inp_files/202.got.cif
#   From: 2010.05.17/outbox.cif.g08.bks.cpg/sg19_1_cif.got.tgz:202.got - 2010.06.03 22:46:19.
