data_PCOD9316132
_publ_section_title
;
Structure prediction by ZEFSAII (Michael W. Deem and Ramdas Pophale) SiO2 
 PCOD9316132
Probable space group: P 21 21 21
;
_chemical_formula_sum "Si O2"
_cell_formula_units_Z 24
_cell_length_a 15.000000
_cell_length_b 12.000000
_cell_length_c 6.000000
_cell_angle_alpha 90.000000
_cell_angle_beta 90.000000
_cell_angle_gamma 90.000000
_cell_volume 1080.000000
_symmetry_space_group_name_H-M "P 21 21 21"
_symmetry_group_IT_number 19
_symmetry_cell_setting 'orthorhombic'
loop_
_space_group_symop_operation_xyz
x,y,z
1/2-x,-y,1/2+z
1/2+x,1/2-y,-z
-x,1/2+y,1/2-z
loop_
_atom_site_type_symbol
_atom_site_label
_atom_site_fract_x
_atom_site_fract_y
_atom_site_fract_z
Si Si1 0.939980 0.857445 0.045121
Si Si2 0.233576 0.941110 0.414780
Si Si3 0.386334 0.802557 0.590189
Si Si4 0.449286 0.000394 0.875010
Si Si5 0.301001 0.490861 0.184697
Si Si6 0.464194 0.339786 0.279324
O O1 0.886869 0.806721 0.258586
O O2 0.993419 0.955510 0.168986
O O3 0.009636 0.766694 0.939553
O O4 0.870942 0.907338 0.865693
O O5 0.300494 0.837626 0.448267
O O6 0.128667 0.911976 0.428694
O O7 0.252994 0.986835 0.154779
O O8 0.473485 0.813937 0.434188
O O9 0.394762 0.895862 0.781343
O O10 0.500766 0.949579 0.084811
O O11 0.252551 0.510252 0.434892
O O12 0.363430 0.378722 0.214738
#
# Coordination Sequence:
#
# PCOD9316132 Si02
#       6
#     4   4   4   4   4   4
#     4  11  26  47  78 109 152 212 261 321 392 479
#     4  10  20  40  68 103 139 183 236 313 378 439
#     4  10  22  42  72 105 145 195 250 312 382 472
#     4  10  21  44  72 104 150 194 250 317 395 453
#     4  12  29  55  81 112 165 214 263 333 401 472
#     4  11  24  48  77 107 151 206 264 320 392 477
#
# _framework density 22.222221999999999
#
# number of rings (size 3 to 8) (size 9 to 14) (size 15 to 20)
#    0.000    1.333    3.333    1.000    7.000    0.000 
#    6.000    0.000    0.000    0.000    0.000    0.000 
#    0.000    0.000    0.000    0.000    0.000    0.000 
#
# Total GULP energy -133636.878999 kJ/mol
# GULP energy per Si atom -5568.203292 kJ/mol
# Density = 2.217164 g / cm^3
# Si number density = 22.222222 Si / 1000 Ang^3
#
#
#
# Elastic Constant Matrix: (Units=GPa)
#
#
# Indices 1 2 3 4 5 6 
#
# 1 86.2102 17.0047 34.1409 0.0000 0.0000 0.0000
# 2 17.0047 58.5971 13.4720 0.0000 0.0000 0.0000
# 3 34.1409 13.4720 141.4411 0.0000 0.0000 0.0000
# 4 0.0000 0.0000 0.0000 52.5954 0.0000 0.0000
# 5 0.0000 0.0000 0.0000 0.0000 63.1998 0.0000
# 6 0.0000 0.0000 0.0000 0.0000 0.0000 23.1011
#
#
#
# Elastic Compliance Matrix: (Units=1/GPa)
#
#
# Indices 1 2 3 4 5 6 
#
# 1 0.013392 -0.003214 -0.002927 0.000000 0.000000 0.000000
# 2 -0.003214 0.018219 -0.000960 0.000000 0.000000 0.000000
# 3 -0.002927 -0.000960 0.007868 0.000000 0.000000 0.000000
# 4 0.000000 0.000000 0.000000 0.019013 0.000000 0.000000
# 5 0.000000 0.000000 0.000000 0.000000 0.015823 0.000000
# 6 0.000000 0.000000 0.000000 0.000000 0.000000 0.043288
#
#
# Mechanical properties :
#
#
# Convention : Reuss Voigt Hill
#
# Bulk Modulus (GPa) = 39.55753 46.16486 42.86120
# Shear Modulus (GPa) = 35.65591 42.55464 39.10527
#
# Velocity S-wave (km/s) = 4.00999 4.38077 4.19947
# Velocity P-wave (km/s) = 6.26734 6.81230 6.54550
#
# Compressibility (1/GPa) = 0.02527964
#
# Stress axis : x y z
#
# Youngs Moduli (GPa) = 74.66920 54.88805 127.09882
#
# Poissons Ratio (x) = 0.17639 0.37196
# Poissons Ratio (y) = 0.23996 0.12197
# Poissons Ratio (z) = 0.21852 0.05267
#
# Static dielectric constant tensor:
#      x y z
#    x 1.901300 0.000000 0.000000 
#    y 0.000000 1.899090 0.000000 
#    z 0.000000 0.000000 1.836350 
# 
# From -- ./inp_files/1415.got.cif
#   From: 2010.05.17/outbox.ucp.g08.bks.cvg/sg19_1_cif.got.tgz:1415.got - 2010.06.11 13:13:52.
