data_PCOD9316564
_publ_section_title
;
Structure prediction by ZEFSAII (Michael W. Deem and Ramdas Pophale) SiO2 
 PCOD9316564
Probable space group: C 2 2 21
;
_chemical_formula_sum "Si O2"
_cell_formula_units_Z 64
_cell_length_a 23.166934
_cell_length_b 9.346316
_cell_length_c 15.099951
_cell_angle_alpha 90.000000
_cell_angle_beta 90.000000
_cell_angle_gamma 90.000000
_cell_volume 3269.524228
_symmetry_space_group_name_H-M "C 2 2 21"
_symmetry_group_IT_number 20
_symmetry_cell_setting 'orthorhombic'
loop_
_space_group_symop_operation_xyz
x,y,z
-x,-y,1/2+z
x,-y,-z
-x,y,1/2-z
1/2+x,1/2+y,z
1/2-x,1/2-y,1/2+z
1/2+x,1/2-y,-z
1/2-x,1/2+y,1/2-z
loop_
_atom_site_type_symbol
_atom_site_label
_atom_site_fract_x
_atom_site_fract_y
_atom_site_fract_z
Si Si1 0.714824 0.148178 0.182190
Si Si2 0.757889 0.101732 0.578131
Si Si3 0.432154 0.190266 0.061926
Si Si4 0.039300 0.400822 0.835165
Si Si5 0.623802 0.884622 0.394273
Si Si6 0.865269 0.380816 0.315801
Si Si7 0.820866 0.909839 0.712904
Si Si8 0.381426 0.682476 0.771120
O O1 0.710042 0.248406 0.095391
O O2 0.782089 0.147584 0.206467
O O3 0.678836 0.230310 0.259371
O O4 0.687438 0.992364 0.172984
O O5 0.689611 0.125947 0.572852
O O6 0.778094 0.000000 0.500000
O O7 0.773529 0.005270 0.662451
O O8 0.498038 0.153482 0.086682
O O9 0.408193 0.305911 0.131315
O O10 0.397857 0.046502 0.090637
O O11 0.416261 0.210273 0.959284
O O12 0.080509 0.534597 0.857041
O O13 0.077663 0.270191 0.796537
O O14 0.000000 0.442184 0.750000
O O15 0.620928 0.861785 0.289268
O O16 0.846092 0.222232 0.342639
O O17 0.869537 0.020638 0.743128
#
# Coordination Sequence:
#
# PCOD9316564 Si02
#       8
#     8   8   8   8   8   8   8   8
#     4  10  18  33  55  83 118 155 190 229 281 361
#     4  11  21  35  57  85 124 159 190 233 298 357
#     4  10  18  32  57  83 110 147 194 253 301 339
#     4   9  17  33  56  76 108 147 198 241 293 352
#     4  11  18  30  59  92 110 142 196 248 299 343
#     4  11  19  35  58  88 117 151 204 243 285 356
#     4  11  20  33  59  86 118 159 195 239 289 363
#     4   9  18  33  54  83 110 157 195 230 289 362
#
# _framework density 19.574712999999999
#
# number of rings (size 3 to 8) (size 9 to 14) (size 15 to 20)
#    0.000    1.750    7.500    0.750    0.000    0.000 
#    0.000    3.125   16.500    0.000    0.000    0.000 
#    0.000    0.000    0.000    0.000    0.000    0.000 
#
# Total GULP energy -178256.015916 kJ/mol
# GULP energy per Si atom -5570.500497 kJ/mol
# Density = 1.953016 g / cm^3
# Si number density = 19.574713 Si / 1000 Ang^3
#
#
#
# Elastic Constant Matrix: (Units=GPa)
#
#
# Indices 1 2 3 4 5 6 
#
# 1 91.3108 44.6456 16.3375 0.0000 0.0000 0.0000
# 2 44.6456 110.8839 12.2413 0.0000 0.0000 0.0000
# 3 16.3375 12.2413 47.0514 0.0000 0.0000 0.0000
# 4 0.0000 0.0000 0.0000 19.4374 0.0000 0.0000
# 5 0.0000 0.0000 0.0000 0.0000 20.1211 0.0000
# 6 0.0000 0.0000 0.0000 0.0000 0.0000 4.4796
#
#
#
# Elastic Compliance Matrix: (Units=1/GPa)
#
#
# Indices 1 2 3 4 5 6 
#
# 1 0.014187 -0.005321 -0.003542 0.000000 0.000000 0.000000
# 2 -0.005321 0.011281 -0.001087 0.000000 0.000000 0.000000
# 3 -0.003542 -0.001087 0.022766 0.000000 0.000000 0.000000
# 4 0.000000 0.000000 0.000000 0.051447 0.000000 0.000000
# 5 0.000000 0.000000 0.000000 0.000000 0.049699 0.000000
# 6 0.000000 0.000000 0.000000 0.000000 0.000000 0.223235
#
#
# Mechanical properties :
#
#
# Convention : Reuss Voigt Hill
#
# Bulk Modulus (GPa) = 35.29375 43.96610 39.62993
# Shear Modulus (GPa) = 12.43905 20.54240 16.49073
#
# Velocity S-wave (km/s) = 2.52358 3.24301 2.90565
# Velocity P-wave (km/s) = 5.15371 6.04419 5.61663
#
# Compressibility (1/GPa) = 0.02833363
#
# Stress axis : x y z
#
# Youngs Moduli (GPa) = 70.48689 88.64499 43.92511
#
# Poissons Ratio (x) = 0.47170 0.15557
# Poissons Ratio (y) = 0.37507 0.04776
# Poissons Ratio (z) = 0.24965 0.09638
#
# Static dielectric constant tensor:
#      x y z
#    x 1.705900 0.000000 0.000000 
#    y 0.000000 1.708150 0.000000 
#    z 0.000000 0.000000 1.790860 
# 
# From -- ./inp_files/25526.got.cif
#   From: 2010.05.17/outbox.cif.g08.bks.cpg/sg20_13_cif.got.tgz:25526.got - 2010.06.03 22:52:26.
