data_PCOD9316809
_publ_section_title
;
Structure prediction by ZEFSAII (Michael W. Deem and Ramdas Pophale) SiO2 
 PCOD9316809
Probable space group: C 2 2 21
;
_chemical_formula_sum "Si O2"
_cell_formula_units_Z 64
_cell_length_a 9.553305
_cell_length_b 18.682720
_cell_length_c 18.316146
_cell_angle_alpha 90.000000
_cell_angle_beta 90.000000
_cell_angle_gamma 90.000000
_cell_volume 3269.097286
_symmetry_space_group_name_H-M "C 2 2 21"
_symmetry_group_IT_number 20
_symmetry_cell_setting 'orthorhombic'
loop_
_space_group_symop_operation_xyz
x,y,z
-x,-y,1/2+z
x,-y,-z
-x,y,1/2-z
1/2+x,1/2+y,z
1/2-x,1/2-y,1/2+z
1/2+x,1/2-y,-z
1/2-x,1/2+y,1/2-z
loop_
_atom_site_type_symbol
_atom_site_label
_atom_site_fract_x
_atom_site_fract_y
_atom_site_fract_z
Si Si1 0.451145 0.499124 0.087634
Si Si2 0.328728 0.671841 0.545198
Si Si3 0.274902 0.972549 0.083904
Si Si4 0.048261 0.411881 0.667295
Si Si5 0.651671 0.358272 0.436385
Si Si6 0.042396 0.852714 0.668193
Si Si7 0.253941 0.291984 0.615617
Si Si8 0.197057 0.669924 0.089908
O O1 0.615284 0.490601 0.105318
O O2 0.350059 0.432944 0.108240
O O3 0.422950 0.574175 0.125183
O O4 0.436819 0.500000 0.000000
O O5 0.231708 0.613895 0.586303
O O6 0.487950 0.643866 0.538847
O O7 0.252836 0.680454 0.467778
O O8 0.357079 0.750300 0.575687
O O9 0.380344 0.017416 0.133397
O O10 0.293185 0.000000 0.000000
O O11 0.159496 0.346310 0.662095
O O12 0.000000 0.422825 0.750000
O O13 0.918197 0.384812 0.618602
O O14 0.699036 0.289486 0.388982
O O15 0.741084 0.354915 0.511152
O O16 0.914974 0.804921 0.637925
O O17 0.000000 0.869897 0.750000
O O18 0.187896 0.814546 0.652595
#
# Coordination Sequence:
#
# PCOD9316809 Si02
#       8
#     8   8   8   8   8   8   8   8
#     4  10  18  38  65  94 121 159 212 270 314 375
#     4  10  19  37  68  94 123 157 218 266 329 375
#     4  10  19  38  65  91 119 166 214 260 318 383
#     4  12  24  40  61  95 135 174 213 259 324 391
#     4  10  20  37  67  97 126 154 212 283 319 367
#     4  12  23  40  64  89 129 178 215 253 326 398
#     4  11  20  40  63  95 123 168 215 265 322 389
#     4  11  23  38  61  99 127 162 213 276 318 376
#
# _framework density 19.577269999999999
#
# number of rings (size 3 to 8) (size 9 to 14) (size 15 to 20)
#    0.000    1.250    6.250    1.500    0.000    0.000 
#    2.250    1.250    2.750    0.000    0.000    0.000 
#    0.000    0.000    0.000    0.000    0.000    0.000 
#
# Total GULP energy -178293.162262 kJ/mol
# GULP energy per Si atom -5571.661321 kJ/mol
# Density = 1.953271 g / cm^3
# Si number density = 19.577270 Si / 1000 Ang^3
#
#
#
# Elastic Constant Matrix: (Units=GPa)
#
#
# Indices 1 2 3 4 5 6 
#
# 1 71.6683 42.5569 8.8653 0.0000 0.0000 0.0000
# 2 42.5569 119.8038 43.8481 0.0000 0.0000 0.0000
# 3 8.8653 43.8481 50.6099 0.0000 0.0000 0.0000
# 4 0.0000 0.0000 0.0000 14.8440 0.0000 0.0000
# 5 0.0000 0.0000 0.0000 0.0000 17.6426 0.0000
# 6 0.0000 0.0000 0.0000 0.0000 0.0000 30.3386
#
#
#
# Elastic Compliance Matrix: (Units=1/GPa)
#
#
# Indices 1 2 3 4 5 6 
#
# 1 0.018100 -0.007716 0.003514 0.000000 0.000000 0.000000
# 2 -0.007716 0.015512 -0.012088 0.000000 0.000000 0.000000
# 3 0.003514 -0.012088 0.029616 0.000000 0.000000 0.000000
# 4 0.000000 0.000000 0.000000 0.067367 0.000000 0.000000
# 5 0.000000 0.000000 0.000000 0.000000 0.056681 0.000000
# 6 0.000000 0.000000 0.000000 0.000000 0.000000 0.032961
#
#
# Mechanical properties :
#
#
# Convention : Reuss Voigt Hill
#
# Bulk Modulus (GPa) = 32.62685 48.06918 40.34802
# Shear Modulus (GPa) = 19.00899 22.35247 20.68073
#
# Velocity S-wave (km/s) = 3.11942 3.38265 3.25370
# Velocity P-wave (km/s) = 5.44759 6.31374 5.89659
#
# Compressibility (1/GPa) = 0.03064960
#
# Stress axis : x y z
#
# Youngs Moduli (GPa) = 55.24823 64.46635 33.76526
#
# Poissons Ratio (x) = 0.49741 -0.11866
# Poissons Ratio (y) = 0.42628 0.40815
# Poissons Ratio (z) = -0.19416 0.77926
#
# Static dielectric constant tensor:
#      x y z
#    x 1.716890 0.000000 0.000000 
#    y 0.000000 1.776660 0.000000 
#    z 0.000000 0.000000 1.685530 
# 
# From -- ./inp_files/23908.got.cif
#   From: 2010.05.17/outbox.cif.g08.bks.cpg/sg20_12_cif.got.tgz:23908.got - 2010.06.03 22:52:26.
