data_PCOD9316274
_publ_section_title
;
Structure prediction by ZEFSAII (Michael W. Deem and Ramdas Pophale) SiO2 
 PCOD9316274
Probable space group: C 2 2 21
;
_chemical_formula_sum "Si O2"
_cell_formula_units_Z 32
_cell_length_a 17.389947
_cell_length_b 8.839630
_cell_length_c 8.441662
_cell_angle_alpha 90.000000
_cell_angle_beta 90.000000
_cell_angle_gamma 90.000000
_cell_volume 1297.658168
_symmetry_space_group_name_H-M "C 2 2 21"
_symmetry_group_IT_number 20
_symmetry_cell_setting 'orthorhombic'
loop_
_space_group_symop_operation_xyz
x,y,z
-x,-y,1/2+z
x,-y,-z
-x,y,1/2-z
1/2+x,1/2+y,z
1/2-x,1/2-y,1/2+z
1/2+x,1/2-y,-z
1/2-x,1/2+y,1/2-z
loop_
_atom_site_type_symbol
_atom_site_label
_atom_site_fract_x
_atom_site_fract_y
_atom_site_fract_z
Si Si1 0.321770 0.681305 0.216806
Si Si2 0.000000 0.501477 0.250000
Si Si3 0.902918 0.000000 0.500000
Si Si4 0.525503 0.296721 0.574970
Si Si5 0.660518 0.971441 0.817943
O O1 0.351072 0.578984 0.365248
O O2 0.384102 0.665588 0.073677
O O3 0.324569 0.860681 0.249632
O O4 0.234749 0.632570 0.191104
O O5 0.007632 0.378835 0.394242
O O6 0.080411 0.587613 0.253102
O O7 0.965205 0.130782 0.544454
O O8 0.500000 0.359473 0.750000
O O9 0.645694 0.000000 0.000000
#
# Coordination Sequence:
#
# PCOD9316274 Si02
#       5
#     8   4   4   8   8
#     4  10  23  39  64  99 131 170 222 266 324 390
#     4   8  18  44  58  86 124 170 212 268 318 380
#     4  10  16  36  66  92 126 176 208 268 310 394
#     4   7  15  33  59  85 121 166 206 253 312 374
#     4  11  24  44  66  95 134 171 218 274 329 391
#
# _framework density 24.659807000000001
#
# number of rings (size 3 to 8) (size 9 to 14) (size 15 to 20)
#    0.750    2.000    2.500    0.000    5.250    0.000 
#    2.250    2.500    0.000    0.000    0.000    0.000 
#    0.000    0.000    0.000    0.000    0.000    0.000 
#
# Total GULP energy -89174.953852 kJ/mol
# GULP energy per Si atom -5573.434616 kJ/mol
# Density = 2.460368 g / cm^3
# Si number density = 24.659807 Si / 1000 Ang^3
#
#
#
# Elastic Constant Matrix: (Units=GPa)
#
#
# Indices 1 2 3 4 5 6 
#
# 1 251.5230 40.1530 17.0878 0.0000 0.0000 0.0000
# 2 40.1530 82.8374 21.1142 0.0000 0.0000 0.0000
# 3 17.0878 21.1142 18.3747 0.0000 0.0000 0.0000
# 4 0.0000 0.0000 0.0000 42.5692 0.0000 0.0000
# 5 0.0000 0.0000 0.0000 0.0000 11.1719 0.0000
# 6 0.0000 0.0000 0.0000 0.0000 0.0000 49.8888
#
#
#
# Elastic Compliance Matrix: (Units=1/GPa)
#
#
# Indices 1 2 3 4 5 6 
#
# 1 0.004377 -0.001533 -0.002309 0.000000 0.000000 0.000000
# 2 -0.001533 0.017609 -0.018809 0.000000 0.000000 0.000000
# 3 -0.002309 -0.018809 0.078182 0.000000 0.000000 0.000000
# 4 0.000000 0.000000 0.000000 0.023491 0.000000 0.000000
# 5 0.000000 0.000000 0.000000 0.000000 0.089510 0.000000
# 6 0.000000 0.000000 0.000000 0.000000 0.000000 0.020045
#
#
# Mechanical properties :
#
#
# Convention : Reuss Voigt Hill
#
# Bulk Modulus (GPa) = 18.22572 56.60502 37.41537
# Shear Modulus (GPa) = 16.84604 39.01799 27.93202
#
# Velocity S-wave (km/s) = 2.61653 3.98207 3.36920
# Velocity P-wave (km/s) = 4.06635 6.64430 5.50826
#
# Compressibility (1/GPa) = 0.05486750
#
# Stress axis : x y z
#
# Youngs Moduli (GPa) = 228.44515 56.78880 12.79059
#
# Poissons Ratio (x) = 0.08707 0.02953
# Poissons Ratio (y) = 0.35028 0.24057
# Poissons Ratio (z) = 0.52747 1.06811
#
# Static dielectric constant tensor:
#      x y z
#    x 2.023930 0.000000 0.000000 
#    y 0.000000 1.952690 0.000000 
#    z 0.000000 0.000000 2.008460 
# 
# From -- ./inp_files/14723.got.cif
#   From: 2010.05.17/outbox.cif.g08.bks.cpg/sg20_8_cif.got.tgz:14723.got - 2010.06.03 22:52:26.
