data_PCOD9316617
_publ_section_title
;
Structure prediction by ZEFSAII (Michael W. Deem and Ramdas Pophale) SiO2 
 PCOD9316617
Probable space group: C 2 2 21
;
_chemical_formula_sum "Si O2"
_cell_formula_units_Z 56
_cell_length_a 23.210418
_cell_length_b 22.951879
_cell_length_c 6.404453
_cell_angle_alpha 90.000000
_cell_angle_beta 90.000000
_cell_angle_gamma 90.000000
_cell_volume 3411.797529
_symmetry_space_group_name_H-M "C 2 2 21"
_symmetry_group_IT_number 20
_symmetry_cell_setting 'orthorhombic'
loop_
_space_group_symop_operation_xyz
x,y,z
-x,-y,1/2+z
x,-y,-z
-x,y,1/2-z
1/2+x,1/2+y,z
1/2-x,1/2-y,1/2+z
1/2+x,1/2-y,-z
1/2-x,1/2+y,1/2-z
loop_
_atom_site_type_symbol
_atom_site_label
_atom_site_fract_x
_atom_site_fract_y
_atom_site_fract_z
Si Si1 0.069396 0.635937 0.480749
Si Si2 0.177316 0.767189 0.506229
Si Si3 0.935590 0.245408 0.242983
Si Si4 0.123871 0.299288 0.881230
Si Si5 0.500000 0.944239 0.750000
Si Si6 0.722568 0.165257 0.812494
Si Si7 0.101267 0.500000 0.000000
Si Si8 0.327111 0.057265 0.855057
O O1 0.060522 0.690751 0.631004
O O2 0.081357 0.660112 0.248887
O O3 0.016443 0.592904 0.455137
O O4 0.125167 0.598784 0.538965
O O5 0.117317 0.784674 0.619292
O O6 0.159450 0.735339 0.292713
O O7 0.221213 0.817854 0.444529
O O8 0.208516 0.718518 0.651864
O O9 0.913049 0.256605 0.475073
O O10 0.000000 0.220180 0.250000
O O11 0.168126 0.332864 0.030128
O O12 0.557309 0.977184 0.821476
O O13 0.723944 0.103179 0.695911
O O14 0.144320 0.539201 0.864458
O O15 0.315982 0.000000 0.000000
#
# Coordination Sequence:
#
# PCOD9316617 Si02
#       8
#     8   8   8   8   4   8   4   8
#     4  11  21  33  48  69  94 140 190 229 275 309
#     4  10  20  33  56  81  94 134 181 236 278 326
#     4  10  21  33  50  78 107 134 176 225 285 332
#     4  10  18  34  52  75  99 134 176 232 276 316
#     4  12  22  34  48  60  96 140 194 248 260 306
#     4  11  20  35  58  75 102 128 190 237 278 333
#     4  12  26  38  46  66  98 146 196 238 282 304
#     4  12  24  38  49  71 101 142 188 239 282 326
#
# _framework density 16.413633999999998
#
# number of rings (size 3 to 8) (size 9 to 14) (size 15 to 20)
#    0.000    1.143    7.143    2.571    2.000    1.714 
#    0.000    0.000    0.000    0.000    0.000    0.000 
#    0.000    0.000    0.000    0.000   27.143    0.857 
#
# Total GULP energy -156087.181347 kJ/mol
# GULP energy per Si atom -5574.542191 kJ/mol
# Density = 1.637628 g / cm^3
# Si number density = 16.413634 Si / 1000 Ang^3
#
#
#
# Elastic Constant Matrix: (Units=GPa)
#
#
# Indices 1 2 3 4 5 6 
#
# 1 88.5069 32.2331 22.1418 0.0000 0.0000 0.0000
# 2 32.2331 48.7449 14.0857 0.0000 0.0000 0.0000
# 3 22.1418 14.0857 76.0009 0.0000 0.0000 0.0000
# 4 0.0000 0.0000 0.0000 18.5586 0.0000 0.0000
# 5 0.0000 0.0000 0.0000 0.0000 18.9028 0.0000
# 6 0.0000 0.0000 0.0000 0.0000 0.0000 14.6846
#
#
#
# Elastic Compliance Matrix: (Units=1/GPa)
#
#
# Indices 1 2 3 4 5 6 
#
# 1 0.015407 -0.009394 -0.002748 0.000000 0.000000 0.000000
# 2 -0.009394 0.027404 -0.002342 0.000000 0.000000 0.000000
# 3 -0.002748 -0.002342 0.014392 0.000000 0.000000 0.000000
# 4 0.000000 0.000000 0.000000 0.053883 0.000000 0.000000
# 5 0.000000 0.000000 0.000000 0.000000 0.052902 0.000000
# 6 0.000000 0.000000 0.000000 0.000000 0.000000 0.068099
#
#
# Mechanical properties :
#
#
# Convention : Reuss Voigt Hill
#
# Bulk Modulus (GPa) = 35.41630 38.90818 37.16224
# Shear Modulus (GPa) = 18.48654 20.08199 19.28426
#
# Velocity S-wave (km/s) = 3.35967 3.50164 3.43139
# Velocity P-wave (km/s) = 6.05591 6.33285 6.19592
#
# Compressibility (1/GPa) = 0.02823559
#
# Stress axis : x y z
#
# Youngs Moduli (GPa) = 64.90486 36.49135 69.48171
#
# Poissons Ratio (x) = 0.34281 0.19091
# Poissons Ratio (y) = 0.60973 0.16273
# Poissons Ratio (z) = 0.17833 0.08546
#
# Static dielectric constant tensor:
#      x y z
#    x 1.585770 0.000000 0.000000 
#    y 0.000000 1.602480 0.000000 
#    z 0.000000 0.000000 1.603120 
# 
# From -- ./inp_files/3875.got.cif
#   From: 2010.05.17/outbox.cif.g08.bks.cpg/sg20_2_cif.got.tgz:3875.got - 2010.06.03 22:52:26.
