data_PCOD9316461
_publ_section_title
;
Structure prediction by ZEFSAII (Michael W. Deem and Ramdas Pophale) SiO2 
 PCOD9316461
Probable space group: C 2 2 21
;
_chemical_formula_sum "Si O2"
_cell_formula_units_Z 44
_cell_length_a 13.320134
_cell_length_b 25.244314
_cell_length_c 7.190252
_cell_angle_alpha 90.000000
_cell_angle_beta 90.000000
_cell_angle_gamma 90.000000
_cell_volume 2417.777206
_symmetry_space_group_name_H-M "C 2 2 21"
_symmetry_group_IT_number 20
_symmetry_cell_setting 'orthorhombic'
loop_
_space_group_symop_operation_xyz
x,y,z
-x,-y,1/2+z
x,-y,-z
-x,y,1/2-z
1/2+x,1/2+y,z
1/2-x,1/2-y,1/2+z
1/2+x,1/2-y,-z
1/2-x,1/2+y,1/2-z
loop_
_atom_site_type_symbol
_atom_site_label
_atom_site_fract_x
_atom_site_fract_y
_atom_site_fract_z
Si Si1 0.500000 0.118250 0.250000
Si Si2 0.191661 0.649504 0.789825
Si Si3 0.420255 0.949492 0.400370
Si Si4 0.679272 0.191469 0.197772
Si Si5 0.389998 0.699696 0.761760
Si Si6 0.111916 0.238014 0.312914
O O1 0.471367 0.084197 0.432008
O O2 0.596241 0.155525 0.299749
O O3 0.146463 0.591464 0.781183
O O4 0.302687 0.659162 0.712774
O O5 0.126254 0.698903 0.715367
O O6 0.200360 0.659766 0.010306
O O7 0.500000 0.970209 0.250000
O O8 0.369880 0.000000 0.500000
O O9 0.623619 0.246498 0.144182
O O10 0.788452 0.209476 0.275307
O O11 0.500000 0.676623 0.750000
O O12 0.378557 0.723160 0.970064
O O13 0.000000 0.222181 0.250000
#
# Coordination Sequence:
#
# PCOD9316461 Si02
#       6
#     4   8   8   8   8   8
#     4  10  20  36  54  76 106 136 178 218 264 312
#     4   9  20  33  49  72 100 138 175 214 262 307
#     4  11  22  37  55  78 101 135 177 226 272 312
#     4   9  18  31  48  69 102 143 171 208 254 307
#     4  10  18  30  48  73 106 139 172 204 249 318
#     4  10  19  29  44  73 107 140 174 200 250 316
#
# _framework density 18.198533000000001
#
# number of rings (size 3 to 8) (size 9 to 14) (size 15 to 20)
#    0.000    2.182    1.818    1.636    5.091    1.455 
#    0.000    0.000    0.000    0.000    0.000   12.727 
#    0.000    0.000    0.000    0.000    0.000    0.000 
#
# Total GULP energy -122536.175154 kJ/mol
# GULP energy per Si atom -5569.826143 kJ/mol
# Density = 1.815711 g / cm^3
# Si number density = 18.198533 Si / 1000 Ang^3
#
#
#
# Elastic Constant Matrix: (Units=GPa)
#
#
# Indices 1 2 3 4 5 6 
#
# 1 109.2591 30.3396 7.6293 0.0000 0.0000 0.0000
# 2 30.3396 82.9845 11.0675 0.0000 0.0000 0.0000
# 3 7.6293 11.0675 33.7793 0.0000 0.0000 0.0000
# 4 0.0000 0.0000 0.0000 25.6642 0.0000 0.0000
# 5 0.0000 0.0000 0.0000 0.0000 22.2499 0.0000
# 6 0.0000 0.0000 0.0000 0.0000 0.0000 18.1363
#
#
#
# Elastic Compliance Matrix: (Units=1/GPa)
#
#
# Indices 1 2 3 4 5 6 
#
# 1 0.010228 -0.003588 -0.001134 0.000000 0.000000 0.000000
# 2 -0.003588 0.013860 -0.003731 0.000000 0.000000 0.000000
# 3 -0.001134 -0.003731 0.031083 0.000000 0.000000 0.000000
# 4 0.000000 0.000000 0.000000 0.038965 0.000000 0.000000
# 5 0.000000 0.000000 0.000000 0.000000 0.044944 0.000000
# 6 0.000000 0.000000 0.000000 0.000000 0.000000 0.055138
#
#
# Mechanical properties :
#
#
# Convention : Reuss Voigt Hill
#
# Bulk Modulus (GPa) = 26.13428 36.01064 31.07246
# Shear Modulus (GPa) = 22.33355 25.00920 23.67137
#
# Velocity S-wave (km/s) = 3.50697 3.71110 3.61048
# Velocity P-wave (km/s) = 5.54890 6.18010 5.87298
#
# Compressibility (1/GPa) = 0.03826392
#
# Stress axis : x y z
#
# Youngs Moduli (GPa) = 97.76941 72.15091 32.17243
#
# Poissons Ratio (x) = 0.25889 0.03650
# Poissons Ratio (y) = 0.35081 0.12002
# Poissons Ratio (z) = 0.11092 0.26917
#
# Static dielectric constant tensor:
#      x y z
#    x 1.674580 0.000000 0.000000 
#    y 0.000000 1.618710 0.000000 
#    z 0.000000 0.000000 1.743050 
# 
# From -- ./inp_files/7320.got.cif
#   From: 2010.05.17/outbox.cif.g08.bks.cpg/sg20_4_cif.got.tgz:7320.got - 2010.06.03 22:52:26.
