data_PCOD9316602
_publ_section_title
;
Structure prediction by ZEFSAII (Michael W. Deem and Ramdas Pophale) SiO2 
 PCOD9316602
Probable space group: C 2 2 21
;
_chemical_formula_sum "Si O2"
_cell_formula_units_Z 64
_cell_length_a 15.099767
_cell_length_b 7.047476
_cell_length_c 22.714718
_cell_angle_alpha 90.000000
_cell_angle_beta 90.000000
_cell_angle_gamma 90.000000
_cell_volume 2417.192293
_symmetry_space_group_name_H-M "C 2 2 21"
_symmetry_group_IT_number 20
_symmetry_cell_setting 'orthorhombic'
loop_
_space_group_symop_operation_xyz
x,y,z
-x,-y,1/2+z
x,-y,-z
-x,y,1/2-z
1/2+x,1/2+y,z
1/2-x,1/2-y,1/2+z
1/2+x,1/2-y,-z
1/2-x,1/2+y,1/2-z
loop_
_atom_site_type_symbol
_atom_site_label
_atom_site_fract_x
_atom_site_fract_y
_atom_site_fract_z
Si Si1 0.098342 0.929818 0.647338
Si Si2 0.156661 0.974930 0.235741
Si Si3 0.948894 0.875369 0.557274
Si Si4 0.249033 0.120412 0.442665
Si Si5 0.900676 0.533072 0.165838
Si Si6 0.438443 0.971719 0.592270
Si Si7 0.646883 0.082020 0.784758
Si Si8 0.723424 0.487145 0.113161
O O1 0.093678 0.051823 0.707273
O O2 0.188149 0.963405 0.609847
O O3 0.013314 0.956323 0.607061
O O4 0.098032 0.700752 0.660304
O O5 0.252180 0.959086 0.267178
O O6 0.173562 0.886877 0.170284
O O7 0.134747 0.192912 0.220854
O O8 0.848042 0.892207 0.578821
O O9 0.962375 0.000000 0.500000
O O10 0.968631 0.652209 0.553655
O O11 0.356665 0.128284 0.439434
O O12 0.225604 0.000000 0.500000
O O13 0.231970 0.343584 0.433350
O O14 0.904559 0.544710 0.236354
O O15 0.803985 0.595195 0.143855
O O16 0.973729 0.613913 0.121663
O O17 0.387760 0.039764 0.651193
#
# Coordination Sequence:
#
# PCOD9316602 Si02
#       8
#     8   8   8   8   8   8   8   8
#     4   9  19  36  60  85 111 152 196 241 296 359
#     4  10  19  35  59  90 121 147 193 246 307 359
#     4  11  22  38  59  86 115 151 203 249 289 351
#     4  11  22  39  59  83 119 162 200 242 299 360
#     4   8  19  34  57  81 115 147 188 235 293 362
#     4  11  20  36  59  85 107 156 202 230 289 359
#     4  10  18  33  58  87 115 152 184 244 291 369
#     4  10  21  39  57  84 120 154 188 255 301 346
#
# _framework density 26.476997999999998
#
# number of rings (size 3 to 8) (size 9 to 14) (size 15 to 20)
#    0.000    2.000    2.500    2.250    0.000    0.500 
#    0.000    4.375    2.750    0.000    0.000    0.000 
#    0.000    0.000    0.000    0.000    0.000    0.000 
#
# Total GULP energy -178759.793853 kJ/mol
# GULP energy per Si atom -5586.243558 kJ/mol
# Density = 2.641673 g / cm^3
# Si number density = 26.476998 Si / 1000 Ang^3
#
#
#
# Elastic Constant Matrix: (Units=GPa)
#
#
# Indices 1 2 3 4 5 6 
#
# 1 40.4066 -17.8250 -10.6962 0.0000 0.0000 0.0000
# 2 -17.8250 78.4157 6.9969 0.0000 0.0000 0.0000
# 3 -10.6962 6.9969 65.1885 0.0000 0.0000 0.0000
# 4 0.0000 0.0000 0.0000 27.2085 0.0000 0.0000
# 5 0.0000 0.0000 0.0000 0.0000 37.9090 0.0000
# 6 0.0000 0.0000 0.0000 0.0000 0.0000 17.4253
#
#
#
# Elastic Compliance Matrix: (Units=1/GPa)
#
#
# Indices 1 2 3 4 5 6 
#
# 1 0.028514 0.006123 0.004021 0.000000 0.000000 0.000000
# 2 0.006123 0.014191 -0.000518 0.000000 0.000000 0.000000
# 3 0.004021 -0.000518 0.016056 0.000000 0.000000 0.000000
# 4 0.000000 0.000000 0.000000 0.036753 0.000000 0.000000
# 5 0.000000 0.000000 0.000000 0.000000 0.026379 0.000000
# 6 0.000000 0.000000 0.000000 0.000000 0.000000 0.057388
#
#
# Mechanical properties :
#
#
# Convention : Reuss Voigt Hill
#
# Bulk Modulus (GPa) = 12.81858 15.66246 14.24052
# Shear Modulus (GPa) = 26.87699 30.21090 28.54394
#
# Velocity S-wave (km/s) = 3.18953 3.38157 3.28695
# Velocity P-wave (km/s) = 4.29139 4.60163 4.44922
#
# Compressibility (1/GPa) = 0.07801179
#
# Stress axis : x y z
#
# Youngs Moduli (GPa) = 35.07048 70.46911 62.28350
#
# Poissons Ratio (x) = -0.43147 -0.25047
# Poissons Ratio (y) = -0.21473 0.03229
# Poissons Ratio (z) = -0.14103 0.03654
#
# Static dielectric constant tensor:
#      x y z
#    x 2.084680 0.000000 0.000000 
#    y 0.000000 2.144840 0.000000 
#    z 0.000000 0.000000 2.137000 
# 
# From -- ./inp_files/29355.got.cif
#   From: 2010.05.17/outbox.cif.g08.bks.cpg/sg20_15_cif.got.tgz:29355.got - 2010.06.03 22:52:26.
