data_PCOD9316625
_publ_section_title
;
Structure prediction by ZEFSAII (Michael W. Deem and Ramdas Pophale) SiO2 
 PCOD9316625
Probable space group: C 2 2 21
;
_chemical_formula_sum "Si O2"
_cell_formula_units_Z 36
_cell_length_a 9.376794
_cell_length_b 22.725466
_cell_length_c 8.683212
_cell_angle_alpha 90.000000
_cell_angle_beta 90.000000
_cell_angle_gamma 90.000000
_cell_volume 1850.323126
_symmetry_space_group_name_H-M "C 2 2 21"
_symmetry_group_IT_number 20
_symmetry_cell_setting 'orthorhombic'
loop_
_space_group_symop_operation_xyz
x,y,z
-x,-y,1/2+z
x,-y,-z
-x,y,1/2-z
1/2+x,1/2+y,z
1/2-x,1/2-y,1/2+z
1/2+x,1/2-y,-z
1/2-x,1/2+y,1/2-z
loop_
_atom_site_type_symbol
_atom_site_label
_atom_site_fract_x
_atom_site_fract_y
_atom_site_fract_z
Si Si1 0.114456 0.771077 0.379127
Si Si2 0.329943 0.055315 0.764867
Si Si3 0.130998 0.000000 0.000000
Si Si4 0.855117 0.316676 0.156092
Si Si5 0.076684 0.902273 0.418365
O O1 0.136441 0.720440 0.501907
O O2 0.249038 0.786558 0.275321
O O3 0.076695 0.833459 0.461638
O O4 0.000000 0.754639 0.250000
O O5 0.500000 0.042320 0.750000
O O6 0.316504 0.115048 0.867134
O O7 0.237680 0.073022 0.611930
O O8 0.236176 0.007410 0.854456
O O9 0.022918 0.944948 0.983180
O O10 0.000000 0.318572 0.250000
O O11 0.000000 0.903362 0.250000
#
# Coordination Sequence:
#
# PCOD9316625 Si02
#       5
#     8   8   4   8   8
#     4  10  19  35  57  82 115 152 190 231 281 341
#     4   9  19  35  53  76 109 147 184 234 296 341
#     4  10  18  34  56  74 100 142 192 224 266 342
#     4  10  20  35  56  82 114 151 189 232 288 343
#     4   8  17  33  53  76 106 146 186 230 282 332
#
# _framework density 19.456060000000001
#
# number of rings (size 3 to 8) (size 9 to 14) (size 15 to 20)
#    0.000    2.667    0.000    2.667    0.000    0.889 
#    0.000   11.111    0.000    0.000    0.000    0.000 
#    0.000    0.000    0.000    0.000    0.000    0.000 
#
# Total GULP energy -100259.638847 kJ/mol
# GULP energy per Si atom -5569.979936 kJ/mol
# Density = 1.941178 g / cm^3
# Si number density = 19.456060 Si / 1000 Ang^3
#
#
#
# Elastic Constant Matrix: (Units=GPa)
#
#
# Indices 1 2 3 4 5 6 
#
# 1 122.4312 38.2111 19.0747 0.0000 0.0000 0.0000
# 2 38.2111 91.8419 46.9466 0.0000 0.0000 0.0000
# 3 19.0747 46.9466 40.5913 0.0000 0.0000 0.0000
# 4 0.0000 0.0000 0.0000 30.7247 0.0000 0.0000
# 5 0.0000 0.0000 0.0000 0.0000 16.6825 0.0000
# 6 0.0000 0.0000 0.0000 0.0000 0.0000 34.3803
#
#
#
# Elastic Compliance Matrix: (Units=1/GPa)
#
#
# Indices 1 2 3 4 5 6 
#
# 1 0.009388 -0.004038 0.000259 0.000000 0.000000 0.000000
# 2 -0.004038 0.028372 -0.030916 0.000000 0.000000 0.000000
# 3 0.000259 -0.030916 0.060271 0.000000 0.000000 0.000000
# 4 0.000000 0.000000 0.000000 0.032547 0.000000 0.000000
# 5 0.000000 0.000000 0.000000 0.000000 0.059943 0.000000
# 6 0.000000 0.000000 0.000000 0.000000 0.000000 0.029086
#
#
# Mechanical properties :
#
#
# Convention : Reuss Voigt Hill
#
# Bulk Modulus (GPa) = 34.91685 51.48102 43.19893
# Shear Modulus (GPa) = 16.74790 26.39963 21.57377
#
# Velocity S-wave (km/s) = 2.93713 3.68759 3.33355
# Velocity P-wave (km/s) = 5.43027 6.68197 6.08837
#
# Compressibility (1/GPa) = 0.02863947
#
# Stress axis : x y z
#
# Youngs Moduli (GPa) = 106.52068 35.24629 16.59172
#
# Poissons Ratio (x) = 0.14233 -0.00430
# Poissons Ratio (y) = 0.43015 0.51295
# Poissons Ratio (z) = -0.02758 1.08969
#
# Static dielectric constant tensor:
#      x y z
#    x 1.705810 0.000000 0.000000 
#    y 0.000000 1.739270 0.000000 
#    z 0.000000 0.000000 1.652730 
# 
# From -- ./inp_files/5891.got.cif
#   From: 2010.05.17/outbox.cif.g08.bks.cpg/sg20_3_cif.got.tgz:5891.got - 2010.06.03 22:52:26.
