data_PCOD9316782
_publ_section_title
;
Structure prediction by ZEFSAII (Michael W. Deem and Ramdas Pophale) SiO2 
 PCOD9316782
Probable space group: C 2 2 21
;
_chemical_formula_sum "Si O2"
_cell_formula_units_Z 44
_cell_length_a 8.671657
_cell_length_b 17.528898
_cell_length_c 13.709091
_cell_angle_alpha 90.000000
_cell_angle_beta 90.000000
_cell_angle_gamma 90.000000
_cell_volume 2083.844771
_symmetry_space_group_name_H-M "C 2 2 21"
_symmetry_group_IT_number 20
_symmetry_cell_setting 'orthorhombic'
loop_
_space_group_symop_operation_xyz
x,y,z
-x,-y,1/2+z
x,-y,-z
-x,y,1/2-z
1/2+x,1/2+y,z
1/2-x,1/2-y,1/2+z
1/2+x,1/2-y,-z
1/2-x,1/2+y,1/2-z
loop_
_atom_site_type_symbol
_atom_site_label
_atom_site_fract_x
_atom_site_fract_y
_atom_site_fract_z
Si Si1 0.500000 0.796665 0.750000
Si Si2 0.902747 0.951644 0.345096
Si Si3 0.169125 0.057854 0.432032
Si Si4 0.783833 0.791442 0.399761
Si Si5 0.240195 0.103941 0.213483
Si Si6 0.485486 0.300494 0.578548
O O1 0.615020 0.747247 0.814945
O O2 0.605802 0.852151 0.685312
O O3 0.813323 0.881582 0.391498
O O4 0.000000 0.925533 0.250000
O O5 0.780944 0.018277 0.322535
O O6 0.033969 0.998910 0.401542
O O7 0.236342 0.092428 0.331099
O O8 0.088920 0.133757 0.475309
O O9 0.267843 0.000000 0.500000
O O10 0.608598 0.763152 0.390663
O O11 0.859181 0.769148 0.503521
O O12 0.103523 0.154906 0.165454
#
# Coordination Sequence:
#
# PCOD9316782 Si02
#       6
#     4   8   8   8   8   8
#     4  12  24  40  64  96 134 178 218 280 346 390
#     4   9  19  37  63  88 117 165 221 262 324 399
#     4  10  18  37  68  89 118 171 221 261 329 417
#     4  12  23  39  64  97 131 175 228 283 328 407
#     4  10  23  43  66  91 126 178 220 271 339 408
#     4  11  23  41  63  95 133 174 223 274 338 401
#
# _framework density 21.114816999999999
#
# number of rings (size 3 to 8) (size 9 to 14) (size 15 to 20)
#    0.000    1.455    4.545    2.727    0.000    0.000 
#    0.000    3.636    0.000    0.000    0.000    0.000 
#    0.000    0.000    0.000    0.000    0.000    0.000 
#
# Total GULP energy -122571.153119 kJ/mol
# GULP energy per Si atom -5571.416051 kJ/mol
# Density = 2.106676 g / cm^3
# Si number density = 21.114817 Si / 1000 Ang^3
#
#
#
# Elastic Constant Matrix: (Units=GPa)
#
#
# Indices 1 2 3 4 5 6 
#
# 1 82.3581 46.9678 16.7531 0.0000 0.0000 0.0000
# 2 46.9678 101.5516 5.8273 0.0000 0.0000 0.0000
# 3 16.7531 5.8273 62.2582 0.0000 0.0000 0.0000
# 4 0.0000 0.0000 0.0000 18.1293 0.0000 0.0000
# 5 0.0000 0.0000 0.0000 0.0000 21.6837 0.0000
# 6 0.0000 0.0000 0.0000 0.0000 0.0000 21.2009
#
#
#
# Elastic Compliance Matrix: (Units=1/GPa)
#
#
# Indices 1 2 3 4 5 6 
#
# 1 0.017408 -0.007825 -0.003952 0.000000 0.000000 0.000000
# 2 -0.007825 0.013417 0.000850 0.000000 0.000000 0.000000
# 3 -0.003952 0.000850 0.017046 0.000000 0.000000 0.000000
# 4 0.000000 0.000000 0.000000 0.055159 0.000000 0.000000
# 5 0.000000 0.000000 0.000000 0.000000 0.046118 0.000000
# 6 0.000000 0.000000 0.000000 0.000000 0.000000 0.047168
#
#
# Mechanical properties :
#
#
# Convention : Reuss Voigt Hill
#
# Bulk Modulus (GPa) = 38.43521 42.80713 40.62117
# Shear Modulus (GPa) = 22.04167 23.97741 23.00954
#
# Velocity S-wave (km/s) = 3.23444 3.37348 3.30469
# Velocity P-wave (km/s) = 5.67374 5.95746 5.81733
#
# Compressibility (1/GPa) = 0.02601781
#
# Stress axis : x y z
#
# Youngs Moduli (GPa) = 57.44393 74.53040 58.66458
#
# Poissons Ratio (x) = 0.58317 0.23184
# Poissons Ratio (y) = 0.44948 -0.04985
# Poissons Ratio (z) = 0.22702 -0.06333
#
# Static dielectric constant tensor:
#      x y z
#    x 1.768040 0.000000 0.000000 
#    y 0.000000 1.765240 0.000000 
#    z 0.000000 0.000000 1.932660 
# 
# From -- ./inp_files/18777.got.cif
#   From: 2010.05.17/outbox.cif.g08.bks.cpg/sg20_10_cif.got.tgz:18777.got - 2010.06.03 22:52:26.
