data_PCOD9316958
_publ_section_title
;
Structure prediction by ZEFSAII (Michael W. Deem and Ramdas Pophale) SiO2 
 PCOD9316958
Probable space group: C 2 2 21
;
_chemical_formula_sum "Si O2"
_cell_formula_units_Z 64
_cell_length_a 27.219982
_cell_length_b 5.139338
_cell_length_c 27.411114
_cell_angle_alpha 90.000000
_cell_angle_beta 90.000000
_cell_angle_gamma 90.000000
_cell_volume 3834.614414
_symmetry_space_group_name_H-M "C 2 2 21"
_symmetry_group_IT_number 20
_symmetry_cell_setting 'orthorhombic'
loop_
_space_group_symop_operation_xyz
x,y,z
-x,-y,1/2+z
x,-y,-z
-x,y,1/2-z
1/2+x,1/2+y,z
1/2-x,1/2-y,1/2+z
1/2+x,1/2-y,-z
1/2-x,1/2+y,1/2-z
loop_
_atom_site_type_symbol
_atom_site_label
_atom_site_fract_x
_atom_site_fract_y
_atom_site_fract_z
Si Si1 0.507044 0.007517 0.558954
Si Si2 0.781461 0.055492 0.807246
Si Si3 0.674100 0.432241 0.593223
Si Si4 0.786038 0.945218 0.304357
Si Si5 0.119197 0.432982 0.557569
Si Si6 0.662385 0.433307 0.900492
Si Si7 0.213971 0.433437 0.943297
Si Si8 0.945910 0.992577 0.440902
O O1 0.562774 0.956554 0.574672
O O2 0.469118 0.782890 0.573501
O O3 0.508605 0.000000 0.500000
O O4 0.485121 0.285559 0.572562
O O5 0.801461 0.034622 0.752128
O O6 0.755864 0.335804 0.812787
O O7 0.819863 0.003405 0.849960
O O8 0.739280 0.834623 0.812024
O O9 0.640334 0.647044 0.567177
O O10 0.728868 0.445005 0.571003
O O11 0.652113 0.147493 0.584727
O O12 0.827530 0.999125 0.344097
O O13 0.121397 0.500000 0.500000
O O14 0.692830 0.649988 0.930773
O O15 0.606123 0.453915 0.916303
O O16 0.684238 0.151232 0.913220
O O17 0.207906 0.500000 0.000000
O O18 0.939290 0.000000 0.500000
#
# Coordination Sequence:
#
# PCOD9316958 Si02
#       8
#     8   8   8   8   8   8   8   8
#     4   9  19  35  51  71  97 131 174 221 253 286
#     4  10  20  35  54  73 100 136 174 218 253 289
#     4  12  21  35  51  77 105 141 174 207 255 307
#     4  10  19  36  54  73 100 135 176 218 251 291
#     4  11  22  35  53  75 104 138 176 213 253 305
#     4  12  21  35  52  77 104 142 174 208 254 305
#     4  12  23  33  46  73 115 146 169 194 244 312
#     4  10  19  32  51  73 100 131 170 211 254 301
#
# _framework density 16.690073999999999
#
# number of rings (size 3 to 8) (size 9 to 14) (size 15 to 20)
#    0.000    1.250    2.500    5.250    0.000    3.000 
#    0.000    0.000    0.000    0.000    0.000    5.250 
#    0.000    0.000    0.000    0.000    0.000    0.000 
#
# Total GULP energy -178762.814539 kJ/mol
# GULP energy per Si atom -5586.337954 kJ/mol
# Density = 1.665209 g / cm^3
# Si number density = 16.690074 Si / 1000 Ang^3
#
#
#
# Elastic Constant Matrix: (Units=GPa)
#
#
# Indices 1 2 3 4 5 6 
#
# 1 72.1432 -7.5335 -0.0107 0.0000 0.0000 0.0000
# 2 -7.5335 51.5433 -20.3461 0.0000 0.0000 0.0000
# 3 -0.0107 -20.3461 62.5744 0.0000 0.0000 0.0000
# 4 0.0000 0.0000 0.0000 22.0334 0.0000 0.0000
# 5 0.0000 0.0000 0.0000 0.0000 5.3241 0.0000
# 6 0.0000 0.0000 0.0000 0.0000 0.0000 15.9539
#
#
#
# Elastic Compliance Matrix: (Units=1/GPa)
#
#
# Indices 1 2 3 4 5 6 
#
# 1 0.014109 0.002367 0.000772 0.000000 0.000000 0.000000
# 2 0.002367 0.022655 0.007367 0.000000 0.000000 0.000000
# 3 0.000772 0.007367 0.018376 0.000000 0.000000 0.000000
# 4 0.000000 0.000000 0.000000 0.045386 0.000000 0.000000
# 5 0.000000 0.000000 0.000000 0.000000 0.187825 0.000000
# 6 0.000000 0.000000 0.000000 0.000000 0.000000 0.062680
#
#
# Mechanical properties :
#
#
# Convention : Reuss Voigt Hill
#
# Bulk Modulus (GPa) = 13.13178 14.49779 13.81478
# Shear Modulus (GPa) = 14.06850 22.93904 18.50377
#
# Velocity S-wave (km/s) = 2.90647 3.71133 3.33328
# Velocity P-wave (km/s) = 4.37590 5.20294 4.80724
#
# Compressibility (1/GPa) = 0.07615112
#
# Stress axis : x y z
#
# Youngs Moduli (GPa) = 70.87875 44.14032 54.41763
#
# Poissons Ratio (x) = -0.10447 -0.04201
# Poissons Ratio (y) = -0.16776 -0.40088
# Poissons Ratio (z) = -0.05472 -0.32517
#
# Static dielectric constant tensor:
#      x y z
#    x 1.533310 0.000000 0.000000 
#    y 0.000000 1.561830 0.000000 
#    z 0.000000 0.000000 1.570990 
# 
# From -- ./inp_files/30576.got.cif
#   From: 2010.05.17/outbox.cif.g08.bks.cpg/sg20_16_cif.got.tgz:30576.got - 2010.06.03 22:52:26.
