data_PCOD9316344
_publ_section_title
;
Structure prediction by ZEFSAII (Michael W. Deem and Ramdas Pophale) SiO2 
 PCOD9316344
Probable space group: C 2 2 21
;
_chemical_formula_sum "Si O2"
_cell_formula_units_Z 52
_cell_length_a 23.376754
_cell_length_b 14.839079
_cell_length_c 8.246886
_cell_angle_alpha 90.000000
_cell_angle_beta 90.000000
_cell_angle_gamma 90.000000
_cell_volume 2860.758156
_symmetry_space_group_name_H-M "C 2 2 21"
_symmetry_group_IT_number 20
_symmetry_cell_setting 'orthorhombic'
loop_
_space_group_symop_operation_xyz
x,y,z
-x,-y,1/2+z
x,-y,-z
-x,y,1/2-z
1/2+x,1/2+y,z
1/2-x,1/2-y,1/2+z
1/2+x,1/2-y,-z
1/2-x,1/2+y,1/2-z
loop_
_atom_site_type_symbol
_atom_site_label
_atom_site_fract_x
_atom_site_fract_y
_atom_site_fract_z
Si Si1 0.222746 0.464967 0.830914
Si Si2 0.184602 0.358036 0.367571
Si Si3 0.206117 0.104106 0.056499
Si Si4 0.114745 0.761076 0.874771
Si Si5 0.903276 0.407006 0.601421
Si Si6 0.563614 0.103931 0.467691
Si Si7 0.500000 0.778793 0.250000
O O1 0.200297 0.551018 0.729449
O O2 0.269271 0.407726 0.736891
O O3 0.164177 0.412938 0.860961
O O4 0.246389 0.500000 0.000000
O O5 0.243236 0.342314 0.463679
O O6 0.161804 0.282322 0.246184
O O7 0.129647 0.377914 0.480086
O O8 0.147113 0.156759 0.042639
O O9 0.201476 0.000000 0.000000
O O10 0.055059 0.782409 0.788591
O O11 0.094323 0.679573 0.988501
O O12 0.917106 0.500000 0.500000
O O13 0.936312 0.389858 0.770710
O O14 0.524274 0.160624 0.596092
O O15 0.550621 0.000000 0.500000
#
# Coordination Sequence:
#
# PCOD9316344 Si02
#       7
#     8   8   8   8   8   8   4
#     4  10  17  32  55  85 124 145 179 230 298 360
#     4  10  18  32  55  84 116 149 181 234 298 361
#     4  10  22  37  59  87 115 153 195 251 304 360
#     4  11  23  38  57  83 119 156 202 242 299 354
#     4  11  19  33  59  87 120 157 187 240 298 373
#     4  11  19  36  56  80 121 160 197 234 296 364
#     4  10  26  40  52  80 114 166 212 254 280 348
#
# _framework density 18.177
#
# number of rings (size 3 to 8) (size 9 to 14) (size 15 to 20)
#    0.000    1.538    6.154    1.385    2.154    2.462 
#    0.000    4.615    0.000    2.769    0.000    0.000 
#    0.000    0.000    0.000    0.000    0.000    0.000 
#
# Total GULP energy -144801.687082 kJ/mol
# GULP energy per Si atom -5569.295657 kJ/mol
# Density = 1.813563 g / cm^3
# Si number density = 18.177000 Si / 1000 Ang^3
#
#
#
# Elastic Constant Matrix: (Units=GPa)
#
#
# Indices 1 2 3 4 5 6 
#
# 1 125.5327 42.8962 33.6457 0.0000 0.0000 0.0000
# 2 42.8962 40.4616 18.0225 0.0000 0.0000 0.0000
# 3 33.6457 18.0225 101.1260 0.0000 0.0000 0.0000
# 4 0.0000 0.0000 0.0000 11.1670 0.0000 0.0000
# 5 0.0000 0.0000 0.0000 0.0000 12.1664 0.0000
# 6 0.0000 0.0000 0.0000 0.0000 0.0000 39.6607
#
#
#
# Elastic Compliance Matrix: (Units=1/GPa)
#
#
# Indices 1 2 3 4 5 6 
#
# 1 0.012856 -0.012735 -0.002008 0.000000 0.000000 0.000000
# 2 -0.012735 0.039461 -0.002796 0.000000 0.000000 0.000000
# 3 -0.002008 -0.002796 0.011055 0.000000 0.000000 0.000000
# 4 0.000000 0.000000 0.000000 0.089550 0.000000 0.000000
# 5 0.000000 0.000000 0.000000 0.000000 0.082193 0.000000
# 6 0.000000 0.000000 0.000000 0.000000 0.000000 0.025214
#
#
# Mechanical properties :
#
#
# Convention : Reuss Voigt Hill
#
# Bulk Modulus (GPa) = 35.34155 50.69433 43.01794
# Shear Modulus (GPa) = 16.40215 24.10254 20.25235
#
# Velocity S-wave (km/s) = 3.00719 3.64537 3.34155
# Velocity P-wave (km/s) = 5.61629 6.75782 6.21333
#
# Compressibility (1/GPa) = 0.02829531
#
# Stress axis : x y z
#
# Youngs Moduli (GPa) = 77.78503 25.34117 90.45797
#
# Poissons Ratio (x) = 0.32273 0.18161
# Poissons Ratio (y) = 0.99061 0.25288
# Poissons Ratio (z) = 0.15617 0.07084
#
# Static dielectric constant tensor:
#      x y z
#    x 1.656020 0.000000 0.000000 
#    y 0.000000 1.610480 0.000000 
#    z 0.000000 0.000000 1.707990 
# 
# From -- ./inp_files/8851.got.cif
#   From: 2010.05.17/outbox.cif.g08.bks.cpg/sg20_5_cif.got.tgz:8851.got - 2010.06.03 22:52:26.
