data_PCOD9316113
_publ_section_title
;
Structure prediction by ZEFSAII (Michael W. Deem and Ramdas Pophale) SiO2 
 PCOD9316113
Probable space group: P 21 21 21
;
_chemical_formula_sum "Si O2"
_cell_formula_units_Z 24
_cell_length_a 7.962871
_cell_length_b 14.265315
_cell_length_c 7.142820
_cell_angle_alpha 90.000000
_cell_angle_beta 90.000000
_cell_angle_gamma 90.000000
_cell_volume 811.373375
_symmetry_space_group_name_H-M "P 21 21 21"
_symmetry_group_IT_number 19
_symmetry_cell_setting 'orthorhombic'
loop_
_space_group_symop_operation_xyz
x,y,z
1/2-x,-y,1/2+z
1/2+x,1/2-y,-z
-x,1/2+y,1/2-z
loop_
_atom_site_type_symbol
_atom_site_label
_atom_site_fract_x
_atom_site_fract_y
_atom_site_fract_z
Si Si1 0.694788 0.748901 0.752690
Si Si2 0.695776 0.792898 0.176427
Si Si3 0.084294 0.413866 0.832753
Si Si4 0.616213 0.374439 0.769552
Si Si5 0.115473 0.081953 0.682365
Si Si6 0.088319 0.458777 0.267484
O O1 0.864012 0.808926 0.716198
O O2 0.541421 0.807377 0.670597
O O3 0.737189 0.640284 0.718574
O O4 0.654990 0.754543 0.972861
O O5 0.552782 0.862537 0.243921
O O6 0.854818 0.862547 0.136911
O O7 0.738676 0.702821 0.301923
O O8 0.921313 0.473836 0.768322
O O9 0.250487 0.471704 0.769825
O O10 0.073656 0.427225 0.053976
O O11 0.617726 0.398239 0.543505
O O12 0.563428 0.477024 0.847175
#
# Coordination Sequence:
#
# PCOD9316113 Si02
#       6
#     4   4   4   4   4   4
#     4   9  16  29  46  64  84 113 146 177 210 254
#     4   9  16  29  46  64  84 113 146 177 210 254
#     4   9  16  28  45  65  86 114 146 177 210 254
#     4   8  15  27  45  63  83 111 144 174 210 256
#     4   8  15  27  45  63  83 111 144 174 210 256
#     4   9  16  28  45  65  86 114 146 177 210 254
#
# _framework density 29.579477000000001
#
# number of rings (size 3 to 8) (size 9 to 14) (size 15 to 20)
#    0.000    3.333    0.000    3.000    0.000    0.000 
#    0.000   10.000    0.000    0.000    0.000    0.000 
#    0.000    0.000    0.000    0.000    0.000    0.000 
#
# Total GULP energy -134243.743067 kJ/mol
# GULP energy per Si atom -5593.489294 kJ/mol
# Density = 2.951215 g / cm^3
# Si number density = 29.579477 Si / 1000 Ang^3
#
#
#
# Elastic Constant Matrix: (Units=GPa)
#
#
# Indices 1 2 3 4 5 6 
#
# 1 72.8744 30.5983 27.7489 0.0000 0.0000 0.0000
# 2 30.5983 205.6432 -14.4748 0.0000 0.0000 0.0000
# 3 27.7489 -14.4748 78.9705 0.0000 0.0000 0.0000
# 4 0.0000 0.0000 0.0000 28.0059 0.0000 0.0000
# 5 0.0000 0.0000 0.0000 0.0000 6.0582 0.0000
# 6 0.0000 0.0000 0.0000 0.0000 0.0000 74.3332
#
#
#
# Elastic Compliance Matrix: (Units=1/GPa)
#
#
# Indices 1 2 3 4 5 6 
#
# 1 0.017590 -0.003092 -0.006748 0.000000 0.000000 0.000000
# 2 -0.003092 0.005470 0.002089 0.000000 0.000000 0.000000
# 3 -0.006748 0.002089 0.015417 0.000000 0.000000 0.000000
# 4 0.000000 0.000000 0.000000 0.035707 0.000000 0.000000
# 5 0.000000 0.000000 0.000000 0.000000 0.165065 0.000000
# 6 0.000000 0.000000 0.000000 0.000000 0.000000 0.013453
#
#
# Mechanical properties :
#
#
# Convention : Reuss Voigt Hill
#
# Bulk Modulus (GPa) = 43.52470 49.47033 46.49751
# Shear Modulus (GPa) = 18.12506 42.58717 30.35611
#
# Velocity S-wave (km/s) = 2.47808 3.79853 3.20700
# Velocity P-wave (km/s) = 4.78897 5.99994 5.42833
#
# Compressibility (1/GPa) = 0.02297546
#
# Stress axis : x y z
#
# Youngs Moduli (GPa) = 56.85076 182.81735 64.86397
#
# Poissons Ratio (x) = 0.56531 0.43768
# Poissons Ratio (y) = 0.17579 -0.13551
# Poissons Ratio (z) = 0.38361 -0.38193
#
# Static dielectric constant tensor:
#      x y z
#    x 2.487400 0.000000 0.000000 
#    y 0.000000 2.276560 0.000000 
#    z 0.000000 0.000000 2.178960 
# 
# From -- ./inp_files/2805.got.cif
#   From: 2010.05.17/outbox.cif.g08.bks.cpg/sg19_2_cif.got.tgz:2805.got - 2010.06.03 22:46:19.
