data_PCOD9316100
_publ_section_title
;
Structure prediction by ZEFSAII (Michael W. Deem and Ramdas Pophale) SiO2 
 PCOD9316100
Probable space group: P 21 21 21
;
_chemical_formula_sum "Si O2"
_cell_formula_units_Z 28
_cell_length_a 16.006058
_cell_length_b 5.061501
_cell_length_c 12.998984
_cell_angle_alpha 90.000000
_cell_angle_beta 90.000000
_cell_angle_gamma 90.000000
_cell_volume 1053.108511
_symmetry_space_group_name_H-M "P 21 21 21"
_symmetry_group_IT_number 19
_symmetry_cell_setting 'orthorhombic'
loop_
_space_group_symop_operation_xyz
x,y,z
1/2-x,-y,1/2+z
1/2+x,1/2-y,-z
-x,1/2+y,1/2-z
loop_
_atom_site_type_symbol
_atom_site_label
_atom_site_fract_x
_atom_site_fract_y
_atom_site_fract_z
Si Si1 0.826426 0.701266 0.010983
Si Si2 0.195745 0.440822 0.703018
Si Si3 0.051176 0.770010 0.783043
Si Si4 0.617625 0.871478 0.817454
Si Si5 0.435177 0.969651 0.504094
Si Si6 0.048415 0.874430 0.379312
Si Si7 0.218544 0.299115 0.927840
O O1 0.768183 0.928602 0.058883
O O2 0.911114 0.632563 0.071021
O O3 0.840605 0.785319 0.894007
O O4 0.977113 0.164640 0.033961
O O5 0.138473 0.688798 0.730781
O O6 0.291749 0.501655 0.674888
O O7 0.199413 0.269233 0.806975
O O8 0.996528 0.504009 0.775018
O O9 0.061697 0.861952 0.900191
O O10 0.539274 0.067045 0.823752
O O11 0.610295 0.735906 0.706082
O O12 0.601276 0.650925 0.904555
O O13 0.370936 0.729347 0.482188
O O14 0.225427 0.930927 0.476457
#
# Coordination Sequence:
#
# PCOD9316100 Si02
#       7
#     4   4   4   4   4   4   4
#     4  12  30  52  85 131 177 237 299 382 457 552
#     4  12  29  56  91 129 180 236 312 379 462 554
#     4  12  32  59  92 132 183 245 313 391 467 567
#     4  12  27  54  90 132 177 236 309 376 465 557
#     4  12  29  56  88 129 182 241 301 394 465 551
#     4  12  29  51  90 135 183 241 302 381 470 561
#     4  12  28  52  86 126 176 232 306 373 462 550
#
# _framework density 26.587952999999999
#
# number of rings (size 3 to 8) (size 9 to 14) (size 15 to 20)
#    0.000    0.000    4.286    2.571   10.000    5.714 
#    5.143    0.000    0.000    0.000    0.000    0.000 
#    0.000    0.000    0.000    0.000    0.000    0.000 
#
# Total GULP energy -157419.445201 kJ/mol
# GULP energy per Si atom -5622.123043 kJ/mol
# Density = 2.652744 g / cm^3
# Si number density = 26.587953 Si / 1000 Ang^3
#
#
#
# Elastic Constant Matrix: (Units=GPa)
#
#
# Indices 1 2 3 4 5 6 
#
# 1 168.3826 79.1177 55.9131 0.0000 0.0000 0.0000
# 2 79.1177 157.0701 46.3672 0.0000 0.0000 0.0000
# 3 55.9131 46.3672 173.8404 0.0000 0.0000 0.0000
# 4 0.0000 0.0000 0.0000 56.1735 0.0000 0.0000
# 5 0.0000 0.0000 0.0000 0.0000 45.8205 0.0000
# 6 0.0000 0.0000 0.0000 0.0000 0.0000 64.4171
#
#
#
# Elastic Compliance Matrix: (Units=1/GPa)
#
#
# Indices 1 2 3 4 5 6 
#
# 1 0.008203 -0.003640 -0.001668 0.000000 0.000000 0.000000
# 2 -0.003640 0.008526 -0.001103 0.000000 0.000000 0.000000
# 3 -0.001668 -0.001103 0.006583 0.000000 0.000000 0.000000
# 4 0.000000 0.000000 0.000000 0.017802 0.000000 0.000000
# 5 0.000000 0.000000 0.000000 0.000000 0.021824 0.000000
# 6 0.000000 0.000000 0.000000 0.000000 0.000000 0.015524
#
#
# Mechanical properties :
#
#
# Convention : Reuss Voigt Hill
#
# Bulk Modulus (GPa) = 95.32477 95.78769 95.55623
# Shear Modulus (GPa) = 52.75432 54.47523 53.61477
#
# Velocity S-wave (km/s) = 4.45921 4.53135 4.49542
# Velocity P-wave (km/s) = 7.90210 7.96759 7.93491
#
# Compressibility (1/GPa) = 0.01049045
#
# Stress axis : x y z
#
# Youngs Moduli (GPa) = 121.91160 117.29444 151.90571
#
# Poissons Ratio (x) = 0.42689 0.25331
# Poissons Ratio (y) = 0.44370 0.16761
# Poissons Ratio (z) = 0.20329 0.12942
#
# Static dielectric constant tensor:
#      x y z
#    x 2.106830 0.000000 0.000000 
#    y 0.000000 2.032600 0.000000 
#    z 0.000000 0.000000 2.065580 
# 
# From -- ./inp_files/6251.got.cif
#   From: 2010.05.17/outbox.cif.g08.bks.cpg/sg19_4_cif.got.tgz:6251.got - 2010.06.03 22:46:19.
