data_PCOD9316426
_publ_section_title
;
Structure prediction by ZEFSAII (Michael W. Deem and Ramdas Pophale) SiO2 
 PCOD9316426
Probable space group: C 2 2 21
;
_chemical_formula_sum "Si O2"
_cell_formula_units_Z 40
_cell_length_a 27.014504
_cell_length_b 7.011740
_cell_length_c 8.451848
_cell_angle_alpha 90.000000
_cell_angle_beta 90.000000
_cell_angle_gamma 90.000000
_cell_volume 1600.937877
_symmetry_space_group_name_H-M "C 2 2 21"
_symmetry_group_IT_number 20
_symmetry_cell_setting 'orthorhombic'
loop_
_space_group_symop_operation_xyz
x,y,z
-x,-y,1/2+z
x,-y,-z
-x,y,1/2-z
1/2+x,1/2+y,z
1/2-x,1/2-y,1/2+z
1/2+x,1/2-y,-z
1/2-x,1/2+y,1/2-z
loop_
_atom_site_type_symbol
_atom_site_label
_atom_site_fract_x
_atom_site_fract_y
_atom_site_fract_z
Si Si1 0.178948 0.186145 0.677796
Si Si2 0.080913 0.233141 0.516390
Si Si3 0.000000 0.801747 0.250000
Si Si4 0.069495 0.000000 0.000000
Si Si5 0.637832 0.276412 0.789240
Si Si6 0.725092 0.268466 0.997257
O O1 0.128374 0.280983 0.623212
O O2 0.220105 0.202317 0.542825
O O3 0.204803 0.276425 0.829903
O O4 0.160015 0.973763 0.717630
O O5 0.099707 0.298345 0.343244
O O6 0.032760 0.300993 0.613930
O O7 0.074119 0.000000 0.500000
O O8 0.037413 0.930965 0.147742
O O9 0.104741 0.831523 0.940674
O O10 0.687292 0.188650 0.864592
O O11 0.725304 0.500000 0.000000
#
# Coordination Sequence:
#
# PCOD9316426 Si02
#       6
#     8   8   4   4   8   8
#     4  10  18  31  45  65  94 127 159 203 239 284
#     4  10  18  28  43  66  95 130 161 193 242 290
#     4  12  18  26  44  68  98 136 160 192 244 298
#     4  12  16  30  42  66 104 128 166 192 244 292
#     4  10  18  32  46  67 100 132 163 201 243 289
#     4  10  19  32  49  70  95 130 169 199 244 291
#
# _framework density 24.985355999999999
#
# number of rings (size 3 to 8) (size 9 to 14) (size 15 to 20)
#    0.000    1.600    8.000    1.200    0.000    1.600 
#    0.000    0.000    0.000    0.000    0.000    0.000 
#    0.000   22.400    0.000    0.000    0.000    7.000 
#
# Total GULP energy -111733.054142 kJ/mol
# GULP energy per Si atom -5586.652707 kJ/mol
# Density = 2.492849 g / cm^3
# Si number density = 24.985356 Si / 1000 Ang^3
#
#
#
# Elastic Constant Matrix: (Units=GPa)
#
#
# Indices 1 2 3 4 5 6 
#
# 1 160.2029 12.8562 43.0132 0.0000 0.0000 0.0000
# 2 12.8562 87.0187 20.5939 0.0000 0.0000 0.0000
# 3 43.0132 20.5939 118.1030 0.0000 0.0000 0.0000
# 4 0.0000 0.0000 0.0000 -2.0738 0.0000 0.0000
# 5 0.0000 0.0000 0.0000 0.0000 36.0177 0.0000
# 6 0.0000 0.0000 0.0000 0.0000 0.0000 2178.7101
#
#
#
# Elastic Compliance Matrix: (Units=1/GPa)
#
#
# Indices 1 2 3 4 5 6 
#
# 1 0.006935 -0.000445 -0.002448 0.000000 0.000000 0.000000
# 2 -0.000445 0.012015 -0.001933 0.000000 0.000000 0.000000
# 3 -0.002448 -0.001933 0.009696 0.000000 0.000000 0.000000
# 4 0.000000 0.000000 0.000000 -0.482207 0.000000 0.000000
# 5 0.000000 0.000000 0.000000 0.000000 0.027764 0.000000
# 6 0.000000 0.000000 0.000000 0.000000 0.000000 0.000459
#
#
# Mechanical properties :
#
#
# Convention : Reuss Voigt Hill
#
# Bulk Modulus (GPa) = 52.64990 57.58345 55.11668
# Shear Modulus (GPa) = -12.21437 461.78822 224.78692
#
# Velocity S-wave (km/s) = -2.21342 13.60973 9.49541
# Velocity P-wave (km/s) = 3.81913 16.43360 11.92998
#
# Compressibility (1/GPa) = 0.01899339
#
# Stress axis : x y z
#
# Youngs Moduli (GPa) = 144.19359 83.22921 103.13689
#
# Poissons Ratio (x) = 0.03706 0.25249
# Poissons Ratio (y) = 0.06420 0.19936
# Poissons Ratio (z) = 0.35301 0.16088
#
# Static dielectric constant tensor:
#      x y z
#    x 1.929620 0.000000 0.000000 
#    y 0.000000 2.085190 0.000000 
#    z 0.000000 0.000000 1.838720 
# 
# From -- ./inp_files/6307.got.cif
#   From: 2010.05.17/outbox.cif.g08.bks.cpg/sg20_4_cif.got.tgz:6307.got - 2010.06.03 22:52:26.
