data_PCOD9316549
_publ_section_title
;
Structure prediction by ZEFSAII (Michael W. Deem and Ramdas Pophale) SiO2 
 PCOD9316549
Probable space group: C 2 2 21
;
_chemical_formula_sum "Si O2"
_cell_formula_units_Z 48
_cell_length_a 8.283221
_cell_length_b 16.924902
_cell_length_c 18.615521
_cell_angle_alpha 90.000000
_cell_angle_beta 90.000000
_cell_angle_gamma 90.000000
_cell_volume 2609.760219
_symmetry_space_group_name_H-M "C 2 2 21"
_symmetry_group_IT_number 20
_symmetry_cell_setting 'orthorhombic'
loop_
_space_group_symop_operation_xyz
x,y,z
-x,-y,1/2+z
x,-y,-z
-x,y,1/2-z
1/2+x,1/2+y,z
1/2-x,1/2-y,1/2+z
1/2+x,1/2-y,-z
1/2-x,1/2+y,1/2-z
loop_
_atom_site_type_symbol
_atom_site_label
_atom_site_fract_x
_atom_site_fract_y
_atom_site_fract_z
Si Si1 0.425456 0.197581 0.674061
Si Si2 0.155260 0.254612 0.944327
Si Si3 0.769381 0.429686 0.911553
Si Si4 0.127865 0.603680 0.570552
Si Si5 0.601094 0.790180 0.677485
Si Si6 0.976256 0.826748 0.926295
O O1 0.500000 0.173118 0.750000
O O2 0.470307 0.131324 0.614568
O O3 0.239402 0.223201 0.680444
O O4 0.510517 0.280134 0.648885
O O5 0.250219 0.176410 0.918944
O O6 0.290118 0.323285 0.949395
O O7 0.019518 0.271913 0.887191
O O8 0.073805 0.230785 0.019172
O O9 0.802182 0.521481 0.900170
O O10 0.820204 0.373513 0.846160
O O11 0.581852 0.406243 0.926620
O O12 0.872380 0.406774 0.983680
O O13 0.500000 0.794987 0.750000
#
# Coordination Sequence:
#
# PCOD9316549 Si02
#       6
#     8   8   8   8   8   8
#     4  10  19  33  54  76 102 138 180 220 264 315
#     4  10  18  32  55  77 101 136 178 220 262 314
#     4   9  19  34  54  77 106 135 170 218 272 320
#     4   9  18  35  55  77 103 137 172 218 272 322
#     4  11  21  33  51  78 107 140 182 225 265 316
#     4   9  17  31  52  77 101 132 173 217 261 311
#
# _framework density 18.392493000000002
#
# number of rings (size 3 to 8) (size 9 to 14) (size 15 to 20)
#    0.000    2.333    0.000    6.000    0.000    0.667 
#    0.000    1.667    0.000   24.000    0.000    0.000 
#    0.000    0.000    0.000    0.000    0.000    0.000 
#
# Total GULP energy -133654.798090 kJ/mol
# GULP energy per Si atom -5568.949920 kJ/mol
# Density = 1.835063 g / cm^3
# Si number density = 18.392493 Si / 1000 Ang^3
#
#
#
# Elastic Constant Matrix: (Units=GPa)
#
#
# Indices 1 2 3 4 5 6 
#
# 1 109.0253 37.0974 29.8217 0.0000 0.0000 0.0000
# 2 37.0974 95.8691 26.8337 0.0000 0.0000 0.0000
# 3 29.8217 26.8337 39.6488 0.0000 0.0000 0.0000
# 4 0.0000 0.0000 0.0000 7.8227 0.0000 0.0000
# 5 0.0000 0.0000 0.0000 0.0000 30.2591 0.0000
# 6 0.0000 0.0000 0.0000 0.0000 0.0000 20.0807
#
#
#
# Elastic Compliance Matrix: (Units=1/GPa)
#
#
# Indices 1 2 3 4 5 6 
#
# 1 0.012061 -0.002625 -0.007295 0.000000 0.000000 0.000000
# 2 -0.002625 0.013440 -0.007121 0.000000 0.000000 0.000000
# 3 -0.007295 -0.007121 0.035528 0.000000 0.000000 0.000000
# 4 0.000000 0.000000 0.000000 0.127833 0.000000 0.000000
# 5 0.000000 0.000000 0.000000 0.000000 0.033048 0.000000
# 6 0.000000 0.000000 0.000000 0.000000 0.000000 0.049799
#
#
# Mechanical properties :
#
#
# Convention : Reuss Voigt Hill
#
# Bulk Modulus (GPa) = 37.11154 48.00541 42.55848
# Shear Modulus (GPa) = 15.88442 21.68519 18.78481
#
# Velocity S-wave (km/s) = 2.94196 3.43742 3.19929
# Velocity P-wave (km/s) = 5.63573 6.47392 6.06931
#
# Compressibility (1/GPa) = 0.02694579
#
# Stress axis : x y z
#
# Youngs Moduli (GPa) = 82.91335 74.40463 28.14694
#
# Poissons Ratio (x) = 0.19533 0.20533
# Poissons Ratio (y) = 0.21767 0.20045
# Poissons Ratio (z) = 0.60483 0.52987
#
# Static dielectric constant tensor:
#      x y z
#    x 1.689070 0.000000 0.000000 
#    y 0.000000 1.627360 0.000000 
#    z 0.000000 0.000000 1.715780 
# 
# From -- ./inp_files/23620.got.cif
#   From: 2010.05.17/outbox.cif.g08.bks.cpg/sg20_12_cif.got.tgz:23620.got - 2010.06.03 22:52:26.
