data_PCOD9316059
_publ_section_title
;
Structure prediction by ZEFSAII (Michael W. Deem and Ramdas Pophale) SiO2 
 PCOD9316059
Probable space group: P 21 21 21
;
_chemical_formula_sum "Si O2"
_cell_formula_units_Z 20
_cell_length_a 18.954846
_cell_length_b 8.341435
_cell_length_c 4.960333
_cell_angle_alpha 90.000000
_cell_angle_beta 90.000000
_cell_angle_gamma 90.000000
_cell_volume 784.281305
_symmetry_space_group_name_H-M "P 21 21 21"
_symmetry_group_IT_number 19
_symmetry_cell_setting 'orthorhombic'
loop_
_space_group_symop_operation_xyz
x,y,z
1/2-x,-y,1/2+z
1/2+x,1/2-y,-z
-x,1/2+y,1/2-z
loop_
_atom_site_type_symbol
_atom_site_label
_atom_site_fract_x
_atom_site_fract_y
_atom_site_fract_z
Si Si1 0.974366 0.692417 0.125093
Si Si2 0.760746 0.605766 0.722561
Si Si3 0.664504 0.171638 0.562261
Si Si4 0.953059 0.335683 0.888325
Si Si5 0.186685 0.672777 0.620923
O O1 0.963781 0.511065 0.019057
O O2 0.998697 0.797757 0.868580
O O3 0.902406 0.775232 0.233642
O O4 0.029215 0.711573 0.369245
O O5 0.769107 0.515580 0.442248
O O6 0.708641 0.753505 0.667439
O O7 0.829141 0.685640 0.845993
O O8 0.739234 0.164507 0.719202
O O9 0.656908 0.003891 0.412007
O O10 0.873680 0.295341 0.786871
#
# Coordination Sequence:
#
# PCOD9316059 Si02
#       5
#     4   4   4   4   4
#     4  12  29  53  81 112 156 205 258 317 386 463
#     4  12  26  44  72 112 152 194 250 316 376 442
#     4  12  27  48  80 116 157 202 260 317 385 453
#     4  12  29  53  81 112 156 205 258 317 386 463
#     4  12  27  48  80 116 157 202 260 317 385 453
#
# _framework density 25.501055000000001
#
# number of rings (size 3 to 8) (size 9 to 14) (size 15 to 20)
#    0.000    0.000    4.000    4.800    5.600    1.600 
#    0.000    0.000    0.000    0.000    0.000    0.000 
#    0.000    0.000    0.000    0.000    0.000    0.000 
#
# Total GULP energy -112022.682970 kJ/mol
# GULP energy per Si atom -5601.134148 kJ/mol
# Density = 2.544301 g / cm^3
# Si number density = 25.501055 Si / 1000 Ang^3
#
#
#
# Elastic Constant Matrix: (Units=GPa)
#
#
# Indices 1 2 3 4 5 6 
#
# 1 120.5299 20.8264 21.2000 0.0000 0.0000 0.0000
# 2 20.8264 125.2689 24.3873 0.0000 0.0000 0.0000
# 3 21.2000 24.3873 103.1578 0.0000 0.0000 0.0000
# 4 0.0000 0.0000 0.0000 31.1876 0.0000 0.0000
# 5 0.0000 0.0000 0.0000 0.0000 41.2964 0.0000
# 6 0.0000 0.0000 0.0000 0.0000 0.0000 39.7406
#
#
#
# Elastic Compliance Matrix: (Units=1/GPa)
#
#
# Indices 1 2 3 4 5 6 
#
# 1 0.008766 -0.001160 -0.001527 0.000000 0.000000 0.000000
# 2 -0.001160 0.008521 -0.001776 0.000000 0.000000 0.000000
# 3 -0.001527 -0.001776 0.010428 0.000000 0.000000 0.000000
# 4 0.000000 0.000000 0.000000 0.032064 0.000000 0.000000
# 5 0.000000 0.000000 0.000000 0.000000 0.024215 0.000000
# 6 0.000000 0.000000 0.000000 0.000000 0.000000 0.025163
#
#
# Mechanical properties :
#
#
# Convention : Reuss Voigt Hill
#
# Bulk Modulus (GPa) = 53.22519 53.53157 53.37838
# Shear Modulus (GPa) = 40.21014 41.28111 40.74562
#
# Velocity S-wave (km/s) = 3.97521 4.02780 4.00159
# Velocity P-wave (km/s) = 6.47972 6.53210 6.50596
#
# Compressibility (1/GPa) = 0.01878810
#
# Stress axis : x y z
#
# Youngs Moduli (GPa) = 114.08029 117.35076 95.89899
#
# Poissons Ratio (x) = 0.13613 0.14646
# Poissons Ratio (y) = 0.13234 0.17033
# Poissons Ratio (z) = 0.17423 0.20843
#
# Static dielectric constant tensor:
#      x y z
#    x 2.067180 0.000000 0.000000 
#    y 0.000000 2.009400 0.000000 
#    z 0.000000 0.000000 1.992240 
# 
# From -- ./inp_files/1681.got.cif
#   From: 2010.05.17/outbox.cif.g08.bks.cpg/sg19_1_cif.got.tgz:1681.got - 2010.06.03 22:46:19.
