data_PCOD9316772
_publ_section_title
;
Structure prediction by ZEFSAII (Michael W. Deem and Ramdas Pophale) SiO2 
 PCOD9316772
Probable space group: C 2 2 21
;
_chemical_formula_sum "Si O2"
_cell_formula_units_Z 64
_cell_length_a 8.734743
_cell_length_b 21.789712
_cell_length_c 13.944693
_cell_angle_alpha 90.000000
_cell_angle_beta 90.000000
_cell_angle_gamma 90.000000
_cell_volume 2654.059036
_symmetry_space_group_name_H-M "C 2 2 21"
_symmetry_group_IT_number 20
_symmetry_cell_setting 'orthorhombic'
loop_
_space_group_symop_operation_xyz
x,y,z
-x,-y,1/2+z
x,-y,-z
-x,y,1/2-z
1/2+x,1/2+y,z
1/2-x,1/2-y,1/2+z
1/2+x,1/2-y,-z
1/2-x,1/2+y,1/2-z
loop_
_atom_site_type_symbol
_atom_site_label
_atom_site_fract_x
_atom_site_fract_y
_atom_site_fract_z
Si Si1 0.318079 0.028252 0.739028
Si Si2 0.860564 0.539596 0.081013
Si Si3 0.114547 0.194370 0.885346
Si Si4 0.709419 0.248871 0.441642
Si Si5 0.172336 0.670920 0.789612
Si Si6 0.947487 0.073486 0.510800
Si Si7 0.631905 0.420637 0.670067
Si Si8 0.643614 0.847347 0.703824
O O1 0.500000 0.018128 0.750000
O O2 0.298765 0.098171 0.713094
O O3 0.272492 0.006464 0.845840
O O4 0.230317 0.983480 0.667261
O O5 0.727189 0.573498 0.024345
O O6 0.926838 0.593917 0.145873
O O7 0.948864 0.500000 0.000000
O O8 0.195301 0.197534 0.781043
O O9 0.965636 0.231707 0.921673
O O10 0.245587 0.221824 0.956145
O O11 0.060687 0.122840 0.902989
O O12 0.809894 0.303810 0.397125
O O13 0.738390 0.193536 0.367797
O O14 0.000000 0.682056 0.750000
O O15 0.059253 0.100016 0.429109
O O16 0.986098 0.000000 0.500000
O O17 0.500000 0.430633 0.750000
O O18 0.744953 0.371201 0.714645
O O19 0.500000 0.814163 0.750000
#
# Coordination Sequence:
#
# PCOD9316772 Si02
#       8
#     8   8   8   8   8   8   8   8
#     4  10  22  39  63  97 136 177 233 284 366 433
#     4  10  18  37  63  93 126 169 221 276 354 424
#     4  12  26  48  73 107 146 188 254 302 364 450
#     4  12  27  47  71 105 139 195 241 303 364 435
#     4  11  25  46  72 102 141 193 240 303 364 434
#     4  11  23  39  66 106 139 178 228 299 366 416
#     4  11  20  37  65  96 131 177 226 287 343 435
#     4  11  23  42  64  94 133 180 234 282 361 429
#
# _framework density 24.114006
#
# number of rings (size 3 to 8) (size 9 to 14) (size 15 to 20)
#    0.000    1.000    3.750    4.875    1.750    3.500 
#    0.000    2.500    0.000    0.000    0.000    0.000 
#    0.000    0.000    0.000    0.000    0.000    0.000 
#
# Total GULP energy -178546.584788 kJ/mol
# GULP energy per Si atom -5579.580775 kJ/mol
# Density = 2.405912 g / cm^3
# Si number density = 24.114006 Si / 1000 Ang^3
#
#
#
# Elastic Constant Matrix: (Units=GPa)
#
#
# Indices 1 2 3 4 5 6 
#
# 1 88.2598 -3.9403 -8.5464 0.0000 0.0000 0.0000
# 2 -3.9403 75.2271 -2.1773 0.0000 0.0000 0.0000
# 3 -8.5464 -2.1773 45.7472 0.0000 0.0000 0.0000
# 4 0.0000 0.0000 0.0000 19.8028 0.0000 0.0000
# 5 0.0000 0.0000 0.0000 0.0000 25.2623 0.0000
# 6 0.0000 0.0000 0.0000 0.0000 0.0000 36.4921
#
#
#
# Elastic Compliance Matrix: (Units=1/GPa)
#
#
# Indices 1 2 3 4 5 6 
#
# 1 0.011573 0.000670 0.002194 0.000000 0.000000 0.000000
# 2 0.000670 0.013350 0.000760 0.000000 0.000000 0.000000
# 3 0.002194 0.000760 0.022305 0.000000 0.000000 0.000000
# 4 0.000000 0.000000 0.000000 0.050498 0.000000 0.000000
# 5 0.000000 0.000000 0.000000 0.000000 0.039585 0.000000
# 6 0.000000 0.000000 0.000000 0.000000 0.000000 0.027403
#
#
# Mechanical properties :
#
#
# Convention : Reuss Voigt Hill
#
# Bulk Modulus (GPa) = 18.35674 19.98957 19.17315
# Shear Modulus (GPa) = 28.46984 31.23797 29.85391
#
# Velocity S-wave (km/s) = 3.43976 3.60311 3.52238
# Velocity P-wave (km/s) = 4.83787 5.06137 4.95088
#
# Compressibility (1/GPa) = 0.05447592
#
# Stress axis : x y z
#
# Youngs Moduli (GPa) = 86.41162 74.90538 44.83241
#
# Poissons Ratio (x) = -0.05016 -0.09835
# Poissons Ratio (y) = -0.05787 -0.03409
# Poissons Ratio (z) = -0.18957 -0.05696
#
# Static dielectric constant tensor:
#      x y z
#    x 1.958520 0.000000 0.000000 
#    y 0.000000 2.005840 0.000000 
#    z 0.000000 0.000000 1.592470 
# 
# From -- ./inp_files/19346.got.cif
#   From: 2010.05.17/outbox.cif.g08.bks.cpg/sg20_10_cif.got.tgz:19346.got - 2010.06.03 22:52:26.
