data_PCOD9316209
_publ_section_title
;
Structure prediction by ZEFSAII (Michael W. Deem and Ramdas Pophale) SiO2 
 PCOD9316209
Probable space group: C 2 2 21
;
_chemical_formula_sum "Si O2"
_cell_formula_units_Z 24
_cell_length_a 25.868727
_cell_length_b 7.143150
_cell_length_c 4.992208
_cell_angle_alpha 90.000000
_cell_angle_beta 90.000000
_cell_angle_gamma 90.000000
_cell_volume 922.481148
_symmetry_space_group_name_H-M "C 2 2 21"
_symmetry_group_IT_number 20
_symmetry_cell_setting 'orthorhombic'
loop_
_space_group_symop_operation_xyz
x,y,z
-x,-y,1/2+z
x,-y,-z
-x,y,1/2-z
1/2+x,1/2+y,z
1/2-x,1/2-y,1/2+z
1/2+x,1/2-y,-z
1/2-x,1/2+y,1/2-z
loop_
_atom_site_type_symbol
_atom_site_label
_atom_site_fract_x
_atom_site_fract_y
_atom_site_fract_z
Si Si1 0.218294 0.203887 0.129209
Si Si2 0.896069 0.772535 0.531172
Si Si3 0.954134 0.225528 0.956649
O O1 0.256249 0.302447 0.918861
O O2 0.160238 0.282090 0.134083
O O3 0.213078 0.000000 0.000000
O O4 0.899701 0.000000 0.500000
O O5 0.940342 0.289759 0.257204
O O6 0.905506 0.715367 0.226213
O O7 0.000000 0.723251 0.250000
O O8 0.958890 0.000000 0.000000
#
# Coordination Sequence:
#
# PCOD9316209 Si02
#       3
#     8   8   8
#     4  11  22  38  58  82 114 153 194 237 285 336
#     4   9  18  29  44  68 102 140 176 219 274 326
#     4  10  16  25  41  66 100 139 174 210 267 338
#
# _framework density 26.016793
#
# number of rings (size 3 to 8) (size 9 to 14) (size 15 to 20)
#    0.000    2.000    0.000    7.000    0.000    5.333 
#    0.000    0.000    0.000    0.000    0.000    0.000 
#    0.000   74.667    0.000    6.667    0.000    0.000 
#
# Total GULP energy -67011.554543 kJ/mol
# GULP energy per Si atom -5584.296212 kJ/mol
# Density = 2.595758 g / cm^3
# Si number density = 26.016793 Si / 1000 Ang^3
#
#
#
# Elastic Constant Matrix: (Units=GPa)
#
#
# Indices 1 2 3 4 5 6 
#
# 1 143.0221 1.8492 55.2167 0.0000 0.0000 0.0000
# 2 1.8492 81.1253 -0.6211 0.0000 0.0000 0.0000
# 3 55.2167 -0.6211 193.1496 0.0000 0.0000 0.0000
# 4 0.0000 0.0000 0.0000 7.5543 0.0000 0.0000
# 5 0.0000 0.0000 0.0000 0.0000 46.7198 0.0000
# 6 0.0000 0.0000 0.0000 0.0000 0.0000 18.8874
#
#
#
# Elastic Compliance Matrix: (Units=1/GPa)
#
#
# Indices 1 2 3 4 5 6 
#
# 1 0.007862 -0.000196 -0.002248 0.000000 0.000000 0.000000
# 2 -0.000196 0.012332 0.000096 0.000000 0.000000 0.000000
# 3 -0.002248 0.000096 0.005820 0.000000 0.000000 0.000000
# 4 0.000000 0.000000 0.000000 0.132375 0.000000 0.000000
# 5 0.000000 0.000000 0.000000 0.000000 0.021404 0.000000
# 6 0.000000 0.000000 0.000000 0.000000 0.000000 0.052945
#
#
# Mechanical properties :
#
#
# Convention : Reuss Voigt Hill
#
# Bulk Modulus (GPa) = 46.91140 58.90964 52.91052
# Shear Modulus (GPa) = 20.44630 38.68912 29.56771
#
# Velocity S-wave (km/s) = 2.80641 3.86045 3.37484
# Velocity P-wave (km/s) = 5.34524 6.52402 5.96383
#
# Compressibility (1/GPa) = 0.02131678
#
# Stress axis : x y z
#
# Youngs Moduli (GPa) = 127.18644 81.09106 171.81014
#
# Poissons Ratio (x) = 0.01593 0.38628
# Poissons Ratio (y) = 0.02498 -0.01646
# Poissons Ratio (z) = 0.28596 -0.00777
#
# Static dielectric constant tensor:
#      x y z
#    x 2.088620 0.000000 0.000000 
#    y 0.000000 2.149280 0.000000 
#    z 0.000000 0.000000 1.905460 
# 
# From -- ./inp_files/305.got.cif
#   From: 2010.05.17/outbox.cif.g08.bks.cpg/sg20_1_cif.got.tgz:305.got - 2010.06.03 22:52:26.
