data_PCOD9316620
_publ_section_title
;
Structure prediction by ZEFSAII (Michael W. Deem and Ramdas Pophale) SiO2 
 PCOD9316620
Probable space group: C 2 2 21
;
_chemical_formula_sum "Si O2"
_cell_formula_units_Z 44
_cell_length_a 11.310855
_cell_length_b 21.098039
_cell_length_c 9.042680
_cell_angle_alpha 90.000000
_cell_angle_beta 90.000000
_cell_angle_gamma 90.000000
_cell_volume 2157.916760
_symmetry_space_group_name_H-M "C 2 2 21"
_symmetry_group_IT_number 20
_symmetry_cell_setting 'orthorhombic'
loop_
_space_group_symop_operation_xyz
x,y,z
-x,-y,1/2+z
x,-y,-z
-x,y,1/2-z
1/2+x,1/2+y,z
1/2-x,1/2-y,1/2+z
1/2+x,1/2-y,-z
1/2-x,1/2+y,1/2-z
loop_
_atom_site_type_symbol
_atom_site_label
_atom_site_fract_x
_atom_site_fract_y
_atom_site_fract_z
Si Si1 0.114430 0.644122 0.442964
Si Si2 0.792487 0.214770 0.262197
Si Si3 0.248995 0.859256 0.251162
Si Si4 0.483162 0.277356 0.979960
Si Si5 0.500000 0.628886 0.750000
Si Si6 0.936785 0.442365 0.409991
O O1 0.200069 0.660077 0.305927
O O2 0.197638 0.639690 0.587136
O O3 0.032830 0.706304 0.461202
O O4 0.030629 0.584376 0.469198
O O5 0.730345 0.283718 0.275123
O O6 0.860886 0.207956 0.107426
O O7 0.903044 0.218659 0.374626
O O8 0.129738 0.900700 0.258360
O O9 0.344875 0.887845 0.362641
O O10 0.504778 0.327483 0.106143
O O11 0.879273 0.500000 0.500000
O O12 0.000000 0.457562 0.250000
#
# Coordination Sequence:
#
# PCOD9316620 Si02
#       6
#     8   8   8   8   4   8
#     4  10  18  35  59  84 121 161 195 249 299 359
#     4  10  18  34  53  86 126 164 189 235 302 372
#     4  10  20  33  58  82 123 160 196 243 301 361
#     4  10  20  31  51  86 128 161 189 229 304 377
#     4  12  20  32  52  90 122 154 190 234 306 376
#     4  10  22  43  61  83 115 161 209 253 301 345
#
# _framework density 20.390035999999998
#
# number of rings (size 3 to 8) (size 9 to 14) (size 15 to 20)
#    0.000    1.818    5.455    0.000    0.000    0.000 
#    4.909    0.000    0.000    4.364    0.000    0.000 
#    0.000    0.000    0.000    0.000    0.000    0.000 
#
# Total GULP energy -122621.771262 kJ/mol
# GULP energy per Si atom -5573.716876 kJ/mol
# Density = 2.034363 g / cm^3
# Si number density = 20.390036 Si / 1000 Ang^3
#
#
#
# Elastic Constant Matrix: (Units=GPa)
#
#
# Indices 1 2 3 4 5 6 
#
# 1 79.8331 1.0371 9.9777 0.0000 0.0000 0.0000
# 2 1.0371 28.0763 14.8912 0.0000 0.0000 0.0000
# 3 9.9777 14.8912 46.4252 0.0000 0.0000 0.0000
# 4 0.0000 0.0000 0.0000 15.5241 0.0000 0.0000
# 5 0.0000 0.0000 0.0000 0.0000 32.0816 0.0000
# 6 0.0000 0.0000 0.0000 0.0000 0.0000 1.6241
#
#
#
# Elastic Compliance Matrix: (Units=1/GPa)
#
#
# Indices 1 2 3 4 5 6 
#
# 1 0.012905 0.001198 -0.003158 0.000000 0.000000 0.000000
# 2 0.001198 0.043030 -0.014060 0.000000 0.000000 0.000000
# 3 -0.003158 -0.014060 0.026728 0.000000 0.000000 0.000000
# 4 0.000000 0.000000 0.000000 0.064416 0.000000 0.000000
# 5 0.000000 0.000000 0.000000 0.000000 0.031171 0.000000
# 6 0.000000 0.000000 0.000000 0.000000 0.000000 0.615727
#
#
# Mechanical properties :
#
#
# Convention : Reuss Voigt Hill
#
# Bulk Modulus (GPa) = 19.75310 22.90516 21.32913
# Shear Modulus (GPa) = 5.93197 18.40787 12.16992
#
# Velocity S-wave (km/s) = 1.70750 3.00790 2.44571
# Velocity P-wave (km/s) = 3.68729 4.82920 4.29635
#
# Compressibility (1/GPa) = 0.05062496
#
# Stress axis : x y z
#
# Youngs Moduli (GPa) = 77.48780 23.23963 37.41337
#
# Poissons Ratio (x) = -0.02785 0.11815
# Poissons Ratio (y) = -0.09285 0.52602
# Poissons Ratio (z) = 0.24470 0.32674
#
# Static dielectric constant tensor:
#      x y z
#    x 1.808660 0.000000 0.000000 
#    y 0.000000 1.689850 0.000000 
#    z 0.000000 0.000000 1.760430 
# 
# From -- ./inp_files/7321.got.cif
#   From: 2010.05.17/outbox.cif.g08.bks.cpg/sg20_4_cif.got.tgz:7321.got - 2010.06.03 22:52:26.
