data_PCOD9316137
_publ_section_title
;
Structure prediction by ZEFSAII (Michael W. Deem and Ramdas Pophale) SiO2 
 PCOD9316137
Probable space group: P 21 21 21
;
_chemical_formula_sum "Si O2"
_cell_formula_units_Z 28
_cell_length_a 6.000000
_cell_length_b 9.000000
_cell_length_c 24.000000
_cell_angle_alpha 90.000000
_cell_angle_beta 90.000000
_cell_angle_gamma 90.000000
_cell_volume 1296.000000
_symmetry_space_group_name_H-M "P 21 21 21"
_symmetry_group_IT_number 19
_symmetry_cell_setting 'orthorhombic'
loop_
_space_group_symop_operation_xyz
x,y,z
1/2-x,-y,1/2+z
1/2+x,1/2-y,-z
-x,1/2+y,1/2-z
loop_
_atom_site_type_symbol
_atom_site_label
_atom_site_fract_x
_atom_site_fract_y
_atom_site_fract_z
Si Si1 0.496789 0.296457 0.480507
Si Si2 0.894696 0.166876 0.938397
Si Si3 0.401559 0.283113 0.355175
Si Si4 0.319348 0.661960 0.239401
Si Si5 0.483569 0.584540 0.788139
Si Si6 0.136374 0.899996 0.661124
Si Si7 0.398911 0.102370 0.965358
O O1 0.746610 0.220708 0.489967
O O2 0.421154 0.248432 0.419291
O O3 0.570007 0.466082 0.491808
O O4 0.886618 0.290948 0.890374
O O5 0.640797 0.097142 0.933159
O O6 0.148610 0.093930 0.936867
O O7 0.893107 0.244082 0.999642
O O8 0.549870 0.172256 0.318663
O O9 0.508150 0.446809 0.350267
O O10 0.157739 0.307997 0.328994
O O11 0.158364 0.806265 0.241945
O O12 0.510338 0.670874 0.286174
O O13 0.181035 0.510520 0.248882
O O14 0.617685 0.457809 0.822483
#
# Coordination Sequence:
#
# PCOD9316137 Si02
#       7
#     4   4   4   4   4   4   4
#     4  12  27  46  69  98 138 186 235 280 345 426
#     4  10  21  38  70  94 135 165 220 291 332 398
#     4  10  23  43  68  94 135 182 231 278 345 418
#     4  10  22  42  65 107 129 183 225 286 345 431
#     4  10  22  41  72  96 141 178 231 282 350 426
#     4  10  21  39  69 102 129 180 225 279 353 415
#     4  10  22  41  61 101 129 172 225 278 340 392
#
# _framework density 21.604938000000001
#
# number of rings (size 3 to 8) (size 9 to 14) (size 15 to 20)
#    0.000    1.714    1.429    1.714    8.000    1.143 
#    2.571    8.571    0.000    0.000    0.000    0.000 
#    0.000    0.000    0.000    0.000    0.000    0.000 
#
# Total GULP energy -155952.597255 kJ/mol
# GULP energy per Si atom -5569.735616 kJ/mol
# Density = 2.155576 g / cm^3
# Si number density = 21.604938 Si / 1000 Ang^3
#
#
#
# Elastic Constant Matrix: (Units=GPa)
#
#
# Indices 1 2 3 4 5 6 
#
# 1 174.7107 30.8858 32.1172 0.0000 0.0000 0.0000
# 2 30.8858 42.3830 12.2716 0.0000 0.0000 0.0000
# 3 32.1172 12.2716 67.3983 0.0000 0.0000 0.0000
# 4 0.0000 0.0000 0.0000 24.5088 0.0000 0.0000
# 5 0.0000 0.0000 0.0000 0.0000 21.6880 0.0000
# 6 0.0000 0.0000 0.0000 0.0000 0.0000 36.5260
#
#
#
# Elastic Compliance Matrix: (Units=1/GPa)
#
#
# Indices 1 2 3 4 5 6 
#
# 1 0.006955 -0.004337 -0.002524 0.000000 0.000000 0.000000
# 2 -0.004337 0.027612 -0.002961 0.000000 0.000000 0.000000
# 3 -0.002524 -0.002961 0.016579 0.000000 0.000000 0.000000
# 4 0.000000 0.000000 0.000000 0.040802 0.000000 0.000000
# 5 0.000000 0.000000 0.000000 0.000000 0.046108 0.000000
# 6 0.000000 0.000000 0.000000 0.000000 0.000000 0.027378
#
#
# Mechanical properties :
#
#
# Convention : Reuss Voigt Hill
#
# Bulk Modulus (GPa) = 31.74451 48.33791 40.04121
# Shear Modulus (GPa) = 25.56518 30.49241 28.02879
#
# Velocity S-wave (km/s) = 3.44365 3.76089 3.60576
# Velocity P-wave (km/s) = 5.52600 6.42504 5.99240
#
# Compressibility (1/GPa) = 0.03150151
#
# Stress axis : x y z
#
# Youngs Moduli (GPa) = 143.79140 36.21583 60.31661
#
# Poissons Ratio (x) = 0.15707 0.15226
# Poissons Ratio (y) = 0.62363 0.17858
# Poissons Ratio (z) = 0.36298 0.10723
#
# Static dielectric constant tensor:
#      x y z
#    x 1.858350 0.000000 0.000000 
#    y 0.000000 1.809560 0.000000 
#    z 0.000000 0.000000 1.811790 
# 
# From -- ./inp_files/7261.got.cif
#   From: 2010.05.17/outbox.ucp.g08.bks.cvg/sg19_4_cif.got.tgz:7261.got - 2010.06.11 13:13:52.
