data_PCOD9316243
_publ_section_title
;
Structure prediction by ZEFSAII (Michael W. Deem and Ramdas Pophale) SiO2 
 PCOD9316243
Probable space group: C 2 2 21
;
_chemical_formula_sum "Si O2"
_cell_formula_units_Z 52
_cell_length_a 28.204002
_cell_length_b 5.158663
_cell_length_c 17.417907
_cell_angle_alpha 90.000000
_cell_angle_beta 90.000000
_cell_angle_gamma 90.000000
_cell_volume 2534.217361
_symmetry_space_group_name_H-M "C 2 2 21"
_symmetry_group_IT_number 20
_symmetry_cell_setting 'orthorhombic'
loop_
_space_group_symop_operation_xyz
x,y,z
-x,-y,1/2+z
x,-y,-z
-x,y,1/2-z
1/2+x,1/2+y,z
1/2-x,1/2-y,1/2+z
1/2+x,1/2-y,-z
1/2-x,1/2+y,1/2-z
loop_
_atom_site_type_symbol
_atom_site_label
_atom_site_fract_x
_atom_site_fract_y
_atom_site_fract_z
Si Si1 0.263740 0.014449 0.408587
Si Si2 0.174339 0.216457 0.645499
Si Si3 0.174103 0.007251 0.089796
Si Si4 0.888321 0.252143 0.715995
Si Si5 0.165050 0.500000 0.500000
Si Si6 0.055234 0.251864 0.267024
Si Si7 0.908837 0.109192 0.074118
O O1 0.285161 0.295870 0.397752
O O2 0.250783 0.000000 0.500000
O O3 0.217650 0.981673 0.355393
O O4 0.303527 0.791092 0.392875
O O5 0.158026 0.300817 0.729330
O O6 0.191236 0.402947 0.576128
O O7 0.124029 0.105947 0.614900
O O8 0.131763 0.886532 0.139953
O O9 0.161142 0.000000 0.000000
O O10 0.915960 0.524885 0.721492
O O11 0.924667 0.031006 0.745507
O O12 0.130806 0.713709 0.535390
O O13 0.064493 0.264590 0.359239
O O14 0.000000 0.274279 0.250000
O O15 0.937081 0.000000 0.000000
#
# Coordination Sequence:
#
# PCOD9316243 Si02
#       7
#     8   8   8   8   4   8   8
#     4  10  21  35  56  88 119 162 213 253 293 355
#     4  10  21  31  57  87 124 159 200 246 313 375
#     4  10  23  40  60  82 122 169 215 256 291 346
#     4  11  23  42  63  88 122 164 203 256 324 378
#     4  10  16  32  54  82 120 156 184 236 316 380
#     4  11  23  42  66  92 119 157 202 260 319 389
#     4   9  19  34  56  88 124 158 189 244 320 386
#
# _framework density 20.519155000000001
#
# number of rings (size 3 to 8) (size 9 to 14) (size 15 to 20)
#    0.000    1.846    1.538    2.769    5.385    1.231 
#    0.000    0.769    0.000    0.000    0.000    0.000 
#    0.000    0.000    0.000    0.000    0.000    0.000 
#
# Total GULP energy -144793.083615 kJ/mol
# GULP energy per Si atom -5568.964754 kJ/mol
# Density = 2.047245 g / cm^3
# Si number density = 20.519155 Si / 1000 Ang^3
#
#
#
# Elastic Constant Matrix: (Units=GPa)
#
#
# Indices 1 2 3 4 5 6 
#
# 1 77.7989 7.6455 36.9689 0.0000 0.0000 0.0000
# 2 7.6455 81.5539 7.4206 0.0000 0.0000 0.0000
# 3 36.9689 7.4206 76.2191 0.0000 0.0000 0.0000
# 4 0.0000 0.0000 0.0000 24.4399 0.0000 0.0000
# 5 0.0000 0.0000 0.0000 0.0000 33.7420 0.0000
# 6 0.0000 0.0000 0.0000 0.0000 0.0000 22.0370
#
#
#
# Elastic Compliance Matrix: (Units=1/GPa)
#
#
# Indices 1 2 3 4 5 6 
#
# 1 0.016760 -0.000839 -0.008048 0.000000 0.000000 0.000000
# 2 -0.000839 0.012413 -0.000802 0.000000 0.000000 0.000000
# 3 -0.008048 -0.000802 0.017101 0.000000 0.000000 0.000000
# 4 0.000000 0.000000 0.000000 0.040917 0.000000 0.000000
# 5 0.000000 0.000000 0.000000 0.000000 0.029637 0.000000
# 6 0.000000 0.000000 0.000000 0.000000 0.000000 0.045378
#
#
# Mechanical properties :
#
#
# Convention : Reuss Voigt Hill
#
# Bulk Modulus (GPa) = 37.17650 37.73798 37.45724
# Shear Modulus (GPa) = 26.23993 28.27958 27.25975
#
# Velocity S-wave (km/s) = 3.57991 3.71644 3.64882
# Velocity P-wave (km/s) = 5.93675 6.07021 6.00385
#
# Compressibility (1/GPa) = 0.02689871
#
# Stress axis : x y z
#
# Youngs Moduli (GPa) = 59.66520 80.55795 58.47452
#
# Poissons Ratio (x) = 0.06759 0.47058
# Poissons Ratio (y) = 0.05006 0.04687
# Poissons Ratio (z) = 0.48016 0.06458
#
# Static dielectric constant tensor:
#      x y z
#    x 1.723020 0.000000 0.000000 
#    y 0.000000 1.741330 0.000000 
#    z 0.000000 0.000000 1.825140 
# 
# From -- ./inp_files/25679.got.cif
#   From: 2010.05.17/outbox.cif.g08.bks.cpg/sg20_13_cif.got.tgz:25679.got - 2010.06.03 22:52:26.
