data_PCOD9316938
_publ_section_title
;
Structure prediction by ZEFSAII (Michael W. Deem and Ramdas Pophale) SiO2 
 PCOD9316938
Probable space group: C 2 2 21
;
_chemical_formula_sum "Si O2"
_cell_formula_units_Z 52
_cell_length_a 17.127659
_cell_length_b 19.172560
_cell_length_c 8.248551
_cell_angle_alpha 90.000000
_cell_angle_beta 90.000000
_cell_angle_gamma 90.000000
_cell_volume 2708.668002
_symmetry_space_group_name_H-M "C 2 2 21"
_symmetry_group_IT_number 20
_symmetry_cell_setting 'orthorhombic'
loop_
_space_group_symop_operation_xyz
x,y,z
-x,-y,1/2+z
x,-y,-z
-x,y,1/2-z
1/2+x,1/2+y,z
1/2-x,1/2-y,1/2+z
1/2+x,1/2-y,-z
1/2-x,1/2+y,1/2-z
loop_
_atom_site_type_symbol
_atom_site_label
_atom_site_fract_x
_atom_site_fract_y
_atom_site_fract_z
Si Si1 0.030416 0.310573 0.069980
Si Si2 0.590228 0.976625 0.691824
Si Si3 0.927875 0.804581 0.344058
Si Si4 0.619029 0.827955 0.618912
Si Si5 0.689176 0.000000 0.000000
Si Si6 0.707025 0.848142 0.016329
Si Si7 0.742357 0.296338 0.130889
O O1 0.113302 0.344399 0.035504
O O2 0.000000 0.312427 0.250000
O O3 0.037987 0.231879 0.003934
O O4 0.962103 0.345972 0.970324
O O5 0.500000 0.979246 0.750000
O O6 0.629294 0.900045 0.710280
O O7 0.597920 0.000000 0.500000
O O8 0.638314 0.014660 0.836010
O O9 0.903114 0.740642 0.222076
O O10 0.842725 0.832281 0.395337
O O11 0.000000 0.841452 0.250000
O O12 0.689330 0.816305 0.494191
O O13 0.734922 0.073322 0.016363
O O14 0.735115 0.818668 0.189385
O O15 0.733053 0.787776 0.890170
#
# Coordination Sequence:
#
# PCOD9316938 Si02
#       7
#     8   8   8   8   4   8   8
#     4  10  19  31  53  81 118 159 199 244 289 365
#     4  12  24  38  56  84 126 181 221 242 294 372
#     4   9  19  34  51  79 117 150 189 258 319 356
#     4  11  20  35  53  79 121 156 202 260 296 351
#     4  12  26  42  56  86 128 172 214 258 314 376
#     4  11  23  38  58  86 123 162 211 256 312 370
#     4  11  20  36  61  86 116 160 209 264 321 367
#
# _framework density 19.197628000000002
#
# number of rings (size 3 to 8) (size 9 to 14) (size 15 to 20)
#    0.000    1.231    3.846    5.077    0.000    0.000 
#    0.000    0.000    0.000    0.000    0.000    0.000 
#   11.538    0.000    0.000    0.000    0.000    0.000 
#
# Total GULP energy -144767.862630 kJ/mol
# GULP energy per Si atom -5567.994717 kJ/mol
# Density = 1.915393 g / cm^3
# Si number density = 19.197628 Si / 1000 Ang^3
#
#
#
# Elastic Constant Matrix: (Units=GPa)
#
#
# Indices 1 2 3 4 5 6 
#
# 1 69.2374 28.3401 -3.0017 0.0000 0.0000 0.0000
# 2 28.3401 65.0813 23.6908 0.0000 0.0000 0.0000
# 3 -3.0017 23.6908 92.8975 0.0000 0.0000 0.0000
# 4 0.0000 0.0000 0.0000 -44.1126 0.0000 0.0000
# 5 0.0000 0.0000 0.0000 0.0000 29.9422 0.0000
# 6 0.0000 0.0000 0.0000 0.0000 0.0000 23.8301
#
#
#
# Elastic Compliance Matrix: (Units=1/GPa)
#
#
# Indices 1 2 3 4 5 6 
#
# 1 0.018251 -0.008997 0.002884 0.000000 0.000000 0.000000
# 2 -0.008997 0.021373 -0.005741 0.000000 0.000000 0.000000
# 3 0.002884 -0.005741 0.012322 0.000000 0.000000 0.000000
# 4 0.000000 0.000000 0.000000 -0.022669 0.000000 0.000000
# 5 0.000000 0.000000 0.000000 0.000000 0.033398 0.000000
# 6 0.000000 0.000000 0.000000 0.000000 0.000000 0.041964
#
#
# Mechanical properties :
#
#
# Convention : Reuss Voigt Hill
#
# Bulk Modulus (GPa) = 35.41437 36.14160 35.77798
# Shear Modulus (GPa) = 36.29508 13.81107 25.05307
#
# Velocity S-wave (km/s) = 4.35282 2.68510 3.61641
# Velocity P-wave (km/s) = 6.61438 5.33666 6.00958
#
# Compressibility (1/GPa) = 0.02823713
#
# Stress axis : x y z
#
# Youngs Moduli (GPa) = 54.79185 46.78732 81.15623
#
# Poissons Ratio (x) = 0.42096 -0.23407
# Poissons Ratio (y) = 0.49298 0.46595
# Poissons Ratio (z) = -0.15803 0.26862
#
# Static dielectric constant tensor:
#      x y z
#    x 3.125060 0.000000 0.000000 
#    y 0.000000 1.706000 0.000000 
#    z 0.000000 0.000000 1.757060 
# 
# From -- ./inp_files/9545.got.cif
#   From: 2010.05.17/outbox.cif.g08.bks.cpg/sg20_5_cif.got.tgz:9545.got - 2010.06.03 22:52:26.
