data_PCOD9316955
_publ_section_title
;
Structure prediction by ZEFSAII (Michael W. Deem and Ramdas Pophale) SiO2 
 PCOD9316955
Probable space group: C 2 2 21
;
_chemical_formula_sum "Si O2"
_cell_formula_units_Z 56
_cell_length_a 5.342032
_cell_length_b 28.082878
_cell_length_c 17.729792
_cell_angle_alpha 90.000000
_cell_angle_beta 90.000000
_cell_angle_gamma 90.000000
_cell_volume 2659.816888
_symmetry_space_group_name_H-M "C 2 2 21"
_symmetry_group_IT_number 20
_symmetry_cell_setting 'orthorhombic'
loop_
_space_group_symop_operation_xyz
x,y,z
-x,-y,1/2+z
x,-y,-z
-x,y,1/2-z
1/2+x,1/2+y,z
1/2-x,1/2-y,1/2+z
1/2+x,1/2-y,-z
1/2-x,1/2+y,1/2-z
loop_
_atom_site_type_symbol
_atom_site_label
_atom_site_fract_x
_atom_site_fract_y
_atom_site_fract_z
Si Si1 0.801762 0.757872 0.952752
Si Si2 0.583635 0.513732 0.108995
Si Si3 0.583563 0.045572 0.086987
Si Si4 0.500000 0.088509 0.250000
Si Si5 0.727676 0.858415 0.992468
Si Si6 0.751380 0.574166 0.798468
Si Si7 0.500000 0.414450 0.750000
Si Si8 0.772218 0.158214 0.590353
O O1 0.761384 0.813474 0.936064
O O2 0.586544 0.748022 0.016874
O O3 0.743656 0.715044 0.895555
O O4 0.300069 0.505804 0.080542
O O5 0.713540 0.466100 0.138417
O O6 0.531398 0.550113 0.178869
O O7 0.800954 0.537212 0.057778
O O8 0.531638 0.056240 0.175727
O O9 0.708700 0.091901 0.050404
O O10 0.245978 0.116787 0.247983
O O11 0.464493 0.852491 0.036023
O O12 0.965218 0.854824 0.049028
O O13 0.500000 0.570549 0.750000
O O14 0.760982 0.625441 0.837270
O O15 0.000000 0.565111 0.750000
#
# Coordination Sequence:
#
# PCOD9316955 Si02
#       8
#     8   8   8   4   8   8   4   8
#     4   8  16  32  58  82 104 139 181 221 265 335
#     4  10  19  32  49  77 104 144 188 225 263 327
#     4  10  19  32  53  80 112 144 184 231 268 319
#     4   8  16  26  44  70  99 134 175 212 254 296
#     4  10  19  36  59  85 113 148 183 227 287 343
#     4  12  24  38  59  82 107 149 194 238 282 326
#     4   8  14  26  44  62  91 124 179 222 234 292
#     4  10  21  38  57  85 112 141 191 237 278 343
#
# _framework density 21.054079999999999
#
# number of rings (size 3 to 8) (size 9 to 14) (size 15 to 20)
#    0.000    2.286    0.714    2.571    4.000    0.000 
#    0.000    4.286    1.571    0.000    7.429    0.000 
#    0.000    0.000    0.000    0.000    0.000    0.000 
#
# Total GULP energy -155920.178618 kJ/mol
# GULP energy per Si atom -5568.577808 kJ/mol
# Density = 2.100616 g / cm^3
# Si number density = 21.054080 Si / 1000 Ang^3
#
#
#
# Elastic Constant Matrix: (Units=GPa)
#
#
# Indices 1 2 3 4 5 6 
#
# 1 200.2001 7.4981 8.2118 0.0000 0.0000 0.0000
# 2 7.4981 61.1223 4.3310 0.0000 0.0000 0.0000
# 3 8.2118 4.3310 40.2941 0.0000 0.0000 0.0000
# 4 0.0000 0.0000 0.0000 18.0856 0.0000 0.0000
# 5 0.0000 0.0000 0.0000 0.0000 -8.2009 0.0000
# 6 0.0000 0.0000 0.0000 0.0000 0.0000 24.5143
#
#
#
# Elastic Compliance Matrix: (Units=1/GPa)
#
#
# Indices 1 2 3 4 5 6 
#
# 1 0.005055 -0.000551 -0.000971 0.000000 0.000000 0.000000
# 2 -0.000551 0.016546 -0.001666 0.000000 0.000000 0.000000
# 3 -0.000971 -0.001666 0.025194 0.000000 0.000000 0.000000
# 4 0.000000 0.000000 0.000000 0.055292 0.000000 0.000000
# 5 0.000000 0.000000 0.000000 0.000000 -0.121938 0.000000
# 6 0.000000 0.000000 0.000000 0.000000 0.000000 0.040792
#
#
# Mechanical properties :
#
#
# Convention : Reuss Voigt Hill
#
# Bulk Modulus (GPa) = 24.74066 37.96649 31.35358
# Shear Modulus (GPa) = 122.57051 25.65153 74.11102
#
# Velocity S-wave (km/s) = 7.63828 3.49429 5.93942
# Velocity P-wave (km/s) = 9.46402 5.86107 7.87146
#
# Compressibility (1/GPa) = 0.04041929
#
# Stress axis : x y z
#
# Youngs Moduli (GPa) = 197.80508 60.43629 39.69124
#
# Poissons Ratio (x) = 0.03332 0.03854
# Poissons Ratio (y) = 0.10906 0.06613
# Poissons Ratio (z) = 0.19207 0.10069
#
# Static dielectric constant tensor:
#      x y z
#    x 1.862430 0.000000 0.000000 
#    y 0.000000 1.766150 0.000000 
#    z 0.000000 0.000000 1.871000 
# 
# From -- ./inp_files/26216.got.cif
#   From: 2010.05.17/outbox.cif.g08.bks.cpg/sg20_14_cif.got.tgz:26216.got - 2010.06.03 22:52:26.
