data_PCOD9316988
_publ_section_title
;
Structure prediction by ZEFSAII (Michael W. Deem and Ramdas Pophale) SiO2 
 PCOD9316988
Probable space group: C 2 2 21
;
_chemical_formula_sum "Si O2"
_cell_formula_units_Z 40
_cell_length_a 6.104205
_cell_length_b 19.363455
_cell_length_c 13.088165
_cell_angle_alpha 90.000000
_cell_angle_beta 90.000000
_cell_angle_gamma 90.000000
_cell_volume 1547.001455
_symmetry_space_group_name_H-M "C 2 2 21"
_symmetry_group_IT_number 20
_symmetry_cell_setting 'orthorhombic'
loop_
_space_group_symop_operation_xyz
x,y,z
-x,-y,1/2+z
x,-y,-z
-x,y,1/2-z
1/2+x,1/2+y,z
1/2-x,1/2-y,1/2+z
1/2+x,1/2-y,-z
1/2-x,1/2+y,1/2-z
loop_
_atom_site_type_symbol
_atom_site_label
_atom_site_fract_x
_atom_site_fract_y
_atom_site_fract_z
Si Si1 0.685884 0.927304 0.332833
Si Si2 0.748214 0.686328 0.095891
Si Si3 0.120716 0.595207 0.019260
Si Si4 0.014644 0.958694 0.891573
Si Si5 0.525300 0.317303 0.396137
O O1 0.500000 0.919660 0.250000
O O2 0.560685 0.931969 0.441064
O O3 0.847915 0.861555 0.334117
O O4 0.836049 0.994272 0.319951
O O5 0.820095 0.757428 0.150578
O O6 0.600406 0.620039 0.127159
O O7 0.984138 0.651656 0.079839
O O8 0.624002 0.710102 0.991709
O O9 0.308546 0.628210 0.948018
O O10 0.251730 0.548069 0.099618
O O11 0.052606 0.000000 0.000000
#
# Coordination Sequence:
#
# PCOD9316988 Si02
#       5
#     8   8   8   8   8
#     4  11  25  41  62  95 135 169 209 270 341 387
#     4  10  19  32  60  94 120 156 215 271 303 374
#     4  10  20  35  63  88 122 160 220 272 299 391
#     4  11  21  35  61  95 118 167 224 263 320 376
#     4  10  19  34  60  93 119 163 209 257 326 371
#
# _framework density 25.856472
#
# number of rings (size 3 to 8) (size 9 to 14) (size 15 to 20)
#    0.000    1.600    8.000    0.000    2.800    0.800 
#    0.000    0.000    8.800    0.000    0.000    0.000 
#    0.000    0.000    0.000    0.000    0.000    0.000 
#
# Total GULP energy -111574.109400 kJ/mol
# GULP energy per Si atom -5578.705470 kJ/mol
# Density = 2.579762 g / cm^3
# Si number density = 25.856472 Si / 1000 Ang^3
#
#
#
# Elastic Constant Matrix: (Units=GPa)
#
#
# Indices 1 2 3 4 5 6 
#
# 1 153.6944 55.1569 18.8779 0.0000 0.0000 0.0000
# 2 55.1569 156.8448 20.5549 0.0000 0.0000 0.0000
# 3 18.8779 20.5549 38.6124 0.0000 0.0000 0.0000
# 4 0.0000 0.0000 0.0000 13.4261 0.0000 0.0000
# 5 0.0000 0.0000 0.0000 0.0000 54.7217 0.0000
# 6 0.0000 0.0000 0.0000 0.0000 0.0000 46.7992
#
#
#
# Elastic Compliance Matrix: (Units=1/GPa)
#
#
# Indices 1 2 3 4 5 6 
#
# 1 0.007662 -0.002369 -0.002485 0.000000 0.000000 0.000000
# 2 -0.002369 0.007586 -0.002880 0.000000 0.000000 0.000000
# 3 -0.002485 -0.002880 0.028647 0.000000 0.000000 0.000000
# 4 0.000000 0.000000 0.000000 0.074482 0.000000 0.000000
# 5 0.000000 0.000000 0.000000 0.000000 0.018274 0.000000
# 6 0.000000 0.000000 0.000000 0.000000 0.000000 0.021368
#
#
# Mechanical properties :
#
#
# Convention : Reuss Voigt Hill
#
# Bulk Modulus (GPa) = 35.17831 59.81456 47.49644
# Shear Modulus (GPa) = 27.32810 39.96018 33.64414
#
# Velocity S-wave (km/s) = 3.25455 3.93550 3.61111
# Velocity P-wave (km/s) = 5.26854 6.62076 5.98297
#
# Compressibility (1/GPa) = 0.02842660
#
# Stress axis : x y z
#
# Youngs Moduli (GPa) = 130.51931 131.81837 34.90808
#
# Poissons Ratio (x) = 0.31224 0.08674
# Poissons Ratio (y) = 0.30916 0.10055
# Poissons Ratio (z) = 0.32433 0.37968
#
# Static dielectric constant tensor:
#      x y z
#    x 1.960700 0.000000 0.000000 
#    y 0.000000 2.104550 0.000000 
#    z 0.000000 0.000000 2.371730 
# 
# From -- ./inp_files/22719.got.cif
#   From: 2010.05.17/outbox.cif.g08.bks.cpg/sg20_12_cif.got.tgz:22719.got - 2010.06.03 22:52:26.
