data_PCOD9316502
_publ_section_title
;
Structure prediction by ZEFSAII (Michael W. Deem and Ramdas Pophale) SiO2 
 PCOD9316502
Probable space group: C 2 2 21
;
_chemical_formula_sum "Si O2"
_cell_formula_units_Z 64
_cell_length_a 16.581324
_cell_length_b 9.130842
_cell_length_c 23.440819
_cell_angle_alpha 90.000000
_cell_angle_beta 90.000000
_cell_angle_gamma 90.000000
_cell_volume 3548.973976
_symmetry_space_group_name_H-M "C 2 2 21"
_symmetry_group_IT_number 20
_symmetry_cell_setting 'orthorhombic'
loop_
_space_group_symop_operation_xyz
x,y,z
-x,-y,1/2+z
x,-y,-z
-x,y,1/2-z
1/2+x,1/2+y,z
1/2-x,1/2-y,1/2+z
1/2+x,1/2-y,-z
1/2-x,1/2+y,1/2-z
loop_
_atom_site_type_symbol
_atom_site_label
_atom_site_fract_x
_atom_site_fract_y
_atom_site_fract_z
Si Si1 0.975921 0.316530 0.185447
Si Si2 0.163911 0.624255 0.116980
Si Si3 0.008100 0.340829 0.814251
Si Si4 0.935893 0.649534 0.574336
Si Si5 0.610022 0.153545 0.517935
Si Si6 0.550852 0.359348 0.417135
Si Si7 0.653700 0.641877 0.381391
Si Si8 0.620449 0.642574 0.974339
O O1 0.895841 0.230655 0.166619
O O2 0.000000 0.279181 0.250000
O O3 0.970997 0.494530 0.182555
O O4 0.042635 0.282167 0.136317
O O5 0.102386 0.648692 0.169018
O O6 0.120685 0.490598 0.083538
O O7 0.255672 0.596797 0.134217
O O8 0.161451 0.763308 0.074977
O O9 0.000000 0.286373 0.750000
O O10 0.968200 0.237123 0.861343
O O11 0.023686 0.613154 0.547643
O O12 0.896195 0.755032 0.528605
O O13 0.593999 0.255823 0.463457
O O14 0.655820 0.249025 0.564554
O O15 0.647460 0.000000 0.500000
O O16 0.602279 0.500946 0.400844
O O17 0.465891 0.402716 0.446443
O O18 0.661714 0.500000 0.000000
#
# Coordination Sequence:
#
# PCOD9316502 Si02
#       8
#     8   8   8   8   8   8   8   8
#     4   9  18  35  58  76 100 142 186 216 253 320
#     4  10  21  35  53  78 109 138 170 221 276 317
#     4   9  19  39  61  76  98 143 190 218 255 323
#     4   9  17  32  53  75 101 141 181 210 253 316
#     4  10  18  32  54  77 106 147 186 210 248 320
#     4  10  19  32  53  80 109 141 179 222 264 314
#     4  11  22  34  52  83 113 134 169 226 281 313
#     4  10  18  31  52  77 106 142 179 211 250 315
#
# _framework density 18.033380999999999
#
# number of rings (size 3 to 8) (size 9 to 14) (size 15 to 20)
#    0.000    2.250    0.000    6.750    0.000    3.000 
#    0.000    5.000    0.000    0.000    0.000    0.000 
#    0.000    0.000    0.000    0.000    0.000    0.000 
#
# Total GULP energy -178479.915443 kJ/mol
# GULP energy per Si atom -5577.497358 kJ/mol
# Density = 1.799234 g / cm^3
# Si number density = 18.033381 Si / 1000 Ang^3
#
#
#
# Elastic Constant Matrix: (Units=GPa)
#
#
# Indices 1 2 3 4 5 6 
#
# 1 106.7725 55.4631 38.7828 0.0000 0.0000 0.0000
# 2 55.4631 71.9578 40.0091 0.0000 0.0000 0.0000
# 3 38.7828 40.0091 137.7971 0.0000 0.0000 0.0000
# 4 0.0000 0.0000 0.0000 17.8497 0.0000 0.0000
# 5 0.0000 0.0000 0.0000 0.0000 -4.1600 0.0000
# 6 0.0000 0.0000 0.0000 0.0000 0.0000 15.7904
#
#
#
# Elastic Compliance Matrix: (Units=1/GPa)
#
#
# Indices 1 2 3 4 5 6 
#
# 1 0.015754 -0.011540 -0.001083 0.000000 0.000000 0.000000
# 2 -0.011540 0.025026 -0.004018 0.000000 0.000000 0.000000
# 3 -0.001083 -0.004018 0.008729 0.000000 0.000000 0.000000
# 4 0.000000 0.000000 0.000000 0.056023 0.000000 0.000000
# 5 0.000000 0.000000 0.000000 0.000000 -0.240383 0.000000
# 6 0.000000 0.000000 0.000000 0.000000 0.000000 0.063330
#
#
# Mechanical properties :
#
#
# Convention : Reuss Voigt Hill
#
# Bulk Modulus (GPa) = 61.63329 65.00417 63.31873
# Shear Modulus (GPa) = -152.30369 18.04750 -67.12810
#
# Velocity S-wave (km/s) = -9.19999 3.16695 -6.10780
# Velocity P-wave (km/s) = 8.86576 7.03545 3.81471
#
# Compressibility (1/GPa) = 0.01622500
#
# Stress axis : x y z
#
# Youngs Moduli (GPa) = 63.47671 39.95806 114.56585
#
# Poissons Ratio (x) = 0.46113 0.12409
# Poissons Ratio (y) = 0.73254 0.46036
# Poissons Ratio (z) = 0.06876 0.16056
#
# Static dielectric constant tensor:
#      x y z
#    x 1.609900 0.000000 0.000000 
#    y 0.000000 1.634170 0.000000 
#    z 0.000000 0.000000 1.611420 
# 
# From -- ./inp_files/29480.got.cif
#   From: 2010.05.17/outbox.cif.g08.bks.cpg/sg20_15_cif.got.tgz:29480.got - 2010.06.03 22:52:26.
