data_PCOD9316881
_publ_section_title
;
Structure prediction by ZEFSAII (Michael W. Deem and Ramdas Pophale) SiO2 
 PCOD9316881
Probable space group: C 2 2 21
;
_chemical_formula_sum "Si O2"
_cell_formula_units_Z 40
_cell_length_a 8.822963
_cell_length_b 25.087970
_cell_length_c 8.473445
_cell_angle_alpha 90.000000
_cell_angle_beta 90.000000
_cell_angle_gamma 90.000000
_cell_volume 1875.599009
_symmetry_space_group_name_H-M "C 2 2 21"
_symmetry_group_IT_number 20
_symmetry_cell_setting 'orthorhombic'
loop_
_space_group_symop_operation_xyz
x,y,z
-x,-y,1/2+z
x,-y,-z
-x,y,1/2-z
1/2+x,1/2+y,z
1/2-x,1/2-y,1/2+z
1/2+x,1/2-y,-z
1/2-x,1/2+y,1/2-z
loop_
_atom_site_type_symbol
_atom_site_label
_atom_site_fract_x
_atom_site_fract_y
_atom_site_fract_z
Si Si1 0.000000 0.105215 0.250000
Si Si2 0.771878 0.464052 0.656239
Si Si3 0.500000 0.043087 0.750000
Si Si4 0.821217 0.294135 0.296298
Si Si5 0.731331 0.320247 0.948354
Si Si6 0.949127 0.373592 0.526609
O O1 0.109946 0.062858 0.333528
O O2 0.101935 0.141920 0.130617
O O3 0.779135 0.500000 0.500000
O O4 0.854405 0.504749 0.774799
O O5 0.871334 0.410962 0.652131
O O6 0.504432 0.083201 0.895131
O O7 0.777373 0.236638 0.361949
O O8 0.824343 0.335738 0.441666
O O9 0.000000 0.292185 0.250000
O O10 0.726977 0.311538 0.140262
O O11 0.901901 0.341927 0.925029
#
# Coordination Sequence:
#
# PCOD9316881 Si02
#       6
#     4   8   4   8   8   8
#     4  12  26  43  60 100 140 169 212 286 340 390
#     4  10  24  41  65  96 128 170 225 271 331 398
#     4  10  18  43  70  92 122 171 232 276 314 400
#     4  10  22  43  65 101 136 172 221 272 328 403
#     4  11  23  42  70  97 138 171 220 275 331 406
#     4  10  21  43  70  96 128 177 228 270 326 399
#
# _framework density 21.326522000000001
#
# number of rings (size 3 to 8) (size 9 to 14) (size 15 to 20)
#    0.000    1.600    4.000    1.200    2.800    1.600 
#    3.600    4.000    0.000    0.000    0.000    0.000 
#    0.000    0.000    0.000    0.000    0.000    0.000 
#
# Total GULP energy -111456.188424 kJ/mol
# GULP energy per Si atom -5572.809421 kJ/mol
# Density = 2.127798 g / cm^3
# Si number density = 21.326522 Si / 1000 Ang^3
#
#
#
# Elastic Constant Matrix: (Units=GPa)
#
#
# Indices 1 2 3 4 5 6 
#
# 1 68.2096 31.9213 11.1730 0.0000 0.0000 0.0000
# 2 31.9213 136.7601 20.1438 0.0000 0.0000 0.0000
# 3 11.1730 20.1438 39.5719 0.0000 0.0000 0.0000
# 4 0.0000 0.0000 0.0000 33.4735 0.0000 0.0000
# 5 0.0000 0.0000 0.0000 0.0000 26.9137 0.0000
# 6 0.0000 0.0000 0.0000 0.0000 0.0000 12.5946
#
#
#
# Elastic Compliance Matrix: (Units=1/GPa)
#
#
# Indices 1 2 3 4 5 6 
#
# 1 0.016774 -0.003479 -0.002965 0.000000 0.000000 0.000000
# 2 -0.003479 0.008626 -0.003409 0.000000 0.000000 0.000000
# 3 -0.002965 -0.003409 0.027843 0.000000 0.000000 0.000000
# 4 0.000000 0.000000 0.000000 0.029874 0.000000 0.000000
# 5 0.000000 0.000000 0.000000 0.000000 0.037156 0.000000
# 6 0.000000 0.000000 0.000000 0.000000 0.000000 0.079399
#
#
# Mechanical properties :
#
#
# Convention : Reuss Voigt Hill
#
# Bulk Modulus (GPa) = 29.81719 41.22420 35.52069
# Shear Modulus (GPa) = 21.68651 26.68325 24.18488
#
# Velocity S-wave (km/s) = 3.19231 3.54103 3.37119
# Velocity P-wave (km/s) = 5.25352 6.00754 5.64314
#
# Compressibility (1/GPa) = 0.03353771
#
# Stress axis : x y z
#
# Youngs Moduli (GPa) = 59.61483 115.92707 35.91561
#
# Poissons Ratio (x) = 0.40326 0.10651
# Poissons Ratio (y) = 0.20737 0.12243
# Poissons Ratio (z) = 0.17679 0.39518
#
# Static dielectric constant tensor:
#      x y z
#    x 1.476140 0.000000 0.000000 
#    y 0.000000 1.739610 0.000000 
#    z 0.000000 0.000000 1.912480 
# 
# From -- ./inp_files/6149.got.cif
#   From: 2010.05.17/outbox.cif.g08.bks.cpg/sg20_4_cif.got.tgz:6149.got - 2010.06.03 22:52:26.
