data_PCOD9316671
_publ_section_title
;
Structure prediction by ZEFSAII (Michael W. Deem and Ramdas Pophale) SiO2 
 PCOD9316671
Probable space group: C 2 2 21
;
_chemical_formula_sum "Si O2"
_cell_formula_units_Z 60
_cell_length_a 29.342852
_cell_length_b 8.424841
_cell_length_c 12.673605
_cell_angle_alpha 90.000000
_cell_angle_beta 90.000000
_cell_angle_gamma 90.000000
_cell_volume 3133.027477
_symmetry_space_group_name_H-M "C 2 2 21"
_symmetry_group_IT_number 20
_symmetry_cell_setting 'orthorhombic'
loop_
_space_group_symop_operation_xyz
x,y,z
-x,-y,1/2+z
x,-y,-z
-x,y,1/2-z
1/2+x,1/2+y,z
1/2-x,1/2-y,1/2+z
1/2+x,1/2-y,-z
1/2-x,1/2+y,1/2-z
loop_
_atom_site_type_symbol
_atom_site_label
_atom_site_fract_x
_atom_site_fract_y
_atom_site_fract_z
Si Si1 0.485836 0.500000 0.000000
Si Si2 0.360740 0.785047 0.323408
Si Si3 0.917778 0.887142 0.170637
Si Si4 0.844135 0.357764 0.750567
Si Si5 0.171831 0.088557 0.363096
Si Si6 0.789176 0.771490 0.063982
Si Si7 0.958945 0.858987 0.681096
Si Si8 0.307461 0.189235 0.475772
O O1 0.453790 0.608698 0.924862
O O2 0.518660 0.391021 0.930684
O O3 0.328931 0.678133 0.247496
O O4 0.413464 0.741906 0.313982
O O5 0.346366 0.757368 0.443671
O O6 0.353918 0.964147 0.284894
O O7 0.889928 0.734051 0.211386
O O8 0.877005 0.003405 0.133148
O O9 0.943967 0.973156 0.266462
O O10 0.809451 0.345449 0.849006
O O11 0.821109 0.281125 0.645396
O O12 0.178736 0.205595 0.461465
O O13 0.208271 0.946384 0.379142
O O14 0.739855 0.737392 0.016400
O O15 0.000000 0.789231 0.750000
O O16 0.302876 0.000000 0.500000
#
# Coordination Sequence:
#
# PCOD9316671 Si02
#       8
#     4   8   8   8   8   8   8   8
#     4  10  18  34  66  88 110 140 202 244 286 342
#     4  10  22  37  59  82 123 154 183 239 305 344
#     4   9  18  36  59  89 110 148 191 241 288 342
#     4  10  22  37  59  85 121 157 191 233 296 351
#     4   9  18  36  61  81 111 153 197 238 282 332
#     4  10  19  35  60  81 111 156 206 238 270 330
#     4   9  20  37  60  86 109 147 194 243 286 347
#     4  10  21  36  56  81 120 159 187 235 290 339
#
# _framework density 19.150807
#
# number of rings (size 3 to 8) (size 9 to 14) (size 15 to 20)
#    0.000    2.400    1.333    1.600    3.733    0.533 
#    0.000    2.000    8.800    0.000    0.000    0.000 
#    0.000    0.000    0.000    0.000    0.000    0.000 
#
# Total GULP energy -167189.791786 kJ/mol
# GULP energy per Si atom -5572.993060 kJ/mol
# Density = 1.910722 g / cm^3
# Si number density = 19.150807 Si / 1000 Ang^3
#
#
#
# Elastic Constant Matrix: (Units=GPa)
#
#
# Indices 1 2 3 4 5 6 
#
# 1 78.9771 22.1141 21.5558 0.0000 0.0000 0.0000
# 2 22.1141 23.7404 17.2734 0.0000 0.0000 0.0000
# 3 21.5558 17.2734 80.1307 0.0000 0.0000 0.0000
# 4 0.0000 0.0000 0.0000 17.5398 0.0000 0.0000
# 5 0.0000 0.0000 0.0000 0.0000 27.6900 0.0000
# 6 0.0000 0.0000 0.0000 0.0000 0.0000 16.7191
#
#
#
# Elastic Compliance Matrix: (Units=1/GPa)
#
#
# Indices 1 2 3 4 5 6 
#
# 1 0.017261 -0.015062 -0.001396 0.000000 0.000000 0.000000
# 2 -0.015062 0.063102 -0.009551 0.000000 0.000000 0.000000
# 3 -0.001396 -0.009551 0.014914 0.000000 0.000000 0.000000
# 4 0.000000 0.000000 0.000000 0.057013 0.000000 0.000000
# 5 0.000000 0.000000 0.000000 0.000000 0.036114 0.000000
# 6 0.000000 0.000000 0.000000 0.000000 0.000000 0.059812
#
#
# Mechanical properties :
#
#
# Convention : Reuss Voigt Hill
#
# Bulk Modulus (GPa) = 23.11715 33.85939 28.48827
# Shear Modulus (GPa) = 15.89051 20.51678 18.20365
#
# Velocity S-wave (km/s) = 2.88368 3.27666 3.08643
# Velocity P-wave (km/s) = 4.81506 5.65987 5.25447
#
# Compressibility (1/GPa) = 0.04325793
#
# Stress axis : x y z
#
# Youngs Moduli (GPa) = 57.93568 15.84742 67.05094
#
# Poissons Ratio (x) = 0.23870 0.09363
# Poissons Ratio (y) = 0.87264 0.64038
# Poissons Ratio (z) = 0.08090 0.15135
#
# Static dielectric constant tensor:
#      x y z
#    x 1.674500 0.000000 0.000000 
#    y 0.000000 1.693170 0.000000 
#    z 0.000000 0.000000 1.677240 
# 
# From -- ./inp_files/17068.got.cif
#   From: 2010.05.17/outbox.cif.g08.bks.cpg/sg20_9_cif.got.tgz:17068.got - 2010.06.03 22:52:26.
