data_PCOD9316769
_publ_section_title
;
Structure prediction by ZEFSAII (Michael W. Deem and Ramdas Pophale) SiO2 
 PCOD9316769
Probable space group: C 2 2 21
;
_chemical_formula_sum "Si O2"
_cell_formula_units_Z 52
_cell_length_a 13.177260
_cell_length_b 21.926816
_cell_length_c 7.460718
_cell_angle_alpha 90.000000
_cell_angle_beta 90.000000
_cell_angle_gamma 90.000000
_cell_volume 2155.665207
_symmetry_space_group_name_H-M "C 2 2 21"
_symmetry_group_IT_number 20
_symmetry_cell_setting 'orthorhombic'
loop_
_space_group_symop_operation_xyz
x,y,z
-x,-y,1/2+z
x,-y,-z
-x,y,1/2-z
1/2+x,1/2+y,z
1/2-x,1/2-y,1/2+z
1/2+x,1/2-y,-z
1/2-x,1/2+y,1/2-z
loop_
_atom_site_type_symbol
_atom_site_label
_atom_site_fract_x
_atom_site_fract_y
_atom_site_fract_z
Si Si1 0.596698 0.000000 0.500000
Si Si2 0.570930 0.597879 0.442371
Si Si3 0.690162 0.687115 0.076894
Si Si4 0.469539 0.273985 0.049322
Si Si5 0.334006 0.805291 0.222287
Si Si6 0.763002 0.941410 0.752793
Si Si7 0.000000 0.599306 0.750000
Si Si8 0.077649 0.000000 0.000000
O O1 0.662077 0.030493 0.335132
O O2 0.534149 0.055076 0.588872
O O3 0.500000 0.603564 0.250000
O O4 0.588997 0.662537 0.533906
O O5 0.682293 0.565500 0.443708
O O6 0.493526 0.555949 0.548292
O O7 0.719740 0.752170 0.162462
O O8 0.719844 0.629917 0.198068
O O9 0.574171 0.704512 0.042784
O O10 0.743453 0.668365 0.894084
O O11 0.500000 0.253892 0.250000
O O12 0.409803 0.226202 0.925652
O O13 0.405229 0.857189 0.306524
O O14 0.848403 0.981332 0.656557
#
# Coordination Sequence:
#
# PCOD9316769 Si02
#       8
#     4   8   8   8   8   8   4   4
#     4  11  26  52  71 100 138 204 257 306 354 443
#     4  10  18  37  62  95 137 185 216 284 355 425
#     4  12  22  45  71 103 139 183 234 298 378 432
#     4  12  23  39  65 107 146 179 226 292 373 446
#     4  12  25  47  76 107 143 187 237 310 375 440
#     4  10  20  40  71  92 138 183 230 285 357 424
#     4  12  26  52  78  98 146 196 254 308 368 430
#     4   9  18  30  59  98 126 180 219 260 346 429
#
# _framework density 24.122484
#
# number of rings (size 3 to 8) (size 9 to 14) (size 15 to 20)
#    0.000    0.923    7.692    0.923    0.000    1.846 
#    4.154    0.769    0.000    0.000    0.000    0.000 
#    0.000    0.000    0.000    0.000    0.000    0.000 
#
# Total GULP energy -144758.095899 kJ/mol
# GULP energy per Si atom -5567.619073 kJ/mol
# Density = 2.406758 g / cm^3
# Si number density = 24.122484 Si / 1000 Ang^3
#
#
#
# Elastic Constant Matrix: (Units=GPa)
#
#
# Indices 1 2 3 4 5 6 
#
# 1 61.3153 20.1651 12.2785 0.0000 0.0000 0.0000
# 2 20.1651 104.4102 10.6648 0.0000 0.0000 0.0000
# 3 12.2785 10.6648 38.7211 0.0000 0.0000 0.0000
# 4 0.0000 0.0000 0.0000 34.9868 0.0000 0.0000
# 5 0.0000 0.0000 0.0000 0.0000 28.9620 0.0000
# 6 0.0000 0.0000 0.0000 0.0000 0.0000 32.0319
#
#
#
# Elastic Compliance Matrix: (Units=1/GPa)
#
#
# Indices 1 2 3 4 5 6 
#
# 1 0.018300 -0.003027 -0.004969 0.000000 0.000000 0.000000
# 2 -0.003027 0.010355 -0.001892 0.000000 0.000000 0.000000
# 3 -0.004969 -0.001892 0.027923 0.000000 0.000000 0.000000
# 4 0.000000 0.000000 0.000000 0.028582 0.000000 0.000000
# 5 0.000000 0.000000 0.000000 0.000000 0.034528 0.000000
# 6 0.000000 0.000000 0.000000 0.000000 0.000000 0.031219
#
#
# Mechanical properties :
#
#
# Convention : Reuss Voigt Hill
#
# Bulk Modulus (GPa) = 27.17305 32.29594 29.73449
# Shear Modulus (GPa) = 27.32980 29.95202 28.64091
#
# Velocity S-wave (km/s) = 3.36960 3.52755 3.44948
# Velocity P-wave (km/s) = 5.14082 5.47803 5.31210
#
# Compressibility (1/GPa) = 0.03680117
#
# Stress axis : x y z
#
# Youngs Moduli (GPa) = 54.64587 96.56743 35.81324
#
# Poissons Ratio (x) = 0.29228 0.17796
# Poissons Ratio (y) = 0.16540 0.06777
# Poissons Ratio (z) = 0.27155 0.18274
#
# Static dielectric constant tensor:
#      x y z
#    x 2.107950 0.000000 0.000000 
#    y 0.000000 1.235810 0.000000 
#    z 0.000000 0.000000 1.967830 
# 
# From -- ./inp_files/8697.got.cif
#   From: 2010.05.17/outbox.cif.g08.bks.cpg/sg20_5_cif.got.tgz:8697.got - 2010.06.03 22:52:26.
