data_PCOD9316891
_publ_section_title
;
Structure prediction by ZEFSAII (Michael W. Deem and Ramdas Pophale) SiO2 
 PCOD9316891
Probable space group: C 2 2 21
;
_chemical_formula_sum "Si O2"
_cell_formula_units_Z 40
_cell_length_a 17.124983
_cell_length_b 9.386981
_cell_length_c 10.075101
_cell_angle_alpha 90.000000
_cell_angle_beta 90.000000
_cell_angle_gamma 90.000000
_cell_volume 1619.591528
_symmetry_space_group_name_H-M "C 2 2 21"
_symmetry_group_IT_number 20
_symmetry_cell_setting 'orthorhombic'
loop_
_space_group_symop_operation_xyz
x,y,z
-x,-y,1/2+z
x,-y,-z
-x,y,1/2-z
1/2+x,1/2+y,z
1/2-x,1/2-y,1/2+z
1/2+x,1/2-y,-z
1/2-x,1/2+y,1/2-z
loop_
_atom_site_type_symbol
_atom_site_label
_atom_site_fract_x
_atom_site_fract_y
_atom_site_fract_z
Si Si1 0.055688 0.500000 0.500000
Si Si2 0.502856 0.699691 0.465671
Si Si3 0.774590 0.133015 0.757260
Si Si4 0.000000 0.277272 0.750000
Si Si5 0.351015 0.074484 0.248908
Si Si6 0.130810 0.000000 0.500000
Si Si7 0.639022 0.500000 0.000000
O O1 0.010797 0.366699 0.433532
O O2 0.114392 0.427709 0.602104
O O3 0.520287 0.683569 0.624933
O O4 0.576002 0.608724 0.415072
O O5 0.420038 0.623614 0.447291
O O6 0.787735 0.300846 0.736710
O O7 0.817308 0.084067 0.892237
O O8 0.810559 0.059379 0.623927
O O9 0.687048 0.075996 0.776119
O O10 0.069005 0.371651 0.815298
#
# Coordination Sequence:
#
# PCOD9316891 Si02
#       7
#     4   8   8   4   8   4   4
#     4  10  21  44  70 102 147 196 240 296 367 435
#     4  10  20  39  74 101 143 190 245 291 361 432
#     4  12  26  45  72 106 149 188 246 304 370 428
#     4  10  18  48  66 102 142 194 226 304 358 430
#     4  11  25  45  74  99 148 192 238 299 367 432
#     4  11  22  42  70 105 144 196 238 297 364 427
#     4  11  23  46  74 107 143 190 248 301 357 442
#
# _framework density 24.697586999999999
#
# number of rings (size 3 to 8) (size 9 to 14) (size 15 to 20)
#    0.000    1.200    6.000    0.600    2.800    4.000 
#    7.200    1.000    0.000    0.000    0.000    0.000 
#    0.000    0.000    0.000    0.000    0.000    0.000 
#
# Total GULP energy -111561.975332 kJ/mol
# GULP energy per Si atom -5578.098767 kJ/mol
# Density = 2.464137 g / cm^3
# Si number density = 24.697587 Si / 1000 Ang^3
#
#
#
# Elastic Constant Matrix: (Units=GPa)
#
#
# Indices 1 2 3 4 5 6 
#
# 1 79.3932 22.9101 -24.5681 0.0000 0.0000 0.0000
# 2 22.9101 134.0444 -11.1119 0.0000 0.0000 0.0000
# 3 -24.5681 -11.1119 56.4670 0.0000 0.0000 0.0000
# 4 0.0000 0.0000 0.0000 26.0050 0.0000 0.0000
# 5 0.0000 0.0000 0.0000 0.0000 11.2295 0.0000
# 6 0.0000 0.0000 0.0000 0.0000 0.0000 129.3025
#
#
#
# Elastic Compliance Matrix: (Units=1/GPa)
#
#
# Indices 1 2 3 4 5 6 
#
# 1 0.015100 -0.002070 0.006162 0.000000 0.000000 0.000000
# 2 -0.002070 0.007868 0.000648 0.000000 0.000000 0.000000
# 3 0.006162 0.000648 0.020518 0.000000 0.000000 0.000000
# 4 0.000000 0.000000 0.000000 0.038454 0.000000 0.000000
# 5 0.000000 0.000000 0.000000 0.000000 0.089051 0.000000
# 6 0.000000 0.000000 0.000000 0.000000 0.000000 0.007734
#
#
# Mechanical properties :
#
#
# Convention : Reuss Voigt Hill
#
# Bulk Modulus (GPa) = 18.88010 27.15165 23.01587
# Shear Modulus (GPa) = 26.75235 52.15238 39.45236
#
# Velocity S-wave (km/s) = 3.29477 4.60024 4.00111
# Velocity P-wave (km/s) = 4.70479 6.26369 5.53935
#
# Compressibility (1/GPa) = 0.05296582
#
# Stress axis : x y z
#
# Youngs Moduli (GPa) = 66.22609 127.10225 48.73749
#
# Poissons Ratio (x) = 0.26309 -0.30034
# Poissons Ratio (y) = 0.13708 -0.03156
# Poissons Ratio (z) = -0.40811 -0.08232
#
# Static dielectric constant tensor:
#      x y z
#    x 2.091170 0.000000 0.000000 
#    y 0.000000 2.167580 0.000000 
#    z 0.000000 0.000000 1.345750 
# 
# From -- ./inp_files/12799.got.cif
#   From: 2010.05.17/outbox.cif.g08.bks.cpg/sg20_7_cif.got.tgz:12799.got - 2010.06.03 22:52:26.
