data_PCOD9316249
_publ_section_title
;
Structure prediction by ZEFSAII (Michael W. Deem and Ramdas Pophale) SiO2 
 PCOD9316249
Probable space group: C 2 2 21
;
_chemical_formula_sum "Si O2"
_cell_formula_units_Z 48
_cell_length_a 9.055758
_cell_length_b 10.694083
_cell_length_c 21.690276
_cell_angle_alpha 90.000000
_cell_angle_beta 90.000000
_cell_angle_gamma 90.000000
_cell_volume 2100.551999
_symmetry_space_group_name_H-M "C 2 2 21"
_symmetry_group_IT_number 20
_symmetry_cell_setting 'orthorhombic'
loop_
_space_group_symop_operation_xyz
x,y,z
-x,-y,1/2+z
x,-y,-z
-x,y,1/2-z
1/2+x,1/2+y,z
1/2-x,1/2-y,1/2+z
1/2+x,1/2-y,-z
1/2-x,1/2+y,1/2-z
loop_
_atom_site_type_symbol
_atom_site_label
_atom_site_fract_x
_atom_site_fract_y
_atom_site_fract_z
Si Si1 0.082920 0.254336 0.577254
Si Si2 0.318154 0.400221 0.370205
Si Si3 0.988777 0.341684 0.158592
Si Si4 0.661910 0.500000 0.000000
Si Si5 0.226990 0.149413 0.191724
Si Si6 0.887915 0.282386 0.473452
Si Si7 0.500000 0.067668 0.250000
O O1 0.973989 0.160148 0.612786
O O2 0.971531 0.332323 0.533786
O O3 0.177824 0.318013 0.630537
O O4 0.211227 0.202108 0.531695
O O5 0.262554 0.453656 0.436966
O O6 0.336473 0.512038 0.321775
O O7 0.185707 0.314261 0.345622
O O8 0.095349 0.247306 0.194925
O O9 0.047382 0.336142 0.089054
O O10 0.004004 0.475687 0.191198
O O11 0.585401 0.630201 0.022059
O O12 0.349923 0.145301 0.244617
#
# Coordination Sequence:
#
# PCOD9316249 Si02
#       7
#     8   8   8   4   8   8   4
#     4  10  20  36  65  93 126 170 196 248 317 381
#     4  10  20  36  63  90 128 165 197 242 310 376
#     4  10  21  40  66  92 118 166 213 256 311 375
#     4  10  16  32  62  86 126 168 178 236 320 370
#     4  10  22  44  64  87 128 165 207 267 315 363
#     4  10  19  35  62  92 127 160 202 248 315 380
#     4  10  24  42  66  88 118 168 222 264 318 360
#
# _framework density 22.851134999999999
#
# number of rings (size 3 to 8) (size 9 to 14) (size 15 to 20)
#    0.000    2.000    3.333    2.000    0.000    2.667 
#    0.000   10.000   29.333    0.000    0.000    0.000 
#    0.000    0.000    0.000    0.000    0.000    0.000 
#
# Total GULP energy -133793.011979 kJ/mol
# GULP energy per Si atom -5574.708832 kJ/mol
# Density = 2.279913 g / cm^3
# Si number density = 22.851135 Si / 1000 Ang^3
#
#
#
# Elastic Constant Matrix: (Units=GPa)
#
#
# Indices 1 2 3 4 5 6 
#
# 1 151.1881 53.6236 32.1284 0.0000 0.0000 0.0000
# 2 53.6236 51.5658 15.9303 0.0000 0.0000 0.0000
# 3 32.1284 15.9303 71.1236 0.0000 0.0000 0.0000
# 4 0.0000 0.0000 0.0000 30.2448 0.0000 0.0000
# 5 0.0000 0.0000 0.0000 0.0000 59.3871 0.0000
# 6 0.0000 0.0000 0.0000 0.0000 0.0000 36.4143
#
#
#
# Elastic Compliance Matrix: (Units=1/GPa)
#
#
# Indices 1 2 3 4 5 6 
#
# 1 0.010897 -0.010541 -0.002562 0.000000 0.000000 0.000000
# 2 -0.010541 0.031030 -0.002189 0.000000 0.000000 0.000000
# 3 -0.002562 -0.002189 0.015707 0.000000 0.000000 0.000000
# 4 0.000000 0.000000 0.000000 0.033063 0.000000 0.000000
# 5 0.000000 0.000000 0.000000 0.000000 0.016839 0.000000
# 6 0.000000 0.000000 0.000000 0.000000 0.000000 0.027462
#
#
# Mechanical properties :
#
#
# Convention : Reuss Voigt Hill
#
# Bulk Modulus (GPa) = 36.96470 53.02689 44.99580
# Shear Modulus (GPa) = 28.63713 36.68892 32.66302
#
# Velocity S-wave (km/s) = 3.54390 4.01129 3.78482
# Velocity P-wave (km/s) = 5.74083 6.68653 6.23164
#
# Compressibility (1/GPa) = 0.02705283
#
# Stress axis : x y z
#
# Youngs Moduli (GPa) = 91.76619 32.22663 63.66420
#
# Poissons Ratio (x) = 0.33969 0.16309
# Poissons Ratio (y) = 0.96729 0.13934
# Poissons Ratio (z) = 0.23507 0.07053
#
# Static dielectric constant tensor:
#      x y z
#    x 1.887650 0.000000 0.000000 
#    y 0.000000 1.892470 0.000000 
#    z 0.000000 0.000000 1.897240 
# 
# From -- ./inp_files/30088.got.cif
#   From: 2010.05.17/outbox.cif.g08.bks.cpg/sg20_16_cif.got.tgz:30088.got - 2010.06.03 22:52:26.
