data_PCOD9316321
_publ_section_title
;
Structure prediction by ZEFSAII (Michael W. Deem and Ramdas Pophale) SiO2 
 PCOD9316321
Probable space group: C 2 2 21
;
_chemical_formula_sum "Si O2"
_cell_formula_units_Z 60
_cell_length_a 7.081086
_cell_length_b 22.281246
_cell_length_c 13.814779
_cell_angle_alpha 90.000000
_cell_angle_beta 90.000000
_cell_angle_gamma 90.000000
_cell_volume 2179.632547
_symmetry_space_group_name_H-M "C 2 2 21"
_symmetry_group_IT_number 20
_symmetry_cell_setting 'orthorhombic'
loop_
_space_group_symop_operation_xyz
x,y,z
-x,-y,1/2+z
x,-y,-z
-x,y,1/2-z
1/2+x,1/2+y,z
1/2-x,1/2-y,1/2+z
1/2+x,1/2-y,-z
1/2-x,1/2+y,1/2-z
loop_
_atom_site_type_symbol
_atom_site_label
_atom_site_fract_x
_atom_site_fract_y
_atom_site_fract_z
Si Si1 0.133028 0.150260 0.115694
Si Si2 0.534493 0.106575 0.137755
Si Si3 0.318670 0.332181 0.406774
Si Si4 0.367041 0.850564 0.444639
Si Si5 0.000000 0.057711 0.250000
Si Si6 0.852619 0.968765 0.404447
Si Si7 0.284662 0.769699 0.278667
Si Si8 0.937984 0.470210 0.358951
O O1 0.316446 0.107743 0.100784
O O2 0.201123 0.201051 0.189789
O O3 0.976933 0.107539 0.164093
O O4 0.094627 0.181347 0.012808
O O5 0.500000 0.121732 0.250000
O O6 0.623213 0.039456 0.138157
O O7 0.640999 0.148775 0.061045
O O8 0.089903 0.336756 0.423596
O O9 0.395718 0.399062 0.384877
O O10 0.335819 0.287752 0.315502
O O11 0.247401 0.806451 0.377254
O O12 0.317675 0.917603 0.405949
O O13 0.879025 0.009283 0.309540
O O14 0.629332 0.967294 0.418232
O O15 0.940880 0.000000 0.500000
O O16 0.500000 0.785944 0.250000
O O17 0.000000 0.453632 0.250000
#
# Coordination Sequence:
#
# PCOD9316321 Si02
#       8
#     8   8   8   8   4   8   8   8
#     4  11  21  38  61  90 120 166 209 253 309 388
#     4  10  20  33  55  84 119 155 193 251 317 366
#     4   9  19  36  60  85 112 158 209 253 309 365
#     4   9  17  32  54  85 110 147 198 243 299 363
#     4  12  22  36  66  90 122 164 222 254 320 396
#     4  11  19  36  64  86 118 167 208 260 317 383
#     4  10  20  35  61  90 120 154 205 257 306 379
#     4  10  17  30  58  90 116 144 193 253 312 364
#
# _framework density 27.527574000000001
#
# number of rings (size 3 to 8) (size 9 to 14) (size 15 to 20)
#    0.000    1.867    3.333    4.000    0.000    1.067 
#    0.000    0.000   19.067    0.000    0.000    0.000 
#    0.000    0.000    0.000    0.000    0.000    0.000 
#
# Total GULP energy -167551.208731 kJ/mol
# GULP energy per Si atom -5585.040291 kJ/mol
# Density = 2.746492 g / cm^3
# Si number density = 27.527574 Si / 1000 Ang^3
#
#
#
# Elastic Constant Matrix: (Units=GPa)
#
#
# Indices 1 2 3 4 5 6 
#
# 1 67.7188 12.2020 32.7350 0.0000 0.0000 0.0000
# 2 12.2020 119.2228 68.7363 0.0000 0.0000 0.0000
# 3 32.7350 68.7363 180.4178 0.0000 0.0000 0.0000
# 4 0.0000 0.0000 0.0000 51.2728 0.0000 0.0000
# 5 0.0000 0.0000 0.0000 0.0000 31.4301 0.0000
# 6 0.0000 0.0000 0.0000 0.0000 0.0000 11.7000
#
#
#
# Elastic Compliance Matrix: (Units=1/GPa)
#
#
# Indices 1 2 3 4 5 6 
#
# 1 0.016187 0.000047 -0.002955 0.000000 0.000000 0.000000
# 2 0.000047 0.010749 -0.004104 0.000000 0.000000 0.000000
# 3 -0.002955 -0.004104 0.007642 0.000000 0.000000 0.000000
# 4 0.000000 0.000000 0.000000 0.019504 0.000000 0.000000
# 5 0.000000 0.000000 0.000000 0.000000 0.031817 0.000000
# 6 0.000000 0.000000 0.000000 0.000000 0.000000 0.085470
#
#
# Mechanical properties :
#
#
# Convention : Reuss Voigt Hill
#
# Bulk Modulus (GPa) = 48.65054 66.07844 57.36449
# Shear Modulus (GPa) = 26.00882 35.79300 30.90091
#
# Velocity S-wave (km/s) = 3.07714 3.60982 3.35407
# Velocity P-wave (km/s) = 5.50789 6.43669 5.99032
#
# Compressibility (1/GPa) = 0.02055476
#
# Stress axis : x y z
#
# Youngs Moduli (GPa) = 61.77859 93.03423 130.85208
#
# Poissons Ratio (x) = -0.00436 0.38664
# Poissons Ratio (y) = -0.00290 0.53696
# Poissons Ratio (z) = 0.18254 0.38178
#
# Static dielectric constant tensor:
#      x y z
#    x 2.237160 0.000000 0.000000 
#    y 0.000000 2.117790 0.000000 
#    z 0.000000 0.000000 2.218360 
# 
# From -- ./inp_files/20342.got.cif
#   From: 2010.05.17/outbox.cif.g08.bks.cpg/sg20_11_cif.got.tgz:20342.got - 2010.06.03 22:52:26.
