data_PCOD9316320
_publ_section_title
;
Structure prediction by ZEFSAII (Michael W. Deem and Ramdas Pophale) SiO2 
 PCOD9316320
Probable space group: C 2 2 21
;
_chemical_formula_sum "Si O2"
_cell_formula_units_Z 56
_cell_length_a 14.105356
_cell_length_b 14.880966
_cell_length_c 14.045714
_cell_angle_alpha 90.000000
_cell_angle_beta 90.000000
_cell_angle_gamma 90.000000
_cell_volume 2948.213952
_symmetry_space_group_name_H-M "C 2 2 21"
_symmetry_group_IT_number 20
_symmetry_cell_setting 'orthorhombic'
loop_
_space_group_symop_operation_xyz
x,y,z
-x,-y,1/2+z
x,-y,-z
-x,y,1/2-z
1/2+x,1/2+y,z
1/2-x,1/2-y,1/2+z
1/2+x,1/2-y,-z
1/2-x,1/2+y,1/2-z
loop_
_atom_site_type_symbol
_atom_site_label
_atom_site_fract_x
_atom_site_fract_y
_atom_site_fract_z
Si Si1 0.105266 0.219038 0.545563
Si Si2 0.246626 0.315061 0.880106
Si Si3 0.230487 0.298935 0.188131
Si Si4 0.659280 0.448889 0.911990
Si Si5 0.406235 0.250367 0.527975
Si Si6 0.040834 0.032114 0.605434
Si Si7 0.279158 0.509379 0.214807
O O1 0.166427 0.187954 0.454520
O O2 0.187020 0.246692 0.621248
O O3 0.055545 0.137986 0.602731
O O4 0.014826 0.269974 0.500677
O O5 0.271768 0.256114 0.786654
O O6 0.227008 0.418266 0.851421
O O7 0.158518 0.274662 0.937778
O O8 0.136148 0.296188 0.122783
O O9 0.251444 0.404767 0.206590
O O10 0.614831 0.354945 0.946239
O O11 0.567596 0.507368 0.883164
O O12 0.725206 0.451293 0.820766
O O13 0.706368 0.500000 0.000000
O O14 0.069533 0.000000 0.500000
O O15 0.111684 0.987373 0.679147
#
# Coordination Sequence:
#
# PCOD9316320 Si02
#       7
#     8   8   8   8   8   8   8
#     4  10  21  37  60  86 126 150 191 255 298 356
#     4  11  22  39  60  87 121 158 200 245 303 353
#     4  10  24  37  58  92 117 158 207 235 307 361
#     4  11  19  32  54  86 122 145 180 235 315 368
#     4  11  21  36  58  88 119 156 199 239 295 367
#     4  10  17  30  55  91 111 143 180 235 327 373
#     4  11  21  36  57  83 121 154 188 252 295 360
#
# _framework density 18.994551999999999
#
# number of rings (size 3 to 8) (size 9 to 14) (size 15 to 20)
#    0.000    1.429    5.714    1.286    0.000    1.143 
#    0.000    0.000    0.000    5.143    0.000    0.000 
#    0.000    0.000    0.000    0.000    0.000    0.000 
#
# Total GULP energy -155944.035169 kJ/mol
# GULP energy per Si atom -5569.429827 kJ/mol
# Density = 1.895132 g / cm^3
# Si number density = 18.994552 Si / 1000 Ang^3
#
#
#
# Elastic Constant Matrix: (Units=GPa)
#
#
# Indices 1 2 3 4 5 6 
#
# 1 57.6197 11.8046 8.6161 0.0000 0.0000 0.0000
# 2 11.8046 51.4331 16.5453 0.0000 0.0000 0.0000
# 3 8.6161 16.5453 104.9968 0.0000 0.0000 0.0000
# 4 0.0000 0.0000 0.0000 21.3445 0.0000 0.0000
# 5 0.0000 0.0000 0.0000 0.0000 15.1102 0.0000
# 6 0.0000 0.0000 0.0000 0.0000 0.0000 22.4854
#
#
#
# Elastic Compliance Matrix: (Units=1/GPa)
#
#
# Indices 1 2 3 4 5 6 
#
# 1 0.018289 -0.003913 -0.000884 0.000000 0.000000 0.000000
# 2 -0.003913 0.021318 -0.003038 0.000000 0.000000 0.000000
# 3 -0.000884 -0.003038 0.010075 0.000000 0.000000 0.000000
# 4 0.000000 0.000000 0.000000 0.046851 0.000000 0.000000
# 5 0.000000 0.000000 0.000000 0.000000 0.066181 0.000000
# 6 0.000000 0.000000 0.000000 0.000000 0.000000 0.044473
#
#
# Mechanical properties :
#
#
# Convention : Reuss Voigt Hill
#
# Bulk Modulus (GPa) = 29.40169 31.99794 30.69981
# Shear Modulus (GPa) = 21.34968 23.59357 22.47163
#
# Velocity S-wave (km/s) = 3.35623 3.52820 3.44329
# Velocity P-wave (km/s) = 5.52555 5.78619 5.65737
#
# Compressibility (1/GPa) = 0.03401165
#
# Stress axis : x y z
#
# Youngs Moduli (GPa) = 54.67745 46.90824 99.25155
#
# Poissons Ratio (x) = 0.18356 0.08776
# Poissons Ratio (y) = 0.21396 0.30155
# Poissons Ratio (z) = 0.04834 0.14252
#
# Static dielectric constant tensor:
#      x y z
#    x 1.682740 0.000000 0.000000 
#    y 0.000000 1.703730 0.000000 
#    z 0.000000 0.000000 1.700630 
# 
# From -- ./inp_files/20861.got.cif
#   From: 2010.05.17/outbox.cif.g08.bks.cpg/sg20_11_cif.got.tgz:20861.got - 2010.06.03 22:52:26.
