data_PCOD9316698
_publ_section_title
;
Structure prediction by ZEFSAII (Michael W. Deem and Ramdas Pophale) SiO2 
 PCOD9316698
Probable space group: C 2 2 21
;
_chemical_formula_sum "Si O2"
_cell_formula_units_Z 44
_cell_length_a 31.035445
_cell_length_b 7.658362
_cell_length_c 8.095005
_cell_angle_alpha 90.000000
_cell_angle_beta 90.000000
_cell_angle_gamma 90.000000
_cell_volume 1924.026233
_symmetry_space_group_name_H-M "C 2 2 21"
_symmetry_group_IT_number 20
_symmetry_cell_setting 'orthorhombic'
loop_
_space_group_symop_operation_xyz
x,y,z
-x,-y,1/2+z
x,-y,-z
-x,y,1/2-z
1/2+x,1/2+y,z
1/2-x,1/2-y,1/2+z
1/2+x,1/2-y,-z
1/2-x,1/2+y,1/2-z
loop_
_atom_site_type_symbol
_atom_site_label
_atom_site_fract_x
_atom_site_fract_y
_atom_site_fract_z
Si Si1 0.582994 0.220562 0.088103
Si Si2 0.602547 0.401321 0.765284
Si Si3 0.697547 0.526583 0.695919
Si Si4 0.000000 0.741666 0.250000
Si Si5 0.710179 0.061400 0.313908
Si Si6 0.338144 0.000000 0.500000
Si Si7 0.955115 0.000000 0.000000
O O1 0.587613 0.407684 0.174524
O O2 0.540649 0.139952 0.171836
O O3 0.583508 0.264768 0.894263
O O4 0.627545 0.119663 0.098318
O O5 0.653746 0.426957 0.749898
O O6 0.578024 0.374308 0.595744
O O7 0.703221 0.500000 0.500000
O O8 0.697233 0.736641 0.715964
O O9 0.738302 0.454613 0.795612
O O10 0.015282 0.873351 0.393487
O O11 0.697499 0.000000 0.500000
O O12 0.691866 0.950350 0.156512
#
# Coordination Sequence:
#
# PCOD9316698 Si02
#       7
#     8   8   8   4   8   4   4
#     4  10  23  41  67  92 135 178 223 296 346 430
#     4  10  21  37  67  98 128 176 228 283 350 413
#     4  12  25  45  68 104 144 188 244 296 357 425
#     4  10  20  40  62 100 132 168 232 288 358 422
#     4  12  29  45  71 103 145 191 244 297 351 430
#     4  12  26  49  66 102 146 188 230 291 366 420
#     4  10  18  35  64  96 128 160 220 293 338 410
#
# _framework density 22.86871
#
# number of rings (size 3 to 8) (size 9 to 14) (size 15 to 20)
#    0.000    1.091    3.636    3.273    7.636    0.000 
#    0.000    1.818    0.000    0.000    0.000    0.000 
#    0.000    0.000    0.000    0.000    0.000    0.000 
#
# Total GULP energy -122672.184515 kJ/mol
# GULP energy per Si atom -5576.008387 kJ/mol
# Density = 2.281666 g / cm^3
# Si number density = 22.868710 Si / 1000 Ang^3
#
#
#
# Elastic Constant Matrix: (Units=GPa)
#
#
# Indices 1 2 3 4 5 6 
#
# 1 149.1447 23.4790 70.3921 0.0000 0.0000 0.0000
# 2 23.4790 60.0598 6.8175 0.0000 0.0000 0.0000
# 3 70.3921 6.8175 112.0840 0.0000 0.0000 0.0000
# 4 0.0000 0.0000 0.0000 14.8820 0.0000 0.0000
# 5 0.0000 0.0000 0.0000 0.0000 56.2156 0.0000
# 6 0.0000 0.0000 0.0000 0.0000 0.0000 10.3653
#
#
#
# Elastic Compliance Matrix: (Units=1/GPa)
#
#
# Indices 1 2 3 4 5 6 
#
# 1 0.010126 -0.003259 -0.006161 0.000000 0.000000 0.000000
# 2 -0.003259 0.017815 0.000963 0.000000 0.000000 0.000000
# 3 -0.006161 0.000963 0.012733 0.000000 0.000000 0.000000
# 4 0.000000 0.000000 0.000000 0.067195 0.000000 0.000000
# 5 0.000000 0.000000 0.000000 0.000000 0.017789 0.000000
# 6 0.000000 0.000000 0.000000 0.000000 0.000000 0.096476
#
#
# Mechanical properties :
#
#
# Convention : Reuss Voigt Hill
#
# Bulk Modulus (GPa) = 42.08871 58.07397 50.08134
# Shear Modulus (GPa) = 20.24564 30.99923 25.62243
#
# Velocity S-wave (km/s) = 2.97862 3.68575 3.35089
# Velocity P-wave (km/s) = 5.50219 6.60020 6.07605
#
# Compressibility (1/GPa) = 0.02375934
#
# Stress axis : x y z
#
# Youngs Moduli (GPa) = 98.75746 56.13310 78.53831
#
# Poissons Ratio (x) = 0.18294 0.48388
# Poissons Ratio (y) = 0.32186 -0.07565
# Poissons Ratio (z) = 0.60845 -0.05407
#
# Static dielectric constant tensor:
#      x y z
#    x 1.918770 0.000000 0.000000 
#    y 0.000000 1.844830 0.000000 
#    z 0.000000 0.000000 1.971810 
# 
# From -- ./inp_files/11394.got.cif
#   From: 2010.05.17/outbox.cif.g08.bks.cpg/sg20_6_cif.got.tgz:11394.got - 2010.06.03 22:52:26.
