data_PCOD9316108
_publ_section_title
;
Structure prediction by ZEFSAII (Michael W. Deem and Ramdas Pophale) SiO2 
 PCOD9316108
Probable space group: P 21 21 21
;
_chemical_formula_sum "Si O2"
_cell_formula_units_Z 24
_cell_length_a 13.402399
_cell_length_b 5.150228
_cell_length_c 12.880733
_cell_angle_alpha 90.000000
_cell_angle_beta 90.000000
_cell_angle_gamma 90.000000
_cell_volume 889.097884
_symmetry_space_group_name_H-M "P 21 21 21"
_symmetry_group_IT_number 19
_symmetry_cell_setting 'orthorhombic'
loop_
_space_group_symop_operation_xyz
x,y,z
1/2-x,-y,1/2+z
1/2+x,1/2-y,-z
-x,1/2+y,1/2-z
loop_
_atom_site_type_symbol
_atom_site_label
_atom_site_fract_x
_atom_site_fract_y
_atom_site_fract_z
Si Si1 0.229086 0.432869 0.090756
Si Si2 0.981466 0.192163 0.411283
Si Si3 0.381506 0.961937 0.723794
Si Si4 0.400605 0.853612 0.115377
Si Si5 0.268438 0.738204 0.363577
Si Si6 0.888995 0.272278 0.708558
O O1 0.119201 0.542074 0.062906
O O2 0.198878 0.250200 0.188215
O O3 0.303281 0.671573 0.116332
O O4 0.386961 0.132201 0.170896
O O5 0.937189 0.472895 0.383894
O O6 0.035595 0.127357 0.303930
O O7 0.061525 0.146624 0.498721
O O8 0.323428 0.191661 0.785923
O O9 0.494816 0.736313 0.177379
O O10 0.264580 0.301424 0.982807
O O11 0.333785 0.490881 0.326908
O O12 0.337671 0.991898 0.353861
#
# Coordination Sequence:
#
# PCOD9316108 Si02
#       6
#     4   4   4   4   4   4
#     4  12  30  59  89 136 181 243 314 374 467 557
#     4  12  28  57  86 135 181 242 303 383 465 553
#     4  12  30  54  95 132 186 243 306 383 469 552
#     4  12  30  54  95 130 181 246 302 387 457 553
#     4  12  31  56  93 129 184 241 304 385 456 559
#     4  12  29  58  84 132 181 231 305 380 462 532
#
# _framework density 26.993653999999999
#
# number of rings (size 3 to 8) (size 9 to 14) (size 15 to 20)
#    0.000    0.000    3.333    3.000   11.667    2.667 
#    6.000    0.000    0.000    0.000    0.000    0.000 
#    0.000    0.000    0.000    0.000    0.000    0.000 
#
# Total GULP energy -134561.113232 kJ/mol
# GULP energy per Si atom -5606.713051 kJ/mol
# Density = 2.693222 g / cm^3
# Si number density = 26.993654 Si / 1000 Ang^3
#
#
#
# Elastic Constant Matrix: (Units=GPa)
#
#
# Indices 1 2 3 4 5 6 
#
# 1 150.9424 53.9166 21.8089 0.0000 0.0000 0.0000
# 2 53.9166 143.9133 24.1467 0.0000 0.0000 0.0000
# 3 21.8089 24.1467 139.6621 0.0000 0.0000 0.0000
# 4 0.0000 0.0000 0.0000 37.3502 0.0000 0.0000
# 5 0.0000 0.0000 0.0000 0.0000 61.1934 0.0000
# 6 0.0000 0.0000 0.0000 0.0000 0.0000 56.4682
#
#
#
# Elastic Compliance Matrix: (Units=1/GPa)
#
#
# Indices 1 2 3 4 5 6 
#
# 1 0.007720 -0.002770 -0.000726 0.000000 0.000000 0.000000
# 2 -0.002770 0.008150 -0.000977 0.000000 0.000000 0.000000
# 3 -0.000726 -0.000977 0.007442 0.000000 0.000000 0.000000
# 4 0.000000 0.000000 0.000000 0.026774 0.000000 0.000000
# 5 0.000000 0.000000 0.000000 0.000000 0.016342 0.000000
# 6 0.000000 0.000000 0.000000 0.000000 0.000000 0.017709
#
#
# Mechanical properties :
#
#
# Convention : Reuss Voigt Hill
#
# Bulk Modulus (GPa) = 69.60987 70.47357 70.04172
# Shear Modulus (GPa) = 51.08730 53.31207 52.19968
#
# Velocity S-wave (km/s) = 4.35508 4.44890 4.40224
# Velocity P-wave (km/s) = 7.15070 7.24944 7.20024
#
# Compressibility (1/GPa) = 0.01436578
#
# Stress axis : x y z
#
# Youngs Moduli (GPa) = 129.54165 122.69451 134.36484
#
# Poissons Ratio (x) = 0.33989 0.09761
# Poissons Ratio (y) = 0.35886 0.13122
# Poissons Ratio (z) = 0.09411 0.11982
#
# Static dielectric constant tensor:
#      x y z
#    x 2.096640 0.000000 0.000000 
#    y 0.000000 2.198960 0.000000 
#    z 0.000000 0.000000 2.151580 
# 
# From -- ./inp_files/6049.got.cif
#   From: 2010.05.17/outbox.cif.g08.bks.cpg/sg19_4_cif.got.tgz:6049.got - 2010.06.03 22:46:19.
