data_PCOD9316738
_publ_section_title
;
Structure prediction by ZEFSAII (Michael W. Deem and Ramdas Pophale) SiO2 
 PCOD9316738
Probable space group: C 2 2 21
;
_chemical_formula_sum "Si O2"
_cell_formula_units_Z 48
_cell_length_a 19.328348
_cell_length_b 7.348353
_cell_length_c 14.119843
_cell_angle_alpha 90.000000
_cell_angle_beta 90.000000
_cell_angle_gamma 90.000000
_cell_volume 2005.462820
_symmetry_space_group_name_H-M "C 2 2 21"
_symmetry_group_IT_number 20
_symmetry_cell_setting 'orthorhombic'
loop_
_space_group_symop_operation_xyz
x,y,z
-x,-y,1/2+z
x,-y,-z
-x,y,1/2-z
1/2+x,1/2+y,z
1/2-x,1/2-y,1/2+z
1/2+x,1/2-y,-z
1/2-x,1/2+y,1/2-z
loop_
_atom_site_type_symbol
_atom_site_label
_atom_site_fract_x
_atom_site_fract_y
_atom_site_fract_z
Si Si1 0.500000 0.425304 0.250000
Si Si2 0.251140 0.134233 0.315732
Si Si3 0.635193 0.883200 0.252393
Si Si4 0.816765 0.000000 0.000000
Si Si5 0.873272 0.846784 0.371188
Si Si6 0.414391 0.249382 0.560196
Si Si7 0.063224 0.789329 0.593762
O O1 0.436051 0.316145 0.297000
O O2 0.462962 0.554689 0.169756
O O3 0.180404 0.198491 0.268330
O O4 0.230654 0.005803 0.405479
O O5 0.294424 0.315828 0.341667
O O6 0.308486 0.038804 0.252068
O O7 0.597590 0.870850 0.152291
O O8 0.584154 0.879747 0.340528
O O9 0.872081 0.842167 0.972360
O O10 0.877472 0.714054 0.462024
O O11 0.889175 0.050821 0.405883
O O12 0.494989 0.255328 0.534486
#
# Coordination Sequence:
#
# PCOD9316738 Si02
#       7
#     4   8   8   4   8   8   8
#     4  10  18  36  62  92 112 148 202 250 304 366
#     4  11  24  38  58  89 122 167 203 248 306 366
#     4  11  21  37  59  81 122 155 204 247 301 366
#     4  10  22  36  58  86 116 156 202 240 290 366
#     4  10  20  36  58  91 117 152 201 246 307 359
#     4  10  19  37  64  88 119 153 200 259 300 368
#     4  10  18  36  63  89 111 157 200 249 305 360
#
# _framework density 23.934623999999999
#
# number of rings (size 3 to 8) (size 9 to 14) (size 15 to 20)
#    0.000    1.667    3.333    4.000    2.333    0.000 
#    3.000    0.000    0.000    0.000    0.000    0.000 
#    0.000    0.000    0.000    0.000    0.000    0.000 
#
# Total GULP energy -133854.298525 kJ/mol
# GULP energy per Si atom -5577.262439 kJ/mol
# Density = 2.388015 g / cm^3
# Si number density = 23.934624 Si / 1000 Ang^3
#
#
#
# Elastic Constant Matrix: (Units=GPa)
#
#
# Indices 1 2 3 4 5 6 
#
# 1 116.3777 2.4947 16.9141 0.0000 0.0000 0.0000
# 2 2.4947 34.2195 6.4564 0.0000 0.0000 0.0000
# 3 16.9141 6.4564 35.5014 0.0000 0.0000 0.0000
# 4 0.0000 0.0000 0.0000 17.7535 0.0000 0.0000
# 5 0.0000 0.0000 0.0000 0.0000 42.9560 0.0000
# 6 0.0000 0.0000 0.0000 0.0000 0.0000 22.0148
#
#
#
# Elastic Compliance Matrix: (Units=1/GPa)
#
#
# Indices 1 2 3 4 5 6 
#
# 1 0.009233 0.000162 -0.004428 0.000000 0.000000 0.000000
# 2 0.000162 0.030264 -0.005581 0.000000 0.000000 0.000000
# 3 -0.004428 -0.005581 0.031293 0.000000 0.000000 0.000000
# 4 0.000000 0.000000 0.000000 0.056327 0.000000 0.000000
# 5 0.000000 0.000000 0.000000 0.000000 0.023280 0.000000
# 6 0.000000 0.000000 0.000000 0.000000 0.000000 0.045424
#
#
# Mechanical properties :
#
#
# Convention : Reuss Voigt Hill
#
# Bulk Modulus (GPa) = 19.57128 26.42546 22.99837
# Shear Modulus (GPa) = 21.50103 27.22707 24.36405
#
# Velocity S-wave (km/s) = 3.00046 3.37643 3.19398
# Velocity P-wave (km/s) = 4.49426 5.12494 4.81993
#
# Compressibility (1/GPa) = 0.05109528
#
# Stress axis : x y z
#
# Youngs Moduli (GPa) = 108.30903 33.04220 31.95623
#
# Poissons Ratio (x) = -0.00537 0.14151
# Poissons Ratio (y) = -0.01759 0.17836
# Poissons Ratio (z) = 0.47963 0.18442
#
# Static dielectric constant tensor:
#      x y z
#    x 1.857160 0.000000 0.000000 
#    y 0.000000 2.007930 0.000000 
#    z 0.000000 0.000000 1.948680 
# 
# From -- ./inp_files/21339.got.cif
#   From: 2010.05.17/outbox.cif.g08.bks.cpg/sg20_11_cif.got.tgz:21339.got - 2010.06.03 22:52:26.
