data_PCOD9316226
_publ_section_title
;
Structure prediction by ZEFSAII (Michael W. Deem and Ramdas Pophale) SiO2 
 PCOD9316226
Probable space group: C 2 2 21
;
_chemical_formula_sum "Si O2"
_cell_formula_units_Z 48
_cell_length_a 15.474985
_cell_length_b 7.084733
_cell_length_c 18.837939
_cell_angle_alpha 90.000000
_cell_angle_beta 90.000000
_cell_angle_gamma 90.000000
_cell_volume 2065.318859
_symmetry_space_group_name_H-M "C 2 2 21"
_symmetry_group_IT_number 20
_symmetry_cell_setting 'orthorhombic'
loop_
_space_group_symop_operation_xyz
x,y,z
-x,-y,1/2+z
x,-y,-z
-x,y,1/2-z
1/2+x,1/2+y,z
1/2-x,1/2-y,1/2+z
1/2+x,1/2-y,-z
1/2-x,1/2+y,1/2-z
loop_
_atom_site_type_symbol
_atom_site_label
_atom_site_fract_x
_atom_site_fract_y
_atom_site_fract_z
Si Si1 0.654661 0.026979 0.267632
Si Si2 0.764036 0.660469 0.100938
Si Si3 0.908924 0.500000 0.500000
Si Si4 0.248962 0.764990 0.553456
Si Si5 0.081937 0.356298 0.142769
Si Si6 0.000000 0.930785 0.750000
Si Si7 0.166078 0.906684 0.688528
O O1 0.663585 0.152899 0.338117
O O2 0.749530 0.046017 0.233585
O O3 0.591435 0.029247 0.199163
O O4 0.643156 0.811573 0.293622
O O5 0.739420 0.440602 0.088324
O O6 0.678066 0.773173 0.125445
O O7 0.792196 0.735376 0.024022
O O8 0.842865 0.352483 0.537131
O O9 0.957799 0.588028 0.566919
O O10 0.194422 0.896561 0.606598
O O11 0.031220 0.193118 0.182778
O O12 0.913865 0.024634 0.780287
#
# Coordination Sequence:
#
# PCOD9316226 Si02
#       7
#     8   8   4   8   8   4   8
#     4  10  16  30  51  80  99 137 188 224 258 312
#     4   9  17  31  49  80 104 138 177 232 263 309
#     4  10  18  32  56  82 104 138 186 232 262 316
#     4   9  18  30  53  81 105 134 186 229 262 310
#     4  10  19  32  52  78 106 143 180 226 274 329
#     4  10  20  34  50  78 116 146 166 216 294 330
#     4  10  19  32  54  79 106 139 180 225 268 321
#
# _framework density 23.240964000000002
#
# number of rings (size 3 to 8) (size 9 to 14) (size 15 to 20)
#    0.000    2.333    5.000    0.000    0.000    0.000 
#    0.000    5.000    0.000   13.000    0.000    0.000 
#    0.000    0.000    0.000    0.000    0.000    0.000 
#
# Total GULP energy -133815.346120 kJ/mol
# GULP energy per Si atom -5575.639422 kJ/mol
# Density = 2.318807 g / cm^3
# Si number density = 23.240964 Si / 1000 Ang^3
#
#
#
# Elastic Constant Matrix: (Units=GPa)
#
#
# Indices 1 2 3 4 5 6 
#
# 1 10.3614 5.2657 12.3676 0.0000 0.0000 0.0000
# 2 5.2657 51.0424 32.7070 0.0000 0.0000 0.0000
# 3 12.3676 32.7070 156.4381 0.0000 0.0000 0.0000
# 4 0.0000 0.0000 0.0000 45.2220 0.0000 0.0000
# 5 0.0000 0.0000 0.0000 0.0000 26.4566 0.0000
# 6 0.0000 0.0000 0.0000 0.0000 0.0000 4.3806
#
#
#
# Elastic Compliance Matrix: (Units=1/GPa)
#
#
# Indices 1 2 3 4 5 6 
#
# 1 0.108446 -0.006575 -0.007199 0.000000 0.000000 0.000000
# 2 -0.006575 0.023021 -0.004293 0.000000 0.000000 0.000000
# 3 -0.007199 -0.004293 0.007859 0.000000 0.000000 0.000000
# 4 0.000000 0.000000 0.000000 0.022113 0.000000 0.000000
# 5 0.000000 0.000000 0.000000 0.000000 0.037798 0.000000
# 6 0.000000 0.000000 0.000000 0.000000 0.000000 0.228281
#
#
# Mechanical properties :
#
#
# Convention : Reuss Voigt Hill
#
# Bulk Modulus (GPa) = 9.69069 35.39141 22.54105
# Shear Modulus (GPa) = 10.03918 26.37861 18.20890
#
# Velocity S-wave (km/s) = 2.08062 3.37264 2.80211
# Velocity P-wave (km/s) = 3.15447 5.51610 4.49322
#
# Compressibility (1/GPa) = 0.10319180
#
# Stress axis : x y z
#
# Youngs Moduli (GPa) = 9.22121 43.43886 127.24211
#
# Poissons Ratio (x) = 0.28560 0.91599
# Poissons Ratio (y) = 0.06063 0.54628
# Poissons Ratio (z) = 0.06638 0.18649
#
# Static dielectric constant tensor:
#      x y z
#    x 1.899940 0.000000 0.000000 
#    y 0.000000 1.938990 0.000000 
#    z 0.000000 0.000000 1.946960 
# 
# From -- ./inp_files/26589.got.cif
#   From: 2010.05.17/outbox.cif.g08.bks.cpg/sg20_14_cif.got.tgz:26589.got - 2010.06.03 22:52:26.
