data_PCOD9316101
_publ_section_title
;
Structure prediction by ZEFSAII (Michael W. Deem and Ramdas Pophale) SiO2 
 PCOD9316101
Probable space group: P 21 21 21
;
_chemical_formula_sum "Si O2"
_cell_formula_units_Z 20
_cell_length_a 8.982197
_cell_length_b 7.907267
_cell_length_c 8.245652
_cell_angle_alpha 90.000000
_cell_angle_beta 90.000000
_cell_angle_gamma 90.000000
_cell_volume 585.644382
_symmetry_space_group_name_H-M "P 21 21 21"
_symmetry_group_IT_number 19
_symmetry_cell_setting 'orthorhombic'
loop_
_space_group_symop_operation_xyz
x,y,z
1/2-x,-y,1/2+z
1/2+x,1/2-y,-z
-x,1/2+y,1/2-z
loop_
_atom_site_type_symbol
_atom_site_label
_atom_site_fract_x
_atom_site_fract_y
_atom_site_fract_z
Si Si1 0.046089 0.851493 0.775955
Si Si2 0.444366 0.681922 0.614406
Si Si3 0.111749 0.611967 0.497474
Si Si4 0.157510 0.935389 0.210034
Si Si5 0.901955 0.677004 0.032964
O O1 0.028059 0.782761 0.591712
O O2 0.025130 0.689535 0.891089
O O3 0.200759 0.949339 0.770972
O O4 0.926041 0.961867 0.870763
O O5 0.285405 0.626083 0.545178
O O6 0.432895 0.908998 0.595841
O O7 0.631406 0.749084 0.671773
O O8 0.410858 0.679778 0.825712
O O9 0.249118 0.841832 0.063994
O O10 0.044453 0.005196 0.373448
#
# Coordination Sequence:
#
# PCOD9316101 Si02
#       5
#     4   4   4   4   4
#     4  12  27  55  86 126 181 239 305 380 451 560
#     4  12  30  50  89 126 180 248 303 389 461 562
#     4  12  29  54  84 130 179 241 310 373 471 546
#     4  12  27  55  86 128 185 238 313 380 462 553
#     4  12  29  50  91 124 175 238 297 384 457 543
#
# _framework density 34.150416999999997
#
# number of rings (size 3 to 8) (size 9 to 14) (size 15 to 20)
#    0.000    0.000    4.000    3.600    5.600    4.800 
#    0.000    0.000    0.000    0.000    0.000    0.000 
#    0.000    0.000    0.000    0.000    0.000    0.000 
#
# Total GULP energy -111555.720555 kJ/mol
# GULP energy per Si atom -5577.786028 kJ/mol
# Density = 3.407269 g / cm^3
# Si number density = 34.150417 Si / 1000 Ang^3
#
#
#
# Elastic Constant Matrix: (Units=GPa)
#
#
# Indices 1 2 3 4 5 6 
#
# 1 319.8108 103.6125 165.5702 0.0000 0.0000 0.0000
# 2 103.6125 136.1210 90.7918 0.0000 0.0000 0.0000
# 3 165.5702 90.7918 365.1157 0.0000 0.0000 0.0000
# 4 0.0000 0.0000 0.0000 105.5906 0.0000 0.0000
# 5 0.0000 0.0000 0.0000 0.0000 110.5871 0.0000
# 6 0.0000 0.0000 0.0000 0.0000 0.0000 112.7041
#
#
#
# Elastic Compliance Matrix: (Units=1/GPa)
#
#
# Indices 1 2 3 4 5 6 
#
# 1 0.004753 -0.002614 -0.001505 0.000000 0.000000 0.000000
# 2 -0.002614 0.010245 -0.001362 0.000000 0.000000 0.000000
# 3 -0.001505 -0.001362 0.003760 0.000000 0.000000 0.000000
# 4 0.000000 0.000000 0.000000 0.009471 0.000000 0.000000
# 5 0.000000 0.000000 0.000000 0.000000 0.009043 0.000000
# 6 0.000000 0.000000 0.000000 0.000000 0.000000 0.008873
#
#
# Mechanical properties :
#
#
# Convention : Reuss Voigt Hill
#
# Bulk Modulus (GPa) = 128.28676 171.22184 149.75430
# Shear Modulus (GPa) = 83.74508 96.51454 90.12981
#
# Velocity S-wave (km/s) = 4.95738 5.32193 5.14289
# Velocity P-wave (km/s) = 8.39132 9.38138 8.90013
#
# Compressibility (1/GPa) = 0.00779504
#
# Stress axis : x y z
#
# Youngs Moduli (GPa) = 210.39123 97.61281 265.93991
#
# Poissons Ratio (x) = 0.25514 0.40035
# Poissons Ratio (y) = 0.54993 0.36226
# Poissons Ratio (z) = 0.31673 0.13297
#
# Static dielectric constant tensor:
#      x y z
#    x 2.609210 0.000000 0.000000 
#    y 0.000000 3.563840 0.000000 
#    z 0.000000 0.000000 2.881170 
# 
# From -- ./inp_files/3292.got.cif
#   From: 2010.05.17/outbox.cif.g08.bks.cpg/sg19_2_cif.got.tgz:3292.got - 2010.06.03 22:46:19.
