data_PCOD9316508
_publ_section_title
;
Structure prediction by ZEFSAII (Michael W. Deem and Ramdas Pophale) SiO2 
 PCOD9316508
Probable space group: C 2 2 21
;
_chemical_formula_sum "Si O2"
_cell_formula_units_Z 24
_cell_length_a 7.244415
_cell_length_b 25.345631
_cell_length_c 5.082552
_cell_angle_alpha 90.000000
_cell_angle_beta 90.000000
_cell_angle_gamma 90.000000
_cell_volume 933.229072
_symmetry_space_group_name_H-M "C 2 2 21"
_symmetry_group_IT_number 20
_symmetry_cell_setting 'orthorhombic'
loop_
_space_group_symop_operation_xyz
x,y,z
-x,-y,1/2+z
x,-y,-z
-x,y,1/2-z
1/2+x,1/2+y,z
1/2-x,1/2-y,1/2+z
1/2+x,1/2-y,-z
1/2-x,1/2+y,1/2-z
loop_
_atom_site_type_symbol
_atom_site_label
_atom_site_fract_x
_atom_site_fract_y
_atom_site_fract_z
Si Si1 0.211643 0.898908 0.307960
Si Si2 0.701928 0.217562 0.867971
Si Si3 0.779074 0.050647 0.317193
O O1 0.211755 0.839839 0.414816
O O2 0.297152 0.937872 0.525792
O O3 0.000000 0.914910 0.250000
O O4 0.287089 0.902592 0.012117
O O5 0.500000 0.208720 0.750000
O O6 0.802596 0.249465 0.635394
O O7 0.000000 0.050073 0.250000
O O8 0.740602 0.000000 0.500000
#
# Coordination Sequence:
#
# PCOD9316508 Si02
#       3
#     8   8   8
#     4  10  20  34  56  87 121 158 203 255 307 362
#     4  12  25  43  66  93 128 168 214 264 321 384
#     4  10  18  31  54  86 121 156 201 253 302 356
#
# _framework density 25.717157
#
# number of rings (size 3 to 8) (size 9 to 14) (size 15 to 20)
#    0.000    1.333    0.000    9.000    0.000    2.667 
#    0.000    0.000    0.000    4.000    0.000    9.333 
#    0.000    0.000    0.000    0.000    0.000    0.000 
#
# Total GULP energy -67037.380041 kJ/mol
# GULP energy per Si atom -5586.448337 kJ/mol
# Density = 2.565862 g / cm^3
# Si number density = 25.717157 Si / 1000 Ang^3
#
#
#
# Elastic Constant Matrix: (Units=GPa)
#
#
# Indices 1 2 3 4 5 6 
#
# 1 53.5276 -20.6992 20.6298 0.0000 0.0000 0.0000
# 2 -20.6992 138.6825 84.3639 0.0000 0.0000 0.0000
# 3 20.6298 84.3639 226.6465 0.0000 0.0000 0.0000
# 4 0.0000 0.0000 0.0000 47.2053 0.0000 0.0000
# 5 0.0000 0.0000 0.0000 0.0000 4.8932 0.0000
# 6 0.0000 0.0000 0.0000 0.0000 0.0000 15.3644
#
#
#
# Elastic Compliance Matrix: (Units=1/GPa)
#
#
# Indices 1 2 3 4 5 6 
#
# 1 0.022654 0.005992 -0.004293 0.000000 0.000000 0.000000
# 2 0.005992 0.010907 -0.004605 0.000000 0.000000 0.000000
# 3 -0.004293 -0.004605 0.006517 0.000000 0.000000 0.000000
# 4 0.000000 0.000000 0.000000 0.021184 0.000000 0.000000
# 5 0.000000 0.000000 0.000000 0.000000 0.204363 0.000000
# 6 0.000000 0.000000 0.000000 0.000000 0.000000 0.065086
#
#
# Mechanical properties :
#
#
# Convention : Reuss Voigt Hill
#
# Bulk Modulus (GPa) = 29.18285 65.27174 47.22729
# Shear Modulus (GPa) = 14.37018 35.79672 25.08345
#
# Velocity S-wave (km/s) = 2.36641 3.73492 3.12646
# Velocity P-wave (km/s) = 4.34037 6.63590 5.60687
#
# Compressibility (1/GPa) = 0.03426670
#
# Stress axis : x y z
#
# Youngs Moduli (GPa) = 44.14308 91.68802 153.44405
#
# Poissons Ratio (x) = -0.54943 0.65866
# Poissons Ratio (y) = -0.26452 0.70663
# Poissons Ratio (z) = 0.18949 0.42224
#
# Static dielectric constant tensor:
#      x y z
#    x 2.136260 0.000000 0.000000 
#    y 0.000000 2.034340 0.000000 
#    z 0.000000 0.000000 2.025710 
# 
# From -- ./inp_files/300.got.cif
#   From: 2010.05.17/outbox.cif.g08.bks.cpg/sg20_1_cif.got.tgz:300.got - 2010.06.03 22:52:26.
