data_PCOD9316301
_publ_section_title
;
Structure prediction by ZEFSAII (Michael W. Deem and Ramdas Pophale) SiO2 
 PCOD9316301
Probable space group: C 2 2 21
;
_chemical_formula_sum "Si O2"
_cell_formula_units_Z 40
_cell_length_a 22.990049
_cell_length_b 24.791296
_cell_length_c 5.036533
_cell_angle_alpha 90.000000
_cell_angle_beta 90.000000
_cell_angle_gamma 90.000000
_cell_volume 2870.587646
_symmetry_space_group_name_H-M "C 2 2 21"
_symmetry_group_IT_number 20
_symmetry_cell_setting 'orthorhombic'
loop_
_space_group_symop_operation_xyz
x,y,z
-x,-y,1/2+z
x,-y,-z
-x,y,1/2-z
1/2+x,1/2+y,z
1/2-x,1/2-y,1/2+z
1/2+x,1/2-y,-z
1/2-x,1/2+y,1/2-z
loop_
_atom_site_type_symbol
_atom_site_label
_atom_site_fract_x
_atom_site_fract_y
_atom_site_fract_z
Si Si1 0.625687 0.208494 0.625978
Si Si2 0.323772 0.148164 0.373952
Si Si3 0.500000 0.098831 0.250000
Si Si4 0.500000 0.174934 0.750000
Si Si5 0.774175 0.221224 0.238379
Si Si6 0.618843 0.962908 0.743423
O O1 0.640641 0.185297 0.336234
O O2 0.557271 0.208415 0.676650
O O3 0.659206 0.264744 0.675746
O O4 0.654774 0.166533 0.835922
O O5 0.256509 0.164949 0.330115
O O6 0.339007 0.086910 0.309765
O O7 0.485682 0.136412 0.500893
O O8 0.444015 0.063212 0.179694
O O9 0.760010 0.237366 0.540595
O O10 0.638274 0.000000 0.500000
O O11 0.612099 0.000000 0.000000
#
# Coordination Sequence:
#
# PCOD9316301 Si02
#       6
#     8   8   4   4   8   8
#     4  10  17  29  44  62  78 102 131 161 206 245
#     4  10  18  32  43  57  78 101 136 173 203 236
#     4  12  22  33  40  54  82 114 144 173 202 222
#     4  12  18  29  46  60  84 108 132 171 200 240
#     4   8  16  27  45  60  74  96 127 165 203 246
#     4  12  22  32  42  56  77 110 147 178 202 224
#
# _framework density 13.934429
#
# number of rings (size 3 to 8) (size 9 to 14) (size 15 to 20)
#    0.000    1.600    4.000    3.000    0.000    0.000 
#    0.000    0.000    0.000    0.000    0.000    0.000 
#    0.000    0.000    0.000    1.800    0.000    0.000 
#
# Total GULP energy -111517.466135 kJ/mol
# GULP energy per Si atom -5575.873307 kJ/mol
# Density = 1.390271 g / cm^3
# Si number density = 13.934429 Si / 1000 Ang^3
#
#
#
# Elastic Constant Matrix: (Units=GPa)
#
#
# Indices 1 2 3 4 5 6 
#
# 1 59.4810 31.5087 -13.7240 0.0000 0.0000 0.0000
# 2 31.5087 41.7988 -15.6551 0.0000 0.0000 0.0000
# 3 -13.7240 -15.6551 46.8079 0.0000 0.0000 0.0000
# 4 0.0000 0.0000 0.0000 15.1824 0.0000 0.0000
# 5 0.0000 0.0000 0.0000 0.0000 4.1382 0.0000
# 6 0.0000 0.0000 0.0000 0.0000 0.0000 47.2196
#
#
#
# Elastic Compliance Matrix: (Units=1/GPa)
#
#
# Indices 1 2 3 4 5 6 
#
# 1 0.028059 -0.020658 0.001318 0.000000 0.000000 0.000000
# 2 -0.020658 0.042559 0.008177 0.000000 0.000000 0.000000
# 3 0.001318 0.008177 0.024485 0.000000 0.000000 0.000000
# 4 0.000000 0.000000 0.000000 0.065866 0.000000 0.000000
# 5 0.000000 0.000000 0.000000 0.000000 0.241650 0.000000
# 6 0.000000 0.000000 0.000000 0.000000 0.000000 0.021178
#
#
# Mechanical properties :
#
#
# Convention : Reuss Voigt Hill
#
# Bulk Modulus (GPa) = 13.74054 16.92744 15.33399
# Shear Modulus (GPa) = 10.62966 23.03859 16.83412
#
# Velocity S-wave (km/s) = 2.76494 4.07056 3.47954
# Velocity P-wave (km/s) = 4.48057 5.85379 5.21260
#
# Compressibility (1/GPa) = 0.07277736
#
# Stress axis : x y z
#
# Youngs Moduli (GPa) = 35.63888 23.49673 40.84110
#
# Poissons Ratio (x) = 0.48540 -0.05382
# Poissons Ratio (y) = 0.73623 -0.33396
# Poissons Ratio (z) = -0.04696 -0.19214
#
# Static dielectric constant tensor:
#      x y z
#    x 1.484940 0.000000 0.000000 
#    y 0.000000 1.457100 0.000000 
#    z 0.000000 0.000000 1.468060 
# 
# From -- ./inp_files/1918.got.cif
#   From: 2010.05.17/outbox.cif.g08.bks.cpg/sg20_1_cif.got.tgz:1918.got - 2010.06.03 22:52:26.
