data_PCOD9316589
_publ_section_title
;
Structure prediction by ZEFSAII (Michael W. Deem and Ramdas Pophale) SiO2 
 PCOD9316589
Probable space group: C 2 2 21
;
_chemical_formula_sum "Si O2"
_cell_formula_units_Z 56
_cell_length_a 17.013839
_cell_length_b 24.177220
_cell_length_c 7.930996
_cell_angle_alpha 90.000000
_cell_angle_beta 90.000000
_cell_angle_gamma 90.000000
_cell_volume 3262.394017
_symmetry_space_group_name_H-M "C 2 2 21"
_symmetry_group_IT_number 20
_symmetry_cell_setting 'orthorhombic'
loop_
_space_group_symop_operation_xyz
x,y,z
-x,-y,1/2+z
x,-y,-z
-x,y,1/2-z
1/2+x,1/2+y,z
1/2-x,1/2-y,1/2+z
1/2+x,1/2-y,-z
1/2-x,1/2+y,1/2-z
loop_
_atom_site_type_symbol
_atom_site_label
_atom_site_fract_x
_atom_site_fract_y
_atom_site_fract_z
Si Si1 0.549952 0.231701 0.914077
Si Si2 0.183907 0.344225 0.264910
Si Si3 0.923183 0.659674 0.089896
Si Si4 0.012994 0.440134 0.047822
Si Si5 0.200745 0.780228 0.023711
Si Si6 0.220584 0.330016 0.807638
Si Si7 0.300573 0.936478 0.489250
O O1 0.500000 0.250682 0.750000
O O2 0.613575 0.185720 0.843563
O O3 0.484493 0.206659 0.037045
O O4 0.607114 0.275234 0.003632
O O5 0.140842 0.348598 0.443239
O O6 0.262276 0.310677 0.314997
O O7 0.208516 0.402334 0.184538
O O8 0.871267 0.671928 0.252552
O O9 0.971614 0.603928 0.071067
O O10 0.000000 0.428964 0.250000
O O11 0.104687 0.439513 0.000385
O O12 0.980261 0.500000 0.000000
O O13 0.233267 0.717329 0.051493
O O14 0.230095 0.809754 0.853184
O O15 0.232787 0.392279 0.874546
O O16 0.271774 0.000000 0.500000
#
# Coordination Sequence:
#
# PCOD9316589 Si02
#       7
#     8   8   8   8   8   8   8
#     4  10  18  33  52  76 110 141 171 223 269 305
#     4  10  18  35  51  73 104 150 178 217 267 315
#     4  10  20  31  51  72 107 143 182 220 263 303
#     4  11  21  32  47  68 105 149 195 228 251 287
#     4  11  20  35  56  75 104 146 182 220 271 329
#     4  11  22  34  54  79 104 148 184 218 271 318
#     4  11  22  35  50  72 107 144 191 227 256 305
#
# _framework density 17.165309000000001
#
# number of rings (size 3 to 8) (size 9 to 14) (size 15 to 20)
#    0.000    1.429    5.714    0.429    4.000    1.714 
#    0.000    2.143    0.000    0.000    0.000    0.000 
#    0.000    2.286    0.857    0.000    0.000    0.000 
#
# Total GULP energy -155875.265864 kJ/mol
# GULP energy per Si atom -5566.973781 kJ/mol
# Density = 1.712624 g / cm^3
# Si number density = 17.165309 Si / 1000 Ang^3
#
#
#
# Elastic Constant Matrix: (Units=GPa)
#
#
# Indices 1 2 3 4 5 6 
#
# 1 62.1452 46.5903 28.3835 0.0000 0.0000 0.0000
# 2 46.5903 105.9271 35.8696 0.0000 0.0000 0.0000
# 3 28.3835 35.8696 83.0230 0.0000 0.0000 0.0000
# 4 0.0000 0.0000 0.0000 26.2191 0.0000 0.0000
# 5 0.0000 0.0000 0.0000 0.0000 36.6450 0.0000
# 6 0.0000 0.0000 0.0000 0.0000 0.0000 18.9206
#
#
#
# Elastic Compliance Matrix: (Units=1/GPa)
#
#
# Indices 1 2 3 4 5 6 
#
# 1 0.025374 -0.009632 -0.004513 0.000000 0.000000 0.000000
# 2 -0.009632 0.014715 -0.003064 0.000000 0.000000 0.000000
# 3 -0.004513 -0.003064 0.014912 0.000000 0.000000 0.000000
# 4 0.000000 0.000000 0.000000 0.038140 0.000000 0.000000
# 5 0.000000 0.000000 0.000000 0.000000 0.027289 0.000000
# 6 0.000000 0.000000 0.000000 0.000000 0.000000 0.052852
#
#
# Mechanical properties :
#
#
# Convention : Reuss Voigt Hill
#
# Bulk Modulus (GPa) = 48.58868 52.53135 50.56001
# Shear Modulus (GPa) = 23.30340 25.70708 24.50524
#
# Velocity S-wave (km/s) = 3.68854 3.87411 3.78246
# Velocity P-wave (km/s) = 6.81969 7.11908 6.97099
#
# Compressibility (1/GPa) = 0.02058093
#
# Stress axis : x y z
#
# Youngs Moduli (GPa) = 39.41077 67.95968 67.06102
#
# Poissons Ratio (x) = 0.65458 0.30266
# Poissons Ratio (y) = 0.37960 0.20550
# Poissons Ratio (z) = 0.17787 0.20826
#
# Static dielectric constant tensor:
#      x y z
#    x 1.608620 0.000000 0.000000 
#    y 0.000000 1.624510 0.000000 
#    z 0.000000 0.000000 1.704900 
# 
# From -- ./inp_files/9671.got.cif
#   From: 2010.05.17/outbox.cif.g08.bks.cpg/sg20_5_cif.got.tgz:9671.got - 2010.06.03 22:52:26.
