data_PCOD9316660
_publ_section_title
;
Structure prediction by ZEFSAII (Michael W. Deem and Ramdas Pophale) SiO2 
 PCOD9316660
Probable space group: C 2 2 21
;
_chemical_formula_sum "Si O2"
_cell_formula_units_Z 36
_cell_length_a 7.268852
_cell_length_b 17.602939
_cell_length_c 15.823331
_cell_angle_alpha 90.000000
_cell_angle_beta 90.000000
_cell_angle_gamma 90.000000
_cell_volume 2024.645177
_symmetry_space_group_name_H-M "C 2 2 21"
_symmetry_group_IT_number 20
_symmetry_cell_setting 'orthorhombic'
loop_
_space_group_symop_operation_xyz
x,y,z
-x,-y,1/2+z
x,-y,-z
-x,y,1/2-z
1/2+x,1/2+y,z
1/2-x,1/2-y,1/2+z
1/2+x,1/2-y,-z
1/2-x,1/2+y,1/2-z
loop_
_atom_site_type_symbol
_atom_site_label
_atom_site_fract_x
_atom_site_fract_y
_atom_site_fract_z
Si Si1 0.033387 0.830682 0.077606
Si Si2 0.858053 0.166350 0.182810
Si Si3 0.253593 0.914316 0.507959
Si Si4 0.453211 0.204517 0.939307
Si Si5 0.000000 0.249241 0.750000
O O1 0.974647 0.805356 0.170111
O O2 0.252396 0.832324 0.068651
O O3 0.936497 0.905427 0.043398
O O4 0.962062 0.762434 0.017757
O O5 0.788436 0.115126 0.103545
O O6 0.965173 0.238916 0.141023
O O7 0.676663 0.198907 0.228790
O O8 0.000000 0.130650 0.250000
O O9 0.394229 0.857678 0.460294
O O10 0.320585 0.000000 0.500000
#
# Coordination Sequence:
#
# PCOD9316660 Si02
#       5
#     8   8   8   8   4
#     4  10  19  34  61  85 109 147 194 236 284 336
#     4  10  21  34  63  87 109 150 202 243 280 342
#     4  11  23  38  56  84 124 156 185 239 290 350
#     4  10  18  36  59  85 108 152 194 237 277 346
#     4  10  18  34  62  90 108 142 196 254 274 330
#
# _framework density 17.780892999999999
#
# number of rings (size 3 to 8) (size 9 to 14) (size 15 to 20)
#    0.000    1.778    6.667    1.333    3.111    0.889 
#    2.000    0.000    7.333    0.000    0.000    0.000 
#    0.000    0.000    0.000    0.000    0.000    0.000 
#
# Total GULP energy -100285.303304 kJ/mol
# GULP energy per Si atom -5571.405739 kJ/mol
# Density = 1.774042 g / cm^3
# Si number density = 17.780893 Si / 1000 Ang^3
#
#
#
# Elastic Constant Matrix: (Units=GPa)
#
#
# Indices 1 2 3 4 5 6 
#
# 1 65.2847 26.5611 50.6338 0.0000 0.0000 0.0000
# 2 26.5611 65.4903 7.8159 0.0000 0.0000 0.0000
# 3 50.6338 7.8159 89.1188 0.0000 0.0000 0.0000
# 4 0.0000 0.0000 0.0000 8.7209 0.0000 0.0000
# 5 0.0000 0.0000 0.0000 0.0000 41.3158 0.0000
# 6 0.0000 0.0000 0.0000 0.0000 0.0000 27.8425
#
#
#
# Elastic Compliance Matrix: (Units=1/GPa)
#
#
# Indices 1 2 3 4 5 6 
#
# 1 0.034523 -0.011784 -0.018581 0.000000 0.000000 0.000000
# 2 -0.011784 0.019453 0.004989 0.000000 0.000000 0.000000
# 3 -0.018581 0.004989 0.021341 0.000000 0.000000 0.000000
# 4 0.000000 0.000000 0.000000 0.114668 0.000000 0.000000
# 5 0.000000 0.000000 0.000000 0.000000 0.024204 0.000000
# 6 0.000000 0.000000 0.000000 0.000000 0.000000 0.035916
#
#
# Mechanical properties :
#
#
# Convention : Reuss Voigt Hill
#
# Bulk Modulus (GPa) = 40.70880 43.32394 42.01637
# Shear Modulus (GPa) = 16.17886 24.56803 20.37345
#
# Velocity S-wave (km/s) = 3.01973 3.72117 3.38865
# Velocity P-wave (km/s) = 5.92476 6.54837 6.24435
#
# Compressibility (1/GPa) = 0.02456471
#
# Stress axis : x y z
#
# Youngs Moduli (GPa) = 28.96606 51.40516 46.85920
#
# Poissons Ratio (x) = 0.60576 0.87070
# Poissons Ratio (y) = 0.34134 -0.23379
# Poissons Ratio (z) = 0.53822 -0.25647
#
# Static dielectric constant tensor:
#      x y z
#    x 1.646360 0.000000 0.000000 
#    y 0.000000 1.577440 0.000000 
#    z 0.000000 0.000000 1.625830 
# 
# From -- ./inp_files/18411.got.cif
#   From: 2010.05.17/outbox.cif.g08.bks.cpg/sg20_10_cif.got.tgz:18411.got - 2010.06.03 22:52:26.
