data_PCOD9316557
_publ_section_title
;
Structure prediction by ZEFSAII (Michael W. Deem and Ramdas Pophale) SiO2 
 PCOD9316557
Probable space group: C 2 2 21
;
_chemical_formula_sum "Si O2"
_cell_formula_units_Z 40
_cell_length_a 7.876032
_cell_length_b 27.632962
_cell_length_c 8.211763
_cell_angle_alpha 90.000000
_cell_angle_beta 90.000000
_cell_angle_gamma 90.000000
_cell_volume 1787.192439
_symmetry_space_group_name_H-M "C 2 2 21"
_symmetry_group_IT_number 20
_symmetry_cell_setting 'orthorhombic'
loop_
_space_group_symop_operation_xyz
x,y,z
-x,-y,1/2+z
x,-y,-z
-x,y,1/2-z
1/2+x,1/2+y,z
1/2-x,1/2-y,1/2+z
1/2+x,1/2-y,-z
1/2-x,1/2+y,1/2-z
loop_
_atom_site_type_symbol
_atom_site_label
_atom_site_fract_x
_atom_site_fract_y
_atom_site_fract_z
Si Si1 0.226695 0.598029 0.647586
Si Si2 0.746048 0.000000 0.500000
Si Si3 0.610948 0.386359 0.483243
Si Si4 0.243017 0.791933 0.646980
Si Si5 0.500000 0.545344 0.250000
Si Si6 0.382772 0.195745 0.002864
O O1 0.156796 0.548524 0.566941
O O2 0.257855 0.599148 0.841263
O O3 0.419084 0.605960 0.580195
O O4 0.125964 0.644521 0.585887
O O5 0.873203 0.986299 0.645184
O O6 0.639264 0.332103 0.546686
O O7 0.618263 0.421343 0.637555
O O8 0.431243 0.794013 0.571899
O O9 0.260313 0.803923 0.837974
O O10 0.171275 0.738682 0.616974
#
# Coordination Sequence:
#
# PCOD9316557 Si02
#       6
#     8   4   8   8   4   8
#     4  10  21  36  57  86 115 149 194 237 283 339
#     4  10  18  32  56  82 116 150 190 238 280 330
#     4  10  20  35  58  85 116 149 189 235 286 343
#     4  11  23  39  59  84 116 149 186 235 290 350
#     4  10  18  32  56  88 116 150 190 236 284 334
#     4  11  24  39  58  85 115 150 191 235 289 347
#
# _framework density 22.381471999999999
#
# number of rings (size 3 to 8) (size 9 to 14) (size 15 to 20)
#    0.000    1.600    0.000    7.200    0.000    8.000 
#    0.000    0.000    0.000   14.400    0.000    0.000 
#    0.000    0.000    0.000    0.000    0.000    0.000 
#
# Total GULP energy -111918.164772 kJ/mol
# GULP energy per Si atom -5595.908239 kJ/mol
# Density = 2.233053 g / cm^3
# Si number density = 22.381472 Si / 1000 Ang^3
#
#
#
# Elastic Constant Matrix: (Units=GPa)
#
#
# Indices 1 2 3 4 5 6 
#
# 1 46.1225 25.2355 21.0933 0.0000 0.0000 0.0000
# 2 25.2355 176.4001 53.6619 0.0000 0.0000 0.0000
# 3 21.0933 53.6619 122.6571 0.0000 0.0000 0.0000
# 4 0.0000 0.0000 0.0000 42.7388 0.0000 0.0000
# 5 0.0000 0.0000 0.0000 0.0000 13.8966 0.0000
# 6 0.0000 0.0000 0.0000 0.0000 0.0000 33.5730
#
#
#
# Elastic Compliance Matrix: (Units=1/GPa)
#
#
# Indices 1 2 3 4 5 6 
#
# 1 0.024498 -0.002564 -0.003091 0.000000 0.000000 0.000000
# 2 -0.002564 0.006808 -0.002537 0.000000 0.000000 0.000000
# 3 -0.003091 -0.002537 0.009794 0.000000 0.000000 0.000000
# 4 0.000000 0.000000 0.000000 0.023398 0.000000 0.000000
# 5 0.000000 0.000000 0.000000 0.000000 0.071960 0.000000
# 6 0.000000 0.000000 0.000000 0.000000 0.000000 0.029786
#
#
# Mechanical properties :
#
#
# Convention : Reuss Voigt Hill
#
# Bulk Modulus (GPa) = 40.46162 60.57343 50.51752
# Shear Modulus (GPa) = 26.19614 34.38762 30.29188
#
# Velocity S-wave (km/s) = 3.42488 3.92399 3.68290
# Velocity P-wave (km/s) = 5.81009 6.90312 6.38006
#
# Compressibility (1/GPa) = 0.02471478
#
# Stress axis : x y z
#
# Youngs Moduli (GPa) = 40.81950 146.89360 102.09879
#
# Poissons Ratio (x) = 0.37669 0.31559
# Poissons Ratio (y) = 0.10468 0.25906
# Poissons Ratio (z) = 0.12617 0.37272
#
# Static dielectric constant tensor:
#      x y z
#    x 1.836840 0.000000 0.000000 
#    y 0.000000 1.814460 0.000000 
#    z 0.000000 0.000000 1.822080 
# 
# From -- ./inp_files/6178.got.cif
#   From: 2010.05.17/outbox.cif.g08.bks.cpg/sg20_4_cif.got.tgz:6178.got - 2010.06.03 22:52:26.
