data_PCOD9316098
_publ_section_title
;
Structure prediction by ZEFSAII (Michael W. Deem and Ramdas Pophale) SiO2 
 PCOD9316098
Probable space group: P 21 21 21
;
_chemical_formula_sum "Si O2"
_cell_formula_units_Z 20
_cell_length_a 13.357573
_cell_length_b 11.699632
_cell_length_c 4.894219
_cell_angle_alpha 90.000000
_cell_angle_beta 90.000000
_cell_angle_gamma 90.000000
_cell_volume 764.862127
_symmetry_space_group_name_H-M "P 21 21 21"
_symmetry_group_IT_number 19
_symmetry_cell_setting 'orthorhombic'
loop_
_space_group_symop_operation_xyz
x,y,z
1/2-x,-y,1/2+z
1/2+x,1/2-y,-z
-x,1/2+y,1/2-z
loop_
_atom_site_type_symbol
_atom_site_label
_atom_site_fract_x
_atom_site_fract_y
_atom_site_fract_z
Si Si1 0.046465 0.264220 0.231967
Si Si2 0.645235 0.735031 0.997913
Si Si3 0.978658 0.452315 0.836185
Si Si4 0.151290 0.168107 0.712947
Si Si5 0.190048 0.544525 0.668607
O O1 0.107684 0.264832 0.511343
O O2 0.938745 0.209161 0.302360
O O3 0.109980 0.193801 0.012079
O O4 0.021631 0.385961 0.098738
O O5 0.583330 0.640867 0.165094
O O6 0.689186 0.828310 0.204612
O O7 0.730783 0.674351 0.822247
O O8 0.899739 0.552637 0.893516
O O9 0.074820 0.505686 0.685730
O O10 0.256726 0.467463 0.877090
#
# Coordination Sequence:
#
# PCOD9316098 Si02
#       5
#     4   4   4   4   4
#     4  12  27  52  74 117 157 209 261 333 392 480
#     4  12  30  51  81 119 160 210 272 330 396 480
#     4  12  28  50  82 118 159 213 268 336 391 476
#     4  12  30  50  81 114 168 208 269 332 405 468
#     4  12  29  51  82 116 160 214 260 323 408 474
#
# _framework density 26.148505
#
# number of rings (size 3 to 8) (size 9 to 14) (size 15 to 20)
#    0.000    0.000    4.000    2.400   16.800    0.000 
#    0.000    2.000    0.000    0.000    0.000    0.000 
#    0.000    0.000    0.000    0.000    0.000    0.000 
#
# Total GULP energy -112337.418817 kJ/mol
# GULP energy per Si atom -5616.870941 kJ/mol
# Density = 2.608899 g / cm^3
# Si number density = 26.148505 Si / 1000 Ang^3
#
#
#
# Elastic Constant Matrix: (Units=GPa)
#
#
# Indices 1 2 3 4 5 6 
#
# 1 168.0438 28.7000 28.4914 0.0000 0.0000 0.0000
# 2 28.7000 102.1900 4.4869 0.0000 0.0000 0.0000
# 3 28.4914 4.4869 104.7551 0.0000 0.0000 0.0000
# 4 0.0000 0.0000 0.0000 36.3777 0.0000 0.0000
# 5 0.0000 0.0000 0.0000 0.0000 51.4026 0.0000
# 6 0.0000 0.0000 0.0000 0.0000 0.0000 45.6075
#
#
#
# Elastic Compliance Matrix: (Units=1/GPa)
#
#
# Indices 1 2 3 4 5 6 
#
# 1 0.006541 -0.001762 -0.001703 0.000000 0.000000 0.000000
# 2 -0.001762 0.010279 0.000039 0.000000 0.000000 0.000000
# 3 -0.001703 0.000039 0.010008 0.000000 0.000000 0.000000
# 4 0.000000 0.000000 0.000000 0.027489 0.000000 0.000000
# 5 0.000000 0.000000 0.000000 0.000000 0.019454 0.000000
# 6 0.000000 0.000000 0.000000 0.000000 0.000000 0.021926
#
#
# Mechanical properties :
#
#
# Convention : Reuss Voigt Hill
#
# Bulk Modulus (GPa) = 50.06499 55.37172 52.71836
# Shear Modulus (GPa) = 45.78412 47.56494 46.67453
#
# Velocity S-wave (km/s) = 4.18895 4.26964 4.22948
# Velocity P-wave (km/s) = 6.52567 6.74746 6.63749
#
# Compressibility (1/GPa) = 0.01997404
#
# Stress axis : x y z
#
# Youngs Moduli (GPa) = 152.89122 97.28694 99.92293
#
# Poissons Ratio (x) = 0.17143 0.17021
# Poissons Ratio (y) = 0.26941 -0.00390
# Poissons Ratio (z) = 0.26044 -0.00379
#
# Static dielectric constant tensor:
#      x y z
#    x 2.041030 0.000000 0.000000 
#    y 0.000000 2.062190 0.000000 
#    z 0.000000 0.000000 2.049610 
# 
# From -- ./inp_files/877.got.cif
#   From: 2010.05.17/outbox.cif.g08.bks.cpg/sg19_1_cif.got.tgz:877.got - 2010.06.03 22:46:19.
