data_PCOD9316448
_publ_section_title
;
Structure prediction by ZEFSAII (Michael W. Deem and Ramdas Pophale) SiO2 
 PCOD9316448
Probable space group: C 2 2 21
;
_chemical_formula_sum "Si O2"
_cell_formula_units_Z 40
_cell_length_a 7.785274
_cell_length_b 21.321510
_cell_length_c 9.004366
_cell_angle_alpha 90.000000
_cell_angle_beta 90.000000
_cell_angle_gamma 90.000000
_cell_volume 1494.668906
_symmetry_space_group_name_H-M "C 2 2 21"
_symmetry_group_IT_number 20
_symmetry_cell_setting 'orthorhombic'
loop_
_space_group_symop_operation_xyz
x,y,z
-x,-y,1/2+z
x,-y,-z
-x,y,1/2-z
1/2+x,1/2+y,z
1/2-x,1/2-y,1/2+z
1/2+x,1/2-y,-z
1/2-x,1/2+y,1/2-z
loop_
_atom_site_type_symbol
_atom_site_label
_atom_site_fract_x
_atom_site_fract_y
_atom_site_fract_z
Si Si1 0.001355 0.934467 0.074056
Si Si2 0.238629 0.244443 0.727243
Si Si3 0.815549 0.886221 0.826017
Si Si4 0.950688 0.699990 0.977935
Si Si5 0.878073 0.435460 0.931191
O O1 0.000000 0.934010 0.250000
O O2 0.863990 0.888469 0.998778
O O3 0.196378 0.926885 0.018629
O O4 0.944865 0.000000 0.000000
O O5 0.269603 0.316097 0.778882
O O6 0.078538 0.253251 0.616226
O O7 0.392418 0.223848 0.618021
O O8 0.281744 0.203091 0.871835
O O9 0.682762 0.933042 0.742157
O O10 0.000000 0.901062 0.750000
O O11 0.976938 0.628896 0.033054
O O12 0.950392 0.500000 0.000000
#
# Coordination Sequence:
#
# PCOD9316448 Si02
#       5
#     8   8   8   8   8
#     4  10  18  29  51  85 120 160 204 252 313 367
#     4  10  21  39  62  90 123 160 207 261 316 370
#     4   9  16  32  54  76 119 156 188 259 304 347
#     4  10  21  38  62  88 119 166 198 260 312 373
#     4   9  18  33  53  82 114 159 204 248 313 365
#
# _framework density 26.761782
#
# number of rings (size 3 to 8) (size 9 to 14) (size 15 to 20)
#    0.000    2.400    2.000    3.000    0.000    2.400 
#    0.000    0.000    0.000    9.600    0.000    0.000 
#    0.000    0.000    0.000    0.000    0.000    0.000 
#
# Total GULP energy -111941.659584 kJ/mol
# GULP energy per Si atom -5597.082979 kJ/mol
# Density = 2.670087 g / cm^3
# Si number density = 26.761782 Si / 1000 Ang^3
#
#
#
# Elastic Constant Matrix: (Units=GPa)
#
#
# Indices 1 2 3 4 5 6 
#
# 1 61.2985 16.7127 12.9398 0.0000 0.0000 0.0000
# 2 16.7127 144.3641 47.4861 0.0000 0.0000 0.0000
# 3 12.9398 47.4861 215.0061 0.0000 0.0000 0.0000
# 4 0.0000 0.0000 0.0000 50.0333 0.0000 0.0000
# 5 0.0000 0.0000 0.0000 0.0000 47.1718 0.0000
# 6 0.0000 0.0000 0.0000 0.0000 0.0000 11.1580
#
#
#
# Elastic Compliance Matrix: (Units=1/GPa)
#
#
# Indices 1 2 3 4 5 6 
#
# 1 0.016925 -0.001752 -0.000632 0.000000 0.000000 0.000000
# 2 -0.001752 0.007651 -0.001584 0.000000 0.000000 0.000000
# 3 -0.000632 -0.001584 0.005039 0.000000 0.000000 0.000000
# 4 0.000000 0.000000 0.000000 0.019987 0.000000 0.000000
# 5 0.000000 0.000000 0.000000 0.000000 0.021199 0.000000
# 6 0.000000 0.000000 0.000000 0.000000 0.000000 0.089622
#
#
# Mechanical properties :
#
#
# Convention : Reuss Voigt Hill
#
# Bulk Modulus (GPa) = 46.12731 63.88287 55.00509
# Shear Modulus (GPa) = 28.47645 44.57462 36.52554
#
# Velocity S-wave (km/s) = 3.26555 4.08561 3.69838
# Velocity P-wave (km/s) = 5.61178 6.79552 6.23182
#
# Compressibility (1/GPa) = 0.02167913
#
# Stress axis : x y z
#
# Youngs Moduli (GPa) = 59.08591 130.70453 198.45334
#
# Poissons Ratio (x) = 0.22893 0.12537
# Poissons Ratio (y) = 0.10349 0.31442
# Poissons Ratio (z) = 0.03733 0.20708
#
# Static dielectric constant tensor:
#      x y z
#    x 2.259110 0.000000 0.000000 
#    y 0.000000 2.086620 0.000000 
#    z 0.000000 0.000000 2.169220 
# 
# From -- ./inp_files/6111.got.cif
#   From: 2010.05.17/outbox.cif.g08.bks.cpg/sg20_4_cif.got.tgz:6111.got - 2010.06.03 22:52:26.
