data_PCOD9316947
_publ_section_title
;
Structure prediction by ZEFSAII (Michael W. Deem and Ramdas Pophale) SiO2 
 PCOD9316947
Probable space group: C 2 2 21
;
_chemical_formula_sum "Si O2"
_cell_formula_units_Z 32
_cell_length_a 22.829180
_cell_length_b 7.037401
_cell_length_c 9.074139
_cell_angle_alpha 90.000000
_cell_angle_beta 90.000000
_cell_angle_gamma 90.000000
_cell_volume 1457.833878
_symmetry_space_group_name_H-M "C 2 2 21"
_symmetry_group_IT_number 20
_symmetry_cell_setting 'orthorhombic'
loop_
_space_group_symop_operation_xyz
x,y,z
-x,-y,1/2+z
x,-y,-z
-x,y,1/2-z
1/2+x,1/2+y,z
1/2-x,1/2-y,1/2+z
1/2+x,1/2-y,-z
1/2-x,1/2+y,1/2-z
loop_
_atom_site_type_symbol
_atom_site_label
_atom_site_fract_x
_atom_site_fract_y
_atom_site_fract_z
Si Si1 0.204533 0.193102 0.178745
Si Si2 0.319609 0.247896 0.354614
Si Si3 0.935827 0.218442 0.803385
Si Si4 0.885925 0.840900 0.901119
O O1 0.269579 0.182013 0.242301
O O2 0.159324 0.270536 0.301306
O O3 0.184262 0.976790 0.157268
O O4 0.196785 0.295126 0.023227
O O5 0.384891 0.201043 0.301362
O O6 0.928080 0.985513 0.810997
O O7 0.921283 0.269637 0.973501
O O8 0.850543 0.000000 0.000000
O O9 0.000000 0.268644 0.750000
#
# Coordination Sequence:
#
# PCOD9316947 Si02
#       4
#     8   8   8   8
#     4  10  19  32  47  74  98 126 160 200 243 288
#     4  10  20  30  50  72  99 125 161 197 245 284
#     4   8  15  28  43  67  94 126 155 193 237 281
#     4   7  16  27  43  63  95 126 147 199 233 277
#
# _framework density 21.950375000000001
#
# number of rings (size 3 to 8) (size 9 to 14) (size 15 to 20)
#    1.500    1.500    0.000    1.500    0.000    8.000 
#    0.000    0.000    0.000    0.000    0.000   21.000 
#    0.000    0.000    0.000    0.000    0.000    0.000 
#
# Total GULP energy -89073.527200 kJ/mol
# GULP energy per Si atom -5567.095450 kJ/mol
# Density = 2.190042 g / cm^3
# Si number density = 21.950375 Si / 1000 Ang^3
#
#
#
# Elastic Constant Matrix: (Units=GPa)
#
#
# Indices 1 2 3 4 5 6 
#
# 1 200.9128 8.0802 108.1992 0.0000 0.0000 0.0000
# 2 8.0802 46.7441 2.3010 0.0000 0.0000 0.0000
# 3 108.1992 2.3010 160.9753 0.0000 0.0000 0.0000
# 4 0.0000 0.0000 0.0000 1.0821 0.0000 0.0000
# 5 0.0000 0.0000 0.0000 0.0000 26.0064 0.0000
# 6 0.0000 0.0000 0.0000 0.0000 0.0000 10.5504
#
#
#
# Elastic Compliance Matrix: (Units=1/GPa)
#
#
# Indices 1 2 3 4 5 6 
#
# 1 0.007857 -0.001099 -0.005265 0.000000 0.000000 0.000000
# 2 -0.001099 0.021562 0.000430 0.000000 0.000000 0.000000
# 3 -0.005265 0.000430 0.009745 0.000000 0.000000 0.000000
# 4 0.000000 0.000000 0.000000 0.924168 0.000000 0.000000
# 5 0.000000 0.000000 0.000000 0.000000 0.038452 0.000000
# 6 0.000000 0.000000 0.000000 0.000000 0.000000 0.094783
#
#
# Mechanical properties :
#
#
# Convention : Reuss Voigt Hill
#
# Bulk Modulus (GPa) = 36.63512 71.75475 54.19493
# Shear Modulus (GPa) = 4.47414 26.86457 15.66935
#
# Velocity S-wave (km/s) = 1.42924 3.50219 2.67470
# Velocity P-wave (km/s) = 4.41020 7.00816 5.85509
#
# Compressibility (1/GPa) = 0.02729621
#
# Stress axis : x y z
#
# Youngs Moduli (GPa) = 127.27312 46.37820 102.61536
#
# Poissons Ratio (x) = 0.05097 0.54031
# Poissons Ratio (y) = 0.13987 -0.04417
# Poissons Ratio (z) = 0.67015 -0.01996
#
# Static dielectric constant tensor:
#      x y z
#    x 1.755980 0.000000 0.000000 
#    y 0.000000 1.906060 0.000000 
#    z 0.000000 0.000000 1.892120 
# 
# From -- ./inp_files/9809.got.cif
#   From: 2010.05.17/outbox.cif.g08.bks.cpg/sg20_5_cif.got.tgz:9809.got - 2010.06.03 22:52:26.
