data_PCOD9316619
_publ_section_title
;
Structure prediction by ZEFSAII (Michael W. Deem and Ramdas Pophale) SiO2 
 PCOD9316619
Probable space group: C 2 2 21
;
_chemical_formula_sum "Si O2"
_cell_formula_units_Z 52
_cell_length_a 8.433700
_cell_length_b 15.985418
_cell_length_c 19.932705
_cell_angle_alpha 90.000000
_cell_angle_beta 90.000000
_cell_angle_gamma 90.000000
_cell_volume 2687.251938
_symmetry_space_group_name_H-M "C 2 2 21"
_symmetry_group_IT_number 20
_symmetry_cell_setting 'orthorhombic'
loop_
_space_group_symop_operation_xyz
x,y,z
-x,-y,1/2+z
x,-y,-z
-x,y,1/2-z
1/2+x,1/2+y,z
1/2-x,1/2-y,1/2+z
1/2+x,1/2-y,-z
1/2-x,1/2+y,1/2-z
loop_
_atom_site_type_symbol
_atom_site_label
_atom_site_fract_x
_atom_site_fract_y
_atom_site_fract_z
Si Si1 0.000000 0.744075 0.750000
Si Si2 0.034640 0.110885 0.826809
Si Si3 0.759933 0.521105 0.925497
Si Si4 0.057720 0.691972 0.542567
Si Si5 0.259845 0.779285 0.650328
Si Si6 0.275061 0.201336 0.638250
Si Si7 0.929395 0.648908 0.110394
O O1 0.122760 0.795200 0.704305
O O2 0.102062 0.688443 0.801166
O O3 0.126026 0.044197 0.871994
O O4 0.145308 0.194621 0.828034
O O5 0.000000 0.087410 0.750000
O O6 0.867995 0.136545 0.860230
O O7 0.871912 0.601896 0.935757
O O8 0.861049 0.442512 0.900554
O O9 0.695098 0.500000 0.000000
O O10 0.170117 0.758515 0.580507
O O11 0.057667 0.693782 0.462595
O O12 0.881979 0.701818 0.572073
O O13 0.396754 0.847358 0.642416
O O14 0.193787 0.291920 0.649322
#
# Coordination Sequence:
#
# PCOD9316619 Si02
#       7
#     4   8   8   8   8   8   8
#     4  10  18  34  52  84 114 146 186 238 288 330
#     4  10  18  35  60  85 110 153 200 235 283 351
#     4   9  20  38  57  82 121 155 186 239 294 341
#     4   9  18  35  57  84 110 148 190 230 278 348
#     4   9  18  31  58  82 112 145 189 235 283 337
#     4  10  20  33  60  84 111 145 197 239 282 338
#     4  10  19  34  55  85 117 146 183 237 295 331
#
# _framework density 19.350624
#
# number of rings (size 3 to 8) (size 9 to 14) (size 15 to 20)
#    0.000    2.462    1.538    0.923    0.000    1.231 
#    1.385    5.385    3.385    0.000    0.000    0.000 
#    0.000    0.000    0.000    0.000    0.000    0.000 
#
# Total GULP energy -145042.743710 kJ/mol
# GULP energy per Si atom -5578.567066 kJ/mol
# Density = 1.930658 g / cm^3
# Si number density = 19.350624 Si / 1000 Ang^3
#
#
#
# Elastic Constant Matrix: (Units=GPa)
#
#
# Indices 1 2 3 4 5 6 
#
# 1 133.5439 25.8233 51.9116 0.0000 0.0000 0.0000
# 2 25.8233 38.2145 18.0190 0.0000 0.0000 0.0000
# 3 51.9116 18.0190 64.8802 0.0000 0.0000 0.0000
# 4 0.0000 0.0000 0.0000 14.1103 0.0000 0.0000
# 5 0.0000 0.0000 0.0000 0.0000 42.6640 0.0000
# 6 0.0000 0.0000 0.0000 0.0000 0.0000 20.4173
#
#
#
# Elastic Compliance Matrix: (Units=1/GPa)
#
#
# Indices 1 2 3 4 5 6 
#
# 1 0.011352 -0.003899 -0.008000 0.000000 0.000000 0.000000
# 2 -0.003899 0.031450 -0.005615 0.000000 0.000000 0.000000
# 3 -0.008000 -0.005615 0.023373 0.000000 0.000000 0.000000
# 4 0.000000 0.000000 0.000000 0.070870 0.000000 0.000000
# 5 0.000000 0.000000 0.000000 0.000000 0.023439 0.000000
# 6 0.000000 0.000000 0.000000 0.000000 0.000000 0.048978
#
#
# Mechanical properties :
#
#
# Convention : Reuss Voigt Hill
#
# Bulk Modulus (GPa) = 32.10502 47.57182 39.83842
# Shear Modulus (GPa) = 19.61757 24.83061 22.22409
#
# Velocity S-wave (km/s) = 3.18747 3.58606 3.39262
# Velocity P-wave (km/s) = 5.49307 6.46405 5.99824
#
# Compressibility (1/GPa) = 0.03114778
#
# Stress axis : x y z
#
# Youngs Moduli (GPa) = 88.09126 31.79618 42.78372
#
# Poissons Ratio (x) = 0.12397 0.34227
# Poissons Ratio (y) = 0.34345 0.24023
# Poissons Ratio (z) = 0.70473 0.17854
#
# Static dielectric constant tensor:
#      x y z
#    x 1.679110 0.000000 0.000000 
#    y 0.000000 1.642690 0.000000 
#    z 0.000000 0.000000 1.712680 
# 
# From -- ./inp_files/23701.got.cif
#   From: 2010.05.17/outbox.cif.g08.bks.cpg/sg20_12_cif.got.tgz:23701.got - 2010.06.03 22:52:26.
