data_PCOD9316217
_publ_section_title
;
Structure prediction by ZEFSAII (Michael W. Deem and Ramdas Pophale) SiO2 
 PCOD9316217
Probable space group: C 2 2 21
;
_chemical_formula_sum "Si O2"
_cell_formula_units_Z 40
_cell_length_a 7.154140
_cell_length_b 26.543351
_cell_length_c 8.224495
_cell_angle_alpha 90.000000
_cell_angle_beta 90.000000
_cell_angle_gamma 90.000000
_cell_volume 1561.789237
_symmetry_space_group_name_H-M "C 2 2 21"
_symmetry_group_IT_number 20
_symmetry_cell_setting 'orthorhombic'
loop_
_space_group_symop_operation_xyz
x,y,z
-x,-y,1/2+z
x,-y,-z
-x,y,1/2-z
1/2+x,1/2+y,z
1/2-x,1/2-y,1/2+z
1/2+x,1/2-y,-z
1/2-x,1/2+y,1/2-z
loop_
_atom_site_type_symbol
_atom_site_label
_atom_site_fract_x
_atom_site_fract_y
_atom_site_fract_z
Si Si1 0.500000 0.924225 0.750000
Si Si2 0.726639 0.237740 0.263550
Si Si3 0.707177 0.829485 0.436435
Si Si4 0.289713 0.851201 0.563772
Si Si5 0.273352 0.082487 0.727387
Si Si6 0.356145 0.000000 0.500000
O O1 0.323717 0.887378 0.720328
O O2 0.486333 0.959379 0.591818
O O3 0.500000 0.238513 0.250000
O O4 0.786378 0.208469 0.426587
O O5 0.796951 0.200436 0.121059
O O6 0.791193 0.293811 0.223747
O O7 0.499097 0.840005 0.500569
O O8 0.787192 0.884200 0.383414
O O9 0.203169 0.883412 0.422202
O O10 0.500000 0.082157 0.750000
O O11 0.242253 0.026934 0.647799
#
# Coordination Sequence:
#
# PCOD9316217 Si02
#       6
#     4   8   8   8   8   4
#     4  10  16  28  42  66  98 130 154 198 236 294
#     4  10  19  31  48  70  95 132 166 194 236 289
#     4  10  18  30  45  64  94 130 160 199 235 280
#     4   9  17  30  44  64  97 130 158 195 234 284
#     4   9  17  28  42  66  96 126 159 193 239 291
#     4  10  18  24  44  68  96 126 160 192 244 296
#
# _framework density 25.611649
#
# number of rings (size 3 to 8) (size 9 to 14) (size 15 to 20)
#    0.000    2.400    4.000    1.200    0.000    1.600 
#    0.000    0.000    0.000    0.000    0.000    0.000 
#    6.000    0.000    0.000    0.000    0.000    0.000 
#
# Total GULP energy -111370.804252 kJ/mol
# GULP energy per Si atom -5568.540213 kJ/mol
# Density = 2.555336 g / cm^3
# Si number density = 25.611649 Si / 1000 Ang^3
#
#
#
# Elastic Constant Matrix: (Units=GPa)
#
#
# Indices 1 2 3 4 5 6 
#
# 1 93.6987 15.2326 19.3339 0.0000 0.0000 0.0000
# 2 15.2326 155.3997 43.5451 0.0000 0.0000 0.0000
# 3 19.3339 43.5451 111.3561 0.0000 0.0000 0.0000
# 4 0.0000 0.0000 0.0000 104.9596 0.0000 0.0000
# 5 0.0000 0.0000 0.0000 0.0000 -0.8586 0.0000
# 6 0.0000 0.0000 0.0000 0.0000 0.0000 6.1728
#
#
#
# Elastic Compliance Matrix: (Units=1/GPa)
#
#
# Indices 1 2 3 4 5 6 
#
# 1 0.011121 -0.000617 -0.001690 0.000000 0.000000 0.000000
# 2 -0.000617 0.007261 -0.002732 0.000000 0.000000 0.000000
# 3 -0.001690 -0.002732 0.010342 0.000000 0.000000 0.000000
# 4 0.000000 0.000000 0.000000 0.009527 0.000000 0.000000
# 5 0.000000 0.000000 0.000000 0.000000 -1.164680 0.000000
# 6 0.000000 0.000000 0.000000 0.000000 0.000000 0.162002
#
#
# Mechanical properties :
#
#
# Convention : Reuss Voigt Hill
#
# Bulk Modulus (GPa) = 53.62788 57.40864 55.51826
# Shear Modulus (GPa) = -5.27353 40.87762 17.80205
#
# Velocity S-wave (km/s) = -1.43649 3.99940 2.63929
# Velocity P-wave (km/s) = 4.27001 6.61745 5.56883
#
# Compressibility (1/GPa) = 0.01864702
#
# Stress axis : x y z
#
# Youngs Moduli (GPa) = 89.91654 137.72008 96.69264
#
# Poissons Ratio (x) = 0.08492 0.16339
# Poissons Ratio (y) = 0.05545 0.26420
# Poissons Ratio (z) = 0.15194 0.37630
#
# Static dielectric constant tensor:
#      x y z
#    x 1.986590 0.000000 0.000000 
#    y 0.000000 2.075720 0.000000 
#    z 0.000000 0.000000 2.175340 
# 
# From -- ./inp_files/7493.got.cif
#   From: 2010.05.17/outbox.cif.g08.bks.cpg/sg20_4_cif.got.tgz:7493.got - 2010.06.03 22:52:26.
