data_PCOD9316272
_publ_section_title
;
Structure prediction by ZEFSAII (Michael W. Deem and Ramdas Pophale) SiO2 
 PCOD9316272
Probable space group: C 2 2 21
;
_chemical_formula_sum "Si O2"
_cell_formula_units_Z 60
_cell_length_a 14.418707
_cell_length_b 18.191850
_cell_length_c 10.984262
_cell_angle_alpha 90.000000
_cell_angle_beta 90.000000
_cell_angle_gamma 90.000000
_cell_volume 2881.204380
_symmetry_space_group_name_H-M "C 2 2 21"
_symmetry_group_IT_number 20
_symmetry_cell_setting 'orthorhombic'
loop_
_space_group_symop_operation_xyz
x,y,z
-x,-y,1/2+z
x,-y,-z
-x,y,1/2-z
1/2+x,1/2+y,z
1/2-x,1/2-y,1/2+z
1/2+x,1/2-y,-z
1/2-x,1/2+y,1/2-z
loop_
_atom_site_type_symbol
_atom_site_label
_atom_site_fract_x
_atom_site_fract_y
_atom_site_fract_z
Si Si1 0.939183 0.386809 0.627785
Si Si2 0.560697 0.175327 0.871343
Si Si3 0.343866 0.500000 0.000000
Si Si4 0.211299 0.040563 0.122097
Si Si5 0.325667 0.030033 0.676315
Si Si6 0.218388 0.787215 0.925837
Si Si7 0.762092 0.283946 0.674424
Si Si8 0.908885 0.894587 0.813371
O O1 0.981845 0.358085 0.498761
O O2 0.899373 0.469978 0.625689
O O3 0.846879 0.337797 0.644927
O O4 0.000000 0.378578 0.750000
O O5 0.500000 0.187564 0.750000
O O6 0.630924 0.110199 0.831080
O O7 0.617550 0.248711 0.908565
O O8 0.269139 0.529862 0.901762
O O9 0.407117 0.436918 0.940997
O O10 0.228670 0.125936 0.092707
O O11 0.127105 0.044888 0.216617
O O12 0.296059 0.000889 0.191377
O O13 0.187378 0.000000 0.000000
O O14 0.274182 0.753167 0.810780
O O15 0.247889 0.770463 0.062500
O O16 0.669070 0.332525 0.676181
O O17 0.000000 0.865028 0.750000
#
# Coordination Sequence:
#
# PCOD9316272 Si02
#       8
#     8   8   4   8   8   8   8   8
#     4  11  21  39  65  93 141 179 220 276 340 406
#     4  11  24  38  63 106 134 174 227 276 335 420
#     4  10  16  36  64  88 126 172 220 270 332 396
#     4  10  23  40  64  96 129 170 222 281 327 391
#     4  11  19  39  66  93 134 173 221 271 338 401
#     4  10  22  41  67  91 131 178 225 271 342 397
#     4  10  21  43  62  93 128 183 220 278 339 399
#     4  10  21  38  65  92 127 170 217 278 341 386
#
# _framework density 20.824624
#
# number of rings (size 3 to 8) (size 9 to 14) (size 15 to 20)
#    0.000    1.600    5.333    1.200    2.800    4.267 
#    0.000    2.667    0.000    3.200    0.000    0.000 
#    0.000    0.000    0.000    0.000    0.000    0.000 
#
# Total GULP energy -167197.324655 kJ/mol
# GULP energy per Si atom -5573.244155 kJ/mol
# Density = 2.077723 g / cm^3
# Si number density = 20.824624 Si / 1000 Ang^3
#
#
#
# Elastic Constant Matrix: (Units=GPa)
#
#
# Indices 1 2 3 4 5 6 
#
# 1 60.7303 12.7822 24.9998 0.0000 0.0000 0.0000
# 2 12.7822 63.8862 38.5197 0.0000 0.0000 0.0000
# 3 24.9998 38.5197 88.1319 0.0000 0.0000 0.0000
# 4 0.0000 0.0000 0.0000 40.6056 0.0000 0.0000
# 5 0.0000 0.0000 0.0000 0.0000 31.6118 0.0000
# 6 0.0000 0.0000 0.0000 0.0000 0.0000 -0.3862
#
#
#
# Elastic Compliance Matrix: (Units=1/GPa)
#
#
# Indices 1 2 3 4 5 6 
#
# 1 0.018669 -0.000736 -0.004974 0.000000 0.000000 0.000000
# 2 -0.000736 0.021283 -0.009093 0.000000 0.000000 0.000000
# 3 -0.004974 -0.009093 0.016732 0.000000 0.000000 0.000000
# 4 0.000000 0.000000 0.000000 0.024627 0.000000 0.000000
# 5 0.000000 0.000000 0.000000 0.000000 0.031634 0.000000
# 6 0.000000 0.000000 0.000000 0.000000 0.000000 -2.589218
#
#
# Mechanical properties :
#
#
# Convention : Reuss Voigt Hill
#
# Bulk Modulus (GPa) = 36.93198 40.59465 38.76332
# Shear Modulus (GPa) = -2.05116 23.46268 10.70576
#
# Velocity S-wave (km/s) = -0.99353 3.36025 2.26982
# Velocity P-wave (km/s) = 4.05674 5.88140 5.05213
#
# Compressibility (1/GPa) = 0.02707680
#
# Stress axis : x y z
#
# Youngs Moduli (GPa) = 53.56554 46.98630 59.76613
#
# Poissons Ratio (x) = 0.03459 0.29727
# Poissons Ratio (y) = 0.03944 0.54347
# Poissons Ratio (z) = 0.26643 0.42726
#
# Static dielectric constant tensor:
#      x y z
#    x 1.782820 0.000000 0.000000 
#    y 0.000000 1.862900 0.000000 
#    z 0.000000 0.000000 1.850780 
# 
# From -- ./inp_files/15308.got.cif
#   From: 2010.05.17/outbox.cif.g08.bks.cpg/sg20_8_cif.got.tgz:15308.got - 2010.06.03 22:52:26.
