data_PCOD9316995
_publ_section_title
;
Structure prediction by ZEFSAII (Michael W. Deem and Ramdas Pophale) SiO2 
 PCOD9316995
Probable space group: C 2 2 21
;
_chemical_formula_sum "Si O2"
_cell_formula_units_Z 40
_cell_length_a 20.473191
_cell_length_b 13.440802
_cell_length_c 7.044503
_cell_angle_alpha 90.000000
_cell_angle_beta 90.000000
_cell_angle_gamma 90.000000
_cell_volume 1938.478908
_symmetry_space_group_name_H-M "C 2 2 21"
_symmetry_group_IT_number 20
_symmetry_cell_setting 'orthorhombic'
loop_
_space_group_symop_operation_xyz
x,y,z
-x,-y,1/2+z
x,-y,-z
-x,y,1/2-z
1/2+x,1/2+y,z
1/2-x,1/2-y,1/2+z
1/2+x,1/2-y,-z
1/2-x,1/2+y,1/2-z
loop_
_atom_site_type_symbol
_atom_site_label
_atom_site_fract_x
_atom_site_fract_y
_atom_site_fract_z
Si Si1 0.337520 0.292651 0.232376
Si Si2 0.785986 0.995019 0.231081
Si Si3 0.641665 0.083544 0.704062
Si Si4 0.423500 0.888360 0.786204
Si Si5 0.192958 0.784863 0.710336
O O1 0.337659 0.409073 0.281551
O O2 0.392488 0.214316 0.287705
O O3 0.268370 0.248110 0.300202
O O4 0.332777 0.293474 0.003517
O O5 0.715656 0.959642 0.309321
O O6 0.806112 0.105083 0.296263
O O7 0.778497 0.000000 0.000000
O O8 0.603588 0.103797 0.504904
O O9 0.653165 0.191965 0.797344
O O10 0.603342 0.992308 0.796752
O O11 0.500000 0.885875 0.750000
#
# Coordination Sequence:
#
# PCOD9316995 Si02
#       5
#     8   8   8   8   8
#     4   9  17  29  47  75 102 134 170 208 265 312
#     4   9  16  29  52  80 108 128 162 224 278 314
#     4   9  18  32  48  76 102 133 178 213 263 307
#     4  10  19  33  49  69 105 147 181 208 243 311
#     4   9  16  29  50  75 104 126 161 223 269 307
#
# _framework density 20.634734999999999
#
# number of rings (size 3 to 8) (size 9 to 14) (size 15 to 20)
#    0.000    2.800    2.000    0.000    0.000    0.000 
#    3.600    0.000    0.000    1.200    0.000    8.400 
#    0.000    0.000    0.000    0.000    0.800    0.000 
#
# Total GULP energy -111386.815825 kJ/mol
# GULP energy per Si atom -5569.340791 kJ/mol
# Density = 2.058777 g / cm^3
# Si number density = 20.634735 Si / 1000 Ang^3
#
#
#
# Elastic Constant Matrix: (Units=GPa)
#
#
# Indices 1 2 3 4 5 6 
#
# 1 119.9106 97.2978 16.1935 0.0000 0.0000 0.0000
# 2 97.2978 269.6541 14.0188 0.0000 0.0000 0.0000
# 3 16.1935 14.0188 87.9681 0.0000 0.0000 0.0000
# 4 0.0000 0.0000 0.0000 -5.7202 0.0000 0.0000
# 5 0.0000 0.0000 0.0000 0.0000 12.6338 0.0000
# 6 0.0000 0.0000 0.0000 0.0000 0.0000 86.5812
#
#
#
# Elastic Compliance Matrix: (Units=1/GPa)
#
#
# Indices 1 2 3 4 5 6 
#
# 1 0.011993 -0.004248 -0.001531 0.000000 0.000000 0.000000
# 2 -0.004248 0.005244 -0.000054 0.000000 0.000000 0.000000
# 3 -0.001531 -0.000054 0.011658 0.000000 0.000000 0.000000
# 4 0.000000 0.000000 0.000000 -0.174819 0.000000 0.000000
# 5 0.000000 0.000000 0.000000 0.000000 0.079152 0.000000
# 6 0.000000 0.000000 0.000000 0.000000 0.000000 0.011550
#
#
# Mechanical properties :
#
#
# Convention : Reuss Voigt Hill
#
# Bulk Modulus (GPa) = 58.03674 81.39478 69.71576
# Shear Modulus (GPa) = -132.22864 42.03382 -45.09741
#
# Velocity S-wave (km/s) = -8.01372 4.51826 -4.68002
# Velocity P-wave (km/s) = 7.57888 8.17011 2.15768
#
# Compressibility (1/GPa) = 0.01723047
#
# Stress axis : x y z
#
# Youngs Moduli (GPa) = 83.38188 190.69567 85.77714
#
# Poissons Ratio (x) = 0.81004 0.13131
# Poissons Ratio (y) = 0.35419 0.00461
# Poissons Ratio (z) = 0.12764 0.01025
#
# Static dielectric constant tensor:
#      x y z
#    x 1.652660 0.000000 0.000000 
#    y 0.000000 1.811630 0.000000 
#    z 0.000000 0.000000 1.834180 
# 
# From -- ./inp_files/8089.got.cif
#   From: 2010.05.17/outbox.cif.g08.bks.cpg/sg20_5_cif.got.tgz:8089.got - 2010.06.03 22:52:26.
