data_PCOD9316593
_publ_section_title
;
Structure prediction by ZEFSAII (Michael W. Deem and Ramdas Pophale) SiO2 
 PCOD9316593
Probable space group: C 2 2 21
;
_chemical_formula_sum "Si O2"
_cell_formula_units_Z 60
_cell_length_a 8.735681
_cell_length_b 19.521798
_cell_length_c 19.425360
_cell_angle_alpha 90.000000
_cell_angle_beta 90.000000
_cell_angle_gamma 90.000000
_cell_volume 3312.727076
_symmetry_space_group_name_H-M "C 2 2 21"
_symmetry_group_IT_number 20
_symmetry_cell_setting 'orthorhombic'
loop_
_space_group_symop_operation_xyz
x,y,z
-x,-y,1/2+z
x,-y,-z
-x,y,1/2-z
1/2+x,1/2+y,z
1/2-x,1/2-y,1/2+z
1/2+x,1/2-y,-z
1/2-x,1/2+y,1/2-z
loop_
_atom_site_type_symbol
_atom_site_label
_atom_site_fract_x
_atom_site_fract_y
_atom_site_fract_z
Si Si1 0.000000 0.654312 0.750000
Si Si2 0.308459 0.030586 0.071846
Si Si3 0.425377 0.488577 0.317119
Si Si4 0.122143 0.676411 0.484479
Si Si5 0.930727 0.195142 0.555343
Si Si6 0.840149 0.165356 0.710747
Si Si7 0.625184 0.440531 0.442947
Si Si8 0.034477 0.593345 0.899446
O O1 0.828409 0.688166 0.761646
O O2 0.973858 0.611736 0.680393
O O3 0.369757 0.106086 0.058141
O O4 0.192874 0.029297 0.135487
O O5 0.441237 0.976249 0.087290
O O6 0.237187 0.000000 0.000000
O O7 0.500000 0.522437 0.250000
O O8 0.344491 0.418156 0.291102
O O9 0.556434 0.467254 0.370966
O O10 0.292728 0.699728 0.501957
O O11 0.032766 0.737644 0.449468
O O12 0.044294 0.653280 0.556167
O O13 0.863213 0.187360 0.631908
O O14 0.025100 0.126177 0.538414
O O15 0.000000 0.185054 0.750000
O O16 0.622527 0.500000 0.500000
O O17 0.796360 0.416515 0.427925
#
# Coordination Sequence:
#
# PCOD9316593 Si02
#       8
#     4   8   8   8   8   8   8   8
#     4  12  18  36  62  94 122 152 202 260 316 370
#     4  10  19  36  58  86 123 154 195 249 317 363
#     4  10  18  33  54  88 120 153 197 247 306 372
#     4  11  22  38  60  83 120 162 201 259 297 376
#     4  11  22  39  58  89 119 162 215 247 315 370
#     4  10  20  35  59  90 123 155 202 261 307 374
#     4  11  21  35  58  91 123 157 199 263 313 365
#     4  11  21  34  60  93 118 154 201 253 313 368
#
# _framework density 18.111967
#
# number of rings (size 3 to 8) (size 9 to 14) (size 15 to 20)
#    0.000    1.333    2.667    8.000    0.000    0.000 
#    0.000    0.000    1.467    3.200    3.467    0.000 
#    0.000    0.000    0.000    0.000    0.000    0.000 
#
# Total GULP energy -167352.025894 kJ/mol
# GULP energy per Si atom -5578.400863 kJ/mol
# Density = 1.807074 g / cm^3
# Si number density = 18.111967 Si / 1000 Ang^3
#
#
#
# Elastic Constant Matrix: (Units=GPa)
#
#
# Indices 1 2 3 4 5 6 
#
# 1 138.0770 32.5596 37.2730 0.0000 0.0000 0.0000
# 2 32.5596 71.6395 33.0925 0.0000 0.0000 0.0000
# 3 37.2730 33.0925 78.4397 0.0000 0.0000 0.0000
# 4 0.0000 0.0000 0.0000 11.7394 0.0000 0.0000
# 5 0.0000 0.0000 0.0000 0.0000 31.6316 0.0000
# 6 0.0000 0.0000 0.0000 0.0000 0.0000 14.4027
#
#
#
# Elastic Compliance Matrix: (Units=1/GPa)
#
#
# Indices 1 2 3 4 5 6 
#
# 1 0.008662 -0.002528 -0.003049 0.000000 0.000000 0.000000
# 2 -0.002528 0.018075 -0.006424 0.000000 0.000000 0.000000
# 3 -0.003049 -0.006424 0.016908 0.000000 0.000000 0.000000
# 4 0.000000 0.000000 0.000000 0.085183 0.000000 0.000000
# 5 0.000000 0.000000 0.000000 0.000000 0.031614 0.000000
# 6 0.000000 0.000000 0.000000 0.000000 0.000000 0.069432
#
#
# Mechanical properties :
#
#
# Convention : Reuss Voigt Hill
#
# Bulk Modulus (GPa) = 50.91282 54.88958 52.90120
# Shear Modulus (GPa) = 19.19942 23.90347 21.55144
#
# Velocity S-wave (km/s) = 3.25936 3.63679 3.45324
# Velocity P-wave (km/s) = 6.50658 6.92867 6.72094
#
# Compressibility (1/GPa) = 0.01964142
#
# Stress axis : x y z
#
# Youngs Moduli (GPa) = 115.45206 55.32370 59.14365
#
# Poissons Ratio (x) = 0.13986 0.18034
# Poissons Ratio (y) = 0.29187 0.37997
# Poissons Ratio (z) = 0.35204 0.35543
#
# Static dielectric constant tensor:
#      x y z
#    x 1.674170 0.000000 0.000000 
#    y 0.000000 1.587430 0.000000 
#    z 0.000000 0.000000 1.625920 
# 
# From -- ./inp_files/23923.got.cif
#   From: 2010.05.17/outbox.cif.g08.bks.cpg/sg20_12_cif.got.tgz:23923.got - 2010.06.03 22:52:26.
