data_PCOD9316481
_publ_section_title
;
Structure prediction by ZEFSAII (Michael W. Deem and Ramdas Pophale) SiO2 
 PCOD9316481
Probable space group: C 2 2 21
;
_chemical_formula_sum "Si O2"
_cell_formula_units_Z 48
_cell_length_a 9.621657
_cell_length_b 15.373555
_cell_length_c 12.992146
_cell_angle_alpha 90.000000
_cell_angle_beta 90.000000
_cell_angle_gamma 90.000000
_cell_volume 1921.786194
_symmetry_space_group_name_H-M "C 2 2 21"
_symmetry_group_IT_number 20
_symmetry_cell_setting 'orthorhombic'
loop_
_space_group_symop_operation_xyz
x,y,z
-x,-y,1/2+z
x,-y,-z
-x,y,1/2-z
1/2+x,1/2+y,z
1/2-x,1/2-y,1/2+z
1/2+x,1/2-y,-z
1/2-x,1/2+y,1/2-z
loop_
_atom_site_type_symbol
_atom_site_label
_atom_site_fract_x
_atom_site_fract_y
_atom_site_fract_z
Si Si1 0.319724 0.105884 0.637788
Si Si2 0.385309 0.551133 0.340853
Si Si3 0.659401 0.911399 0.807810
Si Si4 0.537887 0.791732 0.953270
Si Si5 0.855543 0.150035 0.685786
Si Si6 0.108533 0.868674 0.521534
O O1 0.411375 0.156610 0.554526
O O2 0.273214 0.161479 0.736216
O O3 0.173973 0.084626 0.578266
O O4 0.375509 0.012887 0.673420
O O5 0.500000 0.555245 0.250000
O O6 0.245496 0.596001 0.298038
O O7 0.350659 0.449343 0.351827
O O8 0.463973 0.594828 0.435646
O O9 0.531355 0.857094 0.855757
O O10 0.777816 0.883769 0.890875
O O11 0.639513 0.718039 0.905635
O O12 0.410462 0.731074 0.986769
O O13 0.000000 0.162209 0.750000
#
# Coordination Sequence:
#
# PCOD9316481 Si02
#       6
#     8   8   8   8   8   8
#     4  10  21  38  54  79 114 145 184 221 275 346
#     4   8  17  31  53  75 109 143 169 218 276 327
#     4   9  20  37  53  79 111 146 180 216 273 338
#     4  11  21  28  55  85 106 141 176 236 263 319
#     4  10  19  34  53  83 110 142 183 229 277 319
#     4  10  18  30  54  83 106 134 176 225 270 313
#
# _framework density 24.976763999999999
#
# number of rings (size 3 to 8) (size 9 to 14) (size 15 to 20)
#    0.000    2.333    1.667    3.000    4.667    0.000 
#    0.000    0.000    0.000    0.000   69.333    0.000 
#    0.000    0.000    0.000    0.000    0.000    0.000 
#
# Total GULP energy -134003.198515 kJ/mol
# GULP energy per Si atom -5583.466605 kJ/mol
# Density = 2.491992 g / cm^3
# Si number density = 24.976764 Si / 1000 Ang^3
#
#
#
# Elastic Constant Matrix: (Units=GPa)
#
#
# Indices 1 2 3 4 5 6 
#
# 1 87.6373 43.4825 31.7709 0.0000 0.0000 0.0000
# 2 43.4825 93.2970 6.7002 0.0000 0.0000 0.0000
# 3 31.7709 6.7002 58.4841 0.0000 0.0000 0.0000
# 4 0.0000 0.0000 0.0000 37.1689 0.0000 0.0000
# 5 0.0000 0.0000 0.0000 0.0000 34.9986 0.0000
# 6 0.0000 0.0000 0.0000 0.0000 0.0000 32.5205
#
#
#
# Elastic Compliance Matrix: (Units=1/GPa)
#
#
# Indices 1 2 3 4 5 6 
#
# 1 0.018789 -0.008091 -0.009280 0.000000 0.000000 0.000000
# 2 -0.008091 0.014291 0.002758 0.000000 0.000000 0.000000
# 3 -0.009280 0.002758 0.021824 0.000000 0.000000 0.000000
# 4 0.000000 0.000000 0.000000 0.026904 0.000000 0.000000
# 5 0.000000 0.000000 0.000000 0.000000 0.028573 0.000000
# 6 0.000000 0.000000 0.000000 0.000000 0.000000 0.030750
#
#
# Mechanical properties :
#
#
# Convention : Reuss Voigt Hill
#
# Bulk Modulus (GPa) = 38.94280 44.81397 41.87838
# Shear Modulus (GPa) = 27.94602 31.43524 29.69063
#
# Velocity S-wave (km/s) = 3.34860 3.55150 3.45154
# Velocity P-wave (km/s) = 5.52958 5.89904 5.71730
#
# Compressibility (1/GPa) = 0.02567869
#
# Stress axis : x y z
#
# Youngs Moduli (GPa) = 53.22197 69.97347 45.82095
#
# Poissons Ratio (x) = 0.56612 0.42523
# Poissons Ratio (y) = 0.43059 -0.12637
# Poissons Ratio (z) = 0.49391 -0.19298
#
# Static dielectric constant tensor:
#      x y z
#    x 2.060080 0.000000 0.000000 
#    y 0.000000 1.980140 0.000000 
#    z 0.000000 0.000000 1.996130 
# 
# From -- ./inp_files/20800.got.cif
#   From: 2010.05.17/outbox.cif.g08.bks.cpg/sg20_11_cif.got.tgz:20800.got - 2010.06.03 22:52:26.
