data_PCOD9316090
_publ_section_title
;
Structure prediction by ZEFSAII (Michael W. Deem and Ramdas Pophale) SiO2 
 PCOD9316090
Probable space group: P 21 21 21
;
_chemical_formula_sum "Si O2"
_cell_formula_units_Z 16
_cell_length_a 9.483798
_cell_length_b 5.492577
_cell_length_c 12.189065
_cell_angle_alpha 90.000000
_cell_angle_beta 90.000000
_cell_angle_gamma 90.000000
_cell_volume 634.934378
_symmetry_space_group_name_H-M "P 21 21 21"
_symmetry_group_IT_number 19
_symmetry_cell_setting 'orthorhombic'
loop_
_space_group_symop_operation_xyz
x,y,z
1/2-x,-y,1/2+z
1/2+x,1/2-y,-z
-x,1/2+y,1/2-z
loop_
_atom_site_type_symbol
_atom_site_label
_atom_site_fract_x
_atom_site_fract_y
_atom_site_fract_z
Si Si1 0.927193 0.830939 0.580181
Si Si2 0.975337 0.326607 0.311890
Si Si3 0.639804 0.025705 0.494779
Si Si4 0.340821 0.850861 0.199372
O O1 0.848809 0.662505 0.670135
O O2 0.028904 0.694045 0.496328
O O3 0.800187 0.974084 0.524783
O O4 0.035674 0.983086 0.653507
O O5 0.816757 0.420016 0.336358
O O6 0.038979 0.561715 0.246720
O O7 0.073010 0.286287 0.418770
O O8 0.635121 0.102194 0.368078
#
# Coordination Sequence:
#
# PCOD9316090 Si02
#       4
#     4   4   4   4
#     4  12  27  48  78 117 156 213 269 331 404 483
#     4  12  30  51  81 118 161 210 275 334 396 478
#     4  12  28  48  80 116 159 215 268 334 404 478
#     4  12  27  47  79 109 164 208 270 331 408 479
#
# _framework density 25.199452000000001
#
# number of rings (size 3 to 8) (size 9 to 14) (size 15 to 20)
#    0.000    0.000    5.000    3.000   14.000    2.000 
#    0.000    0.000    0.000    0.000    0.000    0.000 
#    0.000    0.000    0.000    0.000    0.000    0.000 
#
# Total GULP energy -89511.687317 kJ/mol
# GULP energy per Si atom -5594.480457 kJ/mol
# Density = 2.514210 g / cm^3
# Si number density = 25.199452 Si / 1000 Ang^3
#
#
#
# Elastic Constant Matrix: (Units=GPa)
#
#
# Indices 1 2 3 4 5 6 
#
# 1 155.7625 10.1442 1.1795 0.0000 0.0000 0.0000
# 2 10.1442 50.8091 8.4626 0.0000 0.0000 0.0000
# 3 1.1795 8.4626 63.5602 0.0000 0.0000 0.0000
# 4 0.0000 0.0000 0.0000 28.5569 0.0000 0.0000
# 5 0.0000 0.0000 0.0000 0.0000 46.0058 0.0000
# 6 0.0000 0.0000 0.0000 0.0000 0.0000 45.0445
#
#
#
# Elastic Compliance Matrix: (Units=1/GPa)
#
#
# Indices 1 2 3 4 5 6 
#
# 1 0.006505 -0.001308 0.000053 0.000000 0.000000 0.000000
# 2 -0.001308 0.020391 -0.002691 0.000000 0.000000 0.000000
# 3 0.000053 -0.002691 0.016090 0.000000 0.000000 0.000000
# 4 0.000000 0.000000 0.000000 0.035018 0.000000 0.000000
# 5 0.000000 0.000000 0.000000 0.000000 0.021736 0.000000
# 6 0.000000 0.000000 0.000000 0.000000 0.000000 0.022200
#
#
# Mechanical properties :
#
#
# Convention : Reuss Voigt Hill
#
# Bulk Modulus (GPa) = 28.49312 34.41161 31.45237
# Shear Modulus (GPa) = 35.32852 40.61115 37.96983
#
# Velocity S-wave (km/s) = 3.74833 4.01881 3.88593
# Velocity P-wave (km/s) = 5.48315 5.93463 5.71335
#
# Compressibility (1/GPa) = 0.03509619
#
# Stress axis : x y z
#
# Youngs Moduli (GPa) = 153.73305 49.04194 62.14900
#
# Poissons Ratio (x) = 0.06413 -0.00332
# Poissons Ratio (y) = 0.20102 0.16722
# Poissons Ratio (z) = -0.00821 0.13195
#
# Static dielectric constant tensor:
#      x y z
#    x 1.935270 0.000000 0.000000 
#    y 0.000000 2.118820 0.000000 
#    z 0.000000 0.000000 2.025920 
# 
# From -- ./inp_files/260.got.cif
#   From: 2010.05.17/outbox.cif.g08.bks.cpg/sg19_1_cif.got.tgz:260.got - 2010.06.03 22:46:19.
