data_PCOD9316654
_publ_section_title
;
Structure prediction by ZEFSAII (Michael W. Deem and Ramdas Pophale) SiO2 
 PCOD9316654
Probable space group: C 2 2 21
;
_chemical_formula_sum "Si O2"
_cell_formula_units_Z 64
_cell_length_a 18.495453
_cell_length_b 5.539798
_cell_length_c 31.460471
_cell_angle_alpha 90.000000
_cell_angle_beta 90.000000
_cell_angle_gamma 90.000000
_cell_volume 3223.473633
_symmetry_space_group_name_H-M "C 2 2 21"
_symmetry_group_IT_number 20
_symmetry_cell_setting 'orthorhombic'
loop_
_space_group_symop_operation_xyz
x,y,z
-x,-y,1/2+z
x,-y,-z
-x,y,1/2-z
1/2+x,1/2+y,z
1/2-x,1/2-y,1/2+z
1/2+x,1/2-y,-z
1/2-x,1/2+y,1/2-z
loop_
_atom_site_type_symbol
_atom_site_label
_atom_site_fract_x
_atom_site_fract_y
_atom_site_fract_z
Si Si1 0.945476 0.177128 0.859712
Si Si2 0.172648 0.729994 0.882670
Si Si3 0.258763 0.112189 0.850542
Si Si4 0.342566 0.770808 0.788136
Si Si5 0.087168 0.244969 0.475310
Si Si6 0.317206 0.519838 0.089777
Si Si7 0.008789 0.679905 0.891822
Si Si8 0.802377 0.501365 0.707508
O O1 0.912037 0.167773 0.812061
O O2 0.985582 0.432027 0.867963
O O3 0.880593 0.161307 0.895297
O O4 0.990864 0.931967 0.867515
O O5 0.237246 0.586574 0.905725
O O6 0.094324 0.678100 0.899839
O O7 0.171098 0.667891 0.831565
O O8 0.202853 0.001096 0.883928
O O9 0.316194 0.283062 0.872880
O O10 0.211828 0.253152 0.816606
O O11 0.304937 0.916865 0.826119
O O12 0.277654 0.585034 0.776799
O O13 0.352041 0.946707 0.747930
O O14 0.095538 0.500000 0.500000
O O15 0.161343 0.150473 0.453411
O O16 0.034230 0.300889 0.436015
O O17 0.061629 0.000000 0.500000
#
# Coordination Sequence:
#
# PCOD9316654 Si02
#       8
#     8   8   8   8   8   8   8   8
#     4  11  22  39  66  94 123 174 225 258 312 381
#     4  10  23  40  64  91 126 172 221 258 321 385
#     4  10  18  34  61  90 122 158 216 261 319 363
#     4  11  18  31  57  91 124 161 217 276 319 356
#     4  11  24  43  70  99 129 158 205 259 325 385
#     4  10  21  38  69  95 121 160 214 268 309 382
#     4  11  26  44  68  91 131 178 212 256 318 407
#     4  10  20  31  57  91 125 162 215 281 319 359
#
# _framework density 19.854358000000001
#
# number of rings (size 3 to 8) (size 9 to 14) (size 15 to 20)
#    0.000    1.500    5.000    3.000    5.250    0.000 
#    0.000    1.250    0.000    0.000    0.000    0.000 
#    0.000    0.000    0.000    0.000    0.000    0.000 
#
# Total GULP energy -178226.995065 kJ/mol
# GULP energy per Si atom -5569.593596 kJ/mol
# Density = 1.980917 g / cm^3
# Si number density = 19.854358 Si / 1000 Ang^3
#
#
#
# Elastic Constant Matrix: (Units=GPa)
#
#
# Indices 1 2 3 4 5 6 
#
# 1 74.4383 23.6606 8.8384 0.0000 0.0000 0.0000
# 2 23.6606 94.2670 4.2610 0.0000 0.0000 0.0000
# 3 8.8384 4.2610 41.7886 0.0000 0.0000 0.0000
# 4 0.0000 0.0000 0.0000 18.8375 0.0000 0.0000
# 5 0.0000 0.0000 0.0000 0.0000 12.8999 0.0000
# 6 0.0000 0.0000 0.0000 0.0000 0.0000 16.1935
#
#
#
# Elastic Compliance Matrix: (Units=1/GPa)
#
#
# Indices 1 2 3 4 5 6 
#
# 1 0.014915 -0.003618 -0.002786 0.000000 0.000000 0.000000
# 2 -0.003618 0.011535 -0.000411 0.000000 0.000000 0.000000
# 3 -0.002786 -0.000411 0.024561 0.000000 0.000000 0.000000
# 4 0.000000 0.000000 0.000000 0.053086 0.000000 0.000000
# 5 0.000000 0.000000 0.000000 0.000000 0.077520 0.000000
# 6 0.000000 0.000000 0.000000 0.000000 0.000000 0.061753
#
#
# Mechanical properties :
#
#
# Convention : Reuss Voigt Hill
#
# Bulk Modulus (GPa) = 26.75086 31.55709 29.15398
# Shear Modulus (GPa) = 18.55574 21.16843 19.86208
#
# Velocity S-wave (km/s) = 3.06043 3.26879 3.16632
# Velocity P-wave (km/s) = 5.09815 5.49322 5.29937
#
# Compressibility (1/GPa) = 0.03738197
#
# Stress axis : x y z
#
# Youngs Moduli (GPa) = 67.04865 86.69465 40.71487
#
# Poissons Ratio (x) = 0.31362 0.11341
# Poissons Ratio (y) = 0.24255 0.01674
# Poissons Ratio (z) = 0.18677 0.03563
#
# Static dielectric constant tensor:
#      x y z
#    x 1.736400 0.000000 0.000000 
#    y 0.000000 1.802460 0.000000 
#    z 0.000000 0.000000 1.736840 
# 
# From -- ./inp_files/31370.got.cif
#   From: 2010.05.17/outbox.cif.g08.bks.cpg/sg20_16_cif.got.tgz:31370.got - 2010.06.03 22:52:26.
