data_PCOD9316776
_publ_section_title
;
Structure prediction by ZEFSAII (Michael W. Deem and Ramdas Pophale) SiO2 
 PCOD9316776
Probable space group: C 2 2 21
;
_chemical_formula_sum "Si O2"
_cell_formula_units_Z 52
_cell_length_a 11.321641
_cell_length_b 16.376590
_cell_length_c 13.197605
_cell_angle_alpha 90.000000
_cell_angle_beta 90.000000
_cell_angle_gamma 90.000000
_cell_volume 2446.966264
_symmetry_space_group_name_H-M "C 2 2 21"
_symmetry_group_IT_number 20
_symmetry_cell_setting 'orthorhombic'
loop_
_space_group_symop_operation_xyz
x,y,z
-x,-y,1/2+z
x,-y,-z
-x,y,1/2-z
1/2+x,1/2+y,z
1/2-x,1/2-y,1/2+z
1/2+x,1/2-y,-z
1/2-x,1/2+y,1/2-z
loop_
_atom_site_type_symbol
_atom_site_label
_atom_site_fract_x
_atom_site_fract_y
_atom_site_fract_z
Si Si1 0.756053 0.577631 0.928016
Si Si2 0.260619 0.055160 0.222393
Si Si3 0.949956 0.162648 0.358369
Si Si4 0.046103 0.376747 0.586230
Si Si5 0.132800 0.760784 0.046060
Si Si6 0.639092 0.000000 0.000000
Si Si7 0.695380 0.381148 0.561902
O O1 0.781639 0.535183 0.820805
O O2 0.657440 0.647082 0.918804
O O3 0.725042 0.500000 0.000000
O O4 0.867393 0.616832 0.987981
O O5 0.144708 0.093706 0.169310
O O6 0.371347 0.107856 0.182663
O O7 0.234461 0.067580 0.339247
O O8 0.887254 0.231110 0.425396
O O9 0.000000 0.191370 0.250000
O O10 0.055701 0.127726 0.428448
O O11 0.975910 0.291941 0.588446
O O12 0.953262 0.451150 0.572037
O O13 0.248477 0.708099 0.069971
O O14 0.732688 0.927324 0.026586
#
# Coordination Sequence:
#
# PCOD9316776 Si02
#       7
#     8   8   8   8   8   4   8
#     4  10  18  37  66  94 117 176 223 255 331 412
#     4  10  20  41  69  88 125 178 222 265 333 413
#     4  10  21  39  62  89 127 172 219 279 331 397
#     4  10  19  37  63  90 124 163 218 264 329 397
#     4  11  21  36  64  96 128 170 222 276 335 404
#     4  10  20  38  56  88 124 166 206 268 330 388
#     4  10  24  39  62  94 134 169 220 283 341 389
#
# _framework density 21.250803000000001
#
# number of rings (size 3 to 8) (size 9 to 14) (size 15 to 20)
#    0.000    1.846    5.385    0.923    0.000    3.692 
#    0.000    9.231   13.538    0.000    0.000    0.000 
#    0.000    0.000    0.000    0.000    0.000    0.000 
#
# Total GULP energy -144812.720724 kJ/mol
# GULP energy per Si atom -5569.720028 kJ/mol
# Density = 2.120244 g / cm^3
# Si number density = 21.250803 Si / 1000 Ang^3
#
#
#
# Elastic Constant Matrix: (Units=GPa)
#
#
# Indices 1 2 3 4 5 6 
#
# 1 112.1004 45.9656 32.7020 0.0000 0.0000 0.0000
# 2 45.9656 110.2191 10.8879 0.0000 0.0000 0.0000
# 3 32.7020 10.8879 32.1920 0.0000 0.0000 0.0000
# 4 0.0000 0.0000 0.0000 21.3682 0.0000 0.0000
# 5 0.0000 0.0000 0.0000 0.0000 24.9129 0.0000
# 6 0.0000 0.0000 0.0000 0.0000 0.0000 38.8816
#
#
#
# Elastic Compliance Matrix: (Units=1/GPa)
#
#
# Indices 1 2 3 4 5 6 
#
# 1 0.014827 -0.004858 -0.013419 0.000000 0.000000 0.000000
# 2 -0.004858 0.010978 0.001222 0.000000 0.000000 0.000000
# 3 -0.013419 0.001222 0.044282 0.000000 0.000000 0.000000
# 4 0.000000 0.000000 0.000000 0.046799 0.000000 0.000000
# 5 0.000000 0.000000 0.000000 0.000000 0.040140 0.000000
# 6 0.000000 0.000000 0.000000 0.000000 0.000000 0.025719
#
#
# Mechanical properties :
#
#
# Convention : Reuss Voigt Hill
#
# Bulk Modulus (GPa) = 27.79548 48.18029 37.98789
# Shear Modulus (GPa) = 21.84867 28.02959 24.93913
#
# Velocity S-wave (km/s) = 3.20993 3.63573 3.42945
# Velocity P-wave (km/s) = 5.18135 6.35186 5.79623
#
# Compressibility (1/GPa) = 0.03597707
#
# Stress axis : x y z
#
# Youngs Moduli (GPa) = 67.44411 91.09072 22.58261
#
# Poissons Ratio (x) = 0.44251 0.30303
# Poissons Ratio (y) = 0.32764 -0.02759
# Poissons Ratio (z) = 0.90503 -0.11130
#
# Static dielectric constant tensor:
#      x y z
#    x 1.811060 0.000000 0.000000 
#    y 0.000000 1.785730 0.000000 
#    z 0.000000 0.000000 1.886300 
# 
# From -- ./inp_files/20197.got.cif
#   From: 2010.05.17/outbox.cif.g08.bks.cpg/sg20_11_cif.got.tgz:20197.got - 2010.06.03 22:52:26.
