data_PCOD9316484
_publ_section_title
;
Structure prediction by ZEFSAII (Michael W. Deem and Ramdas Pophale) SiO2 
 PCOD9316484
Probable space group: C 2 2 21
;
_chemical_formula_sum "Si O2"
_cell_formula_units_Z 64
_cell_length_a 17.801874
_cell_length_b 9.200619
_cell_length_c 18.015312
_cell_angle_alpha 90.000000
_cell_angle_beta 90.000000
_cell_angle_gamma 90.000000
_cell_volume 2950.696609
_symmetry_space_group_name_H-M "C 2 2 21"
_symmetry_group_IT_number 20
_symmetry_cell_setting 'orthorhombic'
loop_
_space_group_symop_operation_xyz
x,y,z
-x,-y,1/2+z
x,-y,-z
-x,y,1/2-z
1/2+x,1/2+y,z
1/2-x,1/2-y,1/2+z
1/2+x,1/2-y,-z
1/2-x,1/2+y,1/2-z
loop_
_atom_site_type_symbol
_atom_site_label
_atom_site_fract_x
_atom_site_fract_y
_atom_site_fract_z
Si Si1 0.838506 0.608871 0.142795
Si Si2 0.122515 0.275972 0.372378
Si Si3 0.732310 0.765637 0.255238
Si Si4 0.735277 0.772397 0.505272
Si Si5 0.657244 0.278881 0.116053
Si Si6 0.816684 0.567942 0.610196
Si Si7 0.998284 0.705910 0.162318
Si Si8 0.019119 0.585412 0.922537
O O1 0.864867 0.444391 0.151300
O O2 0.783987 0.655758 0.208538
O O3 0.911133 0.715804 0.138606
O O4 0.796443 0.616767 0.065131
O O5 0.162632 0.197990 0.302534
O O6 0.172664 0.241379 0.443627
O O7 0.036540 0.284770 0.399552
O O8 0.791096 0.832487 0.315446
O O9 0.699835 0.870810 0.191794
O O10 0.807215 0.830963 0.460507
O O11 0.754913 0.631641 0.554715
O O12 0.567984 0.294732 0.127262
O O13 0.675345 0.104983 0.112608
O O14 0.894544 0.630052 0.576674
O O15 0.000000 0.726700 0.250000
O O16 0.016862 0.539384 0.140390
O O17 0.998956 0.500000 0.000000
#
# Coordination Sequence:
#
# PCOD9316484 Si02
#       8
#     8   8   8   8   8   8   8   8
#     4  10  19  34  51  79 108 132 175 218 269 317
#     4  10  20  33  53  77 110 134 172 220 263 321
#     4  10  20  30  48  80 106 142 172 202 274 326
#     4  10  20  32  50  78 104 144 170 204 270 322
#     4  10  19  34  51  79 108 132 175 218 269 317
#     4  10  20  33  53  77 110 134 172 220 263 321
#     4  10  18  30  56  78 105 135 169 225 283 319
#     4  10  20  32  52  80 107 136 166 221 284 320
#
# _framework density 21.689793999999999
#
# number of rings (size 3 to 8) (size 9 to 14) (size 15 to 20)
#    0.000    2.000    1.250    4.500    5.250    0.000 
#    0.000    0.000    0.000    0.000    0.000  122.500 
#    0.000    0.000    0.000    0.000    0.000    0.000 
#
# Total GULP energy -178423.170173 kJ/mol
# GULP energy per Si atom -5575.724068 kJ/mol
# Density = 2.164043 g / cm^3
# Si number density = 21.689794 Si / 1000 Ang^3
#
#
#
# Elastic Constant Matrix: (Units=GPa)
#
#
# Indices 1 2 3 4 5 6 
#
# 1 124.3374 14.8989 32.0500 0.0000 0.0000 0.0000
# 2 14.8989 11.6444 2.0172 0.0000 0.0000 0.0000
# 3 32.0500 2.0172 121.5003 0.0000 0.0000 0.0000
# 4 0.0000 0.0000 0.0000 31.9519 0.0000 0.0000
# 5 0.0000 0.0000 0.0000 0.0000 115.0245 0.0000
# 6 0.0000 0.0000 0.0000 0.0000 0.0000 29.5587
#
#
#
# Elastic Compliance Matrix: (Units=1/GPa)
#
#
# Indices 1 2 3 4 5 6 
#
# 1 0.010193 -0.012612 -0.002479 0.000000 0.000000 0.000000
# 2 -0.012612 0.101732 0.001638 0.000000 0.000000 0.000000
# 3 -0.002479 0.001638 0.008857 0.000000 0.000000 0.000000
# 4 0.000000 0.000000 0.000000 0.031297 0.000000 0.000000
# 5 0.000000 0.000000 0.000000 0.000000 0.008694 0.000000
# 6 0.000000 0.000000 0.000000 0.000000 0.000000 0.033831
#
#
# Mechanical properties :
#
#
# Convention : Reuss Voigt Hill
#
# Bulk Modulus (GPa) = 10.65251 39.49048 25.07149
# Shear Modulus (GPa) = 19.77824 49.20809 34.49317
#
# Velocity S-wave (km/s) = 3.02299 4.76828 3.99218
# Velocity P-wave (km/s) = 4.13601 6.96863 5.73011
#
# Compressibility (1/GPa) = 0.09387462
#
# Stress axis : x y z
#
# Youngs Moduli (GPa) = 98.10643 9.82976 112.90174
#
# Poissons Ratio (x) = 0.12398 0.27993
# Poissons Ratio (y) = 1.23735 -0.18493
# Poissons Ratio (z) = 0.24324 -0.01610
#
# Static dielectric constant tensor:
#      x y z
#    x 1.899140 0.000000 0.000000 
#    y 0.000000 1.543270 0.000000 
#    z 0.000000 0.000000 1.806980 
# 
# From -- ./inp_files/25353.got.cif
#   From: 2010.05.17/outbox.cif.g08.bks.cpg/sg20_13_cif.got.tgz:25353.got - 2010.06.03 22:52:26.
