data_PCOD9316901
_publ_section_title
;
Structure prediction by ZEFSAII (Michael W. Deem and Ramdas Pophale) SiO2 
 PCOD9316901
Probable space group: C 2 2 21
;
_chemical_formula_sum "Si O2"
_cell_formula_units_Z 60
_cell_length_a 5.464216
_cell_length_b 23.995822
_cell_length_c 21.116625
_cell_angle_alpha 90.000000
_cell_angle_beta 90.000000
_cell_angle_gamma 90.000000
_cell_volume 2768.777123
_symmetry_space_group_name_H-M "C 2 2 21"
_symmetry_group_IT_number 20
_symmetry_cell_setting 'orthorhombic'
loop_
_space_group_symop_operation_xyz
x,y,z
-x,-y,1/2+z
x,-y,-z
-x,y,1/2-z
1/2+x,1/2+y,z
1/2-x,1/2-y,1/2+z
1/2+x,1/2-y,-z
1/2-x,1/2+y,1/2-z
loop_
_atom_site_type_symbol
_atom_site_label
_atom_site_fract_x
_atom_site_fract_y
_atom_site_fract_z
Si Si1 0.611682 0.978849 0.436359
Si Si2 0.750248 0.943843 0.868637
Si Si3 0.598847 0.529212 0.812035
Si Si4 0.000000 0.445582 0.750000
Si Si5 0.583556 0.800228 0.941842
Si Si6 0.418346 0.669308 0.579080
Si Si7 0.584520 0.138218 0.923934
Si Si8 0.081389 0.856850 0.932926
O O1 0.439440 0.925151 0.447854
O O2 0.743285 0.000000 0.500000
O O3 0.455497 0.033067 0.415485
O O4 0.771835 0.955974 0.378070
O O5 0.629684 0.913210 0.807894
O O6 0.976346 0.912465 0.901033
O O7 0.858211 0.999262 0.837835
O O8 0.500000 0.562392 0.750000
O O9 0.794228 0.484058 0.783924
O O10 0.551150 0.734663 0.935074
O O11 0.853028 0.815986 0.917257
O O12 0.347215 0.833043 0.914093
O O13 0.590811 0.820650 0.014943
O O14 0.159636 0.657903 0.611429
O O15 0.407279 0.639111 0.509687
O O16 0.661411 0.646618 0.611855
#
# Coordination Sequence:
#
# PCOD9316901 Si02
#       8
#     8   8   8   4   8   8   8   8
#     4  11  23  33  51  83 128 160 192 244 302 358
#     4  10  21  34  54  77 117 150 192 235 292 353
#     4   9  20  38  58  75 111 164 205 241 281 344
#     4   8  18  38  56  74 100 152 196 240 278 340
#     4  10  19  34  51  74 111 152 191 237 286 362
#     4  10  19  34  51  72 114 149 194 235 290 357
#     4  10  20  31  49  75 108 152 192 232 291 355
#     4  10  19  29  53  76 105 145 188 226 285 344
#
# _framework density 21.670214999999999
#
# number of rings (size 3 to 8) (size 9 to 14) (size 15 to 20)
#    0.000    2.133    0.000    5.600    9.333    0.533 
#    0.000    0.000    0.000    0.000    0.000    0.000 
#   22.000    0.000    0.000    0.000    0.000    0.000 
#
# Total GULP energy -167053.166442 kJ/mol
# GULP energy per Si atom -5568.438881 kJ/mol
# Density = 2.162089 g / cm^3
# Si number density = 21.670215 Si / 1000 Ang^3
#
#
#
# Elastic Constant Matrix: (Units=GPa)
#
#
# Indices 1 2 3 4 5 6 
#
# 1 127.3691 0.5509 20.0304 0.0000 0.0000 0.0000
# 2 0.5509 52.4628 15.8386 0.0000 0.0000 0.0000
# 3 20.0304 15.8386 65.0424 0.0000 0.0000 0.0000
# 4 0.0000 0.0000 0.0000 7.8895 0.0000 0.0000
# 5 0.0000 0.0000 0.0000 0.0000 18.4138 0.0000
# 6 0.0000 0.0000 0.0000 0.0000 0.0000 14.4534
#
#
#
# Elastic Compliance Matrix: (Units=1/GPa)
#
#
# Indices 1 2 3 4 5 6 
#
# 1 0.008277 0.000737 -0.002728 0.000000 0.000000 0.000000
# 2 0.000737 0.020639 -0.005253 0.000000 0.000000 0.000000
# 3 -0.002728 -0.005253 0.017494 0.000000 0.000000 0.000000
# 4 0.000000 0.000000 0.000000 0.126751 0.000000 0.000000
# 5 0.000000 0.000000 0.000000 0.000000 0.054307 0.000000
# 6 0.000000 0.000000 0.000000 0.000000 0.000000 0.069188
#
#
# Mechanical properties :
#
#
# Convention : Reuss Voigt Hill
#
# Bulk Modulus (GPa) = 31.32693 35.30157 33.31425
# Shear Modulus (GPa) = 15.53831 22.04830 18.79331
#
# Velocity S-wave (km/s) = 2.68066 3.19321 2.94809
# Velocity P-wave (km/s) = 4.90600 5.47002 5.19567
#
# Compressibility (1/GPa) = 0.03192141
#
# Stress axis : x y z
#
# Youngs Moduli (GPa) = 120.81540 48.45146 57.16260
#
# Poissons Ratio (x) = -0.03570 0.15596
# Poissons Ratio (y) = -0.08902 0.30026
# Poissons Ratio (z) = 0.32964 0.25451
#
# Static dielectric constant tensor:
#      x y z
#    x 1.949950 0.000000 0.000000 
#    y 0.000000 1.848240 0.000000 
#    z 0.000000 0.000000 1.908720 
# 
# From -- ./inp_files/26235.got.cif
#   From: 2010.05.17/outbox.cif.g08.bks.cpg/sg20_14_cif.got.tgz:26235.got - 2010.06.03 22:52:26.
