data_PCOD9316257
_publ_section_title
;
Structure prediction by ZEFSAII (Michael W. Deem and Ramdas Pophale) SiO2 
 PCOD9316257
Probable space group: C 2 2 21
;
_chemical_formula_sum "Si O2"
_cell_formula_units_Z 60
_cell_length_a 11.804995
_cell_length_b 18.753912
_cell_length_c 13.671737
_cell_angle_alpha 90.000000
_cell_angle_beta 90.000000
_cell_angle_gamma 90.000000
_cell_volume 3026.783631
_symmetry_space_group_name_H-M "C 2 2 21"
_symmetry_group_IT_number 20
_symmetry_cell_setting 'orthorhombic'
loop_
_space_group_symop_operation_xyz
x,y,z
-x,-y,1/2+z
x,-y,-z
-x,y,1/2-z
1/2+x,1/2+y,z
1/2-x,1/2-y,1/2+z
1/2+x,1/2-y,-z
1/2-x,1/2+y,1/2-z
loop_
_atom_site_type_symbol
_atom_site_label
_atom_site_fract_x
_atom_site_fract_y
_atom_site_fract_z
Si Si1 0.026326 0.558388 0.932685
Si Si2 0.777970 0.311094 0.149927
Si Si3 0.391807 0.168903 0.053952
Si Si4 0.384848 0.048515 0.190835
Si Si5 0.500000 0.843620 0.250000
Si Si6 0.187550 0.957129 0.247840
Si Si7 0.963982 0.794918 0.359957
Si Si8 0.001588 0.950422 0.406417
O O1 0.053117 0.604228 0.834437
O O2 0.921393 0.510534 0.890680
O O3 0.092788 0.500000 0.000000
O O4 0.990235 0.619558 0.007681
O O5 0.898322 0.297511 0.203007
O O6 0.737341 0.383879 0.203284
O O7 0.663688 0.264570 0.150979
O O8 0.808103 0.319604 0.036071
O O9 0.342055 0.119654 0.139029
O O10 0.447977 0.239284 0.096605
O O11 0.500000 0.063336 0.250000
O O12 0.288227 0.013389 0.255570
O O13 0.120169 0.947648 0.348172
O O14 0.094706 0.980248 0.167045
O O15 0.966827 0.867672 0.422828
O O16 0.000000 0.815744 0.250000
O O17 0.007605 0.000000 0.500000
#
# Coordination Sequence:
#
# PCOD9316257 Si02
#       8
#     8   8   8   8   4   8   8   8
#     4   9  17  30  54  90 125 156 202 260 316 377
#     4  10  20  39  63  90 124 171 217 264 325 400
#     4  10  22  36  60  95 124 170 220 259 323 403
#     4  11  19  34  60  94 131 158 208 276 329 386
#     4  10  16  34  58  84 122 160 210 264 326 386
#     4  10  19  37  65  98 128 168 214 276 330 381
#     4  11  22  45  63  90 133 179 217 268 345 402
#     4  10  22  40  68  95 126 176 232 266 320 405
#
# _framework density 19.823022000000002
#
# number of rings (size 3 to 8) (size 9 to 14) (size 15 to 20)
#    0.000    1.867    6.000    0.400    3.733    0.000 
#    4.800    9.333    0.000    6.400    0.000    0.000 
#    0.000    0.000    0.000    0.000    0.000    0.000 
#
# Total GULP energy -167007.093211 kJ/mol
# GULP energy per Si atom -5566.903107 kJ/mol
# Density = 1.977790 g / cm^3
# Si number density = 19.823022 Si / 1000 Ang^3
#
#
#
# Elastic Constant Matrix: (Units=GPa)
#
#
# Indices 1 2 3 4 5 6 
#
# 1 83.2785 -2.3976 6.3728 0.0000 0.0000 0.0000
# 2 -2.3976 43.6395 9.1800 0.0000 0.0000 0.0000
# 3 6.3728 9.1800 58.0887 0.0000 0.0000 0.0000
# 4 0.0000 0.0000 0.0000 17.3190 0.0000 0.0000
# 5 0.0000 0.0000 0.0000 0.0000 27.4965 0.0000
# 6 0.0000 0.0000 0.0000 0.0000 0.0000 17.4490
#
#
#
# Elastic Compliance Matrix: (Units=1/GPa)
#
#
# Indices 1 2 3 4 5 6 
#
# 1 0.012150 0.000981 -0.001488 0.000000 0.000000 0.000000
# 2 0.000981 0.023782 -0.003866 0.000000 0.000000 0.000000
# 3 -0.001488 -0.003866 0.017989 0.000000 0.000000 0.000000
# 4 0.000000 0.000000 0.000000 0.057740 0.000000 0.000000
# 5 0.000000 0.000000 0.000000 0.000000 0.036368 0.000000
# 6 0.000000 0.000000 0.000000 0.000000 0.000000 0.057310
#
#
# Mechanical properties :
#
#
# Convention : Reuss Voigt Hill
#
# Bulk Modulus (GPa) = 22.13629 23.47968 22.80799
# Shear Modulus (GPa) = 21.82033 23.90969 22.86501
#
# Velocity S-wave (km/s) = 3.32136 3.47675 3.39994
# Velocity P-wave (km/s) = 5.08919 5.29031 5.19072
#
# Compressibility (1/GPa) = 0.04517469
#
# Stress axis : x y z
#
# Youngs Moduli (GPa) = 82.30461 42.04835 55.58880
#
# Poissons Ratio (x) = -0.04123 0.08271
# Poissons Ratio (y) = -0.08070 0.21490
# Poissons Ratio (z) = 0.12246 0.16256
#
# Static dielectric constant tensor:
#      x y z
#    x 1.745770 0.000000 0.000000 
#    y 0.000000 1.699010 0.000000 
#    z 0.000000 0.000000 1.738650 
# 
# From -- ./inp_files/20246.got.cif
#   From: 2010.05.17/outbox.cif.g08.bks.cpg/sg20_11_cif.got.tgz:20246.got - 2010.06.03 22:52:26.
