data_PCOD9316517
_publ_section_title
;
Structure prediction by ZEFSAII (Michael W. Deem and Ramdas Pophale) SiO2 
 PCOD9316517
Probable space group: C 2 2 21
;
_chemical_formula_sum "Si O2"
_cell_formula_units_Z 48
_cell_length_a 24.091668
_cell_length_b 14.190147
_cell_length_c 8.303346
_cell_angle_alpha 90.000000
_cell_angle_beta 90.000000
_cell_angle_gamma 90.000000
_cell_volume 2838.617654
_symmetry_space_group_name_H-M "C 2 2 21"
_symmetry_group_IT_number 20
_symmetry_cell_setting 'orthorhombic'
loop_
_space_group_symop_operation_xyz
x,y,z
-x,-y,1/2+z
x,-y,-z
-x,y,1/2-z
1/2+x,1/2+y,z
1/2-x,1/2-y,1/2+z
1/2+x,1/2-y,-z
1/2-x,1/2+y,1/2-z
loop_
_atom_site_type_symbol
_atom_site_label
_atom_site_fract_x
_atom_site_fract_y
_atom_site_fract_z
Si Si1 0.302785 0.295521 0.492004
Si Si2 0.246805 0.551134 0.669155
Si Si3 0.790357 0.637455 0.230019
Si Si4 0.419048 0.000000 0.500000
Si Si5 0.858466 0.338449 0.298467
Si Si6 0.904573 0.611565 0.036758
Si Si7 0.000000 0.599740 0.250000
O O1 0.301436 0.389650 0.380093
O O2 0.247807 0.311374 0.597911
O O3 0.296449 0.206372 0.378224
O O4 0.350502 0.262374 0.615186
O O5 0.229138 0.500000 0.500000
O O6 0.242386 0.458286 0.778526
O O7 0.201439 0.622844 0.737790
O O8 0.851012 0.618843 0.153550
O O9 0.383120 0.084093 0.578132
O O10 0.458497 0.038751 0.359395
O O11 0.893572 0.339329 0.134097
O O12 0.958419 0.651239 0.127918
O O13 0.913235 0.500000 0.000000
#
# Coordination Sequence:
#
# PCOD9316517 Si02
#       7
#     8   8   8   4   8   8   4
#     4  11  20  31  50  76  98 141 197 216 262 325
#     4  10  18  32  47  68 102 136 176 227 257 304
#     4  11  19  35  51  72 108 145 185 229 267 316
#     4  12  22  32  50  74 100 148 180 226 266 322
#     4  12  19  32  50  71  97 138 187 215 266 317
#     4  12  19  35  49  68 102 138 181 228 262 313
#     4  12  22  34  48  72 102 136 198 220 264 322
#
# _framework density 16.909638999999999
#
# number of rings (size 3 to 8) (size 9 to 14) (size 15 to 20)
#    0.000    0.667    9.167    2.000    0.000    0.000 
#    0.000    0.000    0.000    0.000    0.000    0.000 
#    0.000    0.000    0.000  342.000    0.000   33.667 
#
# Total GULP energy -133636.112610 kJ/mol
# GULP energy per Si atom -5568.171359 kJ/mol
# Density = 1.687115 g / cm^3
# Si number density = 16.909639 Si / 1000 Ang^3
#
#
#
# Elastic Constant Matrix: (Units=GPa)
#
#
# Indices 1 2 3 4 5 6 
#
# 1 70.9947 34.4967 32.8747 0.0000 0.0000 0.0000
# 2 34.4967 70.0509 32.9324 0.0000 0.0000 0.0000
# 3 32.8747 32.9324 74.2393 0.0000 0.0000 0.0000
# 4 0.0000 0.0000 0.0000 30.1543 0.0000 0.0000
# 5 0.0000 0.0000 0.0000 0.0000 33.7653 0.0000
# 6 0.0000 0.0000 0.0000 0.0000 0.0000 17.0593
#
#
#
# Elastic Compliance Matrix: (Units=1/GPa)
#
#
# Indices 1 2 3 4 5 6 
#
# 1 0.020290 -0.007288 -0.005752 0.000000 0.000000 0.000000
# 2 -0.007288 0.020654 -0.005935 0.000000 0.000000 0.000000
# 3 -0.005752 -0.005935 0.018650 0.000000 0.000000 0.000000
# 4 0.000000 0.000000 0.000000 0.033163 0.000000 0.000000
# 5 0.000000 0.000000 0.000000 0.000000 0.029616 0.000000
# 6 0.000000 0.000000 0.000000 0.000000 0.000000 0.058619
#
#
# Mechanical properties :
#
#
# Convention : Reuss Voigt Hill
#
# Bulk Modulus (GPa) = 46.20080 46.21028 46.20554
# Shear Modulus (GPa) = 22.10849 23.86119 22.98484
#
# Velocity S-wave (km/s) = 3.61979 3.76054 3.69083
# Velocity P-wave (km/s) = 6.69716 6.80019 6.74887
#
# Compressibility (1/GPa) = 0.02164465
#
# Stress axis : x y z
#
# Youngs Moduli (GPa) = 49.28469 48.41575 53.61957
#
# Poissons Ratio (x) = 0.35284 0.30843
# Poissons Ratio (y) = 0.35918 0.31824
# Poissons Ratio (z) = 0.28349 0.28735
#
# Static dielectric constant tensor:
#      x y z
#    x 1.580980 0.000000 0.000000 
#    y 0.000000 1.619100 0.000000 
#    z 0.000000 0.000000 1.691790 
# 
# From -- ./inp_files/10710.got.cif
#   From: 2010.05.17/outbox.cif.g08.bks.cpg/sg20_6_cif.got.tgz:10710.got - 2010.06.03 22:52:26.
