data_PCOD9316465
_publ_section_title
;
Structure prediction by ZEFSAII (Michael W. Deem and Ramdas Pophale) SiO2 
 PCOD9316465
Probable space group: C 2 2 21
;
_chemical_formula_sum "Si O2"
_cell_formula_units_Z 52
_cell_length_a 11.620536
_cell_length_b 30.501545
_cell_length_c 8.196140
_cell_angle_alpha 90.000000
_cell_angle_beta 90.000000
_cell_angle_gamma 90.000000
_cell_volume 2905.075119
_symmetry_space_group_name_H-M "C 2 2 21"
_symmetry_group_IT_number 20
_symmetry_cell_setting 'orthorhombic'
loop_
_space_group_symop_operation_xyz
x,y,z
-x,-y,1/2+z
x,-y,-z
-x,y,1/2-z
1/2+x,1/2+y,z
1/2-x,1/2-y,1/2+z
1/2+x,1/2-y,-z
1/2-x,1/2+y,1/2-z
loop_
_atom_site_type_symbol
_atom_site_label
_atom_site_fract_x
_atom_site_fract_y
_atom_site_fract_z
Si Si1 0.631718 0.869398 0.310522
Si Si2 0.634983 0.293977 0.730163
Si Si3 0.123524 0.549281 0.465980
Si Si4 0.500000 0.813785 0.750000
Si Si5 0.819988 0.285244 0.986313
Si Si6 0.350486 0.046326 0.420422
Si Si7 0.200968 0.642020 0.038092
O O1 0.500000 0.874328 0.250000
O O2 0.665380 0.915062 0.401143
O O3 0.649219 0.833083 0.446934
O O4 0.693817 0.847560 0.153456
O O5 0.500000 0.300977 0.750000
O O6 0.695381 0.285677 0.904151
O O7 0.660453 0.251502 0.619886
O O8 0.699696 0.333932 0.638753
O O9 0.162207 0.500000 0.500000
O O10 0.152640 0.553189 0.274882
O O11 0.984139 0.550584 0.474414
O O12 0.413330 0.781771 0.843482
O O13 0.417689 0.843835 0.633037
O O14 0.286212 0.089678 0.477221
O O15 0.311701 0.000000 0.500000
#
# Coordination Sequence:
#
# PCOD9316465 Si02
#       7
#     8   8   8   4   8   8   8
#     4  12  20  33  57  85 121 163 198 240 297 367
#     4  11  26  42  60  87 118 157 199 255 305 356
#     4  10  19  28  47  83 126 161 190 237 297 367
#     4  10  20  34  60  84 118 158 198 236 302 370
#     4  11  23  39  61  85 115 153 201 246 300 363
#     4  10  18  30  50  79 119 160 197 238 296 358
#     4  11  21  37  55  85 118 160 200 244 301 353
#
# _framework density 17.899706999999999
#
# number of rings (size 3 to 8) (size 9 to 14) (size 15 to 20)
#    0.000    1.231    3.077    5.077    6.462    0.000 
#    0.000    0.000    0.000    0.000    0.000    6.462 
#    0.000    0.000    0.000    0.000    0.000    0.000 
#
# Total GULP energy -144844.107923 kJ/mol
# GULP energy per Si atom -5570.927228 kJ/mol
# Density = 1.785897 g / cm^3
# Si number density = 17.899707 Si / 1000 Ang^3
#
#
#
# Elastic Constant Matrix: (Units=GPa)
#
#
# Indices 1 2 3 4 5 6 
#
# 1 87.5621 19.5328 29.4256 0.0000 0.0000 0.0000
# 2 19.5328 66.9702 4.4168 0.0000 0.0000 0.0000
# 3 29.4256 4.4168 66.2639 0.0000 0.0000 0.0000
# 4 0.0000 0.0000 0.0000 36.8677 0.0000 0.0000
# 5 0.0000 0.0000 0.0000 0.0000 15.0817 0.0000
# 6 0.0000 0.0000 0.0000 0.0000 0.0000 4.7992
#
#
#
# Elastic Compliance Matrix: (Units=1/GPa)
#
#
# Indices 1 2 3 4 5 6 
#
# 1 0.014313 -0.003772 -0.006105 0.000000 0.000000 0.000000
# 2 -0.003772 0.015992 0.000609 0.000000 0.000000 0.000000
# 3 -0.006105 0.000609 0.017761 0.000000 0.000000 0.000000
# 4 0.000000 0.000000 0.000000 0.027124 0.000000 0.000000
# 5 0.000000 0.000000 0.000000 0.000000 0.066306 0.000000
# 6 0.000000 0.000000 0.000000 0.000000 0.000000 0.208370
#
#
# Mechanical properties :
#
#
# Convention : Reuss Voigt Hill
#
# Bulk Modulus (GPa) = 33.86205 36.39406 35.12805
# Shear Modulus (GPa) = 13.21892 22.51111 17.86501
#
# Velocity S-wave (km/s) = 2.72048 3.55015 3.16264
# Velocity P-wave (km/s) = 5.36906 6.09763 5.74490
#
# Compressibility (1/GPa) = 0.02953159
#
# Stress axis : x y z
#
# Youngs Moduli (GPa) = 69.86451 62.53114 56.30169
#
# Poissons Ratio (x) = 0.23587 0.34370
# Poissons Ratio (y) = 0.26354 -0.03429
# Poissons Ratio (z) = 0.42650 -0.03809
#
# Static dielectric constant tensor:
#      x y z
#    x 1.597230 0.000000 0.000000 
#    y 0.000000 1.689610 0.000000 
#    z 0.000000 0.000000 1.856990 
# 
# From -- ./inp_files/7511.got.cif
#   From: 2010.05.17/outbox.cif.g08.bks.cpg/sg20_4_cif.got.tgz:7511.got - 2010.06.03 22:52:26.
