data_PCOD9316506
_publ_section_title
;
Structure prediction by ZEFSAII (Michael W. Deem and Ramdas Pophale) SiO2 
 PCOD9316506
Probable space group: C 2 2 21
;
_chemical_formula_sum "Si O2"
_cell_formula_units_Z 64
_cell_length_a 8.417129
_cell_length_b 31.357797
_cell_length_c 12.472890
_cell_angle_alpha 90.000000
_cell_angle_beta 90.000000
_cell_angle_gamma 90.000000
_cell_volume 3292.127297
_symmetry_space_group_name_H-M "C 2 2 21"
_symmetry_group_IT_number 20
_symmetry_cell_setting 'orthorhombic'
loop_
_space_group_symop_operation_xyz
x,y,z
-x,-y,1/2+z
x,-y,-z
-x,y,1/2-z
1/2+x,1/2+y,z
1/2-x,1/2-y,1/2+z
1/2+x,1/2-y,-z
1/2-x,1/2+y,1/2-z
loop_
_atom_site_type_symbol
_atom_site_label
_atom_site_fract_x
_atom_site_fract_y
_atom_site_fract_z
Si Si1 0.344057 0.213279 0.545951
Si Si2 0.179948 0.432040 0.029580
Si Si3 0.729035 0.355276 0.951802
Si Si4 0.419030 0.226343 0.133230
Si Si5 0.187802 0.912175 0.766793
Si Si6 0.542828 0.861950 0.370694
Si Si7 0.856871 0.859687 0.930487
Si Si8 0.852939 0.490859 0.673130
O O1 0.447614 0.237767 0.456414
O O2 0.228419 0.241470 0.618400
O O3 0.465475 0.184623 0.613714
O O4 0.238046 0.179083 0.481487
O O5 0.332632 0.403646 0.997451
O O6 0.212138 0.465143 0.125100
O O7 0.049900 0.396907 0.059052
O O8 0.117762 0.460485 0.930445
O O9 0.843574 0.319212 0.901248
O O10 0.750859 0.397855 0.881504
O O11 0.782564 0.359970 0.075639
O O12 0.541975 0.346792 0.930797
O O13 0.500000 0.226123 0.250000
O O14 0.226747 0.874299 0.681179
O O15 0.242491 0.959401 0.740317
O O16 0.000000 0.912481 0.750000
O O17 0.500000 0.874347 0.250000
O O18 0.000000 0.500346 0.750000
#
# Coordination Sequence:
#
# PCOD9316506 Si02
#       8
#     8   8   8   8   8   8   8   8
#     4  10  22  37  55  80 111 145 185 229 280 345
#     4   9  19  34  52  78 110 144 184 231 278 336
#     4  10  20  36  59  84 108 144 191 235 286 345
#     4  11  23  38  59  86 116 149 190 243 293 344
#     4   9  18  33  55  82 108 137 178 233 288 332
#     4  10  21  37  54  76 109 148 188 230 279 341
#     4   9  18  36  58  80 110 145 182 230 287 344
#     4  10  18  31  54  79 107 143 181 227 280 331
#
# _framework density 19.440318999999999
#
# number of rings (size 3 to 8) (size 9 to 14) (size 15 to 20)
#    0.000    2.250    0.000    2.625    0.000    5.500 
#    0.000    7.500    0.000    6.000    0.000    0.000 
#    0.000    0.000    0.000    0.000    0.000    0.000 
#
# Total GULP energy -178155.494208 kJ/mol
# GULP energy per Si atom -5567.359194 kJ/mol
# Density = 1.939607 g / cm^3
# Si number density = 19.440319 Si / 1000 Ang^3
#
#
#
# Elastic Constant Matrix: (Units=GPa)
#
#
# Indices 1 2 3 4 5 6 
#
# 1 59.7478 13.6065 28.7257 0.0000 0.0000 0.0000
# 2 13.6065 55.2888 14.4009 0.0000 0.0000 0.0000
# 3 28.7257 14.4009 67.5026 0.0000 0.0000 0.0000
# 4 0.0000 0.0000 0.0000 25.8064 0.0000 0.0000
# 5 0.0000 0.0000 0.0000 0.0000 25.7529 0.0000
# 6 0.0000 0.0000 0.0000 0.0000 0.0000 15.9327
#
#
#
# Elastic Compliance Matrix: (Units=1/GPa)
#
#
# Indices 1 2 3 4 5 6 
#
# 1 0.021527 -0.003083 -0.008503 0.000000 0.000000 0.000000
# 2 -0.003083 0.019593 -0.002868 0.000000 0.000000 0.000000
# 3 -0.008503 -0.002868 0.019045 0.000000 0.000000 0.000000
# 4 0.000000 0.000000 0.000000 0.038750 0.000000 0.000000
# 5 0.000000 0.000000 0.000000 0.000000 0.038831 0.000000
# 6 0.000000 0.000000 0.000000 0.000000 0.000000 0.062764
#
#
# Mechanical properties :
#
#
# Convention : Reuss Voigt Hill
#
# Bulk Modulus (GPa) = 31.99359 32.88949 32.44154
# Shear Modulus (GPa) = 20.84755 21.88546 21.36651
#
# Velocity S-wave (km/s) = 3.27829 3.35890 3.31884
# Velocity P-wave (km/s) = 5.55181 5.65666 5.60448
#
# Compressibility (1/GPa) = 0.03125626
#
# Stress axis : x y z
#
# Youngs Moduli (GPa) = 46.45262 51.03973 52.50831
#
# Poissons Ratio (x) = 0.15736 0.44649
# Poissons Ratio (y) = 0.14322 0.15059
# Poissons Ratio (z) = 0.39500 0.14637
#
# Static dielectric constant tensor:
#      x y z
#    x 1.689560 0.000000 0.000000 
#    y 0.000000 1.677880 0.000000 
#    z 0.000000 0.000000 1.775340 
# 
# From -- ./inp_files/13406.got.cif
#   From: 2010.05.17/outbox.cif.g08.bks.cpg/sg20_7_cif.got.tgz:13406.got - 2010.06.03 22:52:26.
