data_PCOD9316315
_publ_section_title
;
Structure prediction by ZEFSAII (Michael W. Deem and Ramdas Pophale) SiO2 
 PCOD9316315
Probable space group: C 2 2 21
;
_chemical_formula_sum "Si O2"
_cell_formula_units_Z 52
_cell_length_a 25.402941
_cell_length_b 18.654716
_cell_length_c 6.128386
_cell_angle_alpha 90.000000
_cell_angle_beta 90.000000
_cell_angle_gamma 90.000000
_cell_volume 2904.148054
_symmetry_space_group_name_H-M "C 2 2 21"
_symmetry_group_IT_number 20
_symmetry_cell_setting 'orthorhombic'
loop_
_space_group_symop_operation_xyz
x,y,z
-x,-y,1/2+z
x,-y,-z
-x,y,1/2-z
1/2+x,1/2+y,z
1/2-x,1/2-y,1/2+z
1/2+x,1/2-y,-z
1/2-x,1/2+y,1/2-z
loop_
_atom_site_type_symbol
_atom_site_label
_atom_site_fract_x
_atom_site_fract_y
_atom_site_fract_z
Si Si1 0.190786 0.325637 0.612270
Si Si2 0.550251 0.376925 0.133489
Si Si3 0.901385 0.775088 0.988323
Si Si4 0.730069 0.679006 0.768892
Si Si5 0.000000 0.780329 0.750000
Si Si6 0.743274 0.573000 0.380474
Si Si7 0.649517 0.380116 0.880107
O O1 0.135118 0.286847 0.588493
O O2 0.214102 0.340015 0.373993
O O3 0.227484 0.261767 0.706522
O O4 0.206268 0.393716 0.756700
O O5 0.500000 0.415632 0.250000
O O6 0.576829 0.326596 0.319263
O O7 0.524042 0.329070 0.943010
O O8 0.599188 0.412929 0.006644
O O9 0.871642 0.825531 0.808716
O O10 0.951089 0.741239 0.861383
O O11 0.724128 0.630201 0.559093
O O12 0.684046 0.662841 0.941574
O O13 0.755587 0.500000 0.500000
O O14 0.692548 0.566070 0.221789
#
# Coordination Sequence:
#
# PCOD9316315 Si02
#       7
#     8   8   8   8   4   8   8
#     4  11  19  30  54  74 100 149 185 221 268 333
#     4   9  16  28  46  75 112 131 169 229 283 327
#     4  10  17  30  48  78 105 139 174 227 278 330
#     4  11  19  33  52  76 104 141 187 219 261 334
#     4   8  18  26  44  74 114 136 158 226 294 326
#     4  11  24  35  47  75 114 146 187 235 275 327
#     4  10  18  30  51  71 105 140 186 218 282 327
#
# _framework density 17.905422000000002
#
# number of rings (size 3 to 8) (size 9 to 14) (size 15 to 20)
#    0.000    1.846    4.615    0.923    0.000    2.462 
#    0.000    0.000    0.000    0.000    0.000    0.000 
#  371.538    0.000  117.692    0.000    0.000    0.000 
#
# Total GULP energy -144747.344021 kJ/mol
# GULP energy per Si atom -5567.205539 kJ/mol
# Density = 1.786467 g / cm^3
# Si number density = 17.905422 Si / 1000 Ang^3
#
#
#
# Elastic Constant Matrix: (Units=GPa)
#
#
# Indices 1 2 3 4 5 6 
#
# 1 72.4102 23.6354 28.3175 0.0000 0.0000 0.0000
# 2 23.6354 48.8863 9.9951 0.0000 0.0000 0.0000
# 3 28.3175 9.9951 75.1363 0.0000 0.0000 0.0000
# 4 0.0000 0.0000 0.0000 7.7416 0.0000 0.0000
# 5 0.0000 0.0000 0.0000 0.0000 38.4253 0.0000
# 6 0.0000 0.0000 0.0000 0.0000 0.0000 8.2496
#
#
#
# Elastic Compliance Matrix: (Units=1/GPa)
#
#
# Indices 1 2 3 4 5 6 
#
# 1 0.018714 -0.007818 -0.006013 0.000000 0.000000 0.000000
# 2 -0.007818 0.024294 -0.000285 0.000000 0.000000 0.000000
# 3 -0.006013 -0.000285 0.015613 0.000000 0.000000 0.000000
# 4 0.000000 0.000000 0.000000 0.129173 0.000000 0.000000
# 5 0.000000 0.000000 0.000000 0.000000 0.026025 0.000000
# 6 0.000000 0.000000 0.000000 0.000000 0.000000 0.121218
#
#
# Mechanical properties :
#
#
# Convention : Reuss Voigt Hill
#
# Bulk Modulus (GPa) = 32.90742 35.59208 34.24975
# Shear Modulus (GPa) = 13.39055 19.84895 16.61975
#
# Velocity S-wave (km/s) = 2.73765 3.33309 3.04994
# Velocity P-wave (km/s) = 5.33023 5.89353 5.61894
#
# Compressibility (1/GPa) = 0.03038828
#
# Stress axis : x y z
#
# Youngs Moduli (GPa) = 53.43710 41.16263 64.04844
#
# Poissons Ratio (x) = 0.32182 0.38511
# Poissons Ratio (y) = 0.41778 0.01826
# Poissons Ratio (z) = 0.32131 0.01174
#
# Static dielectric constant tensor:
#      x y z
#    x 1.681050 0.000000 0.000000 
#    y 0.000000 1.570990 0.000000 
#    z 0.000000 0.000000 1.676440 
# 
# From -- ./inp_files/4274.got.cif
#   From: 2010.05.17/outbox.cif.g08.bks.cpg/sg20_3_cif.got.tgz:4274.got - 2010.06.03 22:52:26.
