data_PCOD9316424
_publ_section_title
;
Structure prediction by ZEFSAII (Michael W. Deem and Ramdas Pophale) SiO2 
 PCOD9316424
Probable space group: C 2 2 21
;
_chemical_formula_sum "Si O2"
_cell_formula_units_Z 44
_cell_length_a 6.973395
_cell_length_b 25.048498
_cell_length_c 10.654231
_cell_angle_alpha 90.000000
_cell_angle_beta 90.000000
_cell_angle_gamma 90.000000
_cell_volume 1861.007245
_symmetry_space_group_name_H-M "C 2 2 21"
_symmetry_group_IT_number 20
_symmetry_cell_setting 'orthorhombic'
loop_
_space_group_symop_operation_xyz
x,y,z
-x,-y,1/2+z
x,-y,-z
-x,y,1/2-z
1/2+x,1/2+y,z
1/2-x,1/2-y,1/2+z
1/2+x,1/2-y,-z
1/2-x,1/2+y,1/2-z
loop_
_atom_site_type_symbol
_atom_site_label
_atom_site_fract_x
_atom_site_fract_y
_atom_site_fract_z
Si Si1 0.278956 0.423633 0.920221
Si Si2 0.726407 0.138078 0.710345
Si Si3 0.000000 0.355433 0.750000
Si Si4 0.409289 0.799046 0.981695
Si Si5 0.707470 0.970351 0.192261
Si Si6 0.647681 0.677109 0.530844
O O1 0.127726 0.395005 0.831280
O O2 0.330017 0.477682 0.845912
O O3 0.190054 0.441210 0.055551
O O4 0.423717 0.375756 0.957537
O O5 0.500000 0.137752 0.750000
O O6 0.726488 0.171375 0.582006
O O7 0.782878 0.075463 0.712852
O O8 0.843273 0.165758 0.821640
O O9 0.129351 0.317380 0.660779
O O10 0.422248 0.735827 0.001879
O O11 0.625497 0.818739 0.000978
O O12 0.500000 0.985957 0.250000
#
# Coordination Sequence:
#
# PCOD9316424 Si02
#       6
#     8   8   4   8   8   8
#     4   9  17  26  42  69  98 123 162 200 242 291
#     4   8  16  30  44  66  98 134 157 194 255 298
#     4  10  18  28  42  74  98 126 160 208 234 282
#     4  10  20  32  49  69 106 131 165 210 242 297
#     4   9  14  26  44  63  98 129 154 192 254 303
#     4   9  19  32  48  70 102 132 166 204 248 294
#
# _framework density 23.643111999999999
#
# number of rings (size 3 to 8) (size 9 to 14) (size 15 to 20)
#    0.000    2.909    0.909    3.273    5.091    0.000 
#    0.000    0.000    0.000    0.000    0.000    0.000 
#   38.182    0.000    0.000    0.000    0.000    0.000 
#
# Total GULP energy -122594.192949 kJ/mol
# GULP energy per Si atom -5572.463316 kJ/mol
# Density = 2.358930 g / cm^3
# Si number density = 23.643112 Si / 1000 Ang^3
#
#
#
# Elastic Constant Matrix: (Units=GPa)
#
#
# Indices 1 2 3 4 5 6 
#
# 1 29.9640 9.0370 12.9340 0.0000 0.0000 0.0000
# 2 9.0370 225.5701 87.7328 0.0000 0.0000 0.0000
# 3 12.9340 87.7328 105.3857 0.0000 0.0000 0.0000
# 4 0.0000 0.0000 0.0000 21.6970 0.0000 0.0000
# 5 0.0000 0.0000 0.0000 0.0000 25.0690 0.0000
# 6 0.0000 0.0000 0.0000 0.0000 0.0000 12.2869
#
#
#
# Elastic Compliance Matrix: (Units=1/GPa)
#
#
# Indices 1 2 3 4 5 6 
#
# 1 0.035265 0.000400 -0.004661 0.000000 0.000000 0.000000
# 2 0.000400 0.006560 -0.005511 0.000000 0.000000 0.000000
# 3 -0.004661 -0.005511 0.014649 0.000000 0.000000 0.000000
# 4 0.000000 0.000000 0.000000 0.046089 0.000000 0.000000
# 5 0.000000 0.000000 0.000000 0.000000 0.039890 0.000000
# 6 0.000000 0.000000 0.000000 0.000000 0.000000 0.081387
#
#
# Mechanical properties :
#
#
# Convention : Reuss Voigt Hill
#
# Bulk Modulus (GPa) = 27.07794 64.48084 45.77939
# Shear Modulus (GPa) = 19.55465 28.55833 24.05649
#
# Velocity S-wave (km/s) = 2.87901 3.47924 3.19326
# Velocity P-wave (km/s) = 4.74650 6.59333 5.74462
#
# Compressibility (1/GPa) = 0.03693043
#
# Stress axis : x y z
#
# Youngs Moduli (GPa) = 28.35695 152.42764 68.26594
#
# Poissons Ratio (x) = -0.06098 0.31819
# Poissons Ratio (y) = -0.01134 0.37619
# Poissons Ratio (z) = 0.13217 0.83998
#
# Static dielectric constant tensor:
#      x y z
#    x 1.963870 0.000000 0.000000 
#    y 0.000000 1.976160 0.000000 
#    z 0.000000 0.000000 1.984870 
# 
# From -- ./inp_files/14231.got.cif
#   From: 2010.05.17/outbox.cif.g08.bks.cpg/sg20_8_cif.got.tgz:14231.got - 2010.06.03 22:52:26.
