data_PCOD9316659
_publ_section_title
;
Structure prediction by ZEFSAII (Michael W. Deem and Ramdas Pophale) SiO2 
 PCOD9316659
Probable space group: C 2 2 21
;
_chemical_formula_sum "Si O2"
_cell_formula_units_Z 36
_cell_length_a 13.171507
_cell_length_b 13.615420
_cell_length_c 7.326879
_cell_angle_alpha 90.000000
_cell_angle_beta 90.000000
_cell_angle_gamma 90.000000
_cell_volume 1313.970240
_symmetry_space_group_name_H-M "C 2 2 21"
_symmetry_group_IT_number 20
_symmetry_cell_setting 'orthorhombic'
loop_
_space_group_symop_operation_xyz
x,y,z
-x,-y,1/2+z
x,-y,-z
-x,y,1/2-z
1/2+x,1/2+y,z
1/2-x,1/2-y,1/2+z
1/2+x,1/2-y,-z
1/2-x,1/2+y,1/2-z
loop_
_atom_site_type_symbol
_atom_site_label
_atom_site_fract_x
_atom_site_fract_y
_atom_site_fract_z
Si Si1 0.392822 0.906482 0.091501
Si Si2 0.500000 0.561529 0.250000
Si Si3 0.798535 0.666477 0.566428
Si Si4 0.935491 0.799009 0.070978
Si Si5 0.709288 0.616702 0.175249
O O1 0.363880 0.904935 0.304474
O O2 0.442756 0.804592 0.032249
O O3 0.285318 0.902346 0.987543
O O4 0.445492 0.000000 0.000000
O O5 0.526050 0.617126 0.437672
O O6 0.619966 0.536814 0.207771
O O7 0.680392 0.677595 0.622917
O O8 0.780130 0.634512 0.356358
O O9 0.837927 0.776405 0.619089
O O10 0.000000 0.795971 0.250000
#
# Coordination Sequence:
#
# PCOD9316659 Si02
#       5
#     8   4   8   8   8
#     4  11  23  38  55  84 122 154 182 233 285 343
#     4  10  18  34  62  90 106 140 194 250 272 324
#     4  10  18  36  58  85 106 148 195 232 274 338
#     4  10  21  34  60  87 111 146 195 233 280 336
#     4  10  19  34  62  83 108 147 196 234 278 332
#
# _framework density 27.397881000000002
#
# number of rings (size 3 to 8) (size 9 to 14) (size 15 to 20)
#    0.000    1.778    6.667    1.333    3.111    0.889 
#    2.000    0.000   12.222    0.000    0.000    0.000 
#    0.000    0.000    0.000    0.000    0.000    0.000 
#
# Total GULP energy -100583.991359 kJ/mol
# GULP energy per Si atom -5587.999520 kJ/mol
# Density = 2.733552 g / cm^3
# Si number density = 27.397881 Si / 1000 Ang^3
#
#
#
# Elastic Constant Matrix: (Units=GPa)
#
#
# Indices 1 2 3 4 5 6 
#
# 1 77.0669 0.4786 41.0825 0.0000 0.0000 0.0000
# 2 0.4786 90.2355 14.1552 0.0000 0.0000 0.0000
# 3 41.0825 14.1552 120.7395 0.0000 0.0000 0.0000
# 4 0.0000 0.0000 0.0000 21.5305 0.0000 0.0000
# 5 0.0000 0.0000 0.0000 0.0000 39.3826 0.0000
# 6 0.0000 0.0000 0.0000 0.0000 0.0000 19.8521
#
#
#
# Elastic Compliance Matrix: (Units=1/GPa)
#
#
# Indices 1 2 3 4 5 6 
#
# 1 0.015904 0.000779 -0.005503 0.000000 0.000000 0.000000
# 2 0.000779 0.011328 -0.001593 0.000000 0.000000 0.000000
# 3 -0.005503 -0.001593 0.010341 0.000000 0.000000 0.000000
# 4 0.000000 0.000000 0.000000 0.046446 0.000000 0.000000
# 5 0.000000 0.000000 0.000000 0.000000 0.025392 0.000000
# 6 0.000000 0.000000 0.000000 0.000000 0.000000 0.050372
#
#
# Mechanical properties :
#
#
# Convention : Reuss Voigt Hill
#
# Bulk Modulus (GPa) = 40.09697 44.38606 42.24152
# Shear Modulus (GPa) = 27.66539 31.64141 29.65340
#
# Velocity S-wave (km/s) = 3.18113 3.40205 3.29344
# Velocity P-wave (km/s) = 5.30656 5.62740 5.46933
#
# Compressibility (1/GPa) = 0.02493954
#
# Stress axis : x y z
#
# Youngs Moduli (GPa) = 62.87580 88.27776 96.69810
#
# Poissons Ratio (x) = -0.06876 0.53212
# Poissons Ratio (y) = -0.04897 0.15405
# Poissons Ratio (z) = 0.34600 0.14063
#
# Static dielectric constant tensor:
#      x y z
#    x 2.186190 0.000000 0.000000 
#    y 0.000000 2.298170 0.000000 
#    z 0.000000 0.000000 2.197700 
# 
# From -- ./inp_files/8234.got.cif
#   From: 2010.05.17/outbox.cif.g08.bks.cpg/sg20_5_cif.got.tgz:8234.got - 2010.06.03 22:52:26.
