data_PCOD9316650
_publ_section_title
;
Structure prediction by ZEFSAII (Michael W. Deem and Ramdas Pophale) SiO2 
 PCOD9316650
Probable space group: C 2 2 21
;
_chemical_formula_sum "Si O2"
_cell_formula_units_Z 40
_cell_length_a 22.752933
_cell_length_b 6.158732
_cell_length_c 13.078676
_cell_angle_alpha 90.000000
_cell_angle_beta 90.000000
_cell_angle_gamma 90.000000
_cell_volume 1832.704622
_symmetry_space_group_name_H-M "C 2 2 21"
_symmetry_group_IT_number 20
_symmetry_cell_setting 'orthorhombic'
loop_
_space_group_symop_operation_xyz
x,y,z
-x,-y,1/2+z
x,-y,-z
-x,y,1/2-z
1/2+x,1/2+y,z
1/2-x,1/2-y,1/2+z
1/2+x,1/2-y,-z
1/2-x,1/2+y,1/2-z
loop_
_atom_site_type_symbol
_atom_site_label
_atom_site_fract_x
_atom_site_fract_y
_atom_site_fract_z
Si Si1 0.126703 0.060570 0.348020
Si Si2 0.322644 0.826683 0.729669
Si Si3 0.932034 0.450017 0.224830
Si Si4 0.725555 0.851489 0.403103
Si Si5 0.475957 0.500000 0.000000
Si Si6 0.471442 0.000000 0.000000
O O1 0.098733 0.217961 0.262691
O O2 0.169265 0.198860 0.421667
O O3 0.068699 0.981395 0.404926
O O4 0.168706 0.888070 0.296574
O O5 0.282242 0.782629 0.632847
O O6 0.390353 0.893251 0.711139
O O7 0.293473 0.004231 0.804581
O O8 0.932114 0.499473 0.102896
O O9 0.000000 0.455479 0.250000
O O10 0.737175 0.000000 0.500000
O O11 0.501830 0.752942 0.005316
#
# Coordination Sequence:
#
# PCOD9316650 Si02
#       6
#     8   8   8   8   4   4
#     4  10  20  36  59  88 121 163 209 272 321 388
#     4  11  21  40  62  92 128 163 215 272 335 402
#     4  10  23  40  61  89 125 170 219 278 326 394
#     4  11  23  37  62  97 129 165 214 269 344 412
#     4  10  18  34  60  91 114 155 218 276 318 376
#     4  10  20  38  62  91 116 163 230 274 326 380
#
# _framework density 21.825665000000001
#
# number of rings (size 3 to 8) (size 9 to 14) (size 15 to 20)
#    0.000    1.600    4.000    1.200    9.800    0.800 
#    0.000    2.000    0.000    0.000    0.000    0.000 
#    0.000    0.000    0.000    0.000    0.000    0.000 
#
# Total GULP energy -111351.229752 kJ/mol
# GULP energy per Si atom -5567.561488 kJ/mol
# Density = 2.177599 g / cm^3
# Si number density = 21.825665 Si / 1000 Ang^3
#
#
#
# Elastic Constant Matrix: (Units=GPa)
#
#
# Indices 1 2 3 4 5 6 
#
# 1 111.0958 25.4198 22.1221 0.0000 0.0000 0.0000
# 2 25.4198 111.9814 5.3632 0.0000 0.0000 0.0000
# 3 22.1221 5.3632 28.8203 0.0000 0.0000 0.0000
# 4 0.0000 0.0000 0.0000 22.6030 0.0000 0.0000
# 5 0.0000 0.0000 0.0000 0.0000 6.3266 0.0000
# 6 0.0000 0.0000 0.0000 0.0000 0.0000 -2.2863
#
#
#
# Elastic Compliance Matrix: (Units=1/GPa)
#
#
# Indices 1 2 3 4 5 6 
#
# 1 0.011108 -0.002132 -0.008130 0.000000 0.000000 0.000000
# 2 -0.002132 0.009420 -0.000116 0.000000 0.000000 0.000000
# 3 -0.008130 -0.000116 0.040959 0.000000 0.000000 0.000000
# 4 0.000000 0.000000 0.000000 0.044242 0.000000 0.000000
# 5 0.000000 0.000000 0.000000 0.000000 0.158063 0.000000
# 6 0.000000 0.000000 0.000000 0.000000 0.000000 -0.437390
#
#
# Mechanical properties :
#
#
# Convention : Reuss Voigt Hill
#
# Bulk Modulus (GPa) = 24.55128 39.74533 32.14830
# Shear Modulus (GPa) = -35.90270 18.59482 -8.65394
#
# Velocity S-wave (km/s) = -4.06023 2.92202 -1.99340
# Velocity P-wave (km/s) = 3.27222 5.44373 3.07626
#
# Compressibility (1/GPa) = 0.04073108
#
# Stress axis : x y z
#
# Youngs Moduli (GPa) = 90.02608 106.16138 24.41438
#
# Poissons Ratio (x) = 0.22635 0.19848
# Poissons Ratio (y) = 0.19195 0.00284
# Poissons Ratio (z) = 0.73187 0.01235
#
# Static dielectric constant tensor:
#      x y z
#    x 1.769070 0.000000 0.000000 
#    y 0.000000 1.988110 0.000000 
#    z 0.000000 0.000000 1.804450 
# 
# From -- ./inp_files/21928.got.cif
#   From: 2010.05.17/outbox.cif.g08.bks.cpg/sg20_11_cif.got.tgz:21928.got - 2010.06.03 22:52:26.
