data_PCOD9316596
_publ_section_title
;
Structure prediction by ZEFSAII (Michael W. Deem and Ramdas Pophale) SiO2 
 PCOD9316596
Probable space group: C 2 2 21
;
_chemical_formula_sum "Si O2"
_cell_formula_units_Z 52
_cell_length_a 17.717992
_cell_length_b 14.203988
_cell_length_c 8.923595
_cell_angle_alpha 90.000000
_cell_angle_beta 90.000000
_cell_angle_gamma 90.000000
_cell_volume 2245.766760
_symmetry_space_group_name_H-M "C 2 2 21"
_symmetry_group_IT_number 20
_symmetry_cell_setting 'orthorhombic'
loop_
_space_group_symop_operation_xyz
x,y,z
-x,-y,1/2+z
x,-y,-z
-x,y,1/2-z
1/2+x,1/2+y,z
1/2-x,1/2-y,1/2+z
1/2+x,1/2-y,-z
1/2-x,1/2+y,1/2-z
loop_
_atom_site_type_symbol
_atom_site_label
_atom_site_fract_x
_atom_site_fract_y
_atom_site_fract_z
Si Si1 0.193709 0.874945 0.869014
Si Si2 0.701824 0.628418 0.468192
Si Si3 0.068955 0.000000 0.000000
Si Si4 0.493214 0.802017 0.923660
Si Si5 0.337461 0.851332 0.055095
Si Si6 0.353465 0.841378 0.392774
Si Si7 0.948952 0.918089 0.134457
O O1 0.193613 0.909297 0.699297
O O2 0.119903 0.916927 0.942256
O O3 0.179033 0.763894 0.871322
O O4 0.269511 0.896915 0.961076
O O5 0.685575 0.740368 0.450459
O O6 0.787751 0.610590 0.512862
O O7 0.640053 0.592893 0.586901
O O8 0.051851 0.053657 0.816072
O O9 0.500000 0.827103 0.750000
O O10 0.476464 0.688240 0.920178
O O11 0.419236 0.854341 0.981559
O O12 0.566381 0.829632 0.022923
O O13 0.350663 0.883028 0.225705
O O14 0.973414 0.000000 0.000000
#
# Coordination Sequence:
#
# PCOD9316596 Si02
#       7
#     8   8   4   8   8   8   8
#     4  10  21  36  52  81 110 154 194 227 287 337
#     4   9  20  35  54  76 110 149 191 244 281 329
#     4  12  24  36  56  76 124 160 190 226 266 352
#     4  10  18  33  55  84 114 142 185 240 290 335
#     4   9  19  32  55  80 110 142 189 242 290 329
#     4  10  18  34  57  80 111 143 189 244 292 333
#     4  10  23  35  51  79 116 158 194 225 276 338
#
# _framework density 23.154672999999999
#
# number of rings (size 3 to 8) (size 9 to 14) (size 15 to 20)
#    0.000    2.154    1.538    1.385    4.308    3.692 
#    0.000    0.000    0.000    0.000    0.000    7.538 
#    0.000    0.000    0.000    0.000    0.000    0.000 
#
# Total GULP energy -144941.802711 kJ/mol
# GULP energy per Si atom -5574.684720 kJ/mol
# Density = 2.310197 g / cm^3
# Si number density = 23.154673 Si / 1000 Ang^3
#
#
#
# Elastic Constant Matrix: (Units=GPa)
#
#
# Indices 1 2 3 4 5 6 
#
# 1 187.9095 11.3291 76.2837 0.0000 0.0000 0.0000
# 2 11.3291 40.3948 14.8373 0.0000 0.0000 0.0000
# 3 76.2837 14.8373 160.8973 0.0000 0.0000 0.0000
# 4 0.0000 0.0000 0.0000 20.9937 0.0000 0.0000
# 5 0.0000 0.0000 0.0000 0.0000 -0.7998 0.0000
# 6 0.0000 0.0000 0.0000 0.0000 0.0000 -23.6742
#
#
#
# Elastic Compliance Matrix: (Units=1/GPa)
#
#
# Indices 1 2 3 4 5 6 
#
# 1 0.006611 -0.000727 -0.003067 0.000000 0.000000 0.000000
# 2 -0.000727 0.025704 -0.002025 0.000000 0.000000 0.000000
# 3 -0.003067 -0.002025 0.007856 0.000000 0.000000 0.000000
# 4 0.000000 0.000000 0.000000 0.047633 0.000000 0.000000
# 5 0.000000 0.000000 0.000000 0.000000 -1.250362 0.000000
# 6 0.000000 0.000000 0.000000 0.000000 0.000000 -0.042240
#
#
# Mechanical properties :
#
#
# Convention : Reuss Voigt Hill
#
# Bulk Modulus (GPa) = 35.05025 66.01130 50.53078
# Shear Modulus (GPa) = -4.22423 18.42071 7.09824
#
# Velocity S-wave (km/s) = -1.35215 2.82361 1.75278
# Velocity P-wave (km/s) = 3.56827 6.26108 5.09577
#
# Compressibility (1/GPa) = 0.02853046
#
# Stress axis : x y z
#
# Youngs Moduli (GPa) = 151.26973 38.90501 127.28973
#
# Poissons Ratio (x) = 0.02830 0.39042
# Poissons Ratio (y) = 0.11004 0.25781
# Poissons Ratio (z) = 0.46397 0.07880
#
# Static dielectric constant tensor:
#      x y z
#    x 1.927630 0.000000 0.000000 
#    y 0.000000 2.514140 0.000000 
#    z 0.000000 0.000000 2.108410 
# 
# From -- ./inp_files/9550.got.cif
#   From: 2010.05.17/outbox.cif.g08.bks.cpg/sg20_5_cif.got.tgz:9550.got - 2010.06.03 22:52:26.
