data_PCOD9316060
_publ_section_title
;
Structure prediction by ZEFSAII (Michael W. Deem and Ramdas Pophale) SiO2 
 PCOD9316060
Probable space group: P 21 21 21
;
_chemical_formula_sum "Si O2"
_cell_formula_units_Z 20
_cell_length_a 7.738866
_cell_length_b 5.041669
_cell_length_c 19.695842
_cell_angle_alpha 90.000000
_cell_angle_beta 90.000000
_cell_angle_gamma 90.000000
_cell_volume 768.468744
_symmetry_space_group_name_H-M "P 21 21 21"
_symmetry_group_IT_number 19
_symmetry_cell_setting 'orthorhombic'
loop_
_space_group_symop_operation_xyz
x,y,z
1/2-x,-y,1/2+z
1/2+x,1/2-y,-z
-x,1/2+y,1/2-z
loop_
_atom_site_type_symbol
_atom_site_label
_atom_site_fract_x
_atom_site_fract_y
_atom_site_fract_z
Si Si1 0.570877 0.037055 0.785228
Si Si2 0.011312 0.688518 0.413234
Si Si3 0.102252 0.852678 0.764583
Si Si4 0.803386 0.203530 0.595270
Si Si5 0.154509 0.993646 0.533668
O O1 0.446988 0.241315 0.743250
O O2 0.521977 0.060413 0.864498
O O3 0.752753 0.184870 0.775011
O O4 0.163696 0.513964 0.380987
O O5 0.822785 0.561919 0.421846
O O6 0.079509 0.750899 0.488917
O O7 0.163619 0.897040 0.841781
O O8 0.950644 0.632032 0.766485
O O9 0.722370 0.319664 0.526848
O O10 0.990969 0.093871 0.575110
#
# Coordination Sequence:
#
# PCOD9316060 Si02
#       5
#     4   4   4   4   4
#     4  12  26  48  76 107 147 201 244 306 378 439
#     4  12  26  46  74 107 149 191 250 307 371 448
#     4  12  28  49  76 111 150 196 252 314 374 443
#     4  12  26  48  74 106 153 189 250 311 366 452
#     4  12  26  45  76 107 143 199 242 306 379 434
#
# _framework density 26.025784000000002
#
# number of rings (size 3 to 8) (size 9 to 14) (size 15 to 20)
#    0.000    0.000    6.000    3.600    2.800    3.200 
#    0.000    0.000    0.000    0.000    0.000    0.000 
#    0.000    0.000    0.000    0.000    0.000    0.000 
#
# Total GULP energy -112084.684381 kJ/mol
# GULP energy per Si atom -5604.234219 kJ/mol
# Density = 2.596655 g / cm^3
# Si number density = 26.025784 Si / 1000 Ang^3
#
#
#
# Elastic Constant Matrix: (Units=GPa)
#
#
# Indices 1 2 3 4 5 6 
#
# 1 193.3397 28.6099 22.5892 0.0000 0.0000 0.0000
# 2 28.6099 74.7419 12.3122 0.0000 0.0000 0.0000
# 3 22.5892 12.3122 115.1072 0.0000 0.0000 0.0000
# 4 0.0000 0.0000 0.0000 44.0393 0.0000 0.0000
# 5 0.0000 0.0000 0.0000 0.0000 29.4965 0.0000
# 6 0.0000 0.0000 0.0000 0.0000 0.0000 43.6516
#
#
#
# Elastic Compliance Matrix: (Units=1/GPa)
#
#
# Indices 1 2 3 4 5 6 
#
# 1 0.005569 -0.001987 -0.000880 0.000000 0.000000 0.000000
# 2 -0.001987 0.014328 -0.001143 0.000000 0.000000 0.000000
# 3 -0.000880 -0.001143 0.008983 0.000000 0.000000 0.000000
# 4 0.000000 0.000000 0.000000 0.022707 0.000000 0.000000
# 5 0.000000 0.000000 0.000000 0.000000 0.033902 0.000000
# 6 0.000000 0.000000 0.000000 0.000000 0.000000 0.022909
#
#
# Mechanical properties :
#
#
# Convention : Reuss Voigt Hill
#
# Bulk Modulus (GPa) = 47.93838 56.69015 52.31426
# Shear Modulus (GPa) = 40.52823 44.74930 42.63877
#
# Velocity S-wave (km/s) = 3.95046 4.15109 4.05202
# Velocity P-wave (km/s) = 6.26640 6.69365 6.48355
#
# Compressibility (1/GPa) = 0.02086011
#
# Stress axis : x y z
#
# Youngs Moduli (GPa) = 179.56238 69.79298 111.32689
#
# Poissons Ratio (x) = 0.13866 0.09801
# Poissons Ratio (y) = 0.35674 0.12721
# Poissons Ratio (z) = 0.15809 0.07975
#
# Static dielectric constant tensor:
#      x y z
#    x 2.130390 0.000000 0.000000 
#    y 0.000000 2.058380 0.000000 
#    z 0.000000 0.000000 1.981190 
# 
# From -- ./inp_files/378.got.cif
#   From: 2010.05.17/outbox.cif.g08.bks.cpg/sg19_1_cif.got.tgz:378.got - 2010.06.03 22:46:19.
