data_PCOD9316653
_publ_section_title
;
Structure prediction by ZEFSAII (Michael W. Deem and Ramdas Pophale) SiO2 
 PCOD9316653
Probable space group: C 2 2 21
;
_chemical_formula_sum "Si O2"
_cell_formula_units_Z 64
_cell_length_a 16.352359
_cell_length_b 4.938117
_cell_length_c 34.963502
_cell_angle_alpha 90.000000
_cell_angle_beta 90.000000
_cell_angle_gamma 90.000000
_cell_volume 2823.297960
_symmetry_space_group_name_H-M "C 2 2 21"
_symmetry_group_IT_number 20
_symmetry_cell_setting 'orthorhombic'
loop_
_space_group_symop_operation_xyz
x,y,z
-x,-y,1/2+z
x,-y,-z
-x,y,1/2-z
1/2+x,1/2+y,z
1/2-x,1/2-y,1/2+z
1/2+x,1/2-y,-z
1/2-x,1/2+y,1/2-z
loop_
_atom_site_type_symbol
_atom_site_label
_atom_site_fract_x
_atom_site_fract_y
_atom_site_fract_z
Si Si1 0.797313 0.448143 0.105309
Si Si2 0.709630 0.265708 0.525936
Si Si3 0.980541 0.884531 0.960113
Si Si4 0.516452 0.107685 0.413065
Si Si5 0.945183 0.025764 0.715814
Si Si6 0.256622 0.547665 0.846227
Si Si7 0.707884 0.257608 0.262561
Si Si8 0.070370 0.502038 0.834246
O O1 0.755522 0.327566 0.066925
O O2 0.886755 0.561587 0.094112
O O3 0.805795 0.198016 0.134601
O O4 0.751176 0.698692 0.124845
O O5 0.749930 0.500000 0.500000
O O6 0.618570 0.374867 0.536101
O O7 0.700970 0.000000 0.500000
O O8 0.006725 0.585870 0.948451
O O9 0.999877 0.087341 0.925660
O O10 0.012717 0.000000 0.000000
O O11 0.469440 0.017690 0.375529
O O12 0.866175 0.131492 0.737978
O O13 0.931235 0.795404 0.684806
O O14 0.000000 0.917275 0.750000
O O15 0.976149 0.289656 0.693155
O O16 0.294396 0.663131 0.806988
O O17 0.166397 0.431616 0.837727
O O18 0.718057 0.938910 0.255101
#
# Coordination Sequence:
#
# PCOD9316653 Si02
#       8
#     8   8   8   8   8   8   8   8
#     4  11  23  37  63  95 120 158 212 249 301 362
#     4  10  18  34  60  92 129 160 198 260 311 355
#     4  10  18  35  61  92 122 159 202 253 304 359
#     4  11  23  38  61  94 125 157 204 258 304 360
#     4  12  26  44  66  93 122 162 207 262 313 364
#     4  12  24  41  63  87 125 166 201 253 305 375
#     4  12  23  44  66  90 118 163 215 251 297 372
#     4  12  26  45  61  90 130 168 197 251 323 370
#
# _framework density 22.668527000000001
#
# number of rings (size 3 to 8) (size 9 to 14) (size 15 to 20)
#    0.000    0.750    2.500    8.250    3.500    0.000 
#    0.000    0.000    0.000    7.500    0.000    0.000 
#    0.000    0.000    0.000    0.000    0.000    0.000 
#
# Total GULP energy -178972.543198 kJ/mol
# GULP energy per Si atom -5592.891975 kJ/mol
# Density = 2.261693 g / cm^3
# Si number density = 22.668527 Si / 1000 Ang^3
#
#
#
# Elastic Constant Matrix: (Units=GPa)
#
#
# Indices 1 2 3 4 5 6 
#
# 1 10.0481 -2.7232 11.3025 0.0000 0.0000 0.0000
# 2 -2.7232 68.1751 11.4065 0.0000 0.0000 0.0000
# 3 11.3025 11.4065 115.5801 0.0000 0.0000 0.0000
# 4 0.0000 0.0000 0.0000 30.3748 0.0000 0.0000
# 5 0.0000 0.0000 0.0000 0.0000 20.3923 0.0000
# 6 0.0000 0.0000 0.0000 0.0000 0.0000 11.1468
#
#
#
# Elastic Compliance Matrix: (Units=1/GPa)
#
#
# Indices 1 2 3 4 5 6 
#
# 1 0.114639 0.006563 -0.011858 0.000000 0.000000 0.000000
# 2 0.006563 0.015290 -0.002151 0.000000 0.000000 0.000000
# 3 -0.011858 -0.002151 0.010024 0.000000 0.000000 0.000000
# 4 0.000000 0.000000 0.000000 0.032922 0.000000 0.000000
# 5 0.000000 0.000000 0.000000 0.000000 0.049038 0.000000
# 6 0.000000 0.000000 0.000000 0.000000 0.000000 0.089712
#
#
# Mechanical properties :
#
#
# Convention : Reuss Voigt Hill
#
# Bulk Modulus (GPa) = 7.99609 25.97498 16.98554
# Shear Modulus (GPa) = 13.57946 23.97062 18.77504
#
# Velocity S-wave (km/s) = 2.45019 3.25536 2.88104
# Velocity P-wave (km/s) = 3.39701 5.06096 4.31004
#
# Compressibility (1/GPa) = 0.12506113
#
# Stress axis : x y z
#
# Youngs Moduli (GPa) = 8.72307 65.40173 99.76191
#
# Poissons Ratio (x) = -0.42924 1.18299
# Poissons Ratio (y) = -0.05725 0.21457
# Poissons Ratio (z) = 0.10344 0.14066
#
# Static dielectric constant tensor:
#      x y z
#    x 1.921150 0.000000 0.000000 
#    y 0.000000 1.824610 0.000000 
#    z 0.000000 0.000000 1.851780 
# 
# From -- ./inp_files/31366.got.cif
#   From: 2010.05.17/outbox.cif.g08.bks.cpg/sg20_16_cif.got.tgz:31366.got - 2010.06.03 22:52:26.
