data_PCOD9316389
_publ_section_title
;
Structure prediction by ZEFSAII (Michael W. Deem and Ramdas Pophale) SiO2 
 PCOD9316389
Probable space group: C 2 2 21
;
_chemical_formula_sum "Si O2"
_cell_formula_units_Z 48
_cell_length_a 16.150262
_cell_length_b 9.490987
_cell_length_c 17.525675
_cell_angle_alpha 90.000000
_cell_angle_beta 90.000000
_cell_angle_gamma 90.000000
_cell_volume 2686.369231
_symmetry_space_group_name_H-M "C 2 2 21"
_symmetry_group_IT_number 20
_symmetry_cell_setting 'orthorhombic'
loop_
_space_group_symop_operation_xyz
x,y,z
-x,-y,1/2+z
x,-y,-z
-x,y,1/2-z
1/2+x,1/2+y,z
1/2-x,1/2-y,1/2+z
1/2+x,1/2-y,-z
1/2-x,1/2+y,1/2-z
loop_
_atom_site_type_symbol
_atom_site_label
_atom_site_fract_x
_atom_site_fract_y
_atom_site_fract_z
Si Si1 0.686298 0.665047 0.487292
Si Si2 0.415765 0.868017 0.554190
Si Si3 0.600825 0.893365 0.570550
Si Si4 0.842466 0.149746 0.458239
Si Si5 0.264444 0.785849 0.663802
Si Si6 0.244703 0.046207 0.180999
O O1 0.690490 0.500000 0.500000
O O2 0.614642 0.738765 0.535019
O O3 0.766478 0.747949 0.519463
O O4 0.690113 0.696016 0.397287
O O5 0.504464 0.902037 0.591382
O O6 0.418076 0.734331 0.495920
O O7 0.346798 0.835781 0.618041
O O8 0.393530 0.000000 0.500000
O O9 0.616295 0.000000 0.500000
O O10 0.669189 0.926060 0.634700
O O11 0.832950 0.000000 0.500000
O O12 0.828891 0.116192 0.369600
O O13 0.270119 0.621130 0.684530
O O14 0.250993 0.880895 0.737500
#
# Coordination Sequence:
#
# PCOD9316389 Si02
#       6
#     8   8   8   8   8   8
#     4  10  19  34  58  85 112 143 204 240 275 341
#     4  10  22  37  62  88 115 146 205 240 292 345
#     4  10  20  41  60  83 114 160 189 245 293 342
#     4  10  17  36  58  81 109 151 193 244 282 334
#     4  11  22  36  57  89 113 154 192 241 285 350
#     4  11  22  35  61  82 121 153 195 236 295 342
#
# _framework density 17.867982999999999
#
# number of rings (size 3 to 8) (size 9 to 14) (size 15 to 20)
#    0.000    1.667    5.000    3.000    7.000    1.333 
#    0.000    0.000    0.000    1.000    0.000    0.000 
#    0.000    0.000    0.000    0.000    0.000    0.000 
#
# Total GULP energy -133704.550255 kJ/mol
# GULP energy per Si atom -5571.022927 kJ/mol
# Density = 1.782732 g / cm^3
# Si number density = 17.867983 Si / 1000 Ang^3
#
#
#
# Elastic Constant Matrix: (Units=GPa)
#
#
# Indices 1 2 3 4 5 6 
#
# 1 50.0156 4.8085 7.1478 0.0000 0.0000 0.0000
# 2 4.8085 146.8277 36.4879 0.0000 0.0000 0.0000
# 3 7.1478 36.4879 93.3680 0.0000 0.0000 0.0000
# 4 0.0000 0.0000 0.0000 37.7408 0.0000 0.0000
# 5 0.0000 0.0000 0.0000 0.0000 16.9706 0.0000
# 6 0.0000 0.0000 0.0000 0.0000 0.0000 10.8463
#
#
#
# Elastic Compliance Matrix: (Units=1/GPa)
#
#
# Indices 1 2 3 4 5 6 
#
# 1 0.020227 -0.000307 -0.001428 0.000000 0.000000 0.000000
# 2 -0.000307 0.007548 -0.002926 0.000000 0.000000 0.000000
# 3 -0.001428 -0.002926 0.011963 0.000000 0.000000 0.000000
# 4 0.000000 0.000000 0.000000 0.026497 0.000000 0.000000
# 5 0.000000 0.000000 0.000000 0.000000 0.058926 0.000000
# 6 0.000000 0.000000 0.000000 0.000000 0.000000 0.092197
#
#
# Mechanical properties :
#
#
# Convention : Reuss Voigt Hill
#
# Bulk Modulus (GPa) = 32.87896 43.01108 37.94502
# Shear Modulus (GPa) = 21.11306 29.22934 25.17120
#
# Velocity S-wave (km/s) = 3.44119 4.04895 3.75738
# Velocity P-wave (km/s) = 5.85065 6.78104 6.33295
#
# Compressibility (1/GPa) = 0.03041459
#
# Stress axis : x y z
#
# Youngs Moduli (GPa) = 49.43776 132.48628 83.58978
#
# Poissons Ratio (x) = 0.04074 0.11940
# Poissons Ratio (y) = 0.01520 0.24460
# Poissons Ratio (z) = 0.07061 0.38768
#
# Static dielectric constant tensor:
#      x y z
#    x 1.656400 0.000000 0.000000 
#    y 0.000000 1.623700 0.000000 
#    z 0.000000 0.000000 1.612580 
# 
# From -- ./inp_files/21277.got.cif
#   From: 2010.05.17/outbox.cif.g08.bks.cpg/sg20_11_cif.got.tgz:21277.got - 2010.06.03 22:52:26.
