data_PCOD9316674
_publ_section_title
;
Structure prediction by ZEFSAII (Michael W. Deem and Ramdas Pophale) SiO2 
 PCOD9316674
Probable space group: C 2 2 21
;
_chemical_formula_sum "Si O2"
_cell_formula_units_Z 56
_cell_length_a 13.534304
_cell_length_b 8.350494
_cell_length_c 20.992640
_cell_angle_alpha 90.000000
_cell_angle_beta 90.000000
_cell_angle_gamma 90.000000
_cell_volume 2372.548798
_symmetry_space_group_name_H-M "C 2 2 21"
_symmetry_group_IT_number 20
_symmetry_cell_setting 'orthorhombic'
loop_
_space_group_symop_operation_xyz
x,y,z
-x,-y,1/2+z
x,-y,-z
-x,y,1/2-z
1/2+x,1/2+y,z
1/2-x,1/2-y,1/2+z
1/2+x,1/2-y,-z
1/2-x,1/2+y,1/2-z
loop_
_atom_site_type_symbol
_atom_site_label
_atom_site_fract_x
_atom_site_fract_y
_atom_site_fract_z
Si Si1 0.803968 0.450694 0.939711
Si Si2 0.119367 0.518116 0.883965
Si Si3 0.590634 0.702002 0.028965
Si Si4 0.386177 0.871428 0.252265
Si Si5 0.959027 0.075345 0.612231
Si Si6 0.758584 0.219901 0.646024
Si Si7 0.074691 0.670045 0.332972
O O1 0.700921 0.374595 0.963969
O O2 0.801537 0.620374 0.904853
O O3 0.844389 0.333581 0.887473
O O4 0.868717 0.500000 0.000000
O O5 0.100656 0.619148 0.946497
O O6 0.145576 0.633864 0.825099
O O7 0.204392 0.385628 0.882777
O O8 0.019334 0.430193 0.860137
O O9 0.529235 0.600979 0.082432
O O10 0.552373 0.672789 0.956659
O O11 0.500000 0.814591 0.250000
O O12 0.308453 0.778797 0.208474
O O13 0.389989 0.060103 0.226498
O O14 0.856418 0.107189 0.649590
O O15 0.037097 0.147669 0.662408
#
# Coordination Sequence:
#
# PCOD9316674 Si02
#       7
#     8   8   8   8   8   8   8
#     4  10  18  35  53  80 117 157 184 242 297 349
#     4  10  21  35  60  89 112 153 205 247 294 365
#     4  10  19  35  57  83 123 147 195 242 306 370
#     4   9  19  37  55  84 115 154 203 257 296 352
#     4   9  18  36  55  87 116 158 190 241 301 380
#     4   9  18  34  57  81 112 151 201 239 287 358
#     4   9  20  34  59  80 113 153 204 234 300 354
#
# _framework density 23.603307999999998
#
# number of rings (size 3 to 8) (size 9 to 14) (size 15 to 20)
#    0.000    2.571    2.857    0.000    2.000    5.143 
#    0.000    4.286    0.000   18.000    0.000    0.000 
#    0.000    0.000    0.000    0.000    0.000    0.000 
#
# Total GULP energy -155955.259805 kJ/mol
# GULP energy per Si atom -5569.830707 kJ/mol
# Density = 2.354959 g / cm^3
# Si number density = 23.603308 Si / 1000 Ang^3
#
#
#
# Elastic Constant Matrix: (Units=GPa)
#
#
# Indices 1 2 3 4 5 6 
#
# 1 30.6744 12.5275 10.2747 0.0000 0.0000 0.0000
# 2 12.5275 72.7999 19.2886 0.0000 0.0000 0.0000
# 3 10.2747 19.2886 53.0101 0.0000 0.0000 0.0000
# 4 0.0000 0.0000 0.0000 25.0027 0.0000 0.0000
# 5 0.0000 0.0000 0.0000 0.0000 21.3578 0.0000
# 6 0.0000 0.0000 0.0000 0.0000 0.0000 1488.4454
#
#
#
# Elastic Compliance Matrix: (Units=1/GPa)
#
#
# Indices 1 2 3 4 5 6 
#
# 1 0.036352 -0.004857 -0.005279 0.000000 0.000000 0.000000
# 2 -0.004857 0.015851 -0.004826 0.000000 0.000000 0.000000
# 3 -0.005279 -0.004826 0.021644 0.000000 0.000000 0.000000
# 4 0.000000 0.000000 0.000000 0.039996 0.000000 0.000000
# 5 0.000000 0.000000 0.000000 0.000000 0.046821 0.000000
# 6 0.000000 0.000000 0.000000 0.000000 0.000000 0.000672
#
#
# Mechanical properties :
#
#
# Convention : Reuss Voigt Hill
#
# Bulk Modulus (GPa) = 22.76714 26.74067 24.75390
# Shear Modulus (GPa) = 24.28364 314.58742 169.43553
#
# Velocity S-wave (km/s) = 3.21101 11.55727 8.48177
# Velocity P-wave (km/s) = 4.83881 13.76400 10.31653
#
# Compressibility (1/GPa) = 0.04392296
#
# Stress axis : x y z
#
# Youngs Moduli (GPa) = 27.50861 63.08837 46.20308
#
# Poissons Ratio (x) = 0.30641 0.24389
# Poissons Ratio (y) = 0.13361 0.22298
# Poissons Ratio (z) = 0.14521 0.30448
#
# Static dielectric constant tensor:
#      x y z
#    x 1.997800 0.000000 0.000000 
#    y 0.000000 1.997840 0.000000 
#    z 0.000000 0.000000 -6.889150 
# 
# From -- ./inp_files/27547.got.cif
#   From: 2010.05.17/outbox.cif.g08.bks.cpg/sg20_14_cif.got.tgz:27547.got - 2010.06.03 22:52:26.
