data_PCOD9316020
_publ_section_title
;
Structure prediction by ZEFSAII (Michael W. Deem and Ramdas Pophale) SiO2 
 PCOD9316020
Probable space group: P 21 21 21
;
_chemical_formula_sum "Si O2"
_cell_formula_units_Z 16
_cell_length_a 5.184376
_cell_length_b 22.170505
_cell_length_c 5.213282
_cell_angle_alpha 90.000000
_cell_angle_beta 90.000000
_cell_angle_gamma 90.000000
_cell_volume 599.215853
_symmetry_space_group_name_H-M "P 21 21 21"
_symmetry_group_IT_number 19
_symmetry_cell_setting 'orthorhombic'
loop_
_space_group_symop_operation_xyz
x,y,z
1/2-x,-y,1/2+z
1/2+x,1/2-y,-z
-x,1/2+y,1/2-z
loop_
_atom_site_type_symbol
_atom_site_label
_atom_site_fract_x
_atom_site_fract_y
_atom_site_fract_z
Si Si1 0.396600 0.640880 0.927205
Si Si2 0.709655 0.712628 0.572376
Si Si3 0.597292 0.507431 0.851565
Si Si4 0.422384 0.377867 0.914497
O O1 0.610458 0.690381 0.850503
O O2 0.510494 0.573553 0.933845
O O3 0.206538 0.638299 0.683151
O O4 0.226839 0.650841 0.177004
O O5 0.471627 0.749010 0.450946
O O6 0.790140 0.650246 0.427791
O O7 0.677309 0.507516 0.555077
O O8 0.414303 0.449889 0.886548
#
# Coordination Sequence:
#
# PCOD9316020 Si02
#       4
#     4   4   4   4
#     4  12  27  52  81 121 166 223 280 351 427 501
#     4  12  28  58  84 124 170 232 286 348 416 508
#     4  12  24  44  82 122 168 212 276 352 430 506
#     4  12  27  52  81 121 166 223 280 351 427 501
#
# _framework density 26.701561999999999
#
# number of rings (size 3 to 8) (size 9 to 14) (size 15 to 20)
#    0.000    0.000    5.000    4.500    0.000    0.000 
#    9.000    0.000    0.000    0.000    0.000    0.000 
#    0.000    0.000    0.000    0.000    0.000    0.000 
#
# Total GULP energy -89756.682659 kJ/mol
# GULP energy per Si atom -5609.792666 kJ/mol
# Density = 2.664079 g / cm^3
# Si number density = 26.701562 Si / 1000 Ang^3
#
#
#
# Elastic Constant Matrix: (Units=GPa)
#
#
# Indices 1 2 3 4 5 6 
#
# 1 126.8870 32.4963 45.6627 0.0000 0.0000 0.0000
# 2 32.4963 117.8383 21.3252 0.0000 0.0000 0.0000
# 3 45.6627 21.3252 121.6334 0.0000 0.0000 0.0000
# 4 0.0000 0.0000 0.0000 41.7588 0.0000 0.0000
# 5 0.0000 0.0000 0.0000 0.0000 55.0540 0.0000
# 6 0.0000 0.0000 0.0000 0.0000 0.0000 65.2314
#
#
#
# Elastic Compliance Matrix: (Units=1/GPa)
#
#
# Indices 1 2 3 4 5 6 
#
# 1 0.009570 -0.002054 -0.003233 0.000000 0.000000 0.000000
# 2 -0.002054 0.009205 -0.000843 0.000000 0.000000 0.000000
# 3 -0.003233 -0.000843 0.009583 0.000000 0.000000 0.000000
# 4 0.000000 0.000000 0.000000 0.023947 0.000000 0.000000
# 5 0.000000 0.000000 0.000000 0.000000 0.018164 0.000000
# 6 0.000000 0.000000 0.000000 0.000000 0.000000 0.015330
#
#
# Mechanical properties :
#
#
# Convention : Reuss Voigt Hill
#
# Bulk Modulus (GPa) = 62.11509 62.81412 62.46460
# Shear Modulus (GPa) = 48.34412 50.20050 49.27231
#
# Velocity S-wave (km/s) = 4.25965 4.34067 4.30035
# Velocity P-wave (km/s) = 6.89247 6.97836 6.93554
#
# Compressibility (1/GPa) = 0.01609915
#
# Stress axis : x y z
#
# Youngs Moduli (GPa) = 104.48793 108.63417 104.35393
#
# Poissons Ratio (x) = 0.22316 0.33735
# Poissons Ratio (y) = 0.21464 0.08794
# Poissons Ratio (z) = 0.33778 0.09155
#
# Static dielectric constant tensor:
#      x y z
#    x 2.154200 0.000000 0.000000 
#    y 0.000000 2.155560 0.000000 
#    z 0.000000 0.000000 2.021250 
# 
# From -- ./inp_files/124.got.cif
#   From: 2010.05.17/outbox.cif.g08.bks.cpg/sg19_1_cif.got.tgz:124.got - 2010.06.03 22:46:19.
