data_PCOD9316781
_publ_section_title
;
Structure prediction by ZEFSAII (Michael W. Deem and Ramdas Pophale) SiO2 
 PCOD9316781
Probable space group: C 2 2 21
;
_chemical_formula_sum "Si O2"
_cell_formula_units_Z 56
_cell_length_a 11.657973
_cell_length_b 16.118215
_cell_length_c 14.624298
_cell_angle_alpha 90.000000
_cell_angle_beta 90.000000
_cell_angle_gamma 90.000000
_cell_volume 2747.989176
_symmetry_space_group_name_H-M "C 2 2 21"
_symmetry_group_IT_number 20
_symmetry_cell_setting 'orthorhombic'
loop_
_space_group_symop_operation_xyz
x,y,z
-x,-y,1/2+z
x,-y,-z
-x,y,1/2-z
1/2+x,1/2+y,z
1/2-x,1/2-y,1/2+z
1/2+x,1/2-y,-z
1/2-x,1/2+y,1/2-z
loop_
_atom_site_type_symbol
_atom_site_label
_atom_site_fract_x
_atom_site_fract_y
_atom_site_fract_z
Si Si1 0.795432 0.726455 0.685499
Si Si2 0.637428 0.406882 0.755160
Si Si3 0.576594 0.659792 0.594500
Si Si4 0.324350 0.826032 0.116895
Si Si5 0.734928 0.633127 0.429208
Si Si6 0.452608 0.188634 0.510240
Si Si7 0.875139 0.955356 0.402640
O O1 0.804495 0.822865 0.709215
O O2 0.665333 0.698600 0.666173
O O3 0.841656 0.676369 0.773557
O O4 0.870251 0.715431 0.594142
O O5 0.500000 0.392486 0.750000
O O6 0.689614 0.420407 0.654926
O O7 0.659563 0.478923 0.826433
O O8 0.656960 0.617812 0.517455
O O9 0.500810 0.732917 0.547264
O O10 0.489751 0.591202 0.629624
O O11 0.290991 0.730715 0.092997
O O12 0.436307 0.849039 0.059131
O O13 0.222678 0.886413 0.089239
O O14 0.870156 0.630336 0.449952
O O15 0.893976 0.000000 0.500000
#
# Coordination Sequence:
#
# PCOD9316781 Si02
#       7
#     8   8   8   8   8   8   8
#     4  10  21  39  67  96 124 171 234 271 323 409
#     4  11  23  39  65  97 139 166 216 283 349 399
#     4  10  21  37  65  97 130 170 221 283 331 408
#     4  10  21  37  63  95 130 170 223 274 334 407
#     4   9  19  39  64  95 121 174 228 273 327 412
#     4  10  18  37  68  87 126 169 235 269 321 390
#     4  12  25  39  64  99 138 171 217 283 363 395
#
# _framework density 20.378537000000001
#
# number of rings (size 3 to 8) (size 9 to 14) (size 15 to 20)
#    0.000    1.714    1.429    4.714    6.000    0.000 
#    0.000    0.000    6.286    0.000    0.000    0.000 
#    0.000    0.000    0.000    0.000    0.000    0.000 
#
# Total GULP energy -156465.818808 kJ/mol
# GULP energy per Si atom -5588.064957 kJ/mol
# Density = 2.033215 g / cm^3
# Si number density = 20.378537 Si / 1000 Ang^3
#
#
#
# Elastic Constant Matrix: (Units=GPa)
#
#
# Indices 1 2 3 4 5 6 
#
# 1 124.9118 31.0163 38.5379 0.0000 0.0000 0.0000
# 2 31.0163 41.4251 15.2865 0.0000 0.0000 0.0000
# 3 38.5379 15.2865 77.4440 0.0000 0.0000 0.0000
# 4 0.0000 0.0000 0.0000 16.1704 0.0000 0.0000
# 5 0.0000 0.0000 0.0000 0.0000 35.8126 0.0000
# 6 0.0000 0.0000 0.0000 0.0000 0.0000 24.3462
#
#
#
# Elastic Compliance Matrix: (Units=1/GPa)
#
#
# Indices 1 2 3 4 5 6 
#
# 1 0.010933 -0.006664 -0.004125 0.000000 0.000000 0.000000
# 2 -0.006664 0.030098 -0.002625 0.000000 0.000000 0.000000
# 3 -0.004125 -0.002625 0.015483 0.000000 0.000000 0.000000
# 4 0.000000 0.000000 0.000000 0.061841 0.000000 0.000000
# 5 0.000000 0.000000 0.000000 0.000000 0.027923 0.000000
# 6 0.000000 0.000000 0.000000 0.000000 0.000000 0.041074
#
#
# Mechanical properties :
#
#
# Convention : Reuss Voigt Hill
#
# Bulk Modulus (GPa) = 33.68501 45.94024 39.81263
# Shear Modulus (GPa) = 22.31383 25.86185 24.08784
#
# Velocity S-wave (km/s) = 3.31262 3.56627 3.44178
# Velocity P-wave (km/s) = 5.58541 6.28889 5.94756
#
# Compressibility (1/GPa) = 0.02968679
#
# Stress axis : x y z
#
# Youngs Moduli (GPa) = 91.46656 33.22490 64.58494
#
# Poissons Ratio (x) = 0.22140 0.26642
# Poissons Ratio (y) = 0.60950 0.16954
# Poissons Ratio (z) = 0.37732 0.08722
#
# Static dielectric constant tensor:
#      x y z
#    x 1.719550 0.000000 0.000000 
#    y 0.000000 1.707750 0.000000 
#    z 0.000000 0.000000 1.763300 
# 
# From -- ./inp_files/20038.got.cif
#   From: 2010.05.17/outbox.cif.g08.bks.cpg/sg20_11_cif.got.tgz:20038.got - 2010.06.03 22:52:26.
