data_PCOD9316026
_publ_section_title
;
Structure prediction by ZEFSAII (Michael W. Deem and Ramdas Pophale) SiO2 
 PCOD9316026
Probable space group: P 21 21 21
;
_chemical_formula_sum "Si O2"
_cell_formula_units_Z 28
_cell_length_a 13.247377
_cell_length_b 8.147206
_cell_length_c 11.282186
_cell_angle_alpha 90.000000
_cell_angle_beta 90.000000
_cell_angle_gamma 90.000000
_cell_volume 1217.676287
_symmetry_space_group_name_H-M "P 21 21 21"
_symmetry_group_IT_number 19
_symmetry_cell_setting 'orthorhombic'
loop_
_space_group_symop_operation_xyz
x,y,z
1/2-x,-y,1/2+z
1/2+x,1/2-y,-z
-x,1/2+y,1/2-z
loop_
_atom_site_type_symbol
_atom_site_label
_atom_site_fract_x
_atom_site_fract_y
_atom_site_fract_z
Si Si1 0.320578 0.666249 0.916159
Si Si2 0.227122 0.421348 0.089121
Si Si3 0.110200 0.810222 0.910548
Si Si4 0.437813 0.467899 0.740568
Si Si5 0.417200 0.221125 0.152511
Si Si6 0.954541 0.576567 0.000839
Si Si7 0.937068 0.637758 0.462055
O O1 0.228846 0.786245 0.888830
O O2 0.396886 0.627854 0.810003
O O3 0.389201 0.759755 0.009766
O O4 0.274407 0.502364 0.971817
O O5 0.166747 0.559866 0.166114
O O6 0.322573 0.343901 0.156441
O O7 0.150020 0.271971 0.061235
O O8 0.060917 0.845316 0.783098
O O9 0.060975 0.635835 0.947481
O O10 0.096370 0.950928 0.009388
O O11 0.521073 0.474560 0.636532
O O12 0.485539 0.366812 0.850122
O O13 0.507193 0.308372 0.082391
O O14 0.398565 0.065905 0.067911
#
# Coordination Sequence:
#
# PCOD9316026 Si02
#       7
#     4   4   4   4   4   4   4
#     4  12  25  48  71 108 145 189 244 305 368 437
#     4  12  25  48  71 108 145 189 244 305 368 437
#     4  12  25  45  70 102 147 189 246 302 371 433
#     4  12  24  46  80 102 150 190 248 302 362 438
#     4  12  25  45  70 102 147 189 246 302 371 433
#     4  12  26  47  72 107 143 196 244 302 372 439
#     4  12  26  47  72 107 143 196 244 302 372 439
#
# _framework density 22.994617000000002
#
# number of rings (size 3 to 8) (size 9 to 14) (size 15 to 20)
#    0.000    0.000    7.143    2.571    0.000    0.000 
#    5.143    0.000    0.000    0.000    0.000    0.000 
#    0.000    0.000    0.000    0.000    0.000    0.000 
#
# Total GULP energy -156183.691079 kJ/mol
# GULP energy per Si atom -5577.988967 kJ/mol
# Density = 2.294228 g / cm^3
# Si number density = 22.994617 Si / 1000 Ang^3
#
#
#
# Elastic Constant Matrix: (Units=GPa)
#
#
# Indices 1 2 3 4 5 6 
#
# 1 48.0831 22.0173 15.2342 0.0000 0.0000 0.0000
# 2 22.0173 63.0963 33.9760 0.0000 0.0000 0.0000
# 3 15.2342 33.9760 115.1601 0.0000 0.0000 0.0000
# 4 0.0000 0.0000 0.0000 33.7591 0.0000 0.0000
# 5 0.0000 0.0000 0.0000 0.0000 31.4531 0.0000
# 6 0.0000 0.0000 0.0000 0.0000 0.0000 46.7200
#
#
#
# Elastic Compliance Matrix: (Units=1/GPa)
#
#
# Indices 1 2 3 4 5 6 
#
# 1 0.024825 -0.008196 -0.000866 0.000000 0.000000 0.000000
# 2 -0.008196 0.021548 -0.005273 0.000000 0.000000 0.000000
# 3 -0.000866 -0.005273 0.010354 0.000000 0.000000 0.000000
# 4 0.000000 0.000000 0.000000 0.029622 0.000000 0.000000
# 5 0.000000 0.000000 0.000000 0.000000 0.031793 0.000000
# 6 0.000000 0.000000 0.000000 0.000000 0.000000 0.021404
#
#
# Mechanical properties :
#
#
# Convention : Reuss Voigt Hill
#
# Bulk Modulus (GPa) = 35.64260 40.97717 38.30988
# Shear Modulus (GPa) = 28.15809 32.72724 30.44267
#
# Velocity S-wave (km/s) = 3.50316 3.77670 3.64250
# Velocity P-wave (km/s) = 5.64773 6.07264 5.86404
#
# Compressibility (1/GPa) = 0.02805632
#
# Stress axis : x y z
#
# Youngs Moduli (GPa) = 40.28244 46.40716 96.58214
#
# Poissons Ratio (x) = 0.38037 0.08362
# Poissons Ratio (y) = 0.33017 0.50930
# Poissons Ratio (z) = 0.03488 0.24472
#
# Static dielectric constant tensor:
#      x y z
#    x 1.862540 0.000000 0.000000 
#    y 0.000000 1.926770 0.000000 
#    z 0.000000 0.000000 1.934770 
# 
# From -- ./inp_files/4614.got.cif
#   From: 2010.05.17/outbox.cif.g08.bks.cpg/sg19_3_cif.got.tgz:4614.got - 2010.06.03 22:46:19.
