data_PCOD9316350
_publ_section_title
;
Structure prediction by ZEFSAII (Michael W. Deem and Ramdas Pophale) SiO2 
 PCOD9316350
Probable space group: C 2 2 21
;
_chemical_formula_sum "Si O2"
_cell_formula_units_Z 60
_cell_length_a 7.274688
_cell_length_b 26.181891
_cell_length_c 14.595171
_cell_angle_alpha 90.000000
_cell_angle_beta 90.000000
_cell_angle_gamma 90.000000
_cell_volume 2779.870533
_symmetry_space_group_name_H-M "C 2 2 21"
_symmetry_group_IT_number 20
_symmetry_cell_setting 'orthorhombic'
loop_
_space_group_symop_operation_xyz
x,y,z
-x,-y,1/2+z
x,-y,-z
-x,y,1/2-z
1/2+x,1/2+y,z
1/2-x,1/2-y,1/2+z
1/2+x,1/2-y,-z
1/2-x,1/2+y,1/2-z
loop_
_atom_site_type_symbol
_atom_site_label
_atom_site_fract_x
_atom_site_fract_y
_atom_site_fract_z
Si Si1 0.223032 0.452280 0.252776
Si Si2 0.207353 0.649920 0.079067
Si Si3 0.205232 0.932179 0.721251
Si Si4 0.197051 0.557486 0.540094
Si Si5 0.500000 0.808619 0.250000
Si Si6 0.222777 0.718638 0.246897
Si Si7 0.794588 0.632334 0.114936
Si Si8 0.851149 0.618295 0.604332
O O1 0.281620 0.507530 0.218394
O O2 0.279861 0.443680 0.357681
O O3 0.273566 0.408920 0.180369
O O4 0.000000 0.452569 0.250000
O O5 0.251386 0.596315 0.127855
O O6 0.274403 0.692358 0.149946
O O7 0.986565 0.654244 0.078861
O O8 0.260939 0.647878 0.973624
O O9 0.326620 0.909224 0.804145
O O10 0.000000 0.917774 0.750000
O O11 0.202930 0.500000 0.500000
O O12 0.284349 0.598547 0.468794
O O13 0.985018 0.576381 0.555733
O O14 0.323110 0.772239 0.252416
O O15 0.514768 0.844207 0.160797
O O16 0.287867 0.680168 0.328605
O O17 0.000000 0.721485 0.250000
#
# Coordination Sequence:
#
# PCOD9316350 Si02
#       8
#     8   8   8   8   4   8   8   8
#     4  10  19  35  57  84 119 166 205 247 309 381
#     4   9  20  39  61  87 122 160 209 268 314 385
#     4  11  21  32  56  88 128 160 203 253 310 377
#     4  10  17  32  62  91 117 159 206 249 305 387
#     4  12  22  44  72  88 130 170 218 280 326 390
#     4   9  21  41  66  93 122 162 217 275 334 376
#     4   9  18  35  60  87 118 155 205 265 305 374
#     4  10  22  38  60  95 123 156 219 258 324 392
#
# _framework density 21.583739999999999
#
# number of rings (size 3 to 8) (size 9 to 14) (size 15 to 20)
#    0.000    2.133    3.333    2.000    9.333    0.000 
#    7.200    3.333    5.867    0.000    0.000    0.000 
#    0.000    0.000    0.000    0.000    0.000    0.000 
#
# Total GULP energy -167281.741051 kJ/mol
# GULP energy per Si atom -5576.058035 kJ/mol
# Density = 2.153461 g / cm^3
# Si number density = 21.583740 Si / 1000 Ang^3
#
#
#
# Elastic Constant Matrix: (Units=GPa)
#
#
# Indices 1 2 3 4 5 6 
#
# 1 46.7672 12.4413 9.8864 0.0000 0.0000 0.0000
# 2 12.4413 97.2418 39.2955 0.0000 0.0000 0.0000
# 3 9.8864 39.2955 146.0288 0.0000 0.0000 0.0000
# 4 0.0000 0.0000 0.0000 10.7768 0.0000 0.0000
# 5 0.0000 0.0000 0.0000 0.0000 0.1633 0.0000
# 6 0.0000 0.0000 0.0000 0.0000 0.0000 -66.9974
#
#
#
# Elastic Compliance Matrix: (Units=1/GPa)
#
#
# Indices 1 2 3 4 5 6 
#
# 1 0.022225 -0.002508 -0.000830 0.000000 0.000000 0.000000
# 2 -0.002508 0.011821 -0.003011 0.000000 0.000000 0.000000
# 3 -0.000830 -0.003011 0.007714 0.000000 0.000000 0.000000
# 4 0.000000 0.000000 0.000000 0.092792 0.000000 0.000000
# 5 0.000000 0.000000 0.000000 0.000000 6.124213 0.000000
# 6 0.000000 0.000000 0.000000 0.000000 0.000000 -0.014926
#
#
# Mechanical properties :
#
#
# Convention : Reuss Voigt Hill
#
# Bulk Modulus (GPa) = 34.40851 45.92047 40.16449
# Shear Modulus (GPa) = 0.79793 4.01619 2.40706
#
# Velocity S-wave (km/s) = 0.60868 1.36557 1.05718
# Velocity P-wave (km/s) = 4.05838 4.87935 4.48768
#
# Compressibility (1/GPa) = 0.02906257
#
# Stress axis : x y z
#
# Youngs Moduli (GPa) = 44.99402 84.59228 129.62689
#
# Poissons Ratio (x) = 0.21218 0.10756
# Poissons Ratio (y) = 0.11286 0.39034
# Poissons Ratio (z) = 0.03733 0.25473
#
# Static dielectric constant tensor:
#      x y z
#    x 1.853830 0.000000 0.000000 
#    y 0.000000 1.760100 0.000000 
#    z 0.000000 0.000000 1.852210 
# 
# From -- ./inp_files/19314.got.cif
#   From: 2010.05.17/outbox.cif.g08.bks.cpg/sg20_10_cif.got.tgz:19314.got - 2010.06.03 22:52:26.
