data_PCOD9316921
_publ_section_title
;
Structure prediction by ZEFSAII (Michael W. Deem and Ramdas Pophale) SiO2 
 PCOD9316921
Probable space group: C 2 2 21
;
_chemical_formula_sum "Si O2"
_cell_formula_units_Z 48
_cell_length_a 32.542279
_cell_length_b 7.624627
_cell_length_c 7.270920
_cell_angle_alpha 90.000000
_cell_angle_beta 90.000000
_cell_angle_gamma 90.000000
_cell_volume 1804.080586
_symmetry_space_group_name_H-M "C 2 2 21"
_symmetry_group_IT_number 20
_symmetry_cell_setting 'orthorhombic'
loop_
_space_group_symop_operation_xyz
x,y,z
-x,-y,1/2+z
x,-y,-z
-x,y,1/2-z
1/2+x,1/2+y,z
1/2-x,1/2-y,1/2+z
1/2+x,1/2-y,-z
1/2-x,1/2+y,1/2-z
loop_
_atom_site_type_symbol
_atom_site_label
_atom_site_fract_x
_atom_site_fract_y
_atom_site_fract_z
Si Si1 0.340794 0.702480 0.447694
Si Si2 0.100070 0.205394 0.563812
Si Si3 0.316078 0.840418 0.827550
Si Si4 0.234932 0.374098 0.174656
Si Si5 0.511688 0.289785 0.465535
Si Si6 0.574530 0.291824 0.003783
O O1 0.345451 0.500000 0.500000
O O2 0.334800 0.828023 0.622366
O O3 0.297414 0.715688 0.346145
O O4 0.386170 0.753991 0.376365
O O5 0.144813 0.296757 0.544703
O O6 0.057020 0.276279 0.480711
O O7 0.088396 0.227026 0.782235
O O8 0.105359 0.000000 0.500000
O O9 0.280888 0.692657 0.813860
O O10 0.289254 0.017103 0.827763
O O11 0.236017 0.500000 0.000000
O O12 0.515487 0.500000 0.500000
O O13 0.500000 0.268932 0.250000
O O14 0.469660 0.216697 0.554710
O O15 0.567700 0.500000 0.000000
#
# Coordination Sequence:
#
# PCOD9316921 Si02
#       6
#     8   8   8   8   8   8
#     4   9  17  30  48  70  96 126 166 209 251 302
#     4   9  16  26  43  68 100 131 163 207 258 307
#     4  10  19  31  46  66  97 132 168 211 259 303
#     4  10  20  32  48  69  98 133 173 213 252 304
#     4   8  13  22  38  64  97 126 156 199 250 301
#     4   8  14  25  43  67  97 128 160 201 249 303
#
# _framework density 26.606348000000001
#
# number of rings (size 3 to 8) (size 9 to 14) (size 15 to 20)
#    0.000    3.000    0.000    1.500    0.000    0.000 
#    0.000    0.000    0.000    0.000    0.000    0.000 
#    0.000  658.667    0.000    0.167    0.000    0.000 
#
# Total GULP energy -133698.453999 kJ/mol
# GULP energy per Si atom -5570.768917 kJ/mol
# Density = 2.654579 g / cm^3
# Si number density = 26.606348 Si / 1000 Ang^3
#
#
#
# Elastic Constant Matrix: (Units=GPa)
#
#
# Indices 1 2 3 4 5 6 
#
# 1 336.0982 59.3932 41.0824 0.0000 0.0000 0.0000
# 2 59.3932 51.4159 0.6934 0.0000 0.0000 0.0000
# 3 41.0824 0.6934 53.9368 0.0000 0.0000 0.0000
# 4 0.0000 0.0000 0.0000 9.2070 0.0000 0.0000
# 5 0.0000 0.0000 0.0000 0.0000 35.7465 0.0000
# 6 0.0000 0.0000 0.0000 0.0000 0.0000 162.9885
#
#
#
# Elastic Compliance Matrix: (Units=1/GPa)
#
#
# Indices 1 2 3 4 5 6 
#
# 1 0.004212 -0.004823 -0.003146 0.000000 0.000000 0.000000
# 2 -0.004823 0.024976 0.003353 0.000000 0.000000 0.000000
# 3 -0.003146 0.003353 0.020894 0.000000 0.000000 0.000000
# 4 0.000000 0.000000 0.000000 0.108613 0.000000 0.000000
# 5 0.000000 0.000000 0.000000 0.000000 0.027975 0.000000
# 6 0.000000 0.000000 0.000000 0.000000 0.000000 0.006135
#
#
# Mechanical properties :
#
#
# Convention : Reuss Voigt Hill
#
# Bulk Modulus (GPa) = 24.48119 71.53210 48.00665
# Shear Modulus (GPa) = 23.18521 64.27386 43.72954
#
# Velocity S-wave (km/s) = 2.95518 4.92034 4.05850
# Velocity P-wave (km/s) = 4.56786 7.69568 6.32806
#
# Compressibility (1/GPa) = 0.04084769
#
# Stress axis : x y z
#
# Youngs Moduli (GPa) = 237.40152 40.03880 47.86145
#
# Poissons Ratio (x) = 0.19312 0.15059
# Poissons Ratio (y) = 1.14508 -0.16047
# Poissons Ratio (z) = 0.74696 -0.13424
#
# Static dielectric constant tensor:
#      x y z
#    x 2.204560 0.000000 0.000000 
#    y 0.000000 2.621440 0.000000 
#    z 0.000000 0.000000 -1.454730 
# 
# From -- ./inp_files/11479.got.cif
#   From: 2010.05.17/outbox.cif.g08.bks.cpg/sg20_6_cif.got.tgz:11479.got - 2010.06.03 22:52:26.
