data_PCOD9316500
_publ_section_title
;
Structure prediction by ZEFSAII (Michael W. Deem and Ramdas Pophale) SiO2 
 PCOD9316500
Probable space group: C 2 2 21
;
_chemical_formula_sum "Si O2"
_cell_formula_units_Z 48
_cell_length_a 7.761234
_cell_length_b 16.566547
_cell_length_c 15.326640
_cell_angle_alpha 90.000000
_cell_angle_beta 90.000000
_cell_angle_gamma 90.000000
_cell_volume 1970.651059
_symmetry_space_group_name_H-M "C 2 2 21"
_symmetry_group_IT_number 20
_symmetry_cell_setting 'orthorhombic'
loop_
_space_group_symop_operation_xyz
x,y,z
-x,-y,1/2+z
x,-y,-z
-x,y,1/2-z
1/2+x,1/2+y,z
1/2-x,1/2-y,1/2+z
1/2+x,1/2-y,-z
1/2-x,1/2+y,1/2-z
loop_
_atom_site_type_symbol
_atom_site_label
_atom_site_fract_x
_atom_site_fract_y
_atom_site_fract_z
Si Si1 0.851796 0.773298 0.564583
Si Si2 0.294978 0.103768 0.583201
Si Si3 0.711582 0.951487 0.588314
Si Si4 0.804208 0.568223 0.384683
Si Si5 0.741808 0.261885 0.628775
Si Si6 0.641260 0.902730 0.325300
O O1 0.749658 0.696053 0.605132
O O2 0.786158 0.862366 0.584799
O O3 0.846832 0.755617 0.460526
O O4 0.043166 0.769522 0.600855
O O5 0.241329 0.089213 0.483010
O O6 0.506662 0.104093 0.591655
O O7 0.237195 0.022540 0.633500
O O8 0.508536 0.940222 0.604908
O O9 0.753947 0.000000 0.500000
O O10 0.755113 0.017886 0.662115
O O11 0.779429 0.650233 0.330363
O O12 0.747162 0.179399 0.683000
O O13 0.500000 0.909024 0.250000
#
# Coordination Sequence:
#
# PCOD9316500 Si02
#       6
#     8   8   8   8   8   8
#     4  10  18  31  51  76 106 130 175 222 257 298
#     4   8  15  30  47  69  98 134 163 207 260 309
#     4  11  17  34  52  76 107 136 177 219 255 314
#     4   9  15  31  55  72 100 136 172 212 268 306
#     4  10  19  32  52  82 104 136 173 222 265 309
#     4  10  19  33  52  74 105 145 175 208 272 328
#
# _framework density 24.357430999999998
#
# number of rings (size 3 to 8) (size 9 to 14) (size 15 to 20)
#    0.000    2.333    5.000    2.000    0.000    0.000 
#    6.000    6.667    0.000    0.000    0.000   30.333 
#    0.000    0.000    0.000    0.000    0.000    0.000 
#
# Total GULP energy -133661.477030 kJ/mol
# GULP energy per Si atom -5569.228210 kJ/mol
# Density = 2.430199 g / cm^3
# Si number density = 24.357431 Si / 1000 Ang^3
#
#
#
# Elastic Constant Matrix: (Units=GPa)
#
#
# Indices 1 2 3 4 5 6 
#
# 1 19.7460 32.3897 -6.5754 0.0000 0.0000 0.0000
# 2 32.3897 303.1529 11.0612 0.0000 0.0000 0.0000
# 3 -6.5754 11.0612 43.2743 0.0000 0.0000 0.0000
# 4 0.0000 0.0000 0.0000 1.3054 0.0000 0.0000
# 5 0.0000 0.0000 0.0000 0.0000 10.4328 0.0000
# 6 0.0000 0.0000 0.0000 0.0000 0.0000 46.5233
#
#
#
# Elastic Compliance Matrix: (Units=1/GPa)
#
#
# Indices 1 2 3 4 5 6 
#
# 1 0.067196 -0.007623 0.012159 0.000000 0.000000 0.000000
# 2 -0.007623 0.004195 -0.002230 0.000000 0.000000 0.000000
# 3 0.012159 -0.002230 0.025526 0.000000 0.000000 0.000000
# 4 0.000000 0.000000 0.000000 0.766045 0.000000 0.000000
# 5 0.000000 0.000000 0.000000 0.000000 0.095852 0.000000
# 6 0.000000 0.000000 0.000000 0.000000 0.000000 0.021495
#
#
# Mechanical properties :
#
#
# Convention : Reuss Voigt Hill
#
# Bulk Modulus (GPa) = 9.84956 48.88047 29.36501
# Shear Modulus (GPa) = 4.95275 33.60546 19.27910
#
# Velocity S-wave (km/s) = 1.42751 3.71843 2.81643
# Velocity P-wave (km/s) = 2.60184 6.20864 4.76008
#
# Compressibility (1/GPa) = 0.10152742
#
# Stress axis : x y z
#
# Youngs Moduli (GPa) = 14.88177 238.40617 39.17567
#
# Poissons Ratio (x) = 1.81739 -0.47633
# Poissons Ratio (y) = 0.11345 0.08738
# Poissons Ratio (z) = -0.18094 0.53176
#
# Static dielectric constant tensor:
#      x y z
#    x 1.928830 0.000000 0.000000 
#    y 0.000000 2.406740 0.000000 
#    z 0.000000 0.000000 1.999240 
# 
# From -- ./inp_files/23629.got.cif
#   From: 2010.05.17/outbox.cif.g08.bks.cpg/sg20_12_cif.got.tgz:23629.got - 2010.06.03 22:52:26.
