data_PCOD9316268
_publ_section_title
;
Structure prediction by ZEFSAII (Michael W. Deem and Ramdas Pophale) SiO2 
 PCOD9316268
Probable space group: C 2 2 21
;
_chemical_formula_sum "Si O2"
_cell_formula_units_Z 60
_cell_length_a 17.495504
_cell_length_b 9.275797
_cell_length_c 16.241351
_cell_angle_alpha 90.000000
_cell_angle_beta 90.000000
_cell_angle_gamma 90.000000
_cell_volume 2635.723481
_symmetry_space_group_name_H-M "C 2 2 21"
_symmetry_group_IT_number 20
_symmetry_cell_setting 'orthorhombic'
loop_
_space_group_symop_operation_xyz
x,y,z
-x,-y,1/2+z
x,-y,-z
-x,y,1/2-z
1/2+x,1/2+y,z
1/2-x,1/2-y,1/2+z
1/2+x,1/2-y,-z
1/2-x,1/2+y,1/2-z
loop_
_atom_site_type_symbol
_atom_site_label
_atom_site_fract_x
_atom_site_fract_y
_atom_site_fract_z
Si Si1 0.936812 0.760624 0.381831
Si Si2 0.018024 0.756332 0.558222
Si Si3 0.737682 0.210474 0.822134
Si Si4 0.672400 0.219304 0.481043
Si Si5 0.436756 0.041552 0.139193
Si Si6 0.165632 0.421821 0.784942
Si Si7 0.604681 0.422150 0.851625
Si Si8 0.214041 0.000000 0.000000
O O1 0.868717 0.646841 0.367449
O O2 0.964335 0.774782 0.476907
O O3 0.008393 0.676185 0.344595
O O4 0.915772 0.909542 0.335949
O O5 0.105020 0.796571 0.531608
O O6 0.023609 0.593663 0.593995
O O7 0.976520 0.851805 0.626325
O O8 0.773120 0.204628 0.914558
O O9 0.798875 0.292126 0.766737
O O10 0.658924 0.303285 0.807443
O O11 0.725582 0.046665 0.798312
O O12 0.625113 0.104875 0.424924
O O13 0.731643 0.126287 0.534785
O O14 0.398057 0.006200 0.225631
O O15 0.659817 0.441815 0.930324
#
# Coordination Sequence:
#
# PCOD9316268 Si02
#       8
#     8   8   8   8   8   8   8   4
#     4  11  21  38  63  92 131 171 214 276 343 394
#     4  11  20  40  65 102 128 169 222 284 329 412
#     4  10  23  41  65  91 131 179 234 274 341 418
#     4   9  18  35  65  90 128 169 221 268 342 398
#     4  10  21  38  66  89 126 173 226 271 331 407
#     4  11  23  44  63  92 128 184 226 283 338 418
#     4  11  22  37  65  95 138 171 221 281 343 396
#     4  10  16  36  58  90 126 182 204 260 346 392
#
# _framework density 22.764147000000001
#
# number of rings (size 3 to 8) (size 9 to 14) (size 15 to 20)
#    0.000    1.600    2.667    3.200    0.000    0.000 
#    0.000    8.000    2.933    0.000    0.000    0.000 
#    0.000    0.000    0.000    0.000    0.000    0.000 
#
# Total GULP energy -167176.228102 kJ/mol
# GULP energy per Si atom -5572.540937 kJ/mol
# Density = 2.271234 g / cm^3
# Si number density = 22.764147 Si / 1000 Ang^3
#
#
#
# Elastic Constant Matrix: (Units=GPa)
#
#
# Indices 1 2 3 4 5 6 
#
# 1 89.0613 29.3853 14.2438 0.0000 0.0000 0.0000
# 2 29.3853 76.5488 10.1340 0.0000 0.0000 0.0000
# 3 14.2438 10.1340 10.2441 0.0000 0.0000 0.0000
# 4 0.0000 0.0000 0.0000 15.9267 0.0000 0.0000
# 5 0.0000 0.0000 0.0000 0.0000 84.9255 0.0000
# 6 0.0000 0.0000 0.0000 0.0000 0.0000 82.4660
#
#
#
# Elastic Compliance Matrix: (Units=1/GPa)
#
#
# Indices 1 2 3 4 5 6 
#
# 1 0.015211 -0.003497 -0.017691 0.000000 0.000000 0.000000
# 2 -0.003497 0.015836 -0.010803 0.000000 0.000000 0.000000
# 3 -0.017691 -0.010803 0.132902 0.000000 0.000000 0.000000
# 4 0.000000 0.000000 0.000000 0.062788 0.000000 0.000000
# 5 0.000000 0.000000 0.000000 0.000000 0.011775 0.000000
# 6 0.000000 0.000000 0.000000 0.000000 0.000000 0.012126
#
#
# Mechanical properties :
#
#
# Convention : Reuss Voigt Hill
#
# Bulk Modulus (GPa) = 10.00333 31.48671 20.74502
# Shear Modulus (GPa) = 14.37015 44.80304 29.58659
#
# Velocity S-wave (km/s) = 2.51522 4.44119 3.60905
# Velocity P-wave (km/s) = 3.58315 6.33724 5.14779
#
# Compressibility (1/GPa) = 0.09996671
#
# Stress axis : x y z
#
# Youngs Moduli (GPa) = 65.73978 63.14606 7.52436
#
# Poissons Ratio (x) = 0.22084 0.13311
# Poissons Ratio (y) = 0.22991 0.08129
# Poissons Ratio (z) = 1.16299 0.68218
#
# Static dielectric constant tensor:
#      x y z
#    x 1.909870 0.000000 0.000000 
#    y 0.000000 1.720310 0.000000 
#    z 0.000000 0.000000 1.827890 
# 
# From -- ./inp_files/25288.got.cif
#   From: 2010.05.17/outbox.cif.g08.bks.cpg/sg20_13_cif.got.tgz:25288.got - 2010.06.03 22:52:26.
