data_PCOD9316183
_publ_section_title
;
Structure prediction by ZEFSAII (Michael W. Deem and Ramdas Pophale) SiO2 
 PCOD9316183
Probable space group: C 2 2 21
;
_chemical_formula_sum "Si O2"
_cell_formula_units_Z 48
_cell_length_a 7.083168
_cell_length_b 16.288113
_cell_length_c 15.812280
_cell_angle_alpha 90.000000
_cell_angle_beta 90.000000
_cell_angle_gamma 90.000000
_cell_volume 1824.285526
_symmetry_space_group_name_H-M "C 2 2 21"
_symmetry_group_IT_number 20
_symmetry_cell_setting 'orthorhombic'
loop_
_space_group_symop_operation_xyz
x,y,z
-x,-y,1/2+z
x,-y,-z
-x,y,1/2-z
1/2+x,1/2+y,z
1/2-x,1/2-y,1/2+z
1/2+x,1/2-y,-z
1/2-x,1/2+y,1/2-z
loop_
_atom_site_type_symbol
_atom_site_label
_atom_site_fract_x
_atom_site_fract_y
_atom_site_fract_z
Si Si1 0.140611 0.260221 0.053960
Si Si2 0.742210 0.514817 0.090137
Si Si3 0.274598 0.824183 0.276933
Si Si4 0.746813 0.673168 0.900856
Si Si5 0.346354 0.921155 0.555735
Si Si6 0.725991 0.984502 0.771186
O O1 0.255488 0.267303 0.141108
O O2 0.929261 0.272923 0.083694
O O3 0.140194 0.185313 0.988907
O O4 0.184493 0.340008 0.997373
O O5 0.806262 0.421157 0.109841
O O6 0.669185 0.539349 0.183324
O O7 0.927199 0.568774 0.071093
O O8 0.638180 0.500000 0.000000
O O9 0.500000 0.821137 0.250000
O O10 0.165953 0.802728 0.190205
O O11 0.232461 0.920389 0.296906
O O12 0.295028 0.000000 0.500000
O O13 0.249660 0.927971 0.646850
O O14 0.500000 0.980923 0.750000
#
# Coordination Sequence:
#
# PCOD9316183 Si02
#       6
#     8   8   8   8   8   8
#     4  11  19  33  52  77 109 137 173 220 260 311
#     4   9  15  29  48  72  97 132 171 209 253 307
#     4   8  15  30  49  68 100 148 171 191 260 340
#     4  10  20  33  52  77 108 139 174 212 268 313
#     4  10  14  26  50  76  92 124 180 218 238 290
#     4   8  13  22  43  71  96 120 168 217 247 290
#
# _framework density 26.311672000000002
#
# number of rings (size 3 to 8) (size 9 to 14) (size 15 to 20)
#    0.000    2.667    5.000    2.000    0.000    0.000 
#    3.000    0.833    0.000    1.000    0.000    0.000 
#    0.000    0.000    0.000    0.000    0.000    0.000 
#
# Total GULP energy -133982.900997 kJ/mol
# GULP energy per Si atom -5582.620875 kJ/mol
# Density = 2.625178 g / cm^3
# Si number density = 26.311672 Si / 1000 Ang^3
#
#
#
# Elastic Constant Matrix: (Units=GPa)
#
#
# Indices 1 2 3 4 5 6 
#
# 1 62.8376 11.1729 14.8224 0.0000 0.0000 0.0000
# 2 11.1729 65.4010 30.3378 0.0000 0.0000 0.0000
# 3 14.8224 30.3378 256.1975 0.0000 0.0000 0.0000
# 4 0.0000 0.0000 0.0000 38.1034 0.0000 0.0000
# 5 0.0000 0.0000 0.0000 0.0000 24.1062 0.0000
# 6 0.0000 0.0000 0.0000 0.0000 0.0000 9.9729
#
#
#
# Elastic Compliance Matrix: (Units=1/GPa)
#
#
# Indices 1 2 3 4 5 6 
#
# 1 0.016517 -0.002517 -0.000658 0.000000 0.000000 0.000000
# 2 -0.002517 0.016562 -0.001816 0.000000 0.000000 0.000000
# 3 -0.000658 -0.001816 0.004156 0.000000 0.000000 0.000000
# 4 0.000000 0.000000 0.000000 0.026244 0.000000 0.000000
# 5 0.000000 0.000000 0.000000 0.000000 0.041483 0.000000
# 6 0.000000 0.000000 0.000000 0.000000 0.000000 0.100272
#
#
# Mechanical properties :
#
#
# Convention : Reuss Voigt Hill
#
# Bulk Modulus (GPa) = 36.68959 55.23358 45.96158
# Shear Modulus (GPa) = 22.29161 36.31003 29.30082
#
# Velocity S-wave (km/s) = 2.91385 3.71886 3.34069
# Velocity P-wave (km/s) = 5.02943 6.28311 5.69090
#
# Compressibility (1/GPa) = 0.02725569
#
# Stress axis : x y z
#
# Youngs Moduli (GPa) = 60.54505 60.37759 240.59948
#
# Poissons Ratio (x) = 0.15195 0.15821
# Poissons Ratio (y) = 0.15237 0.43684
# Poissons Ratio (z) = 0.03981 0.10962
#
# Static dielectric constant tensor:
#      x y z
#    x 2.205700 0.000000 0.000000 
#    y 0.000000 2.020940 0.000000 
#    z 0.000000 0.000000 2.239670 
# 
# From -- ./inp_files/24324.got.cif
#   From: 2010.05.17/outbox.cif.g08.bks.cpg/sg20_13_cif.got.tgz:24324.got - 2010.06.03 22:52:26.
