data_PCOD9316122
_publ_section_title
;
Structure prediction by ZEFSAII (Michael W. Deem and Ramdas Pophale) SiO2 
 PCOD9316122
Probable space group: P 21 21 21
;
_chemical_formula_sum "Si O2"
_cell_formula_units_Z 32
_cell_length_a 15.000000
_cell_length_b 9.000000
_cell_length_c 12.000000
_cell_angle_alpha 90.000000
_cell_angle_beta 90.000000
_cell_angle_gamma 90.000000
_cell_volume 1620.000000
_symmetry_space_group_name_H-M "P 21 21 21"
_symmetry_group_IT_number 19
_symmetry_cell_setting 'orthorhombic'
loop_
_space_group_symop_operation_xyz
x,y,z
1/2-x,-y,1/2+z
1/2+x,1/2-y,-z
-x,1/2+y,1/2-z
loop_
_atom_site_type_symbol
_atom_site_label
_atom_site_fract_x
_atom_site_fract_y
_atom_site_fract_z
Si Si1 0.390885 0.694778 0.221435
Si Si2 0.590872 0.272814 0.019025
Si Si3 0.700342 0.889939 0.718604
Si Si4 0.395118 0.884923 0.007329
Si Si5 0.088436 0.557055 0.074455
Si Si6 0.299026 0.196119 0.005306
Si Si7 0.729139 0.135817 0.556608
Si Si8 0.084024 0.560843 0.575520
O O1 0.409403 0.732611 0.349115
O O2 0.284179 0.673218 0.214103
O O3 0.437145 0.541160 0.182316
O O4 0.411078 0.821407 0.131695
O O5 0.691657 0.326466 0.986770
O O6 0.505154 0.382243 0.012646
O O7 0.579527 0.118596 0.952404
O O8 0.617476 0.910448 0.799285
O O9 0.687195 0.781509 0.613106
O O10 0.732382 0.049692 0.673048
O O11 0.492104 0.873541 0.950756
O O12 0.314174 0.797262 0.946128
O O13 0.357594 0.050040 0.009587
O O14 0.173893 0.614049 0.000626
O O15 0.347204 0.303802 0.095089
O O16 0.647479 0.047857 0.495976
#
# Coordination Sequence:
#
# PCOD9316122 Si02
#       8
#     4   4   4   4   4   4   4   4
#     4  10  21  40  62  93 128 164 207 266 324 375
#     4  11  22  37  66  94 124 167 213 259 323 377
#     4  10  20  42  69  81 129 179 210 253 326 391
#     4  11  24  38  63  98 127 161 215 279 307 374
#     4  12  21  40  68  89 126 172 210 260 330 373
#     4  10  21  40  61  91 130 161 216 265 308 381
#     4  10  22  43  64  90 128 171 214 257 326 392
#     4  10  19  38  63  86 120 167 207 253 316 385
#
# _framework density 19.753086
#
# number of rings (size 3 to 8) (size 9 to 14) (size 15 to 20)
#    0.000    1.500    7.500    0.000    1.750    3.000 
#    0.000    5.000    0.000    0.000    0.000    0.000 
#    0.000    0.000    0.000    0.000    0.000    0.000 
#
# Total GULP energy -178261.684528 kJ/mol
# GULP energy per Si atom -5570.677642 kJ/mol
# Density = 1.970813 g / cm^3
# Si number density = 19.753086 Si / 1000 Ang^3
#
#
#
# Elastic Constant Matrix: (Units=GPa)
#
#
# Indices 1 2 3 4 5 6 
#
# 1 99.7574 15.6196 11.9846 0.0000 0.0000 0.0000
# 2 15.6196 73.9198 24.5019 0.0000 0.0000 0.0000
# 3 11.9846 24.5019 31.1954 0.0000 0.0000 0.0000
# 4 0.0000 0.0000 0.0000 17.2023 0.0000 0.0000
# 5 0.0000 0.0000 0.0000 0.0000 23.8081 0.0000
# 6 0.0000 0.0000 0.0000 0.0000 0.0000 31.8336
#
#
#
# Elastic Compliance Matrix: (Units=1/GPa)
#
#
# Indices 1 2 3 4 5 6 
#
# 1 0.010588 -0.001202 -0.003124 0.000000 0.000000 0.000000
# 2 -0.001202 0.018426 -0.014011 0.000000 0.000000 0.000000
# 3 -0.003124 -0.014011 0.044261 0.000000 0.000000 0.000000
# 4 0.000000 0.000000 0.000000 0.058132 0.000000 0.000000
# 5 0.000000 0.000000 0.000000 0.000000 0.042002 0.000000
# 6 0.000000 0.000000 0.000000 0.000000 0.000000 0.031413
#
#
# Mechanical properties :
#
#
# Convention : Reuss Voigt Hill
#
# Bulk Modulus (GPa) = 27.32093 34.34276 30.83185
# Shear Modulus (GPa) = 19.70867 24.75323 22.23095
#
# Velocity S-wave (km/s) = 3.16215 3.54380 3.35840
# Velocity P-wave (km/s) = 5.21474 5.84538 5.53904
#
# Compressibility (1/GPa) = 0.03660197
#
# Stress axis : x y z
#
# Youngs Moduli (GPa) = 94.44867 54.27045 22.59349
#
# Poissons Ratio (x) = 0.06523 0.07057
# Poissons Ratio (y) = 0.11352 0.31655
# Poissons Ratio (z) = 0.29502 0.76037
#
# Static dielectric constant tensor:
#      x y z
#    x 1.695030 0.000000 0.000000 
#    y 0.000000 1.780260 0.000000 
#    z 0.000000 0.000000 1.777420 
# 
# From -- ./inp_files/5276.got.cif
#   From: 2010.05.17/outbox.ucp.g08.bks.cvg/sg19_3_cif.got.tgz:5276.got - 2010.06.11 13:13:52.
