data_PCOD9316029
_publ_section_title
;
Structure prediction by ZEFSAII (Michael W. Deem and Ramdas Pophale) SiO2 
 PCOD9316029
Probable space group: P 21 21 21
;
_chemical_formula_sum "Si O2"
_cell_formula_units_Z 24
_cell_length_a 9.610942
_cell_length_b 9.357462
_cell_length_c 9.554926
_cell_angle_alpha 90.000000
_cell_angle_beta 90.000000
_cell_angle_gamma 90.000000
_cell_volume 859.312949
_symmetry_space_group_name_H-M "P 21 21 21"
_symmetry_group_IT_number 19
_symmetry_cell_setting 'orthorhombic'
loop_
_space_group_symop_operation_xyz
x,y,z
1/2-x,-y,1/2+z
1/2+x,1/2-y,-z
-x,1/2+y,1/2-z
loop_
_atom_site_type_symbol
_atom_site_label
_atom_site_fract_x
_atom_site_fract_y
_atom_site_fract_z
Si Si1 0.516120 0.023571 0.235973
Si Si2 0.613439 0.230581 0.470572
Si Si3 0.172271 0.408156 0.030214
Si Si4 0.301428 0.240648 0.257327
Si Si5 0.132285 0.861110 0.145037
Si Si6 0.910650 0.089541 0.196420
O O1 0.608157 0.110169 0.350196
O O2 0.364041 0.082954 0.273586
O O3 0.573170 0.861169 0.242356
O O4 0.548640 0.086996 0.082211
O O5 0.455243 0.225765 0.525282
O O6 0.706010 0.353176 0.396355
O O7 0.445012 0.988403 0.658039
O O8 0.221677 0.268101 0.112173
O O9 0.130365 0.512544 0.157508
O O10 0.301793 0.442074 0.927132
O O11 0.194460 0.274586 0.381306
O O12 0.101079 0.759091 0.277826
#
# Coordination Sequence:
#
# PCOD9316029 Si02
#       6
#     4   4   4   4   4   4
#     4  12  25  45  72 105 137 188 236 284 346 419
#     4  12  25  48  77  98 145 194 227 276 363 426
#     4  12  25  46  73  98 143 196 231 272 359 438
#     4  12  25  45  72 105 137 188 236 284 346 419
#     4  12  24  48  72 106 136 192 232 286 346 416
#     4  12  26  46  72 102 140 188 234 286 348 418
#
# _framework density 27.929290000000002
#
# number of rings (size 3 to 8) (size 9 to 14) (size 15 to 20)
#    0.000    0.000    6.667    4.000    2.333    0.000 
#    3.000    3.333    0.000    0.000    0.000    0.000 
#    0.000    0.000    0.000    0.000    0.000    0.000 
#
# Total GULP energy -134174.205446 kJ/mol
# GULP energy per Si atom -5590.591894 kJ/mol
# Density = 2.786572 g / cm^3
# Si number density = 27.929290 Si / 1000 Ang^3
#
#
#
# Elastic Constant Matrix: (Units=GPa)
#
#
# Indices 1 2 3 4 5 6 
#
# 1 62.8617 10.9844 11.4892 0.0000 0.0000 0.0000
# 2 10.9844 107.3169 42.5599 0.0000 0.0000 0.0000
# 3 11.4892 42.5599 184.3702 0.0000 0.0000 0.0000
# 4 0.0000 0.0000 0.0000 45.0907 0.0000 0.0000
# 5 0.0000 0.0000 0.0000 0.0000 47.0623 0.0000
# 6 0.0000 0.0000 0.0000 0.0000 0.0000 51.5482
#
#
#
# Elastic Compliance Matrix: (Units=1/GPa)
#
#
# Indices 1 2 3 4 5 6 
#
# 1 0.016278 -0.001391 -0.000693 0.000000 0.000000 0.000000
# 2 -0.001391 0.010376 -0.002309 0.000000 0.000000 0.000000
# 3 -0.000693 -0.002309 0.006000 0.000000 0.000000 0.000000
# 4 0.000000 0.000000 0.000000 0.022177 0.000000 0.000000
# 5 0.000000 0.000000 0.000000 0.000000 0.021248 0.000000
# 6 0.000000 0.000000 0.000000 0.000000 0.000000 0.019399
#
#
# Mechanical properties :
#
#
# Convention : Reuss Voigt Hill
#
# Bulk Modulus (GPa) = 41.89720 53.84621 47.87170
# Shear Modulus (GPa) = 44.55497 48.04126 46.29811
#
# Velocity S-wave (km/s) = 3.99843 4.15191 4.07589
# Velocity P-wave (km/s) = 6.02912 6.50429 6.27121
#
# Compressibility (1/GPa) = 0.02386794
#
# Stress axis : x y z
#
# Youngs Moduli (GPa) = 61.43360 96.37522 166.66763
#
# Poissons Ratio (x) = 0.13408 0.11554
# Poissons Ratio (y) = 0.08547 0.38476
# Poissons Ratio (z) = 0.04259 0.22248
#
# Static dielectric constant tensor:
#      x y z
#    x 2.249300 0.000000 0.000000 
#    y 0.000000 2.243520 0.000000 
#    z 0.000000 0.000000 2.164590 
# 
# From -- ./inp_files/3410.got.cif
#   From: 2010.05.17/outbox.cif.g08.bks.cpg/sg19_2_cif.got.tgz:3410.got - 2010.06.03 22:46:19.
