data_PCOD9316716
_publ_section_title
;
Structure prediction by ZEFSAII (Michael W. Deem and Ramdas Pophale) SiO2 
 PCOD9316716
Probable space group: C 2 2 21
;
_chemical_formula_sum "Si O2"
_cell_formula_units_Z 36
_cell_length_a 6.778564
_cell_length_b 15.611509
_cell_length_c 13.513355
_cell_angle_alpha 90.000000
_cell_angle_beta 90.000000
_cell_angle_gamma 90.000000
_cell_volume 1430.032048
_symmetry_space_group_name_H-M "C 2 2 21"
_symmetry_group_IT_number 20
_symmetry_cell_setting 'orthorhombic'
loop_
_space_group_symop_operation_xyz
x,y,z
-x,-y,1/2+z
x,-y,-z
-x,y,1/2-z
1/2+x,1/2+y,z
1/2-x,1/2-y,1/2+z
1/2+x,1/2-y,-z
1/2-x,1/2+y,1/2-z
loop_
_atom_site_type_symbol
_atom_site_label
_atom_site_fract_x
_atom_site_fract_y
_atom_site_fract_z
Si Si1 0.860350 0.331320 0.476230
Si Si2 0.750848 0.187474 0.609146
Si Si3 0.270149 0.911396 0.282967
Si Si4 0.500000 0.683278 0.250000
Si Si5 0.049559 0.053253 0.407535
O O1 0.877130 0.241256 0.532470
O O2 0.772962 0.336119 0.365675
O O3 0.720843 0.391152 0.539465
O O4 0.083751 0.358162 0.456503
O O5 0.836977 0.118102 0.682851
O O6 0.646823 0.255524 0.686088
O O7 0.500000 0.926392 0.250000
O O8 0.174546 0.991882 0.335381
O O9 0.425333 0.617788 0.337032
O O10 0.957330 0.000000 0.500000
#
# Coordination Sequence:
#
# PCOD9316716 Si02
#       5
#     8   8   8   4   8
#     4   9  18  34  57  79 106 145 177 223 269 317
#     4  10  18  36  59  77 109 143 182 220 269 319
#     4   9  17  36  55  75 109 145 176 217 271 318
#     4  10  18  36  58  76 112 142 170 226 274 308
#     4   9  19  35  55  78 108 143 177 217 272 322
#
# _framework density 25.174261000000001
#
# number of rings (size 3 to 8) (size 9 to 14) (size 15 to 20)
#    0.000    2.667    3.333    0.000    0.000    0.000 
#   16.000    0.000    0.000    0.000    0.000    0.000 
#    0.000    0.000    0.000    0.000    0.000    0.000 
#
# Total GULP energy -100434.425030 kJ/mol
# GULP energy per Si atom -5579.690279 kJ/mol
# Density = 2.511696 g / cm^3
# Si number density = 25.174261 Si / 1000 Ang^3
#
#
#
# Elastic Constant Matrix: (Units=GPa)
#
#
# Indices 1 2 3 4 5 6 
#
# 1 60.7335 23.8221 43.4728 0.0000 0.0000 0.0000
# 2 23.8221 60.1513 60.8233 0.0000 0.0000 0.0000
# 3 43.4728 60.8233 160.9925 0.0000 0.0000 0.0000
# 4 0.0000 0.0000 0.0000 86.0364 0.0000 0.0000
# 5 0.0000 0.0000 0.0000 0.0000 49.9148 0.0000
# 6 0.0000 0.0000 0.0000 0.0000 0.0000 17.7428
#
#
#
# Elastic Compliance Matrix: (Units=1/GPa)
#
#
# Indices 1 2 3 4 5 6 
#
# 1 0.021043 -0.004188 -0.004100 0.000000 0.000000 0.000000
# 2 -0.004188 0.027735 -0.009348 0.000000 0.000000 0.000000
# 3 -0.004100 -0.009348 0.010850 0.000000 0.000000 0.000000
# 4 0.000000 0.000000 0.000000 0.011623 0.000000 0.000000
# 5 0.000000 0.000000 0.000000 0.000000 0.020034 0.000000
# 6 0.000000 0.000000 0.000000 0.000000 0.000000 0.056361
#
#
# Mechanical properties :
#
#
# Convention : Reuss Voigt Hill
#
# Bulk Modulus (GPa) = 41.05556 59.79042 50.42299
# Shear Modulus (GPa) = 26.17302 40.98940 33.58121
#
# Velocity S-wave (km/s) = 3.22790 4.03951 3.65629
# Velocity P-wave (km/s) = 5.49876 6.74974 6.15611
#
# Compressibility (1/GPa) = 0.02435724
#
# Stress axis : x y z
#
# Youngs Moduli (GPa) = 47.52222 36.05503 92.16483
#
# Poissons Ratio (x) = 0.15100 0.37787
# Poissons Ratio (y) = 0.19902 0.86152
# Poissons Ratio (z) = 0.19484 0.33703
#
# Static dielectric constant tensor:
#      x y z
#    x 2.030690 0.000000 0.000000 
#    y 0.000000 2.060220 0.000000 
#    z 0.000000 0.000000 1.990050 
# 
# From -- ./inp_files/12854.got.cif
#   From: 2010.05.17/outbox.cif.g08.bks.cpg/sg20_7_cif.got.tgz:12854.got - 2010.06.03 22:52:26.
