data_PCOD9316355
_publ_section_title
;
Structure prediction by ZEFSAII (Michael W. Deem and Ramdas Pophale) SiO2 
 PCOD9316355
Probable space group: C 2 2 21
;
_chemical_formula_sum "Si O2"
_cell_formula_units_Z 60
_cell_length_a 24.640455
_cell_length_b 14.588629
_cell_length_c 7.149507
_cell_angle_alpha 90.000000
_cell_angle_beta 90.000000
_cell_angle_gamma 90.000000
_cell_volume 2570.036544
_symmetry_space_group_name_H-M "C 2 2 21"
_symmetry_group_IT_number 20
_symmetry_cell_setting 'orthorhombic'
loop_
_space_group_symop_operation_xyz
x,y,z
-x,-y,1/2+z
x,-y,-z
-x,y,1/2-z
1/2+x,1/2+y,z
1/2-x,1/2-y,1/2+z
1/2+x,1/2-y,-z
1/2-x,1/2+y,1/2-z
loop_
_atom_site_type_symbol
_atom_site_label
_atom_site_fract_x
_atom_site_fract_y
_atom_site_fract_z
Si Si1 0.106912 0.424663 0.863515
Si Si2 0.500000 0.903041 0.750000
Si Si3 0.424192 0.738899 0.426356
Si Si4 0.861506 0.893730 0.050837
Si Si5 0.756776 0.618540 0.667370
Si Si6 0.715161 0.923349 0.729133
Si Si7 0.541621 0.735428 0.505966
Si Si8 0.312627 0.312300 0.671391
O O1 0.050563 0.467064 0.796554
O O2 0.152092 0.397990 0.711598
O O3 0.132324 0.500000 0.000000
O O4 0.086824 0.336300 0.976658
O O5 0.529910 0.832061 0.607150
O O6 0.480161 0.694772 0.500179
O O7 0.436969 0.751223 0.205311
O O8 0.366461 0.689967 0.454502
O O9 0.808704 0.884441 0.183465
O O10 0.914096 0.832131 0.098563
O O11 0.837346 0.853406 0.859400
O O12 0.874458 0.000000 0.000000
O O13 0.769926 0.604000 0.445072
O O14 0.779235 0.531962 0.779649
O O15 0.787717 0.712163 0.711306
O O16 0.760603 0.871120 0.611172
#
# Coordination Sequence:
#
# PCOD9316355 Si02
#       8
#     8   4   8   8   8   8   8   8
#     4  11  20  36  57  83 119 155 196 252 306 363
#     4  10  24  36  52  88 114 154 212 246 302 352
#     4   9  18  36  58  80 112 156 203 237 302 369
#     4  10  19  35  56  85 113 149 201 246 288 359
#     4  10  17  33  54  87 113 147 198 235 300 356
#     4  10  18  32  55  86 116 149 198 244 293 373
#     4   9  20  37  56  80 115 152 198 250 288 352
#     4  10  18  30  58  85 109 157 194 241 294 362
#
# _framework density 23.345973000000001
#
# number of rings (size 3 to 8) (size 9 to 14) (size 15 to 20)
#    0.000    2.133    5.333    0.000    1.867    2.133 
#    0.000    2.667    0.000    3.200   13.867    0.000 
#    0.000    0.000    0.000    0.000    0.000    0.000 
#
# Total GULP energy -167304.161584 kJ/mol
# GULP energy per Si atom -5576.805386 kJ/mol
# Density = 2.329284 g / cm^3
# Si number density = 23.345973 Si / 1000 Ang^3
#
#
#
# Elastic Constant Matrix: (Units=GPa)
#
#
# Indices 1 2 3 4 5 6 
#
# 1 226.1741 45.3521 17.2908 0.0000 0.0000 0.0000
# 2 45.3521 90.3153 10.6718 0.0000 0.0000 0.0000
# 3 17.2908 10.6718 37.6285 0.0000 0.0000 0.0000
# 4 0.0000 0.0000 0.0000 23.5838 0.0000 0.0000
# 5 0.0000 0.0000 0.0000 0.0000 34.6394 0.0000
# 6 0.0000 0.0000 0.0000 0.0000 0.0000 42.4340
#
#
#
# Elastic Compliance Matrix: (Units=1/GPa)
#
#
# Indices 1 2 3 4 5 6 
#
# 1 0.005013 -0.002323 -0.001645 0.000000 0.000000 0.000000
# 2 -0.002323 0.012533 -0.002487 0.000000 0.000000 0.000000
# 3 -0.001645 -0.002487 0.028037 0.000000 0.000000 0.000000
# 4 0.000000 0.000000 0.000000 0.042402 0.000000 0.000000
# 5 0.000000 0.000000 0.000000 0.000000 0.028869 0.000000
# 6 0.000000 0.000000 0.000000 0.000000 0.000000 0.023566
#
#
# Mechanical properties :
#
#
# Convention : Reuss Voigt Hill
#
# Bulk Modulus (GPa) = 30.60623 55.63859 43.12241
# Shear Modulus (GPa) = 30.44708 38.85164 34.64936
#
# Velocity S-wave (km/s) = 3.61525 4.08385 3.85667
# Velocity P-wave (km/s) = 5.52856 6.79125 6.19217
#
# Compressibility (1/GPa) = 0.03267309
#
# Stress axis : x y z
#
# Youngs Moduli (GPa) = 199.48557 79.79161 35.66753
#
# Poissons Ratio (x) = 0.18535 0.05866
# Poissons Ratio (y) = 0.46339 0.08870
# Poissons Ratio (z) = 0.32809 0.19844
#
# Static dielectric constant tensor:
#      x y z
#    x 1.999310 0.000000 0.000000 
#    y 0.000000 1.822190 0.000000 
#    z 0.000000 0.000000 1.863620 
# 
# From -- ./inp_files/10780.got.cif
#   From: 2010.05.17/outbox.cif.g08.bks.cpg/sg20_6_cif.got.tgz:10780.got - 2010.06.03 22:52:26.
