data_PCOD9316373
_publ_section_title
;
Structure prediction by ZEFSAII (Michael W. Deem and Ramdas Pophale) SiO2 
 PCOD9316373
Probable space group: C 2 2 21
;
_chemical_formula_sum "Si O2"
_cell_formula_units_Z 52
_cell_length_a 17.809231
_cell_length_b 11.178254
_cell_length_c 13.235275
_cell_angle_alpha 90.000000
_cell_angle_beta 90.000000
_cell_angle_gamma 90.000000
_cell_volume 2634.827031
_symmetry_space_group_name_H-M "C 2 2 21"
_symmetry_group_IT_number 20
_symmetry_cell_setting 'orthorhombic'
loop_
_space_group_symop_operation_xyz
x,y,z
-x,-y,1/2+z
x,-y,-z
-x,y,1/2-z
1/2+x,1/2+y,z
1/2-x,1/2-y,1/2+z
1/2+x,1/2-y,-z
1/2-x,1/2+y,1/2-z
loop_
_atom_site_type_symbol
_atom_site_label
_atom_site_fract_x
_atom_site_fract_y
_atom_site_fract_z
Si Si1 0.396467 0.109291 0.650597
Si Si2 0.836883 0.823735 0.514681
Si Si3 0.312975 0.298658 0.973309
Si Si4 0.763564 0.018361 0.851729
Si Si5 0.359058 0.541148 0.666605
Si Si6 0.552454 0.192641 0.630339
Si Si7 0.500000 0.586614 0.250000
O O1 0.367559 0.212026 0.575815
O O2 0.327523 0.015762 0.641574
O O3 0.484312 0.097574 0.618264
O O4 0.403140 0.152323 0.767696
O O5 0.752519 0.797371 0.481377
O O6 0.838977 0.932737 0.592095
O O7 0.879336 0.853255 0.410574
O O8 0.297103 0.388398 0.879216
O O9 0.390237 0.227612 0.957551
O O10 0.299841 0.387249 0.068746
O O11 0.790610 0.061346 0.742437
O O12 0.428982 0.495956 0.731317
O O13 0.513954 0.320566 0.658567
#
# Coordination Sequence:
#
# PCOD9316373 Si02
#       7
#     8   8   8   8   8   8   4
#     4   9  18  33  54  80 110 148 181 217 276 327
#     4  10  20  33  52  78 109 144 179 226 281 324
#     4  10  20  34  55  81 106 145 187 225 275 326
#     4  10  20  34  54  81 112 143 186 229 271 328
#     4  11  20  33  52  82 110 142 182 229 276 332
#     4  10  17  34  56  81 110 147 184 223 270 329
#     4  10  18  32  52  82 108 142 174 222 286 314
#
# _framework density 19.735641999999999
#
# number of rings (size 3 to 8) (size 9 to 14) (size 15 to 20)
#    0.000    2.154    4.615    0.923    0.000    2.462 
#    0.000    0.000    0.000   24.000    0.000    0.000 
#    0.000    0.000    0.000    0.000    0.000    0.000 
#
# Total GULP energy -144737.526739 kJ/mol
# GULP energy per Si atom -5566.827951 kJ/mol
# Density = 1.969072 g / cm^3
# Si number density = 19.735642 Si / 1000 Ang^3
#
#
#
# Elastic Constant Matrix: (Units=GPa)
#
#
# Indices 1 2 3 4 5 6 
#
# 1 109.6226 3.2055 21.1226 0.0000 0.0000 0.0000
# 2 3.2055 7.2946 -2.9799 0.0000 0.0000 0.0000
# 3 21.1226 -2.9799 59.1477 0.0000 0.0000 0.0000
# 4 0.0000 0.0000 0.0000 3.4331 0.0000 0.0000
# 5 0.0000 0.0000 0.0000 0.0000 32.0683 0.0000
# 6 0.0000 0.0000 0.0000 0.0000 0.0000 25.5518
#
#
#
# Elastic Compliance Matrix: (Units=1/GPa)
#
#
# Indices 1 2 3 4 5 6 
#
# 1 0.010047 -0.006004 -0.003891 0.000000 0.000000 0.000000
# 2 -0.006004 0.143556 0.009377 0.000000 0.000000 0.000000
# 3 -0.003891 0.009377 0.018769 0.000000 0.000000 0.000000
# 4 0.000000 0.000000 0.000000 0.291285 0.000000 0.000000
# 5 0.000000 0.000000 0.000000 0.000000 0.031183 0.000000
# 6 0.000000 0.000000 0.000000 0.000000 0.000000 0.039136
#
#
# Mechanical properties :
#
#
# Convention : Reuss Voigt Hill
#
# Bulk Modulus (GPa) = 5.83650 24.30679 15.07165
# Shear Modulus (GPa) = 8.44416 22.52508 15.48462
#
# Velocity S-wave (km/s) = 2.07073 3.38204 2.80411
# Velocity P-wave (km/s) = 2.94635 5.25298 4.25880
#
# Compressibility (1/GPa) = 0.17133567
#
# Stress axis : x y z
#
# Youngs Moduli (GPa) = 99.52783 6.96592 53.28032
#
# Poissons Ratio (x) = 0.04183 0.20729
# Poissons Ratio (y) = 0.59761 -0.49960
# Poissons Ratio (z) = 0.38722 -0.06532
#
# Static dielectric constant tensor:
#      x y z
#    x 1.758180 0.000000 0.000000 
#    y 0.000000 1.712230 0.000000 
#    z 0.000000 0.000000 1.732560 
# 
# From -- ./inp_files/15832.got.cif
#   From: 2010.05.17/outbox.cif.g08.bks.cpg/sg20_8_cif.got.tgz:15832.got - 2010.06.03 22:52:26.
