data_PCOD9316552
_publ_section_title
;
Structure prediction by ZEFSAII (Michael W. Deem and Ramdas Pophale) SiO2 
 PCOD9316552
Probable space group: C 2 2 21
;
_chemical_formula_sum "Si O2"
_cell_formula_units_Z 64
_cell_length_a 11.871155
_cell_length_b 22.408218
_cell_length_c 12.965774
_cell_angle_alpha 90.000000
_cell_angle_beta 90.000000
_cell_angle_gamma 90.000000
_cell_volume 3449.044072
_symmetry_space_group_name_H-M "C 2 2 21"
_symmetry_group_IT_number 20
_symmetry_cell_setting 'orthorhombic'
loop_
_space_group_symop_operation_xyz
x,y,z
-x,-y,1/2+z
x,-y,-z
-x,y,1/2-z
1/2+x,1/2+y,z
1/2-x,1/2-y,1/2+z
1/2+x,1/2-y,-z
1/2-x,1/2+y,1/2-z
loop_
_atom_site_type_symbol
_atom_site_label
_atom_site_fract_x
_atom_site_fract_y
_atom_site_fract_z
Si Si1 0.124550 0.353487 0.803009
Si Si2 0.864404 0.433019 0.044594
Si Si3 0.335704 0.539646 0.674086
Si Si4 0.797814 0.901219 0.638337
Si Si5 0.548059 0.627382 0.971710
Si Si6 0.821220 0.122573 0.858635
Si Si7 0.376229 0.714992 0.698748
Si Si8 0.116117 0.428148 0.012774
O O1 0.226960 0.372646 0.729519
O O2 0.145222 0.283635 0.824980
O O3 0.124519 0.395608 0.902583
O O4 0.000000 0.359277 0.750000
O O5 0.790449 0.437010 0.147144
O O6 0.870907 0.500000 0.000000
O O7 0.791067 0.400197 0.957517
O O8 0.991758 0.412944 0.055769
O O9 0.329793 0.468688 0.670692
O O10 0.411865 0.564976 0.580876
O O11 0.367992 0.571597 0.780138
O O12 0.909790 0.872299 0.588928
O O13 0.417262 0.635135 0.944241
O O14 0.615397 0.676604 0.905034
O O15 0.802886 0.180228 0.784843
O O16 0.711591 0.097478 0.913272
O O17 0.500000 0.711632 0.750000
O O18 0.127464 0.500000 0.000000
#
# Coordination Sequence:
#
# PCOD9316552 Si02
#       8
#     8   8   8   8   8   8   8   8
#     4  11  21  36  56  78 108 146 190 227 274 337
#     4   8  16  30  48  77 113 139 175 218 269 329
#     4   9  17  32  55  80 109 142 181 221 273 335
#     4  10  18  32  55  83 102 143 186 225 272 327
#     4   9  18  35  57  78 107 142 186 229 264 323
#     4  10  20  36  54  80 114 146 185 229 274 328
#     4   8  18  36  57  78 102 145 190 226 269 322
#     4  11  22  34  51  86 119 146 177 228 294 337
#
# _framework density 18.555865000000001
#
# number of rings (size 3 to 8) (size 9 to 14) (size 15 to 20)
#    0.000    2.500    1.250    3.000    0.000    2.500 
#    0.000    1.875    0.000    0.000    9.750    0.000 
#    0.000    0.000    0.000    0.000    0.000    0.000 
#
# Total GULP energy -178284.260892 kJ/mol
# GULP energy per Si atom -5571.383153 kJ/mol
# Density = 1.851363 g / cm^3
# Si number density = 18.555865 Si / 1000 Ang^3
#
#
#
# Elastic Constant Matrix: (Units=GPa)
#
#
# Indices 1 2 3 4 5 6 
#
# 1 55.3951 6.7744 17.2806 0.0000 0.0000 0.0000
# 2 6.7744 111.9363 30.4770 0.0000 0.0000 0.0000
# 3 17.2806 30.4770 59.3769 0.0000 0.0000 0.0000
# 4 0.0000 0.0000 0.0000 15.1376 0.0000 0.0000
# 5 0.0000 0.0000 0.0000 0.0000 33.4596 0.0000
# 6 0.0000 0.0000 0.0000 0.0000 0.0000 15.6938
#
#
#
# Elastic Compliance Matrix: (Units=1/GPa)
#
#
# Indices 1 2 3 4 5 6 
#
# 1 0.019873 0.000432 -0.006006 0.000000 0.000000 0.000000
# 2 0.000432 0.010394 -0.005461 0.000000 0.000000 0.000000
# 3 -0.006006 -0.005461 0.021392 0.000000 0.000000 0.000000
# 4 0.000000 0.000000 0.000000 0.066061 0.000000 0.000000
# 5 0.000000 0.000000 0.000000 0.000000 0.029887 0.000000
# 6 0.000000 0.000000 0.000000 0.000000 0.000000 0.063720
#
#
# Mechanical properties :
#
#
# Convention : Reuss Voigt Hill
#
# Bulk Modulus (GPa) = 33.79394 37.30804 35.55099
# Shear Modulus (GPa) = 20.55424 24.33661 22.44543
#
# Velocity S-wave (km/s) = 3.33182 3.62544 3.48172
# Velocity P-wave (km/s) = 5.74916 6.13796 5.94674
#
# Compressibility (1/GPa) = 0.02959111
#
# Stress axis : x y z
#
# Youngs Moduli (GPa) = 50.32036 96.20589 46.74552
#
# Poissons Ratio (x) = -0.04160 0.28073
# Poissons Ratio (y) = -0.02176 0.25528
# Poissons Ratio (z) = 0.30220 0.52539
#
# Static dielectric constant tensor:
#      x y z
#    x 1.675880 0.000000 0.000000 
#    y 0.000000 1.637630 0.000000 
#    z 0.000000 0.000000 1.653890 
# 
# From -- ./inp_files/14500.got.cif
#   From: 2010.05.17/outbox.cif.g08.bks.cpg/sg20_8_cif.got.tgz:14500.got - 2010.06.03 22:52:26.
