data_PCOD9316898
_publ_section_title
;
Structure prediction by ZEFSAII (Michael W. Deem and Ramdas Pophale) SiO2 
 PCOD9316898
Probable space group: C 2 2 21
;
_chemical_formula_sum "Si O2"
_cell_formula_units_Z 32
_cell_length_a 17.505914
_cell_length_b 21.338187
_cell_length_c 5.212843
_cell_angle_alpha 90.000000
_cell_angle_beta 90.000000
_cell_angle_gamma 90.000000
_cell_volume 1947.228658
_symmetry_space_group_name_H-M "C 2 2 21"
_symmetry_group_IT_number 20
_symmetry_cell_setting 'orthorhombic'
loop_
_space_group_symop_operation_xyz
x,y,z
-x,-y,1/2+z
x,-y,-z
-x,y,1/2-z
1/2+x,1/2+y,z
1/2-x,1/2-y,1/2+z
1/2+x,1/2-y,-z
1/2-x,1/2+y,1/2-z
loop_
_atom_site_type_symbol
_atom_site_label
_atom_site_fract_x
_atom_site_fract_y
_atom_site_fract_z
Si Si1 0.174842 0.693265 0.330455
Si Si2 0.833415 0.180640 0.099297
Si Si3 0.052089 0.927268 0.498813
Si Si4 0.588049 0.204033 0.818865
O O1 0.187496 0.768381 0.378072
O O2 0.255624 0.665755 0.247607
O O3 0.139914 0.671163 0.599963
O O4 0.114198 0.685579 0.101826
O O5 0.889685 0.222668 0.276903
O O6 0.878034 0.120694 0.002554
O O7 0.000000 0.916536 0.250000
O O8 0.076986 0.000000 0.500000
O O9 0.000000 0.917488 0.750000
O O10 0.500000 0.194967 0.750000
#
# Coordination Sequence:
#
# PCOD9316898 Si02
#       4
#     8   8   8   8
#     4  10  20  30  44  71  94 129 163 199 255 302
#     4  10  20  31  50  66 102 128 167 205 253 290
#     4  10  23  36  50  73 100 139 181 206 234 291
#     4  10  19  29  44  69  95 125 159 193 247 304
#
# _framework density 16.433610999999999
#
# number of rings (size 3 to 8) (size 9 to 14) (size 15 to 20)
#    1.500    0.500    2.500    1.500    7.000    0.000 
#    0.000    0.000    0.000    0.000    0.000    0.000 
#    0.000    4.000    0.000    2.750    0.000    0.000 
#
# Total GULP energy -89083.019772 kJ/mol
# GULP energy per Si atom -5567.688736 kJ/mol
# Density = 1.639621 g / cm^3
# Si number density = 16.433611 Si / 1000 Ang^3
#
#
#
# Elastic Constant Matrix: (Units=GPa)
#
#
# Indices 1 2 3 4 5 6 
#
# 1 80.8032 22.2619 8.1167 0.0000 0.0000 0.0000
# 2 22.2619 41.5909 1.0586 0.0000 0.0000 0.0000
# 3 8.1167 1.0586 83.3200 0.0000 0.0000 0.0000
# 4 0.0000 0.0000 0.0000 -667.5438 0.0000 0.0000
# 5 0.0000 0.0000 0.0000 0.0000 23.4496 0.0000
# 6 0.0000 0.0000 0.0000 0.0000 0.0000 151.3270
#
#
#
# Elastic Compliance Matrix: (Units=1/GPa)
#
#
# Indices 1 2 3 4 5 6 
#
# 1 0.014662 -0.007814 -0.001329 0.000000 0.000000 0.000000
# 2 -0.007814 0.028216 0.000403 0.000000 0.000000 0.000000
# 3 -0.001329 0.000403 0.012126 0.000000 0.000000 0.000000
# 4 0.000000 0.000000 0.000000 -0.001498 0.000000 0.000000
# 5 0.000000 0.000000 0.000000 0.000000 0.042645 0.000000
# 6 0.000000 0.000000 0.000000 0.000000 0.000000 0.006608
#
#
# Mechanical properties :
#
#
# Convention : Reuss Voigt Hill
#
# Bulk Modulus (GPa) = 26.65001 29.84318 28.24660
# Shear Modulus (GPa) = 37.66532 -86.93498 -24.63483
#
# Velocity S-wave (km/s) = 4.79264 -7.28118 -3.87596
# Velocity P-wave (km/s) = 6.84674 7.24487 1.67485
#
# Compressibility (1/GPa) = 0.03752343
#
# Stress axis : x y z
#
# Youngs Moduli (GPa) = 68.20293 35.44078 82.46559
#
# Poissons Ratio (x) = 0.27694 0.10960
# Poissons Ratio (y) = 0.53295 -0.03321
# Poissons Ratio (z) = 0.09064 -0.01427
#
# Static dielectric constant tensor:
#      x y z
#    x 1.601050 0.000000 0.000000 
#    y 0.000000 1.532860 0.000000 
#    z 0.000000 0.000000 1.589660 
# 
# From -- ./inp_files/2458.got.cif
#   From: 2010.05.17/outbox.cif.g08.bks.cpg/sg20_2_cif.got.tgz:2458.got - 2010.06.03 22:52:26.
