data_PCOD9316421
_publ_section_title
;
Structure prediction by ZEFSAII (Michael W. Deem and Ramdas Pophale) SiO2 
 PCOD9316421
Probable space group: C 2 2 21
;
_chemical_formula_sum "Si O2"
_cell_formula_units_Z 36
_cell_length_a 26.983076
_cell_length_b 13.575560
_cell_length_c 5.106483
_cell_angle_alpha 90.000000
_cell_angle_beta 90.000000
_cell_angle_gamma 90.000000
_cell_volume 1870.557663
_symmetry_space_group_name_H-M "C 2 2 21"
_symmetry_group_IT_number 20
_symmetry_cell_setting 'orthorhombic'
loop_
_space_group_symop_operation_xyz
x,y,z
-x,-y,1/2+z
x,-y,-z
-x,y,1/2-z
1/2+x,1/2+y,z
1/2-x,1/2-y,1/2+z
1/2+x,1/2-y,-z
1/2-x,1/2+y,1/2-z
loop_
_atom_site_type_symbol
_atom_site_label
_atom_site_fract_x
_atom_site_fract_y
_atom_site_fract_z
Si Si1 0.634848 0.000000 0.500000
Si Si2 0.799172 0.500000 0.500000
Si Si3 0.944567 0.284205 0.645841
Si Si4 0.110476 0.713673 0.644372
Si Si5 0.224873 0.707870 0.792819
Si Si6 0.032130 0.500000 0.000000
O O1 0.668307 0.966521 0.748057
O O2 0.606713 0.905467 0.388435
O O3 0.770973 0.404337 0.395430
O O4 0.927766 0.248437 0.361725
O O5 0.941442 0.403490 0.613375
O O6 0.000000 0.264288 0.750000
O O7 0.905514 0.248344 0.861352
O O8 0.166992 0.728831 0.731540
O O9 0.245353 0.775154 0.026003
O O10 0.000000 0.464133 0.250000
#
# Coordination Sequence:
#
# PCOD9316421 Si02
#       6
#     4   4   8   8   8   4
#     4  10  18  31  48  69  96 132 178 215 246 293
#     4  10  20  35  54  77 102 136 176 217 260 307
#     4  11  20  30  42  63  93 130 171 213 251 292
#     4  11  20  32  48  67  94 132 172 213 253 299
#     4  11  22  37  55  77 103 136 177 219 261 309
#     4  10  18  28  40  60  90 128 172 216 250 276
#
# _framework density 19.245598999999999
#
# number of rings (size 3 to 8) (size 9 to 14) (size 15 to 20)
#    0.000    1.333    0.000   11.333    0.000    1.778 
#    0.000    0.000    0.000    0.000    0.000    0.000 
#    0.000    0.000    0.000   56.000    0.000    1.333 
#
# Total GULP energy -100475.770562 kJ/mol
# GULP energy per Si atom -5581.987253 kJ/mol
# Density = 1.920180 g / cm^3
# Si number density = 19.245599 Si / 1000 Ang^3
#
#
#
# Elastic Constant Matrix: (Units=GPa)
#
#
# Indices 1 2 3 4 5 6 
#
# 1 88.6908 19.8168 59.0395 0.0000 0.0000 0.0000
# 2 19.8168 13.9888 9.8506 0.0000 0.0000 0.0000
# 3 59.0395 9.8506 165.3708 0.0000 0.0000 0.0000
# 4 0.0000 0.0000 0.0000 22.1971 0.0000 0.0000
# 5 0.0000 0.0000 0.0000 0.0000 49.7621 0.0000
# 6 0.0000 0.0000 0.0000 0.0000 0.0000 19.8497
#
#
#
# Elastic Compliance Matrix: (Units=1/GPa)
#
#
# Indices 1 2 3 4 5 6 
#
# 1 0.020926 -0.025450 -0.005955 0.000000 0.000000 0.000000
# 2 -0.025450 0.105569 0.002798 0.000000 0.000000 0.000000
# 3 -0.005955 0.002798 0.008006 0.000000 0.000000 0.000000
# 4 0.000000 0.000000 0.000000 0.045051 0.000000 0.000000
# 5 0.000000 0.000000 0.000000 0.000000 0.020096 0.000000
# 6 0.000000 0.000000 0.000000 0.000000 0.000000 0.050379
#
#
# Mechanical properties :
#
#
# Convention : Reuss Voigt Hill
#
# Bulk Modulus (GPa) = 12.93896 49.49604 31.21750
# Shear Modulus (GPa) = 15.01490 30.31800 22.66645
#
# Velocity S-wave (km/s) = 2.79619 3.97334 3.43556
# Velocity P-wave (km/s) = 4.14277 6.84279 5.65625
#
# Compressibility (1/GPa) = 0.07728595
#
# Stress axis : x y z
#
# Youngs Moduli (GPa) = 47.78837 9.47249 124.90205
#
# Poissons Ratio (x) = 0.24108 0.74375
# Poissons Ratio (y) = 1.21623 -0.34944
# Poissons Ratio (z) = 0.28457 -0.02650
#
# Static dielectric constant tensor:
#      x y z
#    x 1.716540 0.000000 0.000000 
#    y 0.000000 1.653690 0.000000 
#    z 0.000000 0.000000 1.726970 
# 
# From -- ./inp_files/4168.got.cif
#   From: 2010.05.17/outbox.cif.g08.bks.cpg/sg20_3_cif.got.tgz:4168.got - 2010.06.03 22:52:26.
