data_PCOD9316788
_publ_section_title
;
Structure prediction by ZEFSAII (Michael W. Deem and Ramdas Pophale) SiO2 
 PCOD9316788
Probable space group: C 2 2 21
;
_chemical_formula_sum "Si O2"
_cell_formula_units_Z 48
_cell_length_a 12.600636
_cell_length_b 14.220313
_cell_length_c 12.866011
_cell_angle_alpha 90.000000
_cell_angle_beta 90.000000
_cell_angle_gamma 90.000000
_cell_volume 2305.396026
_symmetry_space_group_name_H-M "C 2 2 21"
_symmetry_group_IT_number 20
_symmetry_cell_setting 'orthorhombic'
loop_
_space_group_symop_operation_xyz
x,y,z
-x,-y,1/2+z
x,-y,-z
-x,y,1/2-z
1/2+x,1/2+y,z
1/2-x,1/2-y,1/2+z
1/2+x,1/2-y,-z
1/2-x,1/2+y,1/2-z
loop_
_atom_site_type_symbol
_atom_site_label
_atom_site_fract_x
_atom_site_fract_y
_atom_site_fract_z
Si Si1 0.235382 0.237717 0.515066
Si Si2 0.762474 0.052957 0.107634
Si Si3 0.511011 0.459488 0.361518
Si Si4 0.556499 0.188806 0.612505
Si Si5 0.565027 0.636303 0.060127
Si Si6 0.155777 0.387768 0.179414
O O1 0.247032 0.162537 0.419638
O O2 0.128346 0.294875 0.489168
O O3 0.329348 0.312868 0.522753
O O4 0.253693 0.173510 0.618773
O O5 0.882005 0.020580 0.132262
O O6 0.689981 0.996359 0.188402
O O7 0.734510 0.000000 0.000000
O O8 0.500000 0.413890 0.250000
O O9 0.502809 0.389805 0.457572
O O10 0.420331 0.538405 0.380136
O O11 0.500035 0.289688 0.628065
O O12 0.453119 0.121647 0.612115
O O13 0.628134 0.156576 0.709107
#
# Coordination Sequence:
#
# PCOD9316788 Si02
#       6
#     8   8   8   8   8   8
#     4  10  20  34  63  85 121 156 215 260 312 369
#     4  10  18  38  59  85 115 169 206 251 316 384
#     4  11  22  36  64  88 130 161 212 262 324 378
#     4  10  19  38  61  90 124 164 216 261 307 384
#     4  10  21  38  58  94 119 163 208 263 316 368
#     4   9  21  34  65  88 119 171 216 248 323 390
#
# _framework density 20.820716999999998
#
# number of rings (size 3 to 8) (size 9 to 14) (size 15 to 20)
#    0.000    2.000    3.333    1.000    7.000    0.000 
#    0.000    0.000   22.000    4.000    0.000    0.000 
#    0.000    0.000    0.000    0.000    0.000    0.000 
#
# Total GULP energy -133657.706293 kJ/mol
# GULP energy per Si atom -5569.071096 kJ/mol
# Density = 2.077333 g / cm^3
# Si number density = 20.820717 Si / 1000 Ang^3
#
#
#
# Elastic Constant Matrix: (Units=GPa)
#
#
# Indices 1 2 3 4 5 6 
#
# 1 55.2849 16.4192 -2.9239 0.0000 0.0000 0.0000
# 2 16.4192 66.1868 -1.7898 0.0000 0.0000 0.0000
# 3 -2.9239 -1.7898 60.2134 0.0000 0.0000 0.0000
# 4 0.0000 0.0000 0.0000 23.6666 0.0000 0.0000
# 5 0.0000 0.0000 0.0000 0.0000 31.1357 0.0000
# 6 0.0000 0.0000 0.0000 0.0000 0.0000 28.1979
#
#
#
# Elastic Compliance Matrix: (Units=1/GPa)
#
#
# Indices 1 2 3 4 5 6 
#
# 1 0.019566 -0.004832 0.000806 0.000000 0.000000 0.000000
# 2 -0.004832 0.016314 0.000250 0.000000 0.000000 0.000000
# 3 0.000806 0.000250 0.016654 0.000000 0.000000 0.000000
# 4 0.000000 0.000000 0.000000 0.042254 0.000000 0.000000
# 5 0.000000 0.000000 0.000000 0.000000 0.032117 0.000000
# 6 0.000000 0.000000 0.000000 0.000000 0.000000 0.035464
#
#
# Mechanical properties :
#
#
# Convention : Reuss Voigt Hill
#
# Bulk Modulus (GPa) = 22.23021 22.78845 22.50933
# Shear Modulus (GPa) = 27.03961 27.93202 27.48581
#
# Velocity S-wave (km/s) = 3.60764 3.66669 3.63729
# Velocity P-wave (km/s) = 5.29656 5.37541 5.33613
#
# Compressibility (1/GPa) = 0.04498384
#
# Stress axis : x y z
#
# Youngs Moduli (GPa) = 51.10953 61.29627 60.04493
#
# Poissons Ratio (x) = 0.29618 -0.04842
# Poissons Ratio (y) = 0.24696 -0.01503
# Poissons Ratio (z) = -0.04122 -0.01534
#
# Static dielectric constant tensor:
#      x y z
#    x 1.809010 0.000000 0.000000 
#    y 0.000000 1.778910 0.000000 
#    z 0.000000 0.000000 1.803930 
# 
# From -- ./inp_files/19962.got.cif
#   From: 2010.05.17/outbox.cif.g08.bks.cpg/sg20_10_cif.got.tgz:19962.got - 2010.06.03 22:52:26.
