data_PCOD9316393
_publ_section_title
;
Structure prediction by ZEFSAII (Michael W. Deem and Ramdas Pophale) SiO2 
 PCOD9316393
Probable space group: C 2 2 21
;
_chemical_formula_sum "Si O2"
_cell_formula_units_Z 56
_cell_length_a 17.443776
_cell_length_b 8.160707
_cell_length_c 18.931250
_cell_angle_alpha 90.000000
_cell_angle_beta 90.000000
_cell_angle_gamma 90.000000
_cell_volume 2694.930547
_symmetry_space_group_name_H-M "C 2 2 21"
_symmetry_group_IT_number 20
_symmetry_cell_setting 'orthorhombic'
loop_
_space_group_symop_operation_xyz
x,y,z
-x,-y,1/2+z
x,-y,-z
-x,y,1/2-z
1/2+x,1/2+y,z
1/2-x,1/2-y,1/2+z
1/2+x,1/2-y,-z
1/2-x,1/2+y,1/2-z
loop_
_atom_site_type_symbol
_atom_site_label
_atom_site_fract_x
_atom_site_fract_y
_atom_site_fract_z
Si Si1 0.890864 0.566813 0.420779
Si Si2 0.928811 0.065153 0.113560
Si Si3 0.526280 0.086711 0.669718
Si Si4 0.694572 0.426475 0.204598
Si Si5 0.730585 0.373329 0.652181
Si Si6 0.078036 0.260423 0.706001
Si Si7 0.908544 0.955539 0.425999
O O1 0.884748 0.500000 0.500000
O O2 0.954563 0.463517 0.378950
O O3 0.809421 0.561415 0.381238
O O4 0.915694 0.758439 0.421853
O O5 0.838155 0.082397 0.097396
O O6 0.941226 0.237455 0.151719
O O7 0.929772 0.898573 0.158198
O O8 0.008329 0.042889 0.071469
O O9 0.500000 0.099506 0.750000
O O10 0.584100 0.931974 0.665948
O O11 0.714820 0.543222 0.270621
O O12 0.760590 0.322214 0.165813
O O13 0.645755 0.279700 0.240792
O O14 0.639931 0.504990 0.144081
O O15 0.000000 0.268517 0.750000
O O16 0.868356 0.000000 0.500000
#
# Coordination Sequence:
#
# PCOD9316393 Si02
#       7
#     8   8   8   8   8   8   8
#     4  11  24  46  65  93 135 177 217 266 334 401
#     4  11  22  37  63  98 123 166 218 269 331 380
#     4  11  22  35  70  96 127 168 224 264 318 387
#     4  10  22  38  62  94 133 171 218 270 338 383
#     4  10  24  38  63  94 136 169 213 281 325 396
#     4  10  17  37  58  87 134 157 207 278 307 375
#     4  11  22  41  65  93 130 176 221 277 328 399
#
# _framework density 20.779757
#
# number of rings (size 3 to 8) (size 9 to 14) (size 15 to 20)
#    0.000    1.429    2.857    3.857    6.000    1.714 
#    0.000    0.000    0.000    4.286    0.000    0.000 
#    0.000    0.000    0.000    0.000    0.000    0.000 
#
# Total GULP energy -156037.939633 kJ/mol
# GULP energy per Si atom -5572.783558 kJ/mol
# Density = 2.073246 g / cm^3
# Si number density = 20.779757 Si / 1000 Ang^3
#
#
#
# Elastic Constant Matrix: (Units=GPa)
#
#
# Indices 1 2 3 4 5 6 
#
# 1 84.4321 11.5879 30.1452 0.0000 0.0000 0.0000
# 2 11.5879 96.0021 15.4877 0.0000 0.0000 0.0000
# 3 30.1452 15.4877 109.9801 0.0000 0.0000 0.0000
# 4 0.0000 0.0000 0.0000 -27.6705 0.0000 0.0000
# 5 0.0000 0.0000 0.0000 0.0000 13.5343 0.0000
# 6 0.0000 0.0000 0.0000 0.0000 0.0000 45.2112
#
#
#
# Elastic Compliance Matrix: (Units=1/GPa)
#
#
# Indices 1 2 3 4 5 6 
#
# 1 0.013228 -0.001035 -0.003480 0.000000 0.000000 0.000000
# 2 -0.001035 0.010740 -0.001229 0.000000 0.000000 0.000000
# 3 -0.003480 -0.001229 0.010219 0.000000 0.000000 0.000000
# 4 0.000000 0.000000 0.000000 -0.036140 0.000000 0.000000
# 5 0.000000 0.000000 0.000000 0.000000 0.073886 0.000000
# 6 0.000000 0.000000 0.000000 0.000000 0.000000 0.022118
#
#
# Mechanical properties :
#
#
# Convention : Reuss Voigt Hill
#
# Bulk Modulus (GPa) = 44.05381 44.98400 44.51890
# Shear Modulus (GPa) = 44.20591 21.76125 32.98358
#
# Velocity S-wave (km/s) = 4.61733 3.23961 3.98841
# Velocity P-wave (km/s) = 7.04788 5.97398 6.53303
#
# Compressibility (1/GPa) = 0.02269951
#
# Stress axis : x y z
#
# Youngs Moduli (GPa) = 75.59467 93.11327 97.85258
#
# Poissons Ratio (x) = 0.09640 0.34054
# Poissons Ratio (y) = 0.07826 0.12022
# Poissons Ratio (z) = 0.26308 0.11440
#
# Static dielectric constant tensor:
#      x y z
#    x 1.786100 0.000000 0.000000 
#    y 0.000000 1.802670 0.000000 
#    z 0.000000 0.000000 1.761690 
# 
# From -- ./inp_files/27732.got.cif
#   From: 2010.05.17/outbox.cif.g08.bks.cpg/sg20_14_cif.got.tgz:27732.got - 2010.06.03 22:52:26.
