data_PCOD9316708
_publ_section_title
;
Structure prediction by ZEFSAII (Michael W. Deem and Ramdas Pophale) SiO2 
 PCOD9316708
Probable space group: C 2 2 21
;
_chemical_formula_sum "Si O2"
_cell_formula_units_Z 28
_cell_length_a 11.552612
_cell_length_b 10.495800
_cell_length_c 8.898908
_cell_angle_alpha 90.000000
_cell_angle_beta 90.000000
_cell_angle_gamma 90.000000
_cell_volume 1079.027345
_symmetry_space_group_name_H-M "C 2 2 21"
_symmetry_group_IT_number 20
_symmetry_cell_setting 'orthorhombic'
loop_
_space_group_symop_operation_xyz
x,y,z
-x,-y,1/2+z
x,-y,-z
-x,y,1/2-z
1/2+x,1/2+y,z
1/2-x,1/2-y,1/2+z
1/2+x,1/2-y,-z
1/2-x,1/2+y,1/2-z
loop_
_atom_site_type_symbol
_atom_site_label
_atom_site_fract_x
_atom_site_fract_y
_atom_site_fract_z
Si Si1 0.290720 0.500000 0.500000
Si Si2 0.826553 0.137598 0.961608
Si Si3 0.621127 0.981251 0.219109
Si Si4 0.146357 0.751872 0.150740
O O1 0.203228 0.519059 0.359895
O O2 0.366056 0.624635 0.543783
O O3 0.705856 0.102365 0.879383
O O4 0.883972 0.207927 0.821985
O O5 0.782968 0.215392 0.107147
O O6 0.879200 0.000000 0.000000
O O7 0.500000 0.915180 0.250000
O O8 0.589015 0.113586 0.136286
#
# Coordination Sequence:
#
# PCOD9316708 Si02
#       4
#     4   8   8   8
#     4  10  20  34  58  80 108 150 188 218 276 340
#     4   9  19  33  54  81 109 144 184 223 271 330
#     4  10  21  34  58  84 111 137 183 243 278 314
#     4  10  18  36  54  78 111 146 186 220 273 336
#
# _framework density 25.949297999999999
#
# number of rings (size 3 to 8) (size 9 to 14) (size 15 to 20)
#    0.000    2.286    2.857    0.000    6.000    0.000 
#    0.000    0.000    3.143    1.714    0.000    0.000 
#    0.000    0.000    0.000    0.000    0.000    0.000 
#
# Total GULP energy -77995.865562 kJ/mol
# GULP energy per Si atom -5571.133254 kJ/mol
# Density = 2.589024 g / cm^3
# Si number density = 25.949298 Si / 1000 Ang^3
#
#
#
# Elastic Constant Matrix: (Units=GPa)
#
#
# Indices 1 2 3 4 5 6 
#
# 1 82.3370 1.2911 3.2335 0.0000 0.0000 0.0000
# 2 1.2911 105.7701 -0.0901 0.0000 0.0000 0.0000
# 3 3.2335 -0.0901 120.5314 0.0000 0.0000 0.0000
# 4 0.0000 0.0000 0.0000 46.1902 0.0000 0.0000
# 5 0.0000 0.0000 0.0000 0.0000 24.3808 0.0000
# 6 0.0000 0.0000 0.0000 0.0000 0.0000 25.7662
#
#
#
# Elastic Compliance Matrix: (Units=1/GPa)
#
#
# Indices 1 2 3 4 5 6 
#
# 1 0.012160 -0.000149 -0.000326 0.000000 0.000000 0.000000
# 2 -0.000149 0.009456 0.000011 0.000000 0.000000 0.000000
# 3 -0.000326 0.000011 0.008305 0.000000 0.000000 0.000000
# 4 0.000000 0.000000 0.000000 0.021650 0.000000 0.000000
# 5 0.000000 0.000000 0.000000 0.000000 0.041016 0.000000
# 6 0.000000 0.000000 0.000000 0.000000 0.000000 0.038810
#
#
# Mechanical properties :
#
#
# Convention : Reuss Voigt Hill
#
# Bulk Modulus (GPa) = 34.48985 35.27859 34.88422
# Shear Modulus (GPa) = 35.21361 39.54773 37.38067
#
# Velocity S-wave (km/s) = 3.68777 3.90813 3.79955
# Velocity P-wave (km/s) = 5.60829 5.83004 5.72024
#
# Compressibility (1/GPa) = 0.02899404
#
# Stress axis : x y z
#
# Youngs Moduli (GPa) = 82.23441 105.74965 120.40428
#
# Poissons Ratio (x) = 0.01573 0.03929
# Poissons Ratio (y) = 0.01223 -0.00133
# Poissons Ratio (z) = 0.02684 -0.00117
#
# Static dielectric constant tensor:
#      x y z
#    x 2.140490 0.000000 0.000000 
#    y 0.000000 2.082390 0.000000 
#    z 0.000000 0.000000 2.233550 
# 
# From -- ./inp_files/6695.got.cif
#   From: 2010.05.17/outbox.cif.g08.bks.cpg/sg20_4_cif.got.tgz:6695.got - 2010.06.03 22:52:26.
