data_PCOD9316067
_publ_section_title
;
Structure prediction by ZEFSAII (Michael W. Deem and Ramdas Pophale) SiO2 
 PCOD9316067
Probable space group: P 21 21 21
;
_chemical_formula_sum "Si O2"
_cell_formula_units_Z 28
_cell_length_a 8.762732
_cell_length_b 4.832411
_cell_length_c 22.878144
_cell_angle_alpha 90.000000
_cell_angle_beta 90.000000
_cell_angle_gamma 90.000000
_cell_volume 968.777810
_symmetry_space_group_name_H-M "P 21 21 21"
_symmetry_group_IT_number 19
_symmetry_cell_setting 'orthorhombic'
loop_
_space_group_symop_operation_xyz
x,y,z
1/2-x,-y,1/2+z
1/2+x,1/2-y,-z
-x,1/2+y,1/2-z
loop_
_atom_site_type_symbol
_atom_site_label
_atom_site_fract_x
_atom_site_fract_y
_atom_site_fract_z
Si Si1 0.854295 0.669009 0.611619
Si Si2 0.409127 0.258158 0.976642
Si Si3 0.384079 0.456903 0.823076
Si Si4 0.919248 0.742681 0.943296
Si Si5 0.594243 0.874561 0.890135
Si Si6 0.519522 0.466800 0.291177
Si Si7 0.819218 0.756768 0.281505
O O1 0.760527 0.736477 0.551701
O O2 0.956227 0.398996 0.598265
O O3 0.950158 0.891773 0.649819
O O4 0.703850 0.686812 0.654228
O O5 0.523887 0.114455 0.931247
O O6 0.433392 0.569920 0.997879
O O7 0.431024 0.071799 0.034901
O O8 0.465678 0.646451 0.871979
O O9 0.517668 0.386060 0.778806
O O10 0.270826 0.626599 0.781472
O O11 0.746860 0.767482 0.920929
O O12 0.655333 0.021296 0.831802
O O13 0.516332 0.154472 0.266874
O O14 0.697845 0.534248 0.301344
#
# Coordination Sequence:
#
# PCOD9316067 Si02
#       7
#     4   4   4   4   4   4   4
#     4  12  27  51  80 118 163 217 278 349 425 497
#     4  12  28  50  78 113 155 212 281 344 418 494
#     4  12  27  48  80 122 164 227 278 342 421 531
#     4  12  29  52  78 113 158 209 278 355 412 490
#     4  12  27  48  78 113 157 220 270 344 423 499
#     4  12  30  48  78 118 167 214 274 339 423 511
#     4  12  26  47  76 115 168 211 275 335 416 516
#
# _framework density 28.902398999999999
#
# number of rings (size 3 to 8) (size 9 to 14) (size 15 to 20)
#    0.000    0.000    5.714    2.571    8.000    3.429 
#    0.000    0.000    0.000    0.000    0.000    0.000 
#    0.000    0.000    0.000    0.000    0.000    0.000 
#
# Total GULP energy -156863.540593 kJ/mol
# GULP energy per Si atom -5602.269307 kJ/mol
# Density = 2.883662 g / cm^3
# Si number density = 28.902399 Si / 1000 Ang^3
#
#
#
# Elastic Constant Matrix: (Units=GPa)
#
#
# Indices 1 2 3 4 5 6 
#
# 1 105.9659 9.9184 19.3394 0.0000 0.0000 0.0000
# 2 9.9184 117.1445 33.9438 0.0000 0.0000 0.0000
# 3 19.3394 33.9438 163.5930 0.0000 0.0000 0.0000
# 4 0.0000 0.0000 0.0000 62.3140 0.0000 0.0000
# 5 0.0000 0.0000 0.0000 0.0000 61.0903 0.0000
# 6 0.0000 0.0000 0.0000 0.0000 0.0000 37.3864
#
#
#
# Elastic Compliance Matrix: (Units=1/GPa)
#
#
# Indices 1 2 3 4 5 6 
#
# 1 0.009675 -0.000519 -0.001036 0.000000 0.000000 0.000000
# 2 -0.000519 0.009110 -0.001829 0.000000 0.000000 0.000000
# 3 -0.001036 -0.001829 0.006615 0.000000 0.000000 0.000000
# 4 0.000000 0.000000 0.000000 0.016048 0.000000 0.000000
# 5 0.000000 0.000000 0.000000 0.000000 0.016369 0.000000
# 6 0.000000 0.000000 0.000000 0.000000 0.000000 0.026748
#
#
# Mechanical properties :
#
#
# Convention : Reuss Voigt Hill
#
# Bulk Modulus (GPa) = 53.67147 57.01184 55.34165
# Shear Modulus (GPa) = 51.25952 53.72492 52.49222
#
# Velocity S-wave (km/s) = 4.21591 4.31610 4.26630
# Velocity P-wave (km/s) = 6.50452 6.67883 6.59225
#
# Compressibility (1/GPa) = 0.01863187
#
# Stress axis : x y z
#
# Youngs Moduli (GPa) = 103.36290 109.76510 151.17855
#
# Poissons Ratio (x) = 0.05696 0.15663
# Poissons Ratio (y) = 0.05364 0.27650
# Poissons Ratio (z) = 0.10709 0.20076
#
# Static dielectric constant tensor:
#      x y z
#    x 2.331790 0.000000 0.000000 
#    y 0.000000 2.179790 0.000000 
#    z 0.000000 0.000000 2.281350 
# 
# From -- ./inp_files/7349.got.cif
#   From: 2010.05.17/outbox.cif.g08.bks.cpg/sg19_4_cif.got.tgz:7349.got - 2010.06.03 22:46:19.
