data_PCOD9316367
_publ_section_title
;
Structure prediction by ZEFSAII (Michael W. Deem and Ramdas Pophale) SiO2 
 PCOD9316367
Probable space group: C 2 2 21
;
_chemical_formula_sum "Si O2"
_cell_formula_units_Z 44
_cell_length_a 18.167733
_cell_length_b 11.504596
_cell_length_c 11.057524
_cell_angle_alpha 90.000000
_cell_angle_beta 90.000000
_cell_angle_gamma 90.000000
_cell_volume 2311.159943
_symmetry_space_group_name_H-M "C 2 2 21"
_symmetry_group_IT_number 20
_symmetry_cell_setting 'orthorhombic'
loop_
_space_group_symop_operation_xyz
x,y,z
-x,-y,1/2+z
x,-y,-z
-x,y,1/2-z
1/2+x,1/2+y,z
1/2-x,1/2-y,1/2+z
1/2+x,1/2-y,-z
1/2-x,1/2+y,1/2-z
loop_
_atom_site_type_symbol
_atom_site_label
_atom_site_fract_x
_atom_site_fract_y
_atom_site_fract_z
Si Si1 0.722452 0.300984 0.099269
Si Si2 0.321556 0.000000 0.000000
Si Si3 0.168152 0.080397 0.658816
Si Si4 0.370380 0.328262 0.903580
Si Si5 0.166641 0.608250 0.931684
Si Si6 0.576103 0.103866 0.696392
O O1 0.765743 0.392328 0.013645
O O2 0.679484 0.360807 0.210268
O O3 0.790912 0.220650 0.141293
O O4 0.672755 0.217556 0.019121
O O5 0.376196 0.984547 0.114280
O O6 0.133234 0.155244 0.549250
O O7 0.252267 0.066567 0.611550
O O8 0.126303 0.956486 0.655257
O O9 0.428776 0.227350 0.873976
O O10 0.122987 0.635908 0.812952
O O11 0.131131 0.500000 0.000000
O O12 0.500000 0.058466 0.750000
#
# Coordination Sequence:
#
# PCOD9316367 Si02
#       6
#     8   4   8   8   8   8
#     4  10  20  32  60  93 121 139 190 253 324 362
#     4  10  22  38  60  92 116 154 198 252 302 362
#     4  10  17  33  59  92 114 143 187 256 316 360
#     4   9  19  33  56  83 116 154 190 240 308 354
#     4  11  21  35  57  89 120 153 190 246 308 359
#     4  11  25  40  58  79 121 171 207 239 283 367
#
# _framework density 19.038060000000002
#
# number of rings (size 3 to 8) (size 9 to 14) (size 15 to 20)
#    0.000    1.818    7.273    0.000    3.818    5.818 
#    0.000    0.000    8.000    0.000    0.000    0.000 
#    0.000    0.000    0.000    0.000    0.000    0.000 
#
# Total GULP energy -122468.801055 kJ/mol
# GULP energy per Si atom -5566.763684 kJ/mol
# Density = 1.899473 g / cm^3
# Si number density = 19.038060 Si / 1000 Ang^3
#
#
#
# Elastic Constant Matrix: (Units=GPa)
#
#
# Indices 1 2 3 4 5 6 
#
# 1 23.2810 17.6748 31.5631 0.0000 0.0000 0.0000
# 2 17.6748 103.8686 69.1383 0.0000 0.0000 0.0000
# 3 31.5631 69.1383 124.5627 0.0000 0.0000 0.0000
# 4 0.0000 0.0000 0.0000 36.1692 0.0000 0.0000
# 5 0.0000 0.0000 0.0000 0.0000 9.9527 0.0000
# 6 0.0000 0.0000 0.0000 0.0000 0.0000 11.4205
#
#
#
# Elastic Compliance Matrix: (Units=1/GPa)
#
#
# Indices 1 2 3 4 5 6 
#
# 1 0.065433 -0.000156 -0.016494 0.000000 0.000000 0.000000
# 2 -0.000156 0.015269 -0.008436 0.000000 0.000000 0.000000
# 3 -0.016494 -0.008436 0.016890 0.000000 0.000000 0.000000
# 4 0.000000 0.000000 0.000000 0.027648 0.000000 0.000000
# 5 0.000000 0.000000 0.000000 0.000000 0.100475 0.000000
# 6 0.000000 0.000000 0.000000 0.000000 0.000000 0.087562
#
#
# Mechanical properties :
#
#
# Convention : Reuss Voigt Hill
#
# Bulk Modulus (GPa) = 21.08740 54.27386 37.68063
# Shear Modulus (GPa) = 13.18379 20.39757 16.79068
#
# Velocity S-wave (km/s) = 2.63439 3.27679 2.97299
# Velocity P-wave (km/s) = 4.51152 6.54877 5.62318
#
# Compressibility (1/GPa) = 0.04742168
#
# Stress axis : x y z
#
# Youngs Moduli (GPa) = 15.28280 65.49187 59.20781
#
# Poissons Ratio (x) = 0.01019 0.97656
# Poissons Ratio (y) = 0.00238 0.49946
# Poissons Ratio (z) = 0.25207 0.55247
#
# Static dielectric constant tensor:
#      x y z
#    x 1.667700 0.000000 0.000000 
#    y 0.000000 1.737090 0.000000 
#    z 0.000000 0.000000 1.698850 
# 
# From -- ./inp_files/16229.got.cif
#   From: 2010.05.17/outbox.cif.g08.bks.cpg/sg20_9_cif.got.tgz:16229.got - 2010.06.03 22:52:26.
