data_PCOD9316430
_publ_section_title
;
Structure prediction by ZEFSAII (Michael W. Deem and Ramdas Pophale) SiO2 
 PCOD9316430
Probable space group: C 2 2 21
;
_chemical_formula_sum "Si O2"
_cell_formula_units_Z 40
_cell_length_a 7.687603
_cell_length_b 24.679846
_cell_length_c 8.739997
_cell_angle_alpha 90.000000
_cell_angle_beta 90.000000
_cell_angle_gamma 90.000000
_cell_volume 1658.229651
_symmetry_space_group_name_H-M "C 2 2 21"
_symmetry_group_IT_number 20
_symmetry_cell_setting 'orthorhombic'
loop_
_space_group_symop_operation_xyz
x,y,z
-x,-y,1/2+z
x,-y,-z
-x,y,1/2-z
1/2+x,1/2+y,z
1/2-x,1/2-y,1/2+z
1/2+x,1/2-y,-z
1/2-x,1/2+y,1/2-z
loop_
_atom_site_type_symbol
_atom_site_label
_atom_site_fract_x
_atom_site_fract_y
_atom_site_fract_z
Si Si1 0.372020 0.667206 0.542364
Si Si2 0.832602 0.652174 0.652395
Si Si3 0.739431 0.942408 0.582517
Si Si4 0.454044 0.229336 0.072387
Si Si5 0.318771 0.940923 0.565523
O O1 0.299847 0.669942 0.715768
O O2 0.353574 0.605364 0.490867
O O3 0.535449 0.707341 0.524902
O O4 0.227065 0.699558 0.446943
O O5 0.753896 0.604895 0.549167
O O6 0.000000 0.630252 0.750000
O O7 0.917175 0.696915 0.541446
O O8 0.529911 0.932430 0.566787
O O9 0.760433 0.940202 0.765371
O O10 0.774726 0.000000 0.500000
O O11 0.500000 0.223647 0.250000
O O12 0.286692 0.000000 0.500000
#
# Coordination Sequence:
#
# PCOD9316430 Si02
#       5
#     8   8   8   8   8
#     4  11  22  37  59  87 121 156 198 244 293 355
#     4  10  19  32  49  77 115 150 189 237 290 347
#     4  10  19  32  55  84 117 153 197 247 298 345
#     4  11  22  38  57  85 118 159 197 241 293 346
#     4  10  18  28  51  80 118 153 188 246 303 343
#
# _framework density 24.122112999999999
#
# number of rings (size 3 to 8) (size 9 to 14) (size 15 to 20)
#    0.000    1.600    4.000    3.600    2.800    0.000 
#    0.000    2.000    0.000    0.000    0.000   19.600 
#    0.000    0.000    0.000    0.000    0.000    0.000 
#
# Total GULP energy -111893.913387 kJ/mol
# GULP energy per Si atom -5594.695669 kJ/mol
# Density = 2.406721 g / cm^3
# Si number density = 24.122113 Si / 1000 Ang^3
#
#
#
# Elastic Constant Matrix: (Units=GPa)
#
#
# Indices 1 2 3 4 5 6 
#
# 1 60.2692 14.1106 6.1936 0.0000 0.0000 0.0000
# 2 14.1106 163.2917 61.9563 0.0000 0.0000 0.0000
# 3 6.1936 61.9563 161.5662 0.0000 0.0000 0.0000
# 4 0.0000 0.0000 0.0000 38.4014 0.0000 0.0000
# 5 0.0000 0.0000 0.0000 0.0000 16.3163 0.0000
# 6 0.0000 0.0000 0.0000 0.0000 0.0000 -49.7962
#
#
#
# Elastic Compliance Matrix: (Units=1/GPa)
#
#
# Indices 1 2 3 4 5 6 
#
# 1 0.016936 -0.001424 -0.000103 0.000000 0.000000 0.000000
# 2 -0.001424 0.007287 -0.002740 0.000000 0.000000 0.000000
# 3 -0.000103 -0.002740 0.007244 0.000000 0.000000 0.000000
# 4 0.000000 0.000000 0.000000 0.026041 0.000000 0.000000
# 5 0.000000 0.000000 0.000000 0.000000 0.061288 0.000000
# 6 0.000000 0.000000 0.000000 0.000000 0.000000 -0.020082
#
#
# Mechanical properties :
#
#
# Convention : Reuss Voigt Hill
#
# Bulk Modulus (GPa) = 43.60587 61.07200 52.33894
# Shear Modulus (GPa) = 43.51907 21.17543 32.34725
#
# Velocity S-wave (km/s) = 4.25210 2.96606 3.66591
# Velocity P-wave (km/s) = 6.49796 6.09121 6.29787
#
# Compressibility (1/GPa) = 0.02293269
#
# Stress axis : x y z
#
# Youngs Moduli (GPa) = 59.04477 137.23903 138.04676
#
# Poissons Ratio (x) = 0.19549 0.01422
# Poissons Ratio (y) = 0.08411 0.37819
# Poissons Ratio (z) = 0.00608 0.37598
#
# Static dielectric constant tensor:
#      x y z
#    x 2.059550 0.000000 0.000000 
#    y 0.000000 1.885590 0.000000 
#    z 0.000000 0.000000 1.897970 
# 
# From -- ./inp_files/7221.got.cif
#   From: 2010.05.17/outbox.cif.g08.bks.cpg/sg20_4_cif.got.tgz:7221.got - 2010.06.03 22:52:26.
