data_PCOD9316877
_publ_section_title
;
Structure prediction by ZEFSAII (Michael W. Deem and Ramdas Pophale) SiO2 
 PCOD9316877
Probable space group: C 2 2 21
;
_chemical_formula_sum "Si O2"
_cell_formula_units_Z 44
_cell_length_a 6.989276
_cell_length_b 12.551965
_cell_length_c 18.363872
_cell_angle_alpha 90.000000
_cell_angle_beta 90.000000
_cell_angle_gamma 90.000000
_cell_volume 1611.046840
_symmetry_space_group_name_H-M "C 2 2 21"
_symmetry_group_IT_number 20
_symmetry_cell_setting 'orthorhombic'
loop_
_space_group_symop_operation_xyz
x,y,z
-x,-y,1/2+z
x,-y,-z
-x,y,1/2-z
1/2+x,1/2+y,z
1/2-x,1/2-y,1/2+z
1/2+x,1/2-y,-z
1/2-x,1/2+y,1/2-z
loop_
_atom_site_type_symbol
_atom_site_label
_atom_site_fract_x
_atom_site_fract_y
_atom_site_fract_z
Si Si1 0.439200 0.000000 0.000000
Si Si2 0.214476 0.082141 0.253535
Si Si3 0.970823 0.432236 0.154423
Si Si4 0.235970 0.784395 0.952274
Si Si5 0.688774 0.711285 0.393716
Si Si6 0.322284 0.696332 0.805133
O O1 0.537945 0.038217 0.926631
O O2 0.317585 0.898418 0.974426
O O3 0.258357 0.121076 0.337120
O O4 0.207189 0.200278 0.219674
O O5 0.000000 0.036435 0.250000
O O6 0.355308 0.024299 0.195724
O O7 0.831578 0.329278 0.143428
O O8 0.832036 0.398861 0.305294
O O9 0.360684 0.722367 0.890547
O O10 0.030033 0.806704 0.917722
O O11 0.211304 0.719073 0.027511
O O12 0.500000 0.688879 0.750000
#
# Coordination Sequence:
#
# PCOD9316877 Si02
#       6
#     4   8   8   8   8   8
#     4  10  18  42  84 128 166 222 294 370 440 536
#     4  12  22  49  88 129 172 229 290 371 442 522
#     4  10  22  45  86 137 176 224 300 359 447 533
#     4  10  21  43  79 123 171 233 284 363 446 530
#     4  10  23  43  81 123 177 225 292 358 440 532
#     4  11  25  48  83 127 182 231 286 363 440 527
#
# _framework density 27.311434999999999
#
# number of rings (size 3 to 8) (size 9 to 14) (size 15 to 20)
#    0.000    1.455    5.455    0.000    2.545    0.000 
#    3.273    0.909   16.000    0.000   18.909    0.000 
#    0.000    0.000    0.000    0.000    0.000    0.000 
#
# Total GULP energy -123163.095878 kJ/mol
# GULP energy per Si atom -5598.322540 kJ/mol
# Density = 2.724927 g / cm^3
# Si number density = 27.311435 Si / 1000 Ang^3
#
#
#
# Elastic Constant Matrix: (Units=GPa)
#
#
# Indices 1 2 3 4 5 6 
#
# 1 162.4107 42.5226 87.6845 0.0000 0.0000 0.0000
# 2 42.5226 100.7437 72.5064 0.0000 0.0000 0.0000
# 3 87.6845 72.5064 251.1042 0.0000 0.0000 0.0000
# 4 0.0000 0.0000 0.0000 66.9762 0.0000 0.0000
# 5 0.0000 0.0000 0.0000 0.0000 64.6897 0.0000
# 6 0.0000 0.0000 0.0000 0.0000 0.0000 47.2083
#
#
#
# Elastic Compliance Matrix: (Units=1/GPa)
#
#
# Indices 1 2 3 4 5 6 
#
# 1 0.007807 -0.001683 -0.002240 0.000000 0.000000 0.000000
# 2 -0.001683 0.012893 -0.003135 0.000000 0.000000 0.000000
# 3 -0.002240 -0.003135 0.005670 0.000000 0.000000 0.000000
# 4 0.000000 0.000000 0.000000 0.014931 0.000000 0.000000
# 5 0.000000 0.000000 0.000000 0.000000 0.015458 0.000000
# 6 0.000000 0.000000 0.000000 0.000000 0.000000 0.021183
#
#
# Mechanical properties :
#
#
# Convention : Reuss Voigt Hill
#
# Bulk Modulus (GPa) = 81.61010 102.18728 91.89869
# Shear Modulus (GPa) = 52.00550 56.54451 54.27500
#
# Velocity S-wave (km/s) = 4.36841 4.55506 4.46271
# Velocity P-wave (km/s) = 7.44246 8.07227 7.76375
#
# Compressibility (1/GPa) = 0.01225339
#
# Stress axis : x y z
#
# Youngs Moduli (GPa) = 128.08310 77.56172 176.36665
#
# Poissons Ratio (x) = 0.13054 0.39512
# Poissons Ratio (y) = 0.21556 0.55294
# Poissons Ratio (z) = 0.28695 0.24317
#
# Static dielectric constant tensor:
#      x y z
#    x 2.168760 0.000000 0.000000 
#    y 0.000000 2.167790 0.000000 
#    z 0.000000 0.000000 2.209180 
# 
# From -- ./inp_files/23356.got.cif
#   From: 2010.05.17/outbox.cif.g08.bks.cpg/sg20_12_cif.got.tgz:23356.got - 2010.06.03 22:52:26.
