data_PCOD9316177
_publ_section_title
;
Structure prediction by ZEFSAII (Michael W. Deem and Ramdas Pophale) SiO2 
 PCOD9316177
Probable space group: P 21 21 21
;
_chemical_formula_sum "Si O2"
_cell_formula_units_Z 24
_cell_length_a 9.000000
_cell_length_b 6.000000
_cell_length_c 18.000000
_cell_angle_alpha 90.000000
_cell_angle_beta 90.000000
_cell_angle_gamma 90.000000
_cell_volume 972.000000
_symmetry_space_group_name_H-M "P 21 21 21"
_symmetry_group_IT_number 19
_symmetry_cell_setting 'orthorhombic'
loop_
_space_group_symop_operation_xyz
x,y,z
1/2-x,-y,1/2+z
1/2+x,1/2-y,-z
-x,1/2+y,1/2-z
loop_
_atom_site_type_symbol
_atom_site_label
_atom_site_fract_x
_atom_site_fract_y
_atom_site_fract_z
Si Si1 0.666976 0.789560 0.073781
Si Si2 0.476831 0.807764 0.215717
Si Si3 0.815969 0.783488 0.409606
Si Si4 0.065132 0.528499 0.504732
Si Si5 0.146693 0.920390 0.206217
Si Si6 0.937314 0.587725 0.137487
O O1 0.596747 0.859424 0.151593
O O2 0.521018 0.692179 0.032890
O O3 0.790703 0.597044 0.087672
O O4 0.781084 0.969332 0.039055
O O5 0.517571 0.549183 0.239903
O O6 0.301365 0.788799 0.194684
O O7 0.644795 0.820288 0.432570
O O8 0.819590 0.656078 0.331553
O O9 0.929294 0.647256 0.462832
O O10 0.912705 0.004602 0.400626
O O11 0.997139 0.822824 0.168776
O O12 0.108593 0.940557 0.292336
#
# Coordination Sequence:
#
# PCOD9316177 Si02
#       6
#     4   4   4   4   4   4
#     4  12  28  51  78 114 158 210 266 331 404 486
#     4  12  31  50  83 120 161 206 268 342 414 478
#     4  12  28  48  79 109 152 208 265 333 396 491
#     4  12  29  49  77 110 160 211 270 324 401 489
#     4  12  27  45  79 113 155 196 264 332 415 471
#     4  12  25  49  78 112 150 201 261 338 404 479
#
# _framework density 24.691358000000001
#
# number of rings (size 3 to 8) (size 9 to 14) (size 15 to 20)
#    0.000    0.000    5.000    3.000   14.000    0.000 
#    0.000    0.000    0.000    0.000    0.000    0.000 
#    0.000    0.000    0.000    0.000    0.000    0.000 
#
# Total GULP energy -133901.195910 kJ/mol
# GULP energy per Si atom -5579.216496 kJ/mol
# Density = 2.463516 g / cm^3
# Si number density = 24.691358 Si / 1000 Ang^3
#
#
#
# Elastic Constant Matrix: (Units=GPa)
#
#
# Indices 1 2 3 4 5 6 
#
# 1 157.7593 5.5413 21.4030 0.0000 0.0000 0.0000
# 2 5.5413 62.5536 23.6080 0.0000 0.0000 0.0000
# 3 21.4030 23.6080 39.2159 0.0000 0.0000 0.0000
# 4 0.0000 0.0000 0.0000 26.5321 0.0000 0.0000
# 5 0.0000 0.0000 0.0000 0.0000 54.3940 0.0000
# 6 0.0000 0.0000 0.0000 0.0000 0.0000 56.2901
#
#
#
# Elastic Compliance Matrix: (Units=1/GPa)
#
#
# Indices 1 2 3 4 5 6 
#
# 1 0.006898 0.001048 -0.004396 0.000000 0.000000 0.000000
# 2 0.001048 0.020845 -0.013121 0.000000 0.000000 0.000000
# 3 -0.004396 -0.013121 0.035798 0.000000 0.000000 0.000000
# 4 0.000000 0.000000 0.000000 0.037690 0.000000 0.000000
# 5 0.000000 0.000000 0.000000 0.000000 0.018384 0.000000
# 6 0.000000 0.000000 0.000000 0.000000 0.000000 0.017765
#
#
# Mechanical properties :
#
#
# Convention : Reuss Voigt Hill
#
# Bulk Modulus (GPa) = 32.67549 40.07037 36.37293
# Shear Modulus (GPa) = 27.69781 41.37500 34.53641
#
# Velocity S-wave (km/s) = 3.35290 4.09796 3.74401
# Velocity P-wave (km/s) = 5.31522 6.21729 5.78387
#
# Compressibility (1/GPa) = 0.03060398
#
# Stress axis : x y z
#
# Youngs Moduli (GPa) = 144.96264 47.97236 27.93478
#
# Poissons Ratio (x) = -0.05027 0.12279
# Poissons Ratio (y) = -0.15190 0.36653
# Poissons Ratio (z) = 0.63722 0.62944
#
# Static dielectric constant tensor:
#      x y z
#    x 1.857730 0.000000 0.000000 
#    y 0.000000 2.105600 0.000000 
#    z 0.000000 0.000000 2.110800 
# 
# From -- ./inp_files/422.got.cif
#   From: 2010.05.17/outbox.ucp.g08.bks.cvg/sg19_1_cif.got.tgz:422.got - 2010.06.11 13:13:52.
