data_PCOD9316450
_publ_section_title
;
Structure prediction by ZEFSAII (Michael W. Deem and Ramdas Pophale) SiO2 
 PCOD9316450
Probable space group: C 2 2 21
;
_chemical_formula_sum "Si O2"
_cell_formula_units_Z 48
_cell_length_a 11.172075
_cell_length_b 24.578201
_cell_length_c 7.669307
_cell_angle_alpha 90.000000
_cell_angle_beta 90.000000
_cell_angle_gamma 90.000000
_cell_volume 2105.911212
_symmetry_space_group_name_H-M "C 2 2 21"
_symmetry_group_IT_number 20
_symmetry_cell_setting 'orthorhombic'
loop_
_space_group_symop_operation_xyz
x,y,z
-x,-y,1/2+z
x,-y,-z
-x,y,1/2-z
1/2+x,1/2+y,z
1/2-x,1/2-y,1/2+z
1/2+x,1/2-y,-z
1/2-x,1/2+y,1/2-z
loop_
_atom_site_type_symbol
_atom_site_label
_atom_site_fract_x
_atom_site_fract_y
_atom_site_fract_z
Si Si1 0.235636 0.590657 0.704966
Si Si2 0.045244 0.327252 0.433562
Si Si3 0.199778 0.631889 0.090451
Si Si4 0.639577 0.981643 0.797889
Si Si5 0.756912 0.775530 0.663346
Si Si6 0.121908 0.186652 0.851812
O O1 0.115878 0.618547 0.629372
O O2 0.216908 0.526566 0.695912
O O3 0.342525 0.624104 0.615689
O O4 0.248724 0.608281 0.908461
O O5 0.139423 0.294530 0.552228
O O6 0.000000 0.302128 0.250000
O O7 0.931538 0.344844 0.546304
O O8 0.185797 0.579896 0.216453
O O9 0.269839 0.680979 0.181141
O O10 0.500000 0.984134 0.750000
O O11 0.646085 0.000000 0.000000
O O12 0.867442 0.781173 0.532503
O O13 0.724493 0.716616 0.736297
O O14 0.000000 0.191823 0.750000
#
# Coordination Sequence:
#
# PCOD9316450 Si02
#       6
#     8   8   8   8   8   8
#     4   9  19  34  51  78 117 156 191 225 277 343
#     4   9  17  31  53  82 116 147 181 229 288 348
#     4  10  18  32  55  87 119 148 188 239 291 342
#     4  10  18  29  52  84 118 152 186 235 293 341
#     4  11  22  37  58  83 109 145 188 238 292 347
#     4  11  24  41  60  82 113 152 192 238 291 353
#
# _framework density 22.792981999999999
#
# number of rings (size 3 to 8) (size 9 to 14) (size 15 to 20)
#    0.000    2.000    0.000    6.000    0.000    4.000 
#    0.000    2.500    0.000    6.000    0.000    0.000 
#    0.000    0.000    0.000    0.000    0.000    0.000 
#
# Total GULP energy -134221.652569 kJ/mol
# GULP energy per Si atom -5592.568857 kJ/mol
# Density = 2.274110 g / cm^3
# Si number density = 22.792982 Si / 1000 Ang^3
#
#
#
# Elastic Constant Matrix: (Units=GPa)
#
#
# Indices 1 2 3 4 5 6 
#
# 1 44.2295 9.8399 7.5215 0.0000 0.0000 0.0000
# 2 9.8399 144.7877 18.6720 0.0000 0.0000 0.0000
# 3 7.5215 18.6720 70.0433 0.0000 0.0000 0.0000
# 4 0.0000 0.0000 0.0000 38.3190 0.0000 0.0000
# 5 0.0000 0.0000 0.0000 0.0000 40.5585 0.0000
# 6 0.0000 0.0000 0.0000 0.0000 0.0000 20.5976
#
#
#
# Elastic Compliance Matrix: (Units=1/GPa)
#
#
# Indices 1 2 3 4 5 6 
#
# 1 0.023265 -0.001304 -0.002151 0.000000 0.000000 0.000000
# 2 -0.001304 0.007226 -0.001786 0.000000 0.000000 0.000000
# 3 -0.002151 -0.001786 0.014984 0.000000 0.000000 0.000000
# 4 0.000000 0.000000 0.000000 0.026097 0.000000 0.000000
# 5 0.000000 0.000000 0.000000 0.000000 0.024656 0.000000
# 6 0.000000 0.000000 0.000000 0.000000 0.000000 0.048549
#
#
# Mechanical properties :
#
#
# Convention : Reuss Voigt Hill
#
# Bulk Modulus (GPa) = 28.57681 36.79191 32.68436
# Shear Modulus (GPa) = 29.95403 34.76349 32.35876
#
# Velocity S-wave (km/s) = 3.62909 3.90960 3.77195
# Velocity P-wave (km/s) = 5.48864 6.04622 5.77416
#
# Compressibility (1/GPa) = 0.03499341
#
# Stress axis : x y z
#
# Youngs Moduli (GPa) = 42.98272 138.39652 66.73787
#
# Poissons Ratio (x) = 0.18043 0.14354
# Poissons Ratio (y) = 0.05604 0.11921
# Poissons Ratio (z) = 0.09244 0.24720
#
# Static dielectric constant tensor:
#      x y z
#    x 1.828770 0.000000 0.000000 
#    y 0.000000 1.861680 0.000000 
#    z 0.000000 0.000000 1.937570 
# 
# From -- ./inp_files/7375.got.cif
#   From: 2010.05.17/outbox.cif.g08.bks.cpg/sg20_4_cif.got.tgz:7375.got - 2010.06.03 22:52:26.
