data_PCOD9316633
_publ_section_title
;
Structure prediction by ZEFSAII (Michael W. Deem and Ramdas Pophale) SiO2 
 PCOD9316633
Probable space group: C 2 2 21
;
_chemical_formula_sum "Si O2"
_cell_formula_units_Z 60
_cell_length_a 7.732026
_cell_length_b 14.182052
_cell_length_c 23.271616
_cell_angle_alpha 90.000000
_cell_angle_beta 90.000000
_cell_angle_gamma 90.000000
_cell_volume 2551.872203
_symmetry_space_group_name_H-M "C 2 2 21"
_symmetry_group_IT_number 20
_symmetry_cell_setting 'orthorhombic'
loop_
_space_group_symop_operation_xyz
x,y,z
-x,-y,1/2+z
x,-y,-z
-x,y,1/2-z
1/2+x,1/2+y,z
1/2-x,1/2-y,1/2+z
1/2+x,1/2-y,-z
1/2-x,1/2+y,1/2-z
loop_
_atom_site_type_symbol
_atom_site_label
_atom_site_fract_x
_atom_site_fract_y
_atom_site_fract_z
Si Si1 0.111444 0.370380 0.337287
Si Si2 0.586585 0.602948 0.974773
Si Si3 0.055985 0.561131 0.943316
Si Si4 0.268858 0.835220 0.643162
Si Si5 0.000000 0.688818 0.250000
Si Si6 0.596546 0.517418 0.627461
Si Si7 0.740275 0.361021 0.277888
Si Si8 0.767406 0.703348 0.484281
O O1 0.086557 0.432653 0.393896
O O2 0.197293 0.269549 0.347945
O O3 0.215433 0.408947 0.282898
O O4 0.918219 0.352418 0.313062
O O5 0.540343 0.575819 0.909491
O O6 0.728725 0.683421 0.984248
O O7 0.621169 0.500000 0.000000
O O8 0.414141 0.650234 0.003610
O O9 0.229374 0.525353 0.911585
O O10 0.021373 0.500000 0.000000
O O11 0.109318 0.664540 0.965687
O O12 0.407035 0.860132 0.694174
O O13 0.341294 0.828090 0.577973
O O14 0.105673 0.906854 0.641632
O O15 0.149527 0.759779 0.272269
O O16 0.618525 0.572529 0.685886
#
# Coordination Sequence:
#
# PCOD9316633 Si02
#       8
#     8   8   8   8   4   8   8   8
#     4   9  20  35  62  84 121 159 203 260 324 381
#     4  11  22  40  64  91 129 173 220 269 336 392
#     4  10  18  34  57  90 120 157 208 253 315 387
#     4  11  20  37  58  90 118 165 208 257 328 386
#     4  10  22  36  60  86 122 152 214 264 314 404
#     4  10  19  36  61  84 121 161 203 262 319 386
#     4   9  19  39  58  85 112 161 203 255 326 378
#     4  11  21  38  63  91 127 172 214 264 330 389
#
# _framework density 23.512146999999999
#
# number of rings (size 3 to 8) (size 9 to 14) (size 15 to 20)
#    0.000    1.867    2.667    2.400    0.000    2.133 
#    0.000    6.000    0.000    0.000    0.000    0.933 
#    0.000    0.000    0.000    0.000    0.000    0.000 
#
# Total GULP energy -167490.783058 kJ/mol
# GULP energy per Si atom -5583.026102 kJ/mol
# Density = 2.345863 g / cm^3
# Si number density = 23.512147 Si / 1000 Ang^3
#
#
#
# Elastic Constant Matrix: (Units=GPa)
#
#
# Indices 1 2 3 4 5 6 
#
# 1 101.7022 4.0493 18.9333 0.0000 0.0000 0.0000
# 2 4.0493 100.1560 18.4788 0.0000 0.0000 0.0000
# 3 18.9333 18.4788 121.3857 0.0000 0.0000 0.0000
# 4 0.0000 0.0000 0.0000 37.8296 0.0000 0.0000
# 5 0.0000 0.0000 0.0000 0.0000 16.2885 0.0000
# 6 0.0000 0.0000 0.0000 0.0000 0.0000 25.9321
#
#
#
# Elastic Compliance Matrix: (Units=1/GPa)
#
#
# Indices 1 2 3 4 5 6 
#
# 1 0.010128 -0.000121 -0.001561 0.000000 0.000000 0.000000
# 2 -0.000121 0.010274 -0.001545 0.000000 0.000000 0.000000
# 3 -0.001561 -0.001545 0.008717 0.000000 0.000000 0.000000
# 4 0.000000 0.000000 0.000000 0.026434 0.000000 0.000000
# 5 0.000000 0.000000 0.000000 0.000000 0.061393 0.000000
# 6 0.000000 0.000000 0.000000 0.000000 0.000000 0.038562
#
#
# Mechanical properties :
#
#
# Convention : Reuss Voigt Hill
#
# Bulk Modulus (GPa) = 44.12325 45.12963 44.62644
# Shear Modulus (GPa) = 29.49519 34.79556 32.14538
#
# Velocity S-wave (km/s) = 3.54569 3.85112 3.70155
# Velocity P-wave (km/s) = 5.96401 6.24585 6.10656
#
# Compressibility (1/GPa) = 0.02266379
#
# Stress axis : x y z
#
# Youngs Moduli (GPa) = 98.73511 97.32914 114.71907
#
# Poissons Ratio (x) = 0.01182 0.17911
# Poissons Ratio (y) = 0.01199 0.17726
# Poissons Ratio (z) = 0.15415 0.15039
#
# Static dielectric constant tensor:
#      x y z
#    x 1.944640 0.000000 0.000000 
#    y 0.000000 1.911560 0.000000 
#    z 0.000000 0.000000 1.947200 
# 
# From -- ./inp_files/28839.got.cif
#   From: 2010.05.17/outbox.cif.g08.bks.cpg/sg20_15_cif.got.tgz:28839.got - 2010.06.03 22:52:26.
