data_PCOD9316667
_publ_section_title
;
Structure prediction by ZEFSAII (Michael W. Deem and Ramdas Pophale) SiO2 
 PCOD9316667
Probable space group: C 2 2 21
;
_chemical_formula_sum "Si O2"
_cell_formula_units_Z 28
_cell_length_a 7.392010
_cell_length_b 12.044504
_cell_length_c 12.107661
_cell_angle_alpha 90.000000
_cell_angle_beta 90.000000
_cell_angle_gamma 90.000000
_cell_volume 1077.982520
_symmetry_space_group_name_H-M "C 2 2 21"
_symmetry_group_IT_number 20
_symmetry_cell_setting 'orthorhombic'
loop_
_space_group_symop_operation_xyz
x,y,z
-x,-y,1/2+z
x,-y,-z
-x,y,1/2-z
1/2+x,1/2+y,z
1/2-x,1/2-y,1/2+z
1/2+x,1/2-y,-z
1/2-x,1/2+y,1/2-z
loop_
_atom_site_type_symbol
_atom_site_label
_atom_site_fract_x
_atom_site_fract_y
_atom_site_fract_z
Si Si1 0.207446 0.159365 0.708358
Si Si2 0.160185 0.600790 0.569490
Si Si3 0.058005 0.148291 0.480541
Si Si4 0.500000 0.653150 0.250000
O O1 0.309081 0.083107 0.799338
O O2 0.195932 0.126412 0.580134
O O3 0.325287 0.272284 0.717590
O O4 0.000000 0.176808 0.750000
O O5 0.078943 0.500000 0.500000
O O6 0.072201 0.720201 0.545693
O O7 0.362207 0.618816 0.524875
O O8 0.065507 0.091647 0.360017
#
# Coordination Sequence:
#
# PCOD9316667 Si02
#       4
#     8   8   8   4
#     4   9  19  36  61  90 127 173 222 276 338 401
#     4  10  21  39  65  91 128 174 219 282 339 400
#     4  10  19  39  63  92 131 171 220 278 338 402
#     4  10  18  34  64  88 132 182 208 282 350 384
#
# _framework density 25.974446
#
# number of rings (size 3 to 8) (size 9 to 14) (size 15 to 20)
#    0.000    2.286    2.857    0.000    0.000    0.000 
#    7.714    1.429   37.714    0.000    0.000    0.000 
#    0.000    0.000    0.000    0.000    0.000    0.000 
#
# Total GULP energy -78214.449624 kJ/mol
# GULP energy per Si atom -5586.746402 kJ/mol
# Density = 2.591533 g / cm^3
# Si number density = 25.974446 Si / 1000 Ang^3
#
#
#
# Elastic Constant Matrix: (Units=GPa)
#
#
# Indices 1 2 3 4 5 6 
#
# 1 103.2107 38.3746 40.5856 0.0000 0.0000 0.0000
# 2 38.3746 113.6712 38.2454 0.0000 0.0000 0.0000
# 3 40.5856 38.2454 278.1708 0.0000 0.0000 0.0000
# 4 0.0000 0.0000 0.0000 13.6419 0.0000 0.0000
# 5 0.0000 0.0000 0.0000 0.0000 27.3176 0.0000
# 6 0.0000 0.0000 0.0000 0.0000 0.0000 23.3132
#
#
#
# Elastic Compliance Matrix: (Units=1/GPa)
#
#
# Indices 1 2 3 4 5 6 
#
# 1 0.011446 -0.003462 -0.001194 0.000000 0.000000 0.000000
# 2 -0.003462 0.010271 -0.000907 0.000000 0.000000 0.000000
# 3 -0.001194 -0.000907 0.003894 0.000000 0.000000 0.000000
# 4 0.000000 0.000000 0.000000 0.073304 0.000000 0.000000
# 5 0.000000 0.000000 0.000000 0.000000 0.036606 0.000000
# 6 0.000000 0.000000 0.000000 0.000000 0.000000 0.042894
#
#
# Mechanical properties :
#
#
# Convention : Reuss Voigt Hill
#
# Bulk Modulus (GPa) = 69.04004 81.05156 75.04580
# Shear Modulus (GPa) = 25.72416 38.04434 31.88425
#
# Velocity S-wave (km/s) = 3.15042 3.83127 3.50740
# Velocity P-wave (km/s) = 6.31437 7.13047 6.73479
#
# Compressibility (1/GPa) = 0.01448435
#
# Stress axis : x y z
#
# Youngs Moduli (GPa) = 87.36896 97.35840 256.81744
#
# Poissons Ratio (x) = 0.33708 0.30662
# Poissons Ratio (y) = 0.30250 0.23294
# Poissons Ratio (z) = 0.10431 0.08831
#
# Static dielectric constant tensor:
#      x y z
#    x 1.972280 0.000000 0.000000 
#    y 0.000000 2.117840 0.000000 
#    z 0.000000 0.000000 2.224610 
# 
# From -- ./inp_files/12380.got.cif
#   From: 2010.05.17/outbox.cif.g08.bks.cpg/sg20_7_cif.got.tgz:12380.got - 2010.06.03 22:52:26.
