data_PCOD9316569
_publ_section_title
;
Structure prediction by ZEFSAII (Michael W. Deem and Ramdas Pophale) SiO2 
 PCOD9316569
Probable space group: C 2 2 21
;
_chemical_formula_sum "Si O2"
_cell_formula_units_Z 48
_cell_length_a 19.209047
_cell_length_b 8.437332
_cell_length_c 16.559838
_cell_angle_alpha 90.000000
_cell_angle_beta 90.000000
_cell_angle_gamma 90.000000
_cell_volume 2683.904395
_symmetry_space_group_name_H-M "C 2 2 21"
_symmetry_group_IT_number 20
_symmetry_cell_setting 'orthorhombic'
loop_
_space_group_symop_operation_xyz
x,y,z
-x,-y,1/2+z
x,-y,-z
-x,y,1/2-z
1/2+x,1/2+y,z
1/2-x,1/2-y,1/2+z
1/2+x,1/2-y,-z
1/2-x,1/2+y,1/2-z
loop_
_atom_site_type_symbol
_atom_site_label
_atom_site_fract_x
_atom_site_fract_y
_atom_site_fract_z
Si Si1 0.918031 0.564284 0.262708
Si Si2 0.807601 0.634195 0.826368
Si Si3 0.807601 0.865806 0.673631
Si Si4 0.418031 0.435716 0.237292
Si Si5 0.327773 0.058218 0.590300
Si Si6 0.827773 0.058218 0.090300
O O1 0.876863 0.457796 0.198884
O O2 0.903009 0.750000 0.250000
O O3 0.885271 0.509538 0.348183
O O4 0.000000 0.540276 0.250000
O O5 0.788707 0.750000 0.750000
O O6 0.750000 0.500000 0.839664
O O7 0.822547 0.752657 0.899627
O O8 0.822547 0.747344 0.600373
O O9 0.876863 0.957795 0.698883
O O10 0.500000 0.459724 0.250000
O O11 0.385271 0.490461 0.151817
O O12 0.341010 0.000000 0.500000
O O13 0.250000 0.000000 0.613896
O O14 0.841010 0.000000 0.000000
#
# Coordination Sequence:
#
# PCOD9316569 Si02
#       6
#     8   8   8   8   8   8
#     4  10  20  36  56  81 112 149 191 227 269 331
#     4  10  18  32  58  83 109 147 191 229 269 330
#     4  10  18  32  58  83 109 147 191 229 269 330
#     4  10  20  36  56  81 112 149 191 227 269 331
#     4  10  21  37  56  82 116 144 179 235 283 324
#     4  10  21  37  56  82 116 144 179 235 283 324
#
# _framework density 17.884391999999998
#
# number of rings (size 3 to 8) (size 9 to 14) (size 15 to 20)
#    0.000    2.000    0.000    7.000    0.000    6.000 
#    0.000   18.333    0.000    0.000    0.000    0.000 
#    0.000    0.000    0.000    0.000    0.000    0.000 
#
# Total GULP energy -133889.051296 kJ/mol
# GULP energy per Si atom -5578.710471 kJ/mol
# Density = 1.784369 g / cm^3
# Si number density = 17.884392 Si / 1000 Ang^3
#
#
#
# Elastic Constant Matrix: (Units=GPa)
#
#
# Indices 1 2 3 4 5 6 
#
# 1 122.9484 80.0572 59.2995 0.0000 0.0000 0.0000
# 2 80.0572 171.4912 66.1297 0.0000 0.0000 0.0000
# 3 59.2995 66.1297 85.6505 0.0000 0.0000 0.0000
# 4 0.0000 0.0000 0.0000 22.2545 0.0000 0.0000
# 5 0.0000 0.0000 0.0000 0.0000 15.8283 0.0000
# 6 0.0000 0.0000 0.0000 0.0000 0.0000 37.1193
#
#
#
# Elastic Compliance Matrix: (Units=1/GPa)
#
#
# Indices 1 2 3 4 5 6 
#
# 1 0.013862 -0.003945 -0.006552 0.000000 0.000000 0.000000
# 2 -0.003945 0.009426 -0.004546 0.000000 0.000000 0.000000
# 3 -0.006552 -0.004546 0.019722 0.000000 0.000000 0.000000
# 4 0.000000 0.000000 0.000000 0.044935 0.000000 0.000000
# 5 0.000000 0.000000 0.000000 0.000000 0.063178 0.000000
# 6 0.000000 0.000000 0.000000 0.000000 0.000000 0.026940
#
#
# Mechanical properties :
#
#
# Convention : Reuss Voigt Hill
#
# Bulk Modulus (GPa) = 77.37639 87.89590 82.63614
# Shear Modulus (GPa) = 23.53428 26.68067 25.10748
#
# Velocity S-wave (km/s) = 3.63149 3.86663 3.75090
# Velocity P-wave (km/s) = 7.80655 8.31792 8.06629
#
# Compressibility (1/GPa) = 0.01292384
#
# Stress axis : x y z
#
# Youngs Moduli (GPa) = 72.13952 106.08986 50.70601
#
# Poissons Ratio (x) = 0.41851 0.33220
# Poissons Ratio (y) = 0.28458 0.23053
# Poissons Ratio (z) = 0.47262 0.48234
#
# Static dielectric constant tensor:
#      x y z
#    x 1.620830 0.000000 0.000000 
#    y 0.000000 1.651270 0.000000 
#    z 0.000000 0.000000 1.629350 
# 
# From -- ./inp_files/23611.got.cif
#   From: 2010.05.17/outbox.cif.g08.bks.cpg/sg20_12_cif.got.tgz:23611.got - 2010.06.03 22:52:26.
