data_PCOD9316000
_publ_section_title
;
Structure prediction by ZEFSAII (Michael W. Deem and Ramdas Pophale) SiO2 
 PCOD9316000
Probable space group: P 21 21 21
;
_chemical_formula_sum "Si O2"
_cell_formula_units_Z 28
_cell_length_a 14.019713
_cell_length_b 5.983819
_cell_length_c 14.483138
_cell_angle_alpha 90.000000
_cell_angle_beta 90.000000
_cell_angle_gamma 90.000000
_cell_volume 1215.011086
_symmetry_space_group_name_H-M "P 21 21 21"
_symmetry_group_IT_number 19
_symmetry_cell_setting 'orthorhombic'
loop_
_space_group_symop_operation_xyz
x,y,z
1/2-x,-y,1/2+z
1/2+x,1/2-y,-z
-x,1/2+y,1/2-z
loop_
_atom_site_type_symbol
_atom_site_label
_atom_site_fract_x
_atom_site_fract_y
_atom_site_fract_z
Si Si1 0.352780 0.161750 0.431233
Si Si2 0.954723 0.166081 0.730439
Si Si3 0.251338 0.166823 0.807578
Si Si4 0.763791 0.042954 0.822699
Si Si5 0.008087 0.941789 0.090168
Si Si6 0.091009 0.189680 0.252644
Si Si7 0.304414 0.500874 0.971193
O O1 0.423399 0.328975 0.377364
O O2 0.400307 0.099549 0.527592
O O3 0.249450 0.270146 0.446877
O O4 0.333306 0.963213 0.359406
O O5 0.854572 0.178047 0.785857
O O6 0.005509 0.410687 0.749663
O O7 0.219511 0.292901 0.714806
O O8 0.283270 0.338751 0.886535
O O9 0.339898 0.013946 0.778774
O O10 0.665958 0.118562 0.774895
O O11 0.760555 0.071413 0.931742
O O12 0.974869 0.748234 0.160649
O O13 0.918051 0.979244 0.023609
O O14 0.029633 0.138821 0.162091
#
# Coordination Sequence:
#
# PCOD9316000 Si02
#       7
#     4   4   4   4   4   4   4
#     4  12  26  48  73 110 157 200 265 335 403 488
#     4  12  26  48  77 113 158 208 269 334 410 499
#     4  12  22  51  77 104 162 204 263 332 410 491
#     4  12  26  48  78 108 154 211 262 330 422 474
#     4  12  26  48  73 116 148 203 270 328 405 490
#     4  12  26  49  76 108 155 204 259 339 399 486
#     4  12  26  48  74 111 148 204 262 326 405 486
#
# _framework density 23.045055000000001
#
# number of rings (size 3 to 8) (size 9 to 14) (size 15 to 20)
#    0.000    0.000    5.714    4.286    2.000    1.143 
#    7.714    0.000    0.000    0.000    0.000    0.000 
#    0.000    0.000    0.000    0.000    0.000    0.000 
#
# Total GULP energy -156502.228795 kJ/mol
# GULP energy per Si atom -5589.365314 kJ/mol
# Density = 2.299260 g / cm^3
# Si number density = 23.045055 Si / 1000 Ang^3
#
#
#
# Elastic Constant Matrix: (Units=GPa)
#
#
# Indices 1 2 3 4 5 6 
#
# 1 92.7459 38.6780 5.8540 0.0000 0.0000 0.0000
# 2 38.6780 69.4479 16.6286 0.0000 0.0000 0.0000
# 3 5.8540 16.6286 91.6101 0.0000 0.0000 0.0000
# 4 0.0000 0.0000 0.0000 19.5550 0.0000 0.0000
# 5 0.0000 0.0000 0.0000 0.0000 39.0956 0.0000
# 6 0.0000 0.0000 0.0000 0.0000 0.0000 47.7052
#
#
#
# Elastic Compliance Matrix: (Units=1/GPa)
#
#
# Indices 1 2 3 4 5 6 
#
# 1 0.014070 -0.007967 0.000547 0.000000 0.000000 0.000000
# 2 -0.007967 0.019565 -0.003042 0.000000 0.000000 0.000000
# 3 0.000547 -0.003042 0.011433 0.000000 0.000000 0.000000
# 4 0.000000 0.000000 0.000000 0.051138 0.000000 0.000000
# 5 0.000000 0.000000 0.000000 0.000000 0.025578 0.000000
# 6 0.000000 0.000000 0.000000 0.000000 0.000000 0.020962
#
#
# Mechanical properties :
#
#
# Convention : Reuss Voigt Hill
#
# Bulk Modulus (GPa) = 41.41897 41.79167 41.60532
# Shear Modulus (GPa) = 29.11735 34.11406 31.61570
#
# Velocity S-wave (km/s) = 3.55843 3.85167 3.70795
# Velocity P-wave (km/s) = 5.90722 6.16073 6.03531
#
# Compressibility (1/GPa) = 0.02414353
#
# Stress axis : x y z
#
# Youngs Moduli (GPa) = 71.07223 51.11184 87.46558
#
# Poissons Ratio (x) = 0.40722 -0.04785
# Poissons Ratio (y) = 0.56625 0.26609
# Poissons Ratio (z) = -0.03888 0.15549
#
# Static dielectric constant tensor:
#      x y z
#    x 1.906050 0.000000 0.000000 
#    y 0.000000 1.957160 0.000000 
#    z 0.000000 0.000000 1.851420 
# 
# From -- ./inp_files/5693.got.cif
#   From: 2010.05.17/outbox.cif.g08.bks.cpg/sg19_3_cif.got.tgz:5693.got - 2010.06.03 22:46:19.
