data_PCOD9316762
_publ_section_title
;
Structure prediction by ZEFSAII (Michael W. Deem and Ramdas Pophale) SiO2 
 PCOD9316762
Probable space group: C 2 2 21
;
_chemical_formula_sum "Si O2"
_cell_formula_units_Z 40
_cell_length_a 7.117957
_cell_length_b 23.444092
_cell_length_c 9.853697
_cell_angle_alpha 90.000000
_cell_angle_beta 90.000000
_cell_angle_gamma 90.000000
_cell_volume 1644.326215
_symmetry_space_group_name_H-M "C 2 2 21"
_symmetry_group_IT_number 20
_symmetry_cell_setting 'orthorhombic'
loop_
_space_group_symop_operation_xyz
x,y,z
-x,-y,1/2+z
x,-y,-z
-x,y,1/2-z
1/2+x,1/2+y,z
1/2-x,1/2-y,1/2+z
1/2+x,1/2-y,-z
1/2-x,1/2+y,1/2-z
loop_
_atom_site_type_symbol
_atom_site_label
_atom_site_fract_x
_atom_site_fract_y
_atom_site_fract_z
Si Si1 0.000000 0.477452 0.750000
Si Si2 0.796261 0.214045 0.203694
Si Si3 0.709124 0.621627 0.511724
Si Si4 0.722203 0.158946 0.700427
Si Si5 0.244654 0.500000 0.000000
Si Si6 0.645318 0.878464 0.583979
O O1 0.889356 0.510285 0.631818
O O2 0.851012 0.435687 0.826412
O O3 0.709249 0.275784 0.175011
O O4 0.695709 0.174687 0.317488
O O5 0.000000 0.231892 0.250000
O O6 0.851271 0.174908 0.076507
O O7 0.679535 0.633495 0.668317
O O8 0.643324 0.558061 0.475480
O O9 0.929193 0.622463 0.465169
O O10 0.500000 0.155186 0.750000
O O11 0.751020 0.126161 0.558676
#
# Coordination Sequence:
#
# PCOD9316762 Si02
#       6
#     4   8   8   8   4   8
#     4  10  20  32  58  86 106 136 180 238 280 324
#     4  11  20  35  54  81 113 154 185 220 276 335
#     4  10  20  37  56  85 111 143 185 237 281 323
#     4   9  20  32  56  82 114 143 186 233 273 331
#     4  10  20  32  58  86 110 134 182 236 286 316
#     4  10  18  37  53  83 109 143 184 229 281 318
#
# _framework density 24.326073000000001
#
# number of rings (size 3 to 8) (size 9 to 14) (size 15 to 20)
#    0.000    2.000    4.000    1.200    7.000    0.000 
#    0.000    1.000    0.000    7.200    0.000    0.000 
#    0.000    0.000    0.000    0.000    0.000    0.000 
#
# Total GULP energy -111592.835752 kJ/mol
# GULP energy per Si atom -5579.641788 kJ/mol
# Density = 2.427071 g / cm^3
# Si number density = 24.326073 Si / 1000 Ang^3
#
#
#
# Elastic Constant Matrix: (Units=GPa)
#
#
# Indices 1 2 3 4 5 6 
#
# 1 36.5243 5.2135 8.1025 0.0000 0.0000 0.0000
# 2 5.2135 99.8019 35.8418 0.0000 0.0000 0.0000
# 3 8.1025 35.8418 182.0424 0.0000 0.0000 0.0000
# 4 0.0000 0.0000 0.0000 32.7872 0.0000 0.0000
# 5 0.0000 0.0000 0.0000 0.0000 28.1562 0.0000
# 6 0.0000 0.0000 0.0000 0.0000 0.0000 18.0082
#
#
#
# Elastic Compliance Matrix: (Units=1/GPa)
#
#
# Indices 1 2 3 4 5 6 
#
# 1 0.027760 -0.001083 -0.001022 0.000000 0.000000 0.000000
# 2 -0.001083 0.010824 -0.002083 0.000000 0.000000 0.000000
# 3 -0.001022 -0.002083 0.005949 0.000000 0.000000 0.000000
# 4 0.000000 0.000000 0.000000 0.030500 0.000000 0.000000
# 5 0.000000 0.000000 0.000000 0.000000 0.035516 0.000000
# 6 0.000000 0.000000 0.000000 0.000000 0.000000 0.055530
#
#
# Mechanical properties :
#
#
# Convention : Reuss Voigt Hill
#
# Bulk Modulus (GPa) = 27.65712 46.29824 36.97768
# Shear Modulus (GPa) = 26.80838 33.73771 30.27304
#
# Velocity S-wave (km/s) = 3.32330 3.72814 3.53153
# Velocity P-wave (km/s) = 5.11076 6.13235 5.64471
#
# Compressibility (1/GPa) = 0.03615705
#
# Stress axis : x y z
#
# Youngs Moduli (GPa) = 36.02248 92.38311 168.09981
#
# Poissons Ratio (x) = 0.10005 0.17186
# Poissons Ratio (y) = 0.03901 0.35015
# Poissons Ratio (z) = 0.03683 0.19243
#
# Static dielectric constant tensor:
#      x y z
#    x 2.015390 0.000000 0.000000 
#    y 0.000000 2.013410 0.000000 
#    z 0.000000 0.000000 1.924880 
# 
# From -- ./inp_files/6289.got.cif
#   From: 2010.05.17/outbox.cif.g08.bks.cpg/sg20_4_cif.got.tgz:6289.got - 2010.06.03 22:52:26.
