data_PCOD9316950
_publ_section_title
;
Structure prediction by ZEFSAII (Michael W. Deem and Ramdas Pophale) SiO2 
 PCOD9316950
Probable space group: C 2 2 21
;
_chemical_formula_sum "Si O2"
_cell_formula_units_Z 48
_cell_length_a 7.706686
_cell_length_b 22.473316
_cell_length_c 13.318665
_cell_angle_alpha 90.000000
_cell_angle_beta 90.000000
_cell_angle_gamma 90.000000
_cell_volume 2306.723385
_symmetry_space_group_name_H-M "C 2 2 21"
_symmetry_group_IT_number 20
_symmetry_cell_setting 'orthorhombic'
loop_
_space_group_symop_operation_xyz
x,y,z
-x,-y,1/2+z
x,-y,-z
-x,y,1/2-z
1/2+x,1/2+y,z
1/2-x,1/2-y,1/2+z
1/2+x,1/2-y,-z
1/2-x,1/2+y,1/2-z
loop_
_atom_site_type_symbol
_atom_site_label
_atom_site_fract_x
_atom_site_fract_y
_atom_site_fract_z
Si Si1 0.000103 0.906066 0.867884
Si Si2 0.155604 0.681364 0.603885
Si Si3 0.683259 0.656419 0.689702
Si Si4 0.530344 0.294240 0.497565
Si Si5 0.212152 0.564660 0.508865
Si Si6 0.939673 0.965160 0.136134
O O1 0.000000 0.894649 0.750000
O O2 0.897880 0.967244 0.896542
O O3 0.933412 0.849777 0.929370
O O4 0.199338 0.917123 0.903768
O O5 0.184033 0.674279 0.723050
O O6 0.342752 0.695502 0.552690
O O7 0.041456 0.734809 0.562371
O O8 0.104477 0.617437 0.557928
O O9 0.500000 0.655100 0.750000
O O10 0.659849 0.701378 0.597457
O O11 0.694168 0.589518 0.643512
O O12 0.127795 0.500000 0.500000
O O13 0.386750 0.556132 0.577666
O O14 0.000000 0.975313 0.250000
#
# Coordination Sequence:
#
# PCOD9316950 Si02
#       6
#     8   8   8   8   8   8
#     4   9  17  24  41  71 103 118 144 209 255 269
#     4  10  19  32  49  71  99 130 163 196 240 293
#     4   9  15  29  48  67  92 129 167 192 228 301
#     4  10  20  32  46  71 103 128 162 194 245 289
#     4   9  15  25  43  68  90 116 158 205 234 263
#     4   9  12  24  46  68  92 117 157 202 241 274
#
# _framework density 20.808738000000002
#
# number of rings (size 3 to 8) (size 9 to 14) (size 15 to 20)
#    0.000    2.667    6.667    0.000    0.000    2.667 
#    0.000    0.000    0.000    0.000    4.333    0.000 
#    0.000    0.000    0.000    0.000    0.000    0.000 
#
# Total GULP energy -133706.497386 kJ/mol
# GULP energy per Si atom -5571.104058 kJ/mol
# Density = 2.076138 g / cm^3
# Si number density = 20.808738 Si / 1000 Ang^3
#
#
#
# Elastic Constant Matrix: (Units=GPa)
#
#
# Indices 1 2 3 4 5 6 
#
# 1 44.2784 33.4211 24.1756 0.0000 0.0000 0.0000
# 2 33.4211 135.5702 19.6214 0.0000 0.0000 0.0000
# 3 24.1756 19.6214 69.8762 0.0000 0.0000 0.0000
# 4 0.0000 0.0000 0.0000 31.9277 0.0000 0.0000
# 5 0.0000 0.0000 0.0000 0.0000 4.0439 0.0000
# 6 0.0000 0.0000 0.0000 0.0000 0.0000 15.9060
#
#
#
# Elastic Compliance Matrix: (Units=1/GPa)
#
#
# Indices 1 2 3 4 5 6 
#
# 1 0.032829 -0.006722 -0.009470 0.000000 0.000000 0.000000
# 2 -0.006722 0.009065 -0.000220 0.000000 0.000000 0.000000
# 3 -0.009470 -0.000220 0.017649 0.000000 0.000000 0.000000
# 4 0.000000 0.000000 0.000000 0.031321 0.000000 0.000000
# 5 0.000000 0.000000 0.000000 0.000000 0.247285 0.000000
# 6 0.000000 0.000000 0.000000 0.000000 0.000000 0.062869
#
#
# Mechanical properties :
#
#
# Convention : Reuss Voigt Hill
#
# Bulk Modulus (GPa) = 37.42729 44.90675 41.16702
# Shear Modulus (GPa) = 11.29306 21.87598 16.58452
#
# Velocity S-wave (km/s) = 2.33214 3.24587 2.82618
# Velocity P-wave (km/s) = 5.02764 5.97287 5.52052
#
# Compressibility (1/GPa) = 0.02671847
#
# Stress axis : x y z
#
# Youngs Moduli (GPa) = 30.46068 110.31088 56.65948
#
# Poissons Ratio (x) = 0.74156 0.53659
# Poissons Ratio (y) = 0.20477 0.01245
# Poissons Ratio (z) = 0.28848 0.02424
#
# Static dielectric constant tensor:
#      x y z
#    x 1.793420 0.000000 0.000000 
#    y 0.000000 1.815160 0.000000 
#    z 0.000000 0.000000 1.793890 
# 
# From -- ./inp_files/19268.got.cif
#   From: 2010.05.17/outbox.cif.g08.bks.cpg/sg20_10_cif.got.tgz:19268.got - 2010.06.03 22:52:26.
