data_PCOD9316164
_publ_section_title
;
Structure prediction by ZEFSAII (Michael W. Deem and Ramdas Pophale) SiO2 
 PCOD9316164
Probable space group: P 21 21 21
;
_chemical_formula_sum "Si O2"
_cell_formula_units_Z 32
_cell_length_a 12.000000
_cell_length_b 9.000000
_cell_length_c 15.000000
_cell_angle_alpha 90.000000
_cell_angle_beta 90.000000
_cell_angle_gamma 90.000000
_cell_volume 1620.000000
_symmetry_space_group_name_H-M "P 21 21 21"
_symmetry_group_IT_number 19
_symmetry_cell_setting 'orthorhombic'
loop_
_space_group_symop_operation_xyz
x,y,z
1/2-x,-y,1/2+z
1/2+x,1/2-y,-z
-x,1/2+y,1/2-z
loop_
_atom_site_type_symbol
_atom_site_label
_atom_site_fract_x
_atom_site_fract_y
_atom_site_fract_z
Si Si1 0.568580 0.859904 0.406172
Si Si2 0.633938 0.887103 0.203628
Si Si3 0.272576 0.476898 0.541687
Si Si4 0.511236 0.037995 0.073846
Si Si5 0.665420 0.334946 0.524409
Si Si6 0.865101 0.032762 0.258839
Si Si7 0.992221 0.297940 0.349141
Si Si8 0.600159 0.624053 0.052499
O O1 0.609477 0.836952 0.304351
O O2 0.518734 0.707376 0.440576
O O3 0.674112 0.905590 0.465572
O O4 0.484067 0.998607 0.413846
O O5 0.751999 0.978937 0.205710
O O6 0.616356 0.753731 0.129624
O O7 0.538142 0.003808 0.176296
O O8 0.373184 0.502917 0.475388
O O9 0.213463 0.316468 0.522281
O O10 0.326683 0.500124 0.639267
O O11 0.418689 0.925022 0.037675
O O12 0.600122 0.293873 0.615207
O O13 0.774061 0.432692 0.542275
O O14 0.960866 0.938227 0.207315
O O15 0.915790 0.198260 0.281873
O O16 0.937451 0.332218 0.448870
#
# Coordination Sequence:
#
# PCOD9316164 Si02
#       8
#     4   4   4   4   4   4   4   4
#     4  11  27  40  70 106 141 175 243 310 355 425
#     4  11  22  46  70  99 141 184 239 301 363 433
#     4  11  22  46  68  97 140 187 238 297 358 436
#     4  12  24  44  73 102 139 185 243 292 360 437
#     4  12  21  45  76  92 133 199 240 274 365 454
#     4  11  24  43  68 103 143 183 247 308 355 425
#     4  12  23  46  69 103 141 198 239 300 365 441
#     4  12  23  46  74  98 140 201 239 280 385 441
#
# _framework density 19.753086
#
# number of rings (size 3 to 8) (size 9 to 14) (size 15 to 20)
#    0.000    0.500    7.500    0.750    1.750    2.000 
#    4.500    0.000    0.000    0.000    0.000    0.000 
#    0.000    0.000    0.000    0.000    0.000    0.000 
#
# Total GULP energy -178157.575169 kJ/mol
# GULP energy per Si atom -5567.424224 kJ/mol
# Density = 1.970813 g / cm^3
# Si number density = 19.753086 Si / 1000 Ang^3
#
#
#
# Elastic Constant Matrix: (Units=GPa)
#
#
# Indices 1 2 3 4 5 6 
#
# 1 125.7962 55.4135 35.2222 0.0000 0.0000 0.0000
# 2 55.4135 112.4720 44.7939 0.0000 0.0000 0.0000
# 3 35.2222 44.7939 81.7337 0.0000 0.0000 0.0000
# 4 0.0000 0.0000 0.0000 30.8840 0.0000 0.0000
# 5 0.0000 0.0000 0.0000 0.0000 37.9406 0.0000
# 6 0.0000 0.0000 0.0000 0.0000 0.0000 32.8921
#
#
#
# Elastic Compliance Matrix: (Units=1/GPa)
#
#
# Indices 1 2 3 4 5 6 
#
# 1 0.010440 -0.004288 -0.002149 0.000000 0.000000 0.000000
# 2 -0.004288 0.013135 -0.005351 0.000000 0.000000 0.000000
# 3 -0.002149 -0.005351 0.016093 0.000000 0.000000 0.000000
# 4 0.000000 0.000000 0.000000 0.032379 0.000000 0.000000
# 5 0.000000 0.000000 0.000000 0.000000 0.026357 0.000000
# 6 0.000000 0.000000 0.000000 0.000000 0.000000 0.030402
#
#
# Mechanical properties :
#
#
# Convention : Reuss Voigt Hill
#
# Bulk Modulus (GPa) = 62.13882 65.65123 63.89502
# Shear Modulus (GPa) = 31.69664 32.64817 32.17240
#
# Velocity S-wave (km/s) = 4.01014 4.06989 4.04013
# Velocity P-wave (km/s) = 7.27789 7.44268 7.36075
#
# Compressibility (1/GPa) = 0.01609300
#
# Stress axis : x y z
#
# Youngs Moduli (GPa) = 95.78709 76.13505 62.13742
#
# Poissons Ratio (x) = 0.32644 0.13354
# Poissons Ratio (y) = 0.41070 0.33247
# Poissons Ratio (z) = 0.20585 0.40737
#
# Static dielectric constant tensor:
#      x y z
#    x 1.748210 0.000000 0.000000 
#    y 0.000000 1.718150 0.000000 
#    z 0.000000 0.000000 1.723330 
# 
# From -- ./inp_files/6140.got.cif
#   From: 2010.05.17/outbox.ucp.g08.bks.cvg/sg19_4_cif.got.tgz:6140.got - 2010.06.11 13:13:52.
