data_PCOD9316283
_publ_section_title
;
Structure prediction by ZEFSAII (Michael W. Deem and Ramdas Pophale) SiO2 
 PCOD9316283
Probable space group: C 2 2 21
;
_chemical_formula_sum "Si O2"
_cell_formula_units_Z 56
_cell_length_a 22.687867
_cell_length_b 6.758062
_cell_length_c 16.449054
_cell_angle_alpha 90.000000
_cell_angle_beta 90.000000
_cell_angle_gamma 90.000000
_cell_volume 2522.067848
_symmetry_space_group_name_H-M "C 2 2 21"
_symmetry_group_IT_number 20
_symmetry_cell_setting 'orthorhombic'
loop_
_space_group_symop_operation_xyz
x,y,z
-x,-y,1/2+z
x,-y,-z
-x,y,1/2-z
1/2+x,1/2+y,z
1/2-x,1/2-y,1/2+z
1/2+x,1/2-y,-z
1/2-x,1/2+y,1/2-z
loop_
_atom_site_type_symbol
_atom_site_label
_atom_site_fract_x
_atom_site_fract_y
_atom_site_fract_z
Si Si1 0.000000 0.900725 0.750000
Si Si2 0.402316 0.908434 0.772846
Si Si3 0.485405 0.709177 0.886549
Si Si4 0.177188 0.701893 0.622175
Si Si5 0.110671 0.000000 0.500000
Si Si6 0.192179 0.065434 0.909530
Si Si7 0.369085 0.444865 0.744562
Si Si8 0.103502 0.403378 0.913310
O O1 0.991804 0.032026 0.669670
O O2 0.068123 0.831908 0.738907
O O3 0.461700 0.878380 0.825565
O O4 0.382060 0.676501 0.763018
O O5 0.406718 0.984509 0.679223
O O6 0.360521 0.029482 0.833694
O O7 0.432744 0.623504 0.940690
O O8 0.542563 0.786782 0.931982
O O9 0.147819 0.831212 0.548850
O O10 0.238705 0.601340 0.600743
O O11 0.179490 0.865522 0.693223
O O12 0.159337 0.926467 0.844231
O O13 0.160801 0.273493 0.897862
O O14 0.179101 0.000000 0.000000
O O15 0.115757 0.500000 0.000000
#
# Coordination Sequence:
#
# PCOD9316283 Si02
#       8
#     4   8   8   8   4   8   8   8
#     4  10  16  46  72  92 140 178 220 294 360 412
#     4  10  23  47  72 103 137 187 232 291 361 418
#     4  11  21  46  70 101 147 177 235 299 353 424
#     4  12  28  47  72 102 141 195 247 286 354 431
#     4  12  28  44  74 106 136 200 242 298 350 426
#     4  11  28  46  72 102 141 190 236 307 350 420
#     4  10  23  49  72 100 142 185 232 297 358 429
#     4  11  25  45  70 107 144 181 233 302 361 431
#
# _framework density 22.204003
#
# number of rings (size 3 to 8) (size 9 to 14) (size 15 to 20)
#    0.000    1.143    7.143    0.000   12.000    0.000 
#    2.571    0.000    0.000    0.000    0.000    0.000 
#    0.000    0.000    0.000    0.000    0.000    0.000 
#
# Total GULP energy -155934.878281 kJ/mol
# GULP energy per Si atom -5569.102796 kJ/mol
# Density = 2.215347 g / cm^3
# Si number density = 22.204003 Si / 1000 Ang^3
#
#
#
# Elastic Constant Matrix: (Units=GPa)
#
#
# Indices 1 2 3 4 5 6 
#
# 1 80.4458 9.4989 15.4388 0.0000 0.0000 0.0000
# 2 9.4989 39.6186 7.8179 0.0000 0.0000 0.0000
# 3 15.4388 7.8179 110.8480 0.0000 0.0000 0.0000
# 4 0.0000 0.0000 0.0000 44.4721 0.0000 0.0000
# 5 0.0000 0.0000 0.0000 0.0000 286.9537 0.0000
# 6 0.0000 0.0000 0.0000 0.0000 0.0000 50.4814
#
#
#
# Elastic Compliance Matrix: (Units=1/GPa)
#
#
# Indices 1 2 3 4 5 6 
#
# 1 0.013074 -0.002815 -0.001622 0.000000 0.000000 0.000000
# 2 -0.002815 0.026203 -0.001456 0.000000 0.000000 0.000000
# 3 -0.001622 -0.001456 0.009350 0.000000 0.000000 0.000000
# 4 0.000000 0.000000 0.000000 0.022486 0.000000 0.000000
# 5 0.000000 0.000000 0.000000 0.000000 0.003485 0.000000
# 6 0.000000 0.000000 0.000000 0.000000 0.000000 0.019809
#
#
# Mechanical properties :
#
#
# Convention : Reuss Voigt Hill
#
# Bulk Modulus (GPa) = 27.14354 32.93594 30.03974
# Shear Modulus (GPa) = 42.20338 89.59190 65.89764
#
# Velocity S-wave (km/s) = 4.36444 6.35901 5.45369
# Velocity P-wave (km/s) = 6.13588 8.29347 7.29488
#
# Compressibility (1/GPa) = 0.03684118
#
# Stress axis : x y z
#
# Youngs Moduli (GPa) = 76.48512 38.16387 106.95146
#
# Poissons Ratio (x) = 0.10741 0.17353
# Poissons Ratio (y) = 0.21527 0.15572
# Poissons Ratio (z) = 0.12410 0.05557
#
# Static dielectric constant tensor:
#      x y z
#    x 1.827970 0.000000 0.000000 
#    y 0.000000 1.898640 0.000000 
#    z 0.000000 0.000000 1.835280 
# 
# From -- ./inp_files/21811.got.cif
#   From: 2010.05.17/outbox.cif.g08.bks.cpg/sg20_11_cif.got.tgz:21811.got - 2010.06.03 22:52:26.
