data_PCOD9316550
_publ_section_title
;
Structure prediction by ZEFSAII (Michael W. Deem and Ramdas Pophale) SiO2 
 PCOD9316550
Probable space group: C 2 2 21
;
_chemical_formula_sum "Si O2"
_cell_formula_units_Z 40
_cell_length_a 18.939704
_cell_length_b 13.376888
_cell_length_c 7.861613
_cell_angle_alpha 90.000000
_cell_angle_beta 90.000000
_cell_angle_gamma 90.000000
_cell_volume 1991.773452
_symmetry_space_group_name_H-M "C 2 2 21"
_symmetry_group_IT_number 20
_symmetry_cell_setting 'orthorhombic'
loop_
_space_group_symop_operation_xyz
x,y,z
-x,-y,1/2+z
x,-y,-z
-x,y,1/2-z
1/2+x,1/2+y,z
1/2-x,1/2-y,1/2+z
1/2+x,1/2-y,-z
1/2-x,1/2+y,1/2-z
loop_
_atom_site_type_symbol
_atom_site_label
_atom_site_fract_x
_atom_site_fract_y
_atom_site_fract_z
Si Si1 0.609343 0.000000 0.500000
Si Si2 0.244152 0.895329 0.402800
Si Si3 0.162324 0.106839 0.961622
Si Si4 0.500000 0.927556 0.750000
Si Si5 0.800063 0.321191 0.909136
Si Si6 0.616997 0.819279 0.946605
O O1 0.559974 0.991000 0.662162
O O2 0.655054 0.900223 0.484805
O O3 0.209174 0.791951 0.475108
O O4 0.328996 0.872264 0.420414
O O5 0.231560 0.000000 0.500000
O O6 0.207226 0.898738 0.216057
O O7 0.222535 0.132162 0.099444
O O8 0.110518 0.200634 0.973855
O O9 0.129767 0.000000 0.000000
O O10 0.541640 0.866064 0.897085
O O11 0.837221 0.323216 0.727395
#
# Coordination Sequence:
#
# PCOD9316550 Si02
#       6
#     4   8   8   4   8   8
#     4  10  20  34  56  74 110 144 188 224 280 320
#     4  10  20  30  52  82 111 136 181 226 285 335
#     4  10  18  32  55  80 109 144 179 234 288 332
#     4  10  22  36  52  78 112 152 188 228 260 340
#     4   9  18  34  51  75 106 145 174 231 278 327
#     4   9  20  35  52  77 111 148 187 221 278 330
#
# _framework density 20.082604
#
# number of rings (size 3 to 8) (size 9 to 14) (size 15 to 20)
#    0.000    2.400    1.000    1.200    4.200    1.600 
#    0.000    0.000    0.000   10.800    0.000    1.400 
#    0.000    0.000    0.000    0.000    0.000    0.000 
#
# Total GULP energy -111371.287215 kJ/mol
# GULP energy per Si atom -5568.564361 kJ/mol
# Density = 2.003689 g / cm^3
# Si number density = 20.082604 Si / 1000 Ang^3
#
#
#
# Elastic Constant Matrix: (Units=GPa)
#
#
# Indices 1 2 3 4 5 6 
#
# 1 51.3036 26.1008 13.1315 0.0000 0.0000 0.0000
# 2 26.1008 138.1983 27.7388 0.0000 0.0000 0.0000
# 3 13.1315 27.7388 33.5103 0.0000 0.0000 0.0000
# 4 0.0000 0.0000 0.0000 27.3968 0.0000 0.0000
# 5 0.0000 0.0000 0.0000 0.0000 20.6217 0.0000
# 6 0.0000 0.0000 0.0000 0.0000 0.0000 22.1832
#
#
#
# Elastic Compliance Matrix: (Units=1/GPa)
#
#
# Indices 1 2 3 4 5 6 
#
# 1 0.022653 -0.002994 -0.006398 0.000000 0.000000 0.000000
# 2 -0.002994 0.009073 -0.006338 0.000000 0.000000 0.000000
# 3 -0.006398 -0.006338 0.037595 0.000000 0.000000 0.000000
# 4 0.000000 0.000000 0.000000 0.036501 0.000000 0.000000
# 5 0.000000 0.000000 0.000000 0.000000 0.048493 0.000000
# 6 0.000000 0.000000 0.000000 0.000000 0.000000 0.045079
#
#
# Mechanical properties :
#
#
# Convention : Reuss Voigt Hill
#
# Bulk Modulus (GPa) = 26.41231 39.66163 33.03697
# Shear Modulus (GPa) = 20.53610 24.44310 22.48960
#
# Velocity S-wave (km/s) = 3.20125 3.49252 3.35005
# Velocity P-wave (km/s) = 5.18116 6.00464 5.60804
#
# Compressibility (1/GPa) = 0.03786113
#
# Stress axis : x y z
#
# Youngs Moduli (GPa) = 44.14473 110.21117 26.59936
#
# Poissons Ratio (x) = 0.32997 0.17020
# Poissons Ratio (y) = 0.13217 0.16857
# Poissons Ratio (z) = 0.28246 0.69846
#
# Static dielectric constant tensor:
#      x y z
#    x 1.677980 0.000000 0.000000 
#    y 0.000000 1.792360 0.000000 
#    z 0.000000 0.000000 1.820180 
# 
# From -- ./inp_files/10015.got.cif
#   From: 2010.05.17/outbox.cif.g08.bks.cpg/sg20_6_cif.got.tgz:10015.got - 2010.06.03 22:52:26.
