data_PCOD9316846
_publ_section_title
;
Structure prediction by ZEFSAII (Michael W. Deem and Ramdas Pophale) SiO2 
 PCOD9316846
Probable space group: C 2 2 21
;
_chemical_formula_sum "Si O2"
_cell_formula_units_Z 44
_cell_length_a 9.825645
_cell_length_b 19.011346
_cell_length_c 11.199463
_cell_angle_alpha 90.000000
_cell_angle_beta 90.000000
_cell_angle_gamma 90.000000
_cell_volume 2092.045541
_symmetry_space_group_name_H-M "C 2 2 21"
_symmetry_group_IT_number 20
_symmetry_cell_setting 'orthorhombic'
loop_
_space_group_symop_operation_xyz
x,y,z
-x,-y,1/2+z
x,-y,-z
-x,y,1/2-z
1/2+x,1/2+y,z
1/2-x,1/2-y,1/2+z
1/2+x,1/2-y,-z
1/2-x,1/2+y,1/2-z
loop_
_atom_site_type_symbol
_atom_site_label
_atom_site_fract_x
_atom_site_fract_y
_atom_site_fract_z
Si Si1 0.000000 0.850231 0.750000
Si Si2 0.343993 0.084103 0.006532
Si Si3 0.537510 0.417494 0.008945
Si Si4 0.127185 0.798378 0.400831
Si Si5 0.694821 0.824040 0.748200
Si Si6 0.072496 0.682639 0.002799
O O1 0.984408 0.892595 0.627130
O O2 0.855504 0.812937 0.764123
O O3 0.193643 0.097364 0.953268
O O4 0.330350 0.121171 0.138917
O O5 0.470744 0.124851 0.947810
O O6 0.364588 0.000000 0.000000
O O7 0.515732 0.500000 0.000000
O O8 0.434534 0.375687 0.093662
O O9 0.136955 0.752660 0.282189
O O10 0.283591 0.799517 0.444063
O O11 0.022487 0.751558 0.481163
O O12 0.621414 0.847284 0.868437
#
# Coordination Sequence:
#
# PCOD9316846 Si02
#       6
#     4   8   8   8   8   8
#     4  10  18  40  60  86 118 160 202 240 302 362
#     4   9  19  36  60  84 116 158 196 240 293 355
#     4  10  21  39  61  86 118 161 200 244 302 355
#     4  11  21  36  61  89 116 156 200 247 290 355
#     4  10  21  37  63  87 121 160 198 247 303 351
#     4  11  21  37  61  89 120 157 198 246 299 352
#
# _framework density 21.032046000000001
#
# number of rings (size 3 to 8) (size 9 to 14) (size 15 to 20)
#    0.000    1.818    1.818    5.455    0.000    0.727 
#    3.273    0.000    0.000    0.000    0.000    0.000 
#    0.000    0.000    0.000    0.000    0.000    0.000 
#
# Total GULP energy -122634.352507 kJ/mol
# GULP energy per Si atom -5574.288750 kJ/mol
# Density = 2.098418 g / cm^3
# Si number density = 21.032046 Si / 1000 Ang^3
#
#
#
# Elastic Constant Matrix: (Units=GPa)
#
#
# Indices 1 2 3 4 5 6 
#
# 1 216.5633 65.1113 6.8767 0.0000 0.0000 0.0000
# 2 65.1113 91.0960 12.0264 0.0000 0.0000 0.0000
# 3 6.8767 12.0264 21.7935 0.0000 0.0000 0.0000
# 4 0.0000 0.0000 0.0000 10.0939 0.0000 0.0000
# 5 0.0000 0.0000 0.0000 0.0000 23.5687 0.0000
# 6 0.0000 0.0000 0.0000 0.0000 0.0000 38.4975
#
#
#
# Elastic Compliance Matrix: (Units=1/GPa)
#
#
# Indices 1 2 3 4 5 6 
#
# 1 0.005887 -0.004274 0.000501 0.000000 0.000000 0.000000
# 2 -0.004274 0.014943 -0.006897 0.000000 0.000000 0.000000
# 3 0.000501 -0.006897 0.049533 0.000000 0.000000 0.000000
# 4 0.000000 0.000000 0.000000 0.099070 0.000000 0.000000
# 5 0.000000 0.000000 0.000000 0.000000 0.042429 0.000000
# 6 0.000000 0.000000 0.000000 0.000000 0.000000 0.025976
#
#
# Mechanical properties :
#
#
# Convention : Reuss Voigt Hill
#
# Bulk Modulus (GPa) = 20.39885 55.27573 37.83729
# Shear Modulus (GPa) = 18.14764 30.79458 24.47111
#
# Velocity S-wave (km/s) = 2.94063 3.83060 3.41473
# Velocity P-wave (km/s) = 4.60974 6.77521 5.79453
#
# Compressibility (1/GPa) = 0.04902236
#
# Stress axis : x y z
#
# Youngs Moduli (GPa) = 169.87837 66.92294 20.18845
#
# Poissons Ratio (x) = 0.28600 -0.01011
# Poissons Ratio (y) = 0.72599 0.13925
# Poissons Ratio (z) = -0.08509 0.46159
#
# Static dielectric constant tensor:
#      x y z
#    x 1.819160 0.000000 0.000000 
#    y 0.000000 1.760210 0.000000 
#    z 0.000000 0.000000 1.787930 
# 
# From -- ./inp_files/18768.got.cif
#   From: 2010.05.17/outbox.cif.g08.bks.cpg/sg20_10_cif.got.tgz:18768.got - 2010.06.03 22:52:26.
