data_PCOD9316961
_publ_section_title
;
Structure prediction by ZEFSAII (Michael W. Deem and Ramdas Pophale) SiO2 
 PCOD9316961
Probable space group: C 2 2 21
;
_chemical_formula_sum "Si O2"
_cell_formula_units_Z 48
_cell_length_a 9.261337
_cell_length_b 16.437240
_cell_length_c 18.754152
_cell_angle_alpha 90.000000
_cell_angle_beta 90.000000
_cell_angle_gamma 90.000000
_cell_volume 2854.959918
_symmetry_space_group_name_H-M "C 2 2 21"
_symmetry_group_IT_number 20
_symmetry_cell_setting 'orthorhombic'
loop_
_space_group_symop_operation_xyz
x,y,z
-x,-y,1/2+z
x,-y,-z
-x,y,1/2-z
1/2+x,1/2+y,z
1/2-x,1/2-y,1/2+z
1/2+x,1/2-y,-z
1/2-x,1/2+y,1/2-z
loop_
_atom_site_type_symbol
_atom_site_label
_atom_site_fract_x
_atom_site_fract_y
_atom_site_fract_z
Si Si1 0.319321 0.521499 0.669861
Si Si2 0.659916 0.415062 0.957872
Si Si3 0.836909 0.000976 0.833670
Si Si4 0.351341 0.918567 0.456208
Si Si5 0.650000 0.344143 0.576043
Si Si6 0.845043 0.655592 0.918918
O O1 0.280709 0.445318 0.618460
O O2 0.285240 0.510031 0.752720
O O3 0.493943 0.525866 0.663371
O O4 0.240402 0.599973 0.637672
O O5 0.512046 0.365942 0.949424
O O6 0.629116 0.500000 0.000000
O O7 0.770831 0.364534 0.005056
O O8 0.823331 0.907957 0.860187
O O9 0.749348 0.053446 0.890936
O O10 0.259091 0.865522 0.511903
O O11 0.490655 0.873373 0.426387
O O12 0.395942 0.000000 0.500000
O O13 0.663511 0.250721 0.596994
#
# Coordination Sequence:
#
# PCOD9316961 Si02
#       6
#     8   8   8   8   8   8
#     4   9  18  35  55  71  95 136 175 199 238 307
#     4   9  17  33  54  71  96 137 171 196 241 305
#     4   9  19  36  55  69  95 139 173 196 241 308
#     4  10  19  32  51  75 103 133 163 201 253 301
#     4  10  19  33  52  76 101 129 168 210 244 289
#     4  11  20  31  51  80 104 124 162 218 255 282
#
# _framework density 16.812846
#
# number of rings (size 3 to 8) (size 9 to 14) (size 15 to 20)
#    0.000    2.333    0.000    6.000    0.000    0.667 
#    0.000    8.333    0.000    8.000    0.000    0.000 
#    0.000    0.000    0.000    0.000    0.000    0.000 
#
# Total GULP energy -133855.038267 kJ/mol
# GULP energy per Si atom -5577.293261 kJ/mol
# Density = 1.677458 g / cm^3
# Si number density = 16.812846 Si / 1000 Ang^3
#
#
#
# Elastic Constant Matrix: (Units=GPa)
#
#
# Indices 1 2 3 4 5 6 
#
# 1 59.1404 65.5231 43.3703 0.0000 0.0000 0.0000
# 2 65.5231 126.6096 57.4135 0.0000 0.0000 0.0000
# 3 43.3703 57.4135 124.1918 0.0000 0.0000 0.0000
# 4 0.0000 0.0000 0.0000 8.5499 0.0000 0.0000
# 5 0.0000 0.0000 0.0000 0.0000 12.6167 0.0000
# 6 0.0000 0.0000 0.0000 0.0000 0.0000 17.6329
#
#
#
# Elastic Compliance Matrix: (Units=1/GPa)
#
#
# Indices 1 2 3 4 5 6 
#
# 1 0.042862 -0.019478 -0.005964 0.000000 0.000000 0.000000
# 2 -0.019478 0.018844 -0.001910 0.000000 0.000000 0.000000
# 3 -0.005964 -0.001910 0.011018 0.000000 0.000000 0.000000
# 4 0.000000 0.000000 0.000000 0.116961 0.000000 0.000000
# 5 0.000000 0.000000 0.000000 0.000000 0.079260 0.000000
# 6 0.000000 0.000000 0.000000 0.000000 0.000000 0.056712
#
#
# Mechanical properties :
#
#
# Convention : Reuss Voigt Hill
#
# Bulk Modulus (GPa) = 55.48854 71.39506 63.44180
# Shear Modulus (GPa) = 12.94104 17.33555 15.13829
#
# Velocity S-wave (km/s) = 2.77738 3.21454 3.00392
# Velocity P-wave (km/s) = 6.58486 7.50563 7.06027
#
# Compressibility (1/GPa) = 0.01802174
#
# Stress axis : x y z
#
# Youngs Moduli (GPa) = 23.33046 53.06609 90.76358
#
# Poissons Ratio (x) = 1.03361 0.54131
# Poissons Ratio (y) = 0.45442 0.17333
# Poissons Ratio (z) = 0.13914 0.10134
#
# Static dielectric constant tensor:
#      x y z
#    x 1.560850 0.000000 0.000000 
#    y 0.000000 1.545410 0.000000 
#    z 0.000000 0.000000 1.568620 
# 
# From -- ./inp_files/23481.got.cif
#   From: 2010.05.17/outbox.cif.g08.bks.cpg/sg20_12_cif.got.tgz:23481.got - 2010.06.03 22:52:26.
