data_PCOD9316071
_publ_section_title
;
Structure prediction by ZEFSAII (Michael W. Deem and Ramdas Pophale) SiO2 
 PCOD9316071
Probable space group: P 21 21 21
;
_chemical_formula_sum "Si O2"
_cell_formula_units_Z 24
_cell_length_a 9.248568
_cell_length_b 9.277149
_cell_length_c 11.892005
_cell_angle_alpha 90.000000
_cell_angle_beta 90.000000
_cell_angle_gamma 90.000000
_cell_volume 1020.338112
_symmetry_space_group_name_H-M "P 21 21 21"
_symmetry_group_IT_number 19
_symmetry_cell_setting 'orthorhombic'
loop_
_space_group_symop_operation_xyz
x,y,z
1/2-x,-y,1/2+z
1/2+x,1/2-y,-z
-x,1/2+y,1/2-z
loop_
_atom_site_type_symbol
_atom_site_label
_atom_site_fract_x
_atom_site_fract_y
_atom_site_fract_z
Si Si1 0.703828 0.093558 0.029016
Si Si2 0.508776 0.547236 0.001173
Si Si3 0.467890 0.348705 0.379927
Si Si4 0.445375 0.955956 0.745514
Si Si5 0.682807 0.363682 0.180835
Si Si6 0.310897 0.661295 0.718947
O O1 0.712782 0.207426 0.129387
O O2 0.564148 0.994505 0.051438
O O3 0.708626 0.182491 0.913620
O O4 0.839904 0.986949 0.018199
O O5 0.530681 0.710969 0.039295
O O6 0.570233 0.446591 0.100040
O O7 0.580503 0.501623 0.884052
O O8 0.610497 0.354113 0.303545
O O9 0.334932 0.334605 0.290637
O O10 0.328318 0.043841 0.816479
O O11 0.605143 0.010448 0.773213
O O12 0.416290 0.787705 0.761277
#
# Coordination Sequence:
#
# PCOD9316071 Si02
#       6
#     4   4   4   4   4   4
#     4  12  28  48  79 110 152 200 250 321 379 454
#     4  12  26  48  72 111 149 196 255 306 391 450
#     4  12  28  46  77 112 149 199 255 313 377 462
#     4  12  28  46  73 111 148 196 248 314 378 450
#     4  12  27  48  78 108 151 195 255 314 375 453
#     4  12  27  48  75 110 153 196 253 310 382 451
#
# _framework density 23.521615000000001
#
# number of rings (size 3 to 8) (size 9 to 14) (size 15 to 20)
#    0.000    0.000    6.667    2.000    4.667    1.333 
#    0.000    0.000    0.000    0.000    0.000    0.000 
#    0.000    0.000    0.000    0.000    0.000    0.000 
#
# Total GULP energy -134485.682932 kJ/mol
# GULP energy per Si atom -5603.570122 kJ/mol
# Density = 2.346808 g / cm^3
# Si number density = 23.521615 Si / 1000 Ang^3
#
#
#
# Elastic Constant Matrix: (Units=GPa)
#
#
# Indices 1 2 3 4 5 6 
#
# 1 65.4825 6.7310 3.9712 0.0000 0.0000 0.0000
# 2 6.7310 77.0908 -1.7148 0.0000 0.0000 0.0000
# 3 3.9712 -1.7148 65.9485 0.0000 0.0000 0.0000
# 4 0.0000 0.0000 0.0000 42.3563 0.0000 0.0000
# 5 0.0000 0.0000 0.0000 0.0000 45.7250 0.0000
# 6 0.0000 0.0000 0.0000 0.0000 0.0000 37.3260
#
#
#
# Elastic Compliance Matrix: (Units=1/GPa)
#
#
# Indices 1 2 3 4 5 6 
#
# 1 0.015471 -0.001372 -0.000967 0.000000 0.000000 0.000000
# 2 -0.001372 0.013101 0.000423 0.000000 0.000000 0.000000
# 3 -0.000967 0.000423 0.015233 0.000000 0.000000 0.000000
# 4 0.000000 0.000000 0.000000 0.023609 0.000000 0.000000
# 5 0.000000 0.000000 0.000000 0.000000 0.021870 0.000000
# 6 0.000000 0.000000 0.000000 0.000000 0.000000 0.026791
#
#
# Mechanical properties :
#
#
# Convention : Reuss Voigt Hill
#
# Bulk Modulus (GPa) = 25.01758 25.16628 25.09193
# Shear Modulus (GPa) = 37.52874 38.38376 37.95625
#
# Velocity S-wave (km/s) = 3.99870 4.04400 4.02142
# Velocity P-wave (km/s) = 5.65496 5.70330 5.67919
#
# Compressibility (1/GPa) = 0.03997189
#
# Stress axis : x y z
#
# Youngs Moduli (GPa) = 64.63716 76.33034 65.64863
#
# Poissons Ratio (x) = 0.10475 0.06350
# Poissons Ratio (y) = 0.08870 -0.02779
# Poissons Ratio (z) = 0.06252 -0.03231
#
# Static dielectric constant tensor:
#      x y z
#    x 1.867630 0.000000 0.000000 
#    y 0.000000 1.852150 0.000000 
#    z 0.000000 0.000000 1.922150 
# 
# From -- ./inp_files/2672.got.cif
#   From: 2010.05.17/outbox.cif.g08.bks.cpg/sg19_2_cif.got.tgz:2672.got - 2010.06.03 22:46:19.
