data_PCOD9316641
_publ_section_title
;
Structure prediction by ZEFSAII (Michael W. Deem and Ramdas Pophale) SiO2 
 PCOD9316641
Probable space group: C 2 2 21
;
_chemical_formula_sum "Si O2"
_cell_formula_units_Z 60
_cell_length_a 25.917389
_cell_length_b 5.249821
_cell_length_c 20.240616
_cell_angle_alpha 90.000000
_cell_angle_beta 90.000000
_cell_angle_gamma 90.000000
_cell_volume 2753.971671
_symmetry_space_group_name_H-M "C 2 2 21"
_symmetry_group_IT_number 20
_symmetry_cell_setting 'orthorhombic'
loop_
_space_group_symop_operation_xyz
x,y,z
-x,-y,1/2+z
x,-y,-z
-x,y,1/2-z
1/2+x,1/2+y,z
1/2-x,1/2-y,1/2+z
1/2+x,1/2-y,-z
1/2-x,1/2+y,1/2-z
loop_
_atom_site_type_symbol
_atom_site_label
_atom_site_fract_x
_atom_site_fract_y
_atom_site_fract_z
Si Si1 0.406099 0.058392 0.780605
Si Si2 0.881791 0.840489 0.105382
Si Si3 0.083025 0.500000 0.500000
Si Si4 0.474413 0.272719 0.882238
Si Si5 0.215072 0.962513 0.184605
Si Si6 0.650765 0.034717 0.850201
Si Si7 0.809832 0.862682 0.822141
Si Si8 0.576496 0.243663 0.956834
O O1 0.460495 0.147305 0.811532
O O2 0.395564 0.002235 0.704245
O O3 0.365267 0.283552 0.792752
O O4 0.385212 0.844942 0.831024
O O5 0.882255 0.708730 0.034738
O O6 0.936433 0.988044 0.110024
O O7 0.829156 0.997109 0.113118
O O8 0.048343 0.405685 0.439828
O O9 0.533005 0.318649 0.902399
O O10 0.179910 0.735384 0.154465
O O11 0.272761 0.876415 0.165934
O O12 0.191091 0.236556 0.166409
O O13 0.214284 0.962106 0.264896
O O14 0.625016 0.127291 0.917793
O O15 0.585793 0.500000 0.000000
O O16 0.558123 0.000000 0.000000
#
# Coordination Sequence:
#
# PCOD9316641 Si02
#       8
#     8   8   4   8   8   8   8   8
#     4   9  20  36  61  99 134 159 199 268 350 386
#     4  10  19  34  59  97 130 165 204 265 330 400
#     4  10  18  34  58  88 132 164 206 268 316 396
#     4  10  21  37  64  93 127 166 219 266 325 399
#     4  11  22  38  66  99 128 172 216 270 324 380
#     4  11  24  43  65  96 135 169 220 280 326 381
#     4  10  20  35  62  97 130 163 209 262 325 409
#     4  12  26  46  71  92 121 181 241 272 320 387
#
# _framework density 21.786718
#
# number of rings (size 3 to 8) (size 9 to 14) (size 15 to 20)
#    0.000    1.600    2.000    3.600    3.733    0.533 
#    0.000    0.000    1.467    6.400    0.000    0.000 
#    0.000    0.000    0.000    0.000    0.000    0.000 
#
# Total GULP energy -167204.087494 kJ/mol
# GULP energy per Si atom -5573.469583 kJ/mol
# Density = 2.173713 g / cm^3
# Si number density = 21.786718 Si / 1000 Ang^3
#
#
#
# Elastic Constant Matrix: (Units=GPa)
#
#
# Indices 1 2 3 4 5 6 
#
# 1 62.3358 12.6908 21.8804 0.0000 0.0000 0.0000
# 2 12.6908 77.3584 4.8426 0.0000 0.0000 0.0000
# 3 21.8804 4.8426 42.2391 0.0000 0.0000 0.0000
# 4 0.0000 0.0000 0.0000 33.6170 0.0000 0.0000
# 5 0.0000 0.0000 0.0000 0.0000 63.3908 0.0000
# 6 0.0000 0.0000 0.0000 0.0000 0.0000 39.4254
#
#
#
# Elastic Compliance Matrix: (Units=1/GPa)
#
#
# Indices 1 2 3 4 5 6 
#
# 1 0.020140 -0.002670 -0.010127 0.000000 0.000000 0.000000
# 2 -0.002670 0.013374 -0.000150 0.000000 0.000000 0.000000
# 3 -0.010127 -0.000150 0.028938 0.000000 0.000000 0.000000
# 4 0.000000 0.000000 0.000000 0.029747 0.000000 0.000000
# 5 0.000000 0.000000 0.000000 0.000000 0.015775 0.000000
# 6 0.000000 0.000000 0.000000 0.000000 0.000000 0.025364
#
#
# Mechanical properties :
#
#
# Convention : Reuss Voigt Hill
#
# Bulk Modulus (GPa) = 27.35368 28.97344 28.16356
# Shear Modulus (GPa) = 29.16825 36.78794 32.97809
#
# Velocity S-wave (km/s) = 3.66294 4.11365 3.89482
# Velocity P-wave (km/s) = 5.52014 5.99086 5.76031
#
# Compressibility (1/GPa) = 0.03655815
#
# Stress axis : x y z
#
# Youngs Moduli (GPa) = 49.65148 74.77033 34.55684
#
# Poissons Ratio (x) = 0.19965 0.34995
# Poissons Ratio (y) = 0.13258 0.00519
# Poissons Ratio (z) = 0.50281 0.01123
#
# Static dielectric constant tensor:
#      x y z
#    x 1.826910 0.000000 0.000000 
#    y 0.000000 1.804050 0.000000 
#    z 0.000000 0.000000 1.798970 
# 
# From -- ./inp_files/28047.got.cif
#   From: 2010.05.17/outbox.cif.g08.bks.cpg/sg20_15_cif.got.tgz:28047.got - 2010.06.03 22:52:26.
