data_PCOD9316712
_publ_section_title
;
Structure prediction by ZEFSAII (Michael W. Deem and Ramdas Pophale) SiO2 
 PCOD9316712
Probable space group: C 2 2 21
;
_chemical_formula_sum "Si O2"
_cell_formula_units_Z 48
_cell_length_a 15.708455
_cell_length_b 10.219487
_cell_length_c 14.286660
_cell_angle_alpha 90.000000
_cell_angle_beta 90.000000
_cell_angle_gamma 90.000000
_cell_volume 2293.471127
_symmetry_space_group_name_H-M "C 2 2 21"
_symmetry_group_IT_number 20
_symmetry_cell_setting 'orthorhombic'
loop_
_space_group_symop_operation_xyz
x,y,z
-x,-y,1/2+z
x,-y,-z
-x,y,1/2-z
1/2+x,1/2+y,z
1/2-x,1/2-y,1/2+z
1/2+x,1/2-y,-z
1/2-x,1/2+y,1/2-z
loop_
_atom_site_type_symbol
_atom_site_label
_atom_site_fract_x
_atom_site_fract_y
_atom_site_fract_z
Si Si1 0.426996 0.477405 0.884783
Si Si2 0.688445 0.145202 0.965478
Si Si3 0.800013 0.522582 0.110318
Si Si4 0.112208 0.904732 0.910130
Si Si5 0.712857 0.259451 0.646833
Si Si6 0.170239 0.211726 0.680513
O O1 0.522603 0.432902 0.863693
O O2 0.359617 0.368791 0.850579
O O3 0.405440 0.610434 0.830367
O O4 0.417666 0.500000 0.000000
O O5 0.617812 0.251830 0.937917
O O6 0.753706 0.141140 0.878446
O O7 0.741315 0.784296 0.952159
O O8 0.664326 0.000000 0.000000
O O9 0.701913 0.558482 0.139015
O O10 0.826520 0.385606 0.153960
O O11 0.853083 0.650730 0.132930
O O12 0.800163 0.500000 0.000000
O O13 0.112294 0.000000 0.000000
O O14 0.789256 0.253965 0.721435
#
# Coordination Sequence:
#
# PCOD9316712 Si02
#       6
#     8   8   8   8   8   8
#     4  11  20  39  62  91 117 151 205 253 298 354
#     4  11  20  40  60  86 121 168 204 247 312 375
#     4  10  18  36  57  82 117 160 199 238 302 363
#     4   9  19  36  63  84 115 159 199 243 305 362
#     4  12  20  35  60  89 120 156 200 253 296 361
#     4  11  21  34  58  93 115 157 200 251 299 355
#
# _framework density 20.928974
#
# number of rings (size 3 to 8) (size 9 to 14) (size 15 to 20)
#    0.000    1.333    8.333    1.000    0.000    0.000 
#    0.000   11.667    0.000    0.000    8.667    0.000 
#    0.000    0.000    0.000    0.000    0.000    0.000 
#
# Total GULP energy -133911.012321 kJ/mol
# GULP energy per Si atom -5579.625513 kJ/mol
# Density = 2.088134 g / cm^3
# Si number density = 20.928974 Si / 1000 Ang^3
#
#
#
# Elastic Constant Matrix: (Units=GPa)
#
#
# Indices 1 2 3 4 5 6 
#
# 1 62.8607 42.0953 0.9521 0.0000 0.0000 0.0000
# 2 42.0953 195.3516 -8.7015 0.0000 0.0000 0.0000
# 3 0.9521 -8.7015 36.2066 0.0000 0.0000 0.0000
# 4 0.0000 0.0000 0.0000 18.1326 0.0000 0.0000
# 5 0.0000 0.0000 0.0000 0.0000 8.0826 0.0000
# 6 0.0000 0.0000 0.0000 0.0000 0.0000 26.6850
#
#
#
# Elastic Compliance Matrix: (Units=1/GPa)
#
#
# Indices 1 2 3 4 5 6 
#
# 1 0.018668 -0.004088 -0.001473 0.000000 0.000000 0.000000
# 2 -0.004088 0.006070 0.001566 0.000000 0.000000 0.000000
# 3 -0.001473 0.001566 0.028034 0.000000 0.000000 0.000000
# 4 0.000000 0.000000 0.000000 0.055149 0.000000 0.000000
# 5 0.000000 0.000000 0.000000 0.000000 0.123723 0.000000
# 6 0.000000 0.000000 0.000000 0.000000 0.000000 0.037474
#
#
# Mechanical properties :
#
#
# Convention : Reuss Voigt Hill
#
# Bulk Modulus (GPa) = 22.33073 40.34564 31.33818
# Shear Modulus (GPa) = 17.12107 27.91821 22.51964
#
# Velocity S-wave (km/s) = 2.86327 3.65629 3.28381
# Velocity P-wave (km/s) = 4.65016 6.09458 5.42070
#
# Compressibility (1/GPa) = 0.04478134
#
# Stress axis : x y z
#
# Youngs Moduli (GPa) = 53.56661 164.75214 35.67038
#
# Poissons Ratio (x) = 0.67357 0.05256
# Poissons Ratio (y) = 0.21900 -0.05587
# Poissons Ratio (z) = 0.07893 -0.25804
#
# Static dielectric constant tensor:
#      x y z
#    x 1.734690 0.000000 0.000000 
#    y 0.000000 1.785110 0.000000 
#    z 0.000000 0.000000 1.847990 
# 
# From -- ./inp_files/25179.got.cif
#   From: 2010.05.17/outbox.cif.g08.bks.cpg/sg20_13_cif.got.tgz:25179.got - 2010.06.03 22:52:26.
