data_PCOD9316725
_publ_section_title
;
Structure prediction by ZEFSAII (Michael W. Deem and Ramdas Pophale) SiO2 
 PCOD9316725
Probable space group: C 2 2 21
;
_chemical_formula_sum "Si O2"
_cell_formula_units_Z 64
_cell_length_a 15.813252
_cell_length_b 12.304836
_cell_length_c 13.785365
_cell_angle_alpha 90.000000
_cell_angle_beta 90.000000
_cell_angle_gamma 90.000000
_cell_volume 2682.349050
_symmetry_space_group_name_H-M "C 2 2 21"
_symmetry_group_IT_number 20
_symmetry_cell_setting 'orthorhombic'
loop_
_space_group_symop_operation_xyz
x,y,z
-x,-y,1/2+z
x,-y,-z
-x,y,1/2-z
1/2+x,1/2+y,z
1/2-x,1/2-y,1/2+z
1/2+x,1/2-y,-z
1/2-x,1/2+y,1/2-z
loop_
_atom_site_type_symbol
_atom_site_label
_atom_site_fract_x
_atom_site_fract_y
_atom_site_fract_z
Si Si1 0.350252 0.624922 0.118829
Si Si2 0.649748 0.375078 0.381171
Si Si3 0.187714 0.760899 0.882798
Si Si4 0.187715 0.760899 0.117203
Si Si5 0.002460 0.269665 0.889451
Si Si6 0.748134 0.500000 0.883554
Si Si7 0.564157 1.000000 0.660698
Si Si8 0.502459 0.769666 0.110549
O O1 0.344910 0.500000 0.148478
O O2 0.268784 0.693321 0.152124
O O3 0.436431 0.682971 0.151785
O O4 0.350546 0.627578 0.000000
O O5 0.731216 0.306679 0.347877
O O6 0.563569 0.317029 0.348215
O O7 0.096465 0.720765 0.846440
O O8 0.198263 0.889060 0.865071
O O9 0.189822 0.745827 0.000000
O O10 0.096465 0.720766 0.153560
O O11 0.198264 0.889060 0.134929
O O12 0.958318 0.386891 0.890928
O O13 0.016434 0.233403 0.000000
O O14 0.835578 0.499999 0.824608
O O15 0.770405 0.500000 0.000000
O O16 0.500000 0.000000 0.750000
O O17 0.541682 0.113109 0.609072
#
# Coordination Sequence:
#
# PCOD9316725 Si02
#       8
#     8   8   8   8   8   8   8   8
#     4   9  17  29  48  80 115 138 167 221 279 330
#     4   9  17  29  48  80 115 138 167 221 279 330
#     4   9  18  30  53  85 111 139 178 223 276 333
#     4   9  18  30  53  85 111 139 178 223 276 333
#     4  10  20  35  57  83 110 143 182 231 284 331
#     4  10  18  36  60  83 111 144 182 231 281 331
#     4  12  24  38  56  79 110 152 197 236 271 326
#     4  10  20  35  57  83 110 143 182 231 284 331
#
# _framework density 23.859684000000001
#
# number of rings (size 3 to 8) (size 9 to 14) (size 15 to 20)
#    0.000    2.250    2.500    1.125    3.500    0.000 
#    0.000    1.250    0.000    0.750    0.000    0.000 
#    0.000    0.000    0.000    0.000    0.000    0.000 
#
# Total GULP energy -178984.882584 kJ/mol
# GULP energy per Si atom -5593.277581 kJ/mol
# Density = 2.380538 g / cm^3
# Si number density = 23.859684 Si / 1000 Ang^3
#
#
#
# Elastic Constant Matrix: (Units=GPa)
#
#
# Indices 1 2 3 4 5 6 
#
# 1 163.5237 75.4153 -31.6247 0.0000 0.0000 0.0000
# 2 75.4153 133.2991 -22.4906 0.0000 0.0000 0.0000
# 3 -31.6247 -22.4906 69.1317 0.0000 0.0000 0.0000
# 4 0.0000 0.0000 0.0000 15.8572 0.0000 0.0000
# 5 0.0000 0.0000 0.0000 0.0000 11.4802 0.0000
# 6 0.0000 0.0000 0.0000 0.0000 0.0000 43.0311
#
#
#
# Elastic Compliance Matrix: (Units=1/GPa)
#
#
# Indices 1 2 3 4 5 6 
#
# 1 0.008666 -0.004480 0.002507 0.000000 0.000000 0.000000
# 2 -0.004480 0.010254 0.001286 0.000000 0.000000 0.000000
# 3 0.002507 0.001286 0.016030 0.000000 0.000000 0.000000
# 4 0.000000 0.000000 0.000000 0.063063 0.000000 0.000000
# 5 0.000000 0.000000 0.000000 0.000000 0.087106 0.000000
# 6 0.000000 0.000000 0.000000 0.000000 0.000000 0.023239
#
#
# Mechanical properties :
#
#
# Convention : Reuss Voigt Hill
#
# Bulk Modulus (GPa) = 29.78239 45.39494 37.58866
# Shear Modulus (GPa) = 22.63219 37.05067 29.84143
#
# Velocity S-wave (km/s) = 3.08320 3.94491 3.54037
# Velocity P-wave (km/s) = 5.01839 6.31006 5.70092
#
# Compressibility (1/GPa) = 0.03357689
#
# Stress axis : x y z
#
# Youngs Moduli (GPa) = 115.38931 97.52656 62.38124
#
# Poissons Ratio (x) = 0.43693 -0.15639
# Poissons Ratio (y) = 0.51695 -0.08025
# Poissons Ratio (z) = -0.28928 -0.12546
#
# Static dielectric constant tensor:
#      x y z
#    x 1.865990 0.000000 0.000000 
#    y 0.000000 1.814790 0.000000 
#    z 0.000000 0.000000 1.967100 
# 
# From -- ./inp_files/24974.got.cif
#   From: 2010.05.17/outbox.cif.g08.bks.cpg/sg20_13_cif.got.tgz:24974.got - 2010.06.03 22:52:26.
