data_PCOD9316532
_publ_section_title
;
Structure prediction by ZEFSAII (Michael W. Deem and Ramdas Pophale) SiO2 
 PCOD9316532
Probable space group: C 2 2 21
;
_chemical_formula_sum "Si O2"
_cell_formula_units_Z 48
_cell_length_a 10.490373
_cell_length_b 9.822363
_cell_length_c 21.785471
_cell_angle_alpha 90.000000
_cell_angle_beta 90.000000
_cell_angle_gamma 90.000000
_cell_volume 2244.780413
_symmetry_space_group_name_H-M "C 2 2 21"
_symmetry_group_IT_number 20
_symmetry_cell_setting 'orthorhombic'
loop_
_space_group_symop_operation_xyz
x,y,z
-x,-y,1/2+z
x,-y,-z
-x,y,1/2-z
1/2+x,1/2+y,z
1/2-x,1/2-y,1/2+z
1/2+x,1/2-y,-z
1/2-x,1/2+y,1/2-z
loop_
_atom_site_type_symbol
_atom_site_label
_atom_site_fract_x
_atom_site_fract_y
_atom_site_fract_z
Si Si1 0.851824 0.798153 0.119695
Si Si2 0.629516 0.610222 0.085344
Si Si3 0.628357 0.411300 0.770430
Si Si4 0.654098 0.417308 0.561361
Si Si5 0.226778 0.176730 0.758261
Si Si6 0.860915 0.201132 0.603226
O O1 0.745407 0.716943 0.079908
O O2 0.843562 0.961420 0.111634
O O3 0.832568 0.773939 0.193098
O O4 0.991589 0.758891 0.095551
O O5 0.609890 0.614842 0.158540
O O6 0.491061 0.639204 0.056639
O O7 0.660284 0.450145 0.074526
O O8 0.500000 0.484896 0.750000
O O9 0.648642 0.269794 0.736343
O O10 0.742703 0.514281 0.755524
O O11 0.684041 0.500000 0.500000
O O12 0.757705 0.304316 0.576768
O O13 0.155509 0.194985 0.822779
#
# Coordination Sequence:
#
# PCOD9316532 Si02
#       6
#     8   8   8   8   8   8
#     4  10  21  37  58  87 117 151 192 237 293 348
#     4   9  21  38  57  82 113 149 191 237 285 337
#     4  10  18  32  53  81 116 151 185 226 279 340
#     4  11  24  41  60  83 115 156 200 244 288 340
#     4  10  18  33  58  84 117 151 183 233 292 351
#     4  10  20  37  59  87 117 150 192 237 292 350
#
# _framework density 21.382939
#
# number of rings (size 3 to 8) (size 9 to 14) (size 15 to 20)
#    0.000    2.000    0.000    5.500    0.000    4.000 
#    0.000   11.667    0.000    0.000    0.000    0.000 
#    0.000    0.000    0.000    0.000    0.000    0.000 
#
# Total GULP energy -133777.503716 kJ/mol
# GULP energy per Si atom -5574.062655 kJ/mol
# Density = 2.133427 g / cm^3
# Si number density = 21.382939 Si / 1000 Ang^3
#
#
#
# Elastic Constant Matrix: (Units=GPa)
#
#
# Indices 1 2 3 4 5 6 
#
# 1 126.5222 65.9555 19.0084 0.0000 0.0000 0.0000
# 2 65.9555 78.7784 14.2309 0.0000 0.0000 0.0000
# 3 19.0084 14.2309 65.8873 0.0000 0.0000 0.0000
# 4 0.0000 0.0000 0.0000 29.4098 0.0000 0.0000
# 5 0.0000 0.0000 0.0000 0.0000 13.0902 0.0000
# 6 0.0000 0.0000 0.0000 0.0000 0.0000 31.7908
#
#
#
# Elastic Compliance Matrix: (Units=1/GPa)
#
#
# Indices 1 2 3 4 5 6 
#
# 1 0.014183 -0.011587 -0.001589 0.000000 0.000000 0.000000
# 2 -0.011587 0.022676 -0.001555 0.000000 0.000000 0.000000
# 3 -0.001589 -0.001555 0.015972 0.000000 0.000000 0.000000
# 4 0.000000 0.000000 0.000000 0.034002 0.000000 0.000000
# 5 0.000000 0.000000 0.000000 0.000000 0.076393 0.000000
# 6 0.000000 0.000000 0.000000 0.000000 0.000000 0.031456
#
#
# Mechanical properties :
#
#
# Convention : Reuss Voigt Hill
#
# Bulk Modulus (GPa) = 42.79311 52.17529 47.48420
# Shear Modulus (GPa) = 21.55794 26.32436 23.94115
#
# Velocity S-wave (km/s) = 3.17864 3.51250 3.34973
# Velocity P-wave (km/s) = 5.79032 6.39559 6.10047
#
# Compressibility (1/GPa) = 0.02336825
#
# Stress axis : x y z
#
# Youngs Moduli (GPa) = 70.50757 44.09973 62.61078
#
# Poissons Ratio (x) = 0.51099 0.09949
# Poissons Ratio (y) = 0.81699 0.09735
# Poissons Ratio (z) = 0.11204 0.06857
#
# Static dielectric constant tensor:
#      x y z
#    x 1.780070 0.000000 0.000000 
#    y 0.000000 1.800190 0.000000 
#    z 0.000000 0.000000 1.834090 
# 
# From -- ./inp_files/29076.got.cif
#   From: 2010.05.17/outbox.cif.g08.bks.cpg/sg20_15_cif.got.tgz:29076.got - 2010.06.03 22:52:26.
