data_PCOD9316974
_publ_section_title
;
Structure prediction by ZEFSAII (Michael W. Deem and Ramdas Pophale) SiO2 
 PCOD9316974
Probable space group: C 2 2 21
;
_chemical_formula_sum "Si O2"
_cell_formula_units_Z 48
_cell_length_a 21.063240
_cell_length_b 18.363011
_cell_length_c 5.667697
_cell_angle_alpha 90.000000
_cell_angle_beta 90.000000
_cell_angle_gamma 90.000000
_cell_volume 2192.177395
_symmetry_space_group_name_H-M "C 2 2 21"
_symmetry_group_IT_number 20
_symmetry_cell_setting 'orthorhombic'
loop_
_space_group_symop_operation_xyz
x,y,z
-x,-y,1/2+z
x,-y,-z
-x,y,1/2-z
1/2+x,1/2+y,z
1/2-x,1/2-y,1/2+z
1/2+x,1/2-y,-z
1/2-x,1/2+y,1/2-z
loop_
_atom_site_type_symbol
_atom_site_label
_atom_site_fract_x
_atom_site_fract_y
_atom_site_fract_z
Si Si1 0.650296 0.288833 0.039901
Si Si2 0.335001 0.417705 0.781898
Si Si3 0.487963 0.775969 0.500897
Si Si4 0.773796 0.473454 0.245013
Si Si5 0.743901 0.677999 0.600421
Si Si6 0.533380 0.388804 0.500792
O O1 0.642261 0.370761 0.942421
O O2 0.584459 0.249543 0.007742
O O3 0.704704 0.240334 0.917942
O O4 0.677816 0.291704 0.301917
O O5 0.298443 0.493310 0.746290
O O6 0.276472 0.367736 0.873590
O O7 0.394621 0.415920 0.960011
O O8 0.500000 0.813359 0.250000
O O9 0.528659 0.699917 0.501437
O O10 0.500000 0.814745 0.750000
O O11 0.800912 0.500000 0.500000
O O12 0.769781 0.386456 0.233931
O O13 0.803786 0.500000 0.000000
O O14 0.500000 0.411132 0.250000
O O15 0.500000 0.411176 0.750000
#
# Coordination Sequence:
#
# PCOD9316974 Si02
#       6
#     8   8   8   8   8   8
#     4  12  21  34  60  88 119 160 201 258 306 361
#     4  11  21  37  57  84 116 166 198 250 299 366
#     4  10  20  34  52  82 114 154 194 248 294 344
#     4  10  22  38  58  79 118 161 198 237 301 361
#     4  11  23  36  56  88 120 156 203 251 311 367
#     4  10  19  32  54  80 109 149 198 246 281 332
#
# _framework density 21.896037
#
# number of rings (size 3 to 8) (size 9 to 14) (size 15 to 20)
#    0.000    1.333    6.667    2.000    0.000    0.000 
#    0.000    0.000    0.000   19.000    0.000    0.000 
#    0.000   16.000    0.000    0.000    0.000    0.000 
#
# Total GULP energy -133765.175758 kJ/mol
# GULP energy per Si atom -5573.548990 kJ/mol
# Density = 2.184620 g / cm^3
# Si number density = 21.896037 Si / 1000 Ang^3
#
#
#
# Elastic Constant Matrix: (Units=GPa)
#
#
# Indices 1 2 3 4 5 6 
#
# 1 49.1285 16.6541 10.0667 0.0000 0.0000 0.0000
# 2 16.6541 58.1797 9.9144 0.0000 0.0000 0.0000
# 3 10.0667 9.9144 150.7676 0.0000 0.0000 0.0000
# 4 0.0000 0.0000 0.0000 16.3114 0.0000 0.0000
# 5 0.0000 0.0000 0.0000 0.0000 27.8630 0.0000
# 6 0.0000 0.0000 0.0000 0.0000 0.0000 1.7544
#
#
#
# Elastic Compliance Matrix: (Units=1/GPa)
#
#
# Indices 1 2 3 4 5 6 
#
# 1 0.022722 -0.006316 -0.001102 0.000000 0.000000 0.000000
# 2 -0.006316 0.019139 -0.000837 0.000000 0.000000 0.000000
# 3 -0.001102 -0.000837 0.006761 0.000000 0.000000 0.000000
# 4 0.000000 0.000000 0.000000 0.061307 0.000000 0.000000
# 5 0.000000 0.000000 0.000000 0.000000 0.035890 0.000000
# 6 0.000000 0.000000 0.000000 0.000000 0.000000 0.569985
#
#
# Mechanical properties :
#
#
# Convention : Reuss Voigt Hill
#
# Bulk Modulus (GPa) = 31.14108 36.81624 33.97866
# Shear Modulus (GPa) = 6.72932 23.94849 15.33890
#
# Velocity S-wave (km/s) = 1.75499 3.31076 2.64963
# Velocity P-wave (km/s) = 4.28483 5.60940 4.99125
#
# Compressibility (1/GPa) = 0.03211192
#
# Stress axis : x y z
#
# Youngs Moduli (GPa) = 44.01071 52.24983 147.90021
#
# Poissons Ratio (x) = 0.33003 0.16295
# Poissons Ratio (y) = 0.27799 0.12376
# Poissons Ratio (z) = 0.04849 0.04372
#
# Static dielectric constant tensor:
#      x y z
#    x 1.789780 0.000000 0.000000 
#    y 0.000000 1.801180 0.000000 
#    z 0.000000 0.000000 2.039220 
# 
# From -- ./inp_files/3179.got.cif
#   From: 2010.05.17/outbox.cif.g08.bks.cpg/sg20_2_cif.got.tgz:3179.got - 2010.06.03 22:52:26.
