data_PCOD9316405
_publ_section_title
;
Structure prediction by ZEFSAII (Michael W. Deem and Ramdas Pophale) SiO2 
 PCOD9316405
Probable space group: C 2 2 21
;
_chemical_formula_sum "Si O2"
_cell_formula_units_Z 64
_cell_length_a 11.725365
_cell_length_b 10.896767
_cell_length_c 21.392582
_cell_angle_alpha 90.000000
_cell_angle_beta 90.000000
_cell_angle_gamma 90.000000
_cell_volume 2733.299619
_symmetry_space_group_name_H-M "C 2 2 21"
_symmetry_group_IT_number 20
_symmetry_cell_setting 'orthorhombic'
loop_
_space_group_symop_operation_xyz
x,y,z
-x,-y,1/2+z
x,-y,-z
-x,y,1/2-z
1/2+x,1/2+y,z
1/2-x,1/2-y,1/2+z
1/2+x,1/2-y,-z
1/2-x,1/2+y,1/2-z
loop_
_atom_site_type_symbol
_atom_site_label
_atom_site_fract_x
_atom_site_fract_y
_atom_site_fract_z
Si Si1 0.636914 0.626529 0.465048
Si Si2 0.147027 0.470450 0.372200
Si Si3 0.261764 0.275807 0.847091
Si Si4 0.499888 0.623263 0.347490
Si Si5 0.916228 0.875799 0.201736
Si Si6 0.188966 0.261482 0.581906
Si Si7 0.407068 0.147833 0.624695
Si Si8 0.184828 0.520695 0.231884
O O1 0.652845 0.500000 0.500000
O O2 0.734626 0.648905 0.412463
O O3 0.524430 0.619481 0.421759
O O4 0.628142 0.730782 0.516765
O O5 0.243319 0.364428 0.367075
O O6 0.187846 0.592037 0.407906
O O7 0.131012 0.508717 0.299649
O O8 0.032076 0.400768 0.397175
O O9 0.390262 0.302393 0.821921
O O10 0.191573 0.339909 0.793066
O O11 0.504330 0.488229 0.322776
O O12 0.402301 0.720548 0.337880
O O13 0.873956 0.798053 0.142327
O O14 0.807166 0.948355 0.230590
O O15 0.000000 0.810446 0.250000
O O16 0.307167 0.182025 0.576457
O O17 0.375995 0.048416 0.675663
#
# Coordination Sequence:
#
# PCOD9316405 Si02
#       8
#     8   8   8   8   8   8   8   8
#     4  10  17  42  73  91 133 181 235 286 345 430
#     4  11  24  41  63 100 144 180 231 296 349 444
#     4   8  20  39  63  94 128 174 229 285 350 400
#     4   8  18  37  67  94 124 181 224 281 345 415
#     4  10  21  37  64  99 132 173 231 283 348 429
#     4  11  24  41  70 100 136 194 233 290 369 425
#     4  10  22  43  63 100 135 181 235 276 371 423
#     4  10  21  39  65  95 133 187 226 283 362 433
#
# _framework density 23.414925
#
# number of rings (size 3 to 8) (size 9 to 14) (size 15 to 20)
#    0.750    1.500    1.250    1.125    5.250    3.500 
#    0.000    3.750    2.750    0.000    0.000    0.000 
#    0.000    0.000    0.000    0.000    0.000    0.000 
#
# Total GULP energy -178207.472353 kJ/mol
# GULP energy per Si atom -5568.983511 kJ/mol
# Density = 2.336163 g / cm^3
# Si number density = 23.414925 Si / 1000 Ang^3
#
#
#
# Elastic Constant Matrix: (Units=GPa)
#
#
# Indices 1 2 3 4 5 6 
#
# 1 63.9943 20.0893 24.6308 0.0000 0.0000 0.0000
# 2 20.0893 120.0445 18.8586 0.0000 0.0000 0.0000
# 3 24.6308 18.8586 80.7360 0.0000 0.0000 0.0000
# 4 0.0000 0.0000 0.0000 17.1374 0.0000 0.0000
# 5 0.0000 0.0000 0.0000 0.0000 19.5772 0.0000
# 6 0.0000 0.0000 0.0000 0.0000 0.0000 24.5659
#
#
#
# Elastic Compliance Matrix: (Units=1/GPa)
#
#
# Indices 1 2 3 4 5 6 
#
# 1 0.018281 -0.002266 -0.005048 0.000000 0.000000 0.000000
# 2 -0.002266 0.008929 -0.001394 0.000000 0.000000 0.000000
# 3 -0.005048 -0.001394 0.014252 0.000000 0.000000 0.000000
# 4 0.000000 0.000000 0.000000 0.058352 0.000000 0.000000
# 5 0.000000 0.000000 0.000000 0.000000 0.051080 0.000000
# 6 0.000000 0.000000 0.000000 0.000000 0.000000 0.040707
#
#
# Mechanical properties :
#
#
# Convention : Reuss Voigt Hill
#
# Bulk Modulus (GPa) = 41.58940 43.54803 42.56872
# Shear Modulus (GPa) = 23.03826 25.66918 24.35372
#
# Velocity S-wave (km/s) = 3.14014 3.31460 3.22855
# Velocity P-wave (km/s) = 5.56308 5.76953 5.66724
#
# Compressibility (1/GPa) = 0.02404459
#
# Stress axis : x y z
#
# Youngs Moduli (GPa) = 54.70272 112.00060 70.16745
#
# Poissons Ratio (x) = 0.25382 0.35418
# Poissons Ratio (y) = 0.12397 0.09782
# Poissons Ratio (z) = 0.27612 0.15615
#
# Static dielectric constant tensor:
#      x y z
#    x 2.010310 0.000000 0.000000 
#    y 0.000000 1.917750 0.000000 
#    z 0.000000 0.000000 1.909410 
# 
# From -- ./inp_files/30353.got.cif
#   From: 2010.05.17/outbox.cif.g08.bks.cpg/sg20_16_cif.got.tgz:30353.got - 2010.06.03 22:52:26.
