data_PCOD9316265
_publ_section_title
;
Structure prediction by ZEFSAII (Michael W. Deem and Ramdas Pophale) SiO2 
 PCOD9316265
Probable space group: C 2 2 21
;
_chemical_formula_sum "Si O2"
_cell_formula_units_Z 56
_cell_length_a 8.651768
_cell_length_b 21.343242
_cell_length_c 16.048033
_cell_angle_alpha 90.000000
_cell_angle_beta 90.000000
_cell_angle_gamma 90.000000
_cell_volume 2963.378069
_symmetry_space_group_name_H-M "C 2 2 21"
_symmetry_group_IT_number 20
_symmetry_cell_setting 'orthorhombic'
loop_
_space_group_symop_operation_xyz
x,y,z
-x,-y,1/2+z
x,-y,-z
-x,y,1/2-z
1/2+x,1/2+y,z
1/2-x,1/2-y,1/2+z
1/2+x,1/2-y,-z
1/2-x,1/2+y,1/2-z
loop_
_atom_site_type_symbol
_atom_site_label
_atom_site_fract_x
_atom_site_fract_y
_atom_site_fract_z
Si Si1 0.816068 0.222066 0.235375
Si Si2 0.305200 0.800461 0.909679
Si Si3 0.775108 0.591329 0.476931
Si Si4 0.267811 0.448572 0.621344
Si Si5 0.523091 0.000000 0.500000
Si Si6 0.332008 0.231395 0.436744
Si Si7 0.323247 0.916409 0.713898
Si Si8 0.480334 0.500000 0.000000
O O1 0.741042 0.236469 0.325183
O O2 0.748630 0.252650 0.150419
O O3 0.760182 0.150801 0.219382
O O4 0.000000 0.226548 0.250000
O O5 0.266734 0.874343 0.895156
O O6 0.487018 0.786021 0.923906
O O7 0.205420 0.778997 0.989053
O O8 0.923692 0.561690 0.520700
O O9 0.761231 0.665190 0.468520
O O10 0.803391 0.565946 0.382002
O O11 0.629956 0.558495 0.518877
O O12 0.265150 0.458719 0.719746
O O13 0.417127 0.474635 0.575497
O O14 0.128982 0.484678 0.578011
O O15 0.500000 0.910873 0.750000
#
# Coordination Sequence:
#
# PCOD9316265 Si02
#       8
#     8   8   8   8   4   8   8   4
#     4  10  20  34  56  85 118 145 188 241 283 331
#     4  11  22  37  61  88 116 150 192 237 290 343
#     4  10  20  35  56  84 112 146 187 230 284 326
#     4  10  20  35  56  84 112 146 187 230 284 326
#     4  10  16  36  54  78 112 148 182 224 274 340
#     4  11  22  37  61  88 116 150 192 237 290 343
#     4  10  18  32  56  81 110 141 190 239 279 317
#     4  10  24  32  54  82 116 148 178 236 270 340
#
# _framework density 18.897352000000001
#
# number of rings (size 3 to 8) (size 9 to 14) (size 15 to 20)
#    0.000    1.714    2.857    3.857   10.000    0.000 
#    0.000    0.000    0.000   10.286    0.000    0.000 
#    0.000    0.000    0.000    0.000    0.000    0.000 
#
# Total GULP energy -155932.323207 kJ/mol
# GULP energy per Si atom -5569.011543 kJ/mol
# Density = 1.885434 g / cm^3
# Si number density = 18.897352 Si / 1000 Ang^3
#
#
#
# Elastic Constant Matrix: (Units=GPa)
#
#
# Indices 1 2 3 4 5 6 
#
# 1 93.7591 17.2595 16.1967 0.0000 0.0000 0.0000
# 2 17.2595 36.6735 39.3004 0.0000 0.0000 0.0000
# 3 16.1967 39.3004 99.2064 0.0000 0.0000 0.0000
# 4 0.0000 0.0000 0.0000 22.5950 0.0000 0.0000
# 5 0.0000 0.0000 0.0000 0.0000 10.5272 0.0000
# 6 0.0000 0.0000 0.0000 0.0000 0.0000 59.7746
#
#
#
# Elastic Compliance Matrix: (Units=1/GPa)
#
#
# Indices 1 2 3 4 5 6 
#
# 1 0.011690 -0.006006 0.000471 0.000000 0.000000 0.000000
# 2 -0.006006 0.050468 -0.019012 0.000000 0.000000 0.000000
# 3 0.000471 -0.019012 0.017535 0.000000 0.000000 0.000000
# 4 0.000000 0.000000 0.000000 0.044258 0.000000 0.000000
# 5 0.000000 0.000000 0.000000 0.000000 0.094992 0.000000
# 6 0.000000 0.000000 0.000000 0.000000 0.000000 0.016730
#
#
# Mechanical properties :
#
#
# Convention : Reuss Voigt Hill
#
# Bulk Modulus (GPa) = 32.68203 41.68358 37.18281
# Shear Modulus (GPa) = 16.95102 29.03819 22.99461
#
# Velocity S-wave (km/s) = 2.99825 3.92424 3.49207
# Velocity P-wave (km/s) = 5.41462 6.52983 5.99820
#
# Compressibility (1/GPa) = 0.03059785
#
# Stress axis : x y z
#
# Youngs Moduli (GPa) = 85.54382 19.81435 57.02921
#
# Poissons Ratio (x) = 0.11901 -0.02685
# Poissons Ratio (y) = 0.51378 1.08426
# Poissons Ratio (z) = -0.04027 0.37672
#
# Static dielectric constant tensor:
#      x y z
#    x 1.724680 0.000000 0.000000 
#    y 0.000000 1.696020 0.000000 
#    z 0.000000 0.000000 1.679910 
# 
# From -- ./inp_files/23962.got.cif
#   From: 2010.05.17/outbox.cif.g08.bks.cpg/sg20_12_cif.got.tgz:23962.got - 2010.06.03 22:52:26.
