data_PCOD9316678
_publ_section_title
;
Structure prediction by ZEFSAII (Michael W. Deem and Ramdas Pophale) SiO2 
 PCOD9316678
Probable space group: C 2 2 21
;
_chemical_formula_sum "Si O2"
_cell_formula_units_Z 32
_cell_length_a 7.508694
_cell_length_b 12.763396
_cell_length_c 14.056746
_cell_angle_alpha 90.000000
_cell_angle_beta 90.000000
_cell_angle_gamma 90.000000
_cell_volume 1347.148424
_symmetry_space_group_name_H-M "C 2 2 21"
_symmetry_group_IT_number 20
_symmetry_cell_setting 'orthorhombic'
loop_
_space_group_symop_operation_xyz
x,y,z
-x,-y,1/2+z
x,-y,-z
-x,y,1/2-z
1/2+x,1/2+y,z
1/2-x,1/2-y,1/2+z
1/2+x,1/2-y,-z
1/2-x,1/2+y,1/2-z
loop_
_atom_site_type_symbol
_atom_site_label
_atom_site_fract_x
_atom_site_fract_y
_atom_site_fract_z
Si Si1 0.421758 0.043367 0.103625
Si Si2 0.015265 0.898278 0.434251
Si Si3 0.788810 0.705231 0.420860
Si Si4 0.274407 0.525645 0.208930
O O1 0.511962 0.156387 0.087112
O O2 0.590460 0.989988 0.156661
O O3 0.265054 0.038319 0.179948
O O4 0.393041 0.000000 0.000000
O O5 0.174425 0.835881 0.489972
O O6 0.089006 0.944029 0.335596
O O7 0.839063 0.826873 0.422439
O O8 0.986680 0.000000 0.500000
O O9 0.694589 0.643971 0.332796
#
# Coordination Sequence:
#
# PCOD9316678 Si02
#       4
#     8   8   8   8
#     4   9  14  31  56  79 105 145 183 221 274 323
#     4  10  18  35  55  82 112 146 179 226 272 325
#     4   9  17  31  56  81 109 142 182 218 273 323
#     4   8  16  31  56  75 109 145 182 220 273 325
#
# _framework density 23.753879000000001
#
# number of rings (size 3 to 8) (size 9 to 14) (size 15 to 20)
#    1.500    1.500    2.500    0.000    0.000    0.000 
#    0.000   12.500    0.000    0.000    0.000    0.000 
#    0.000    0.000    0.000    0.000    0.000    0.000 
#
# Total GULP energy -89070.576212 kJ/mol
# GULP energy per Si atom -5566.911013 kJ/mol
# Density = 2.369981 g / cm^3
# Si number density = 23.753879 Si / 1000 Ang^3
#
#
#
# Elastic Constant Matrix: (Units=GPa)
#
#
# Indices 1 2 3 4 5 6 
#
# 1 97.8519 35.1197 42.2180 0.0000 0.0000 0.0000
# 2 35.1197 122.8259 51.9847 0.0000 0.0000 0.0000
# 3 42.2180 51.9847 196.4507 0.0000 0.0000 0.0000
# 4 0.0000 0.0000 0.0000 7.8955 0.0000 0.0000
# 5 0.0000 0.0000 0.0000 0.0000 -295.6876 0.0000
# 6 0.0000 0.0000 0.0000 0.0000 0.0000 -23.4394
#
#
#
# Elastic Compliance Matrix: (Units=1/GPa)
#
#
# Indices 1 2 3 4 5 6 
#
# 1 0.011973 -0.002629 -0.001877 0.000000 0.000000 0.000000
# 2 -0.002629 0.009746 -0.002014 0.000000 0.000000 0.000000
# 3 -0.001877 -0.002014 0.006027 0.000000 0.000000 0.000000
# 4 0.000000 0.000000 0.000000 0.126654 0.000000 0.000000
# 5 0.000000 0.000000 0.000000 0.000000 -0.003382 0.000000
# 6 0.000000 0.000000 0.000000 0.000000 0.000000 -0.042663
#
#
# Mechanical properties :
#
#
# Convention : Reuss Voigt Hill
#
# Bulk Modulus (GPa) = 68.00404 75.08591 71.54497
# Shear Modulus (GPa) = 39.58929 -43.05923 -1.73497
#
# Velocity S-wave (km/s) = 4.08689 -4.26223 -0.85556
# Velocity P-wave (km/s) = 7.13869 2.73065 5.40451
#
# Compressibility (1/GPa) = 0.01470501
#
# Stress axis : x y z
#
# Youngs Moduli (GPa) = 83.52090 102.60983 165.92768
#
# Poissons Ratio (x) = 0.26975 0.31151
# Poissons Ratio (y) = 0.21957 0.33417
# Poissons Ratio (z) = 0.15680 0.20665
#
# Static dielectric constant tensor:
#      x y z
#    x 1.956620 0.000000 0.000000 
#    y 0.000000 2.504210 0.000000 
#    z 0.000000 0.000000 1.931950 
# 
# From -- ./inp_files/18220.got.cif
#   From: 2010.05.17/outbox.cif.g08.bks.cpg/sg20_10_cif.got.tgz:18220.got - 2010.06.03 22:52:26.
