data_PCOD9316967
_publ_section_title
;
Structure prediction by ZEFSAII (Michael W. Deem and Ramdas Pophale) SiO2 
 PCOD9316967
Probable space group: C 2 2 21
;
_chemical_formula_sum "Si O2"
_cell_formula_units_Z 64
_cell_length_a 8.583593
_cell_length_b 21.741729
_cell_length_c 18.778275
_cell_angle_alpha 90.000000
_cell_angle_beta 90.000000
_cell_angle_gamma 90.000000
_cell_volume 3504.442107
_symmetry_space_group_name_H-M "C 2 2 21"
_symmetry_group_IT_number 20
_symmetry_cell_setting 'orthorhombic'
loop_
_space_group_symop_operation_xyz
x,y,z
-x,-y,1/2+z
x,-y,-z
-x,y,1/2-z
1/2+x,1/2+y,z
1/2-x,1/2-y,1/2+z
1/2+x,1/2-y,-z
1/2-x,1/2+y,1/2-z
loop_
_atom_site_type_symbol
_atom_site_label
_atom_site_fract_x
_atom_site_fract_y
_atom_site_fract_z
Si Si1 0.561908 0.369423 0.330494
Si Si2 0.063290 0.004703 0.330925
Si Si3 0.936710 0.504703 0.330925
Si Si4 0.561908 0.869423 0.169506
Si Si5 0.936563 0.632430 0.169422
Si Si6 0.438391 0.748430 0.920249
Si Si7 0.061609 0.251570 0.079751
Si Si8 0.436563 0.367570 0.669422
O O1 0.500000 0.363066 0.250000
O O2 0.518379 0.437319 0.359881
O O3 0.750000 0.367879 0.326952
O O4 0.508526 0.312926 0.378870
O O5 0.250000 0.009311 0.330232
O O6 0.000000 0.003848 0.250000
O O7 0.995092 0.067465 0.362370
O O8 0.981621 0.437319 0.359881
O O9 0.000000 0.503848 0.250000
O O10 0.004908 0.567465 0.362370
O O11 0.500000 0.863066 0.250000
O O12 0.508526 0.812926 0.121130
O O13 0.987347 0.690846 0.123199
O O14 0.750000 0.631108 0.172944
O O15 0.000000 0.638372 0.250000
O O16 0.250000 0.747764 0.921490
O O17 0.500000 0.750000 1.000000
O O18 0.012653 0.190846 0.123199
O O19 0.500000 0.361628 0.750000
#
# Coordination Sequence:
#
# PCOD9316967 Si02
#       8
#     8   8   8   8   8   8   8   8
#     4   9  18  33  53  77 101 127 164 205 245 292
#     4   9  16  28  49  75 101 127 157 199 246 290
#     4   9  16  28  49  75 101 127 157 199 246 290
#     4   9  18  33  53  77 101 127 164 205 245 292
#     4  10  19  32  52  77 102 128 162 203 245 293
#     4  10  22  37  51  71 100 133 169 206 244 290
#     4  10  22  37  51  71 100 133 169 206 244 290
#     4  10  19  32  52  77 102 128 162 203 245 293
#
# _framework density 18.262535
#
# number of rings (size 3 to 8) (size 9 to 14) (size 15 to 20)
#    0.000    2.500    0.000    3.750    0.000    4.000 
#    0.000    1.250    0.000    7.500    0.000    0.000 
#    0.000    0.000    0.000    0.000    0.000    0.000 
#
# Total GULP energy -178385.494867 kJ/mol
# GULP energy per Si atom -5574.546715 kJ/mol
# Density = 1.822097 g / cm^3
# Si number density = 18.262535 Si / 1000 Ang^3
#
#
#
# Elastic Constant Matrix: (Units=GPa)
#
#
# Indices 1 2 3 4 5 6 
#
# 1 28.1558 41.7249 16.5256 0.0000 0.0000 0.0000
# 2 41.7249 237.8041 86.9799 0.0000 0.0000 0.0000
# 3 16.5256 86.9799 79.8904 0.0000 0.0000 0.0000
# 4 0.0000 0.0000 0.0000 -1.1842 0.0000 0.0000
# 5 0.0000 0.0000 0.0000 0.0000 24.8892 0.0000
# 6 0.0000 0.0000 0.0000 0.0000 0.0000 25.2271
#
#
#
# Elastic Compliance Matrix: (Units=1/GPa)
#
#
# Indices 1 2 3 4 5 6 
#
# 1 0.048073 -0.007973 -0.001264 0.000000 0.000000 0.000000
# 2 -0.007973 0.008310 -0.007398 0.000000 0.000000 0.000000
# 3 -0.001264 -0.007398 0.020833 0.000000 0.000000 0.000000
# 4 0.000000 0.000000 0.000000 -0.844455 0.000000 0.000000
# 5 0.000000 0.000000 0.000000 0.000000 0.040178 0.000000
# 6 0.000000 0.000000 0.000000 0.000000 0.000000 0.039640
#
#
# Mechanical properties :
#
#
# Convention : Reuss Voigt Hill
#
# Bulk Modulus (GPa) = 22.75471 70.70123 46.72797
# Shear Modulus (GPa) = -7.81860 23.16109 7.67124
#
# Velocity S-wave (km/s) = -2.07136 3.56508 2.05174
# Velocity P-wave (km/s) = 2.60118 7.46621 5.59064
#
# Compressibility (1/GPa) = 0.04394695
#
# Stress axis : x y z
#
# Youngs Moduli (GPa) = 20.80154 120.33659 47.99970
#
# Poissons Ratio (x) = 0.95939 0.06068
# Poissons Ratio (y) = 0.16584 0.35512
# Poissons Ratio (z) = 0.02630 0.89029
#
# Static dielectric constant tensor:
#      x y z
#    x 1.624710 0.000000 0.000000 
#    y 0.000000 1.691760 0.000000 
#    z 0.000000 0.000000 1.565520 
# 
# From -- ./inp_files/23948.got.cif
#   From: 2010.05.17/outbox.cif.g08.bks.cpg/sg20_12_cif.got.tgz:23948.got - 2010.06.03 22:52:26.
