data_PCOD9316308
_publ_section_title
;
Structure prediction by ZEFSAII (Michael W. Deem and Ramdas Pophale) SiO2 
 PCOD9316308
Probable space group: C 2 2 21
;
_chemical_formula_sum "Si O2"
_cell_formula_units_Z 36
_cell_length_a 18.984133
_cell_length_b 8.317847
_cell_length_c 8.510319
_cell_angle_alpha 90.000000
_cell_angle_beta 90.000000
_cell_angle_gamma 90.000000
_cell_volume 1343.839910
_symmetry_space_group_name_H-M "C 2 2 21"
_symmetry_group_IT_number 20
_symmetry_cell_setting 'orthorhombic'
loop_
_space_group_symop_operation_xyz
x,y,z
-x,-y,1/2+z
x,-y,-z
-x,y,1/2-z
1/2+x,1/2+y,z
1/2-x,1/2-y,1/2+z
1/2+x,1/2-y,-z
1/2-x,1/2+y,1/2-z
loop_
_atom_site_type_symbol
_atom_site_label
_atom_site_fract_x
_atom_site_fract_y
_atom_site_fract_z
Si Si1 0.152127 0.881791 0.174832
Si Si2 0.540138 0.178576 0.543379
Si Si3 0.292289 0.948267 0.816342
Si Si4 0.500000 0.387475 0.250000
Si Si5 0.617962 0.220198 0.840723
O O1 0.209544 0.017893 0.216719
O O2 0.177411 0.728748 0.279902
O O3 0.073343 0.959221 0.188448
O O4 0.148806 0.806725 0.997983
O O5 0.530138 0.281876 0.389357
O O6 0.595034 0.262980 0.659213
O O7 0.460619 0.164819 0.607373
O O8 0.562697 0.000000 0.500000
O O9 0.332702 0.068599 0.699771
O O10 0.296654 0.000000 0.000000
#
# Coordination Sequence:
#
# PCOD9316308 Si02
#       5
#     8   8   8   4   8
#     4  11  24  42  67  98 134 175 225 282 344 408
#     4  10  17  29  55  92 129 166 218 280 333 392
#     4  12  24  40  65  97 134 176 223 279 342 408
#     4  10  20  38  66  96 128 176 228 274 328 404
#     4  10  20  34  56  91 132 171 215 276 342 401
#
# _framework density 26.788905
#
# number of rings (size 3 to 8) (size 9 to 14) (size 15 to 20)
#    0.000    1.333    0.000    9.333    0.000    0.000 
#    0.000    2.222    0.000   22.667    0.000    0.000 
#    0.000    0.000    0.000    0.000    0.000    0.000 
#
# Total GULP energy -100496.745124 kJ/mol
# GULP energy per Si atom -5583.152507 kJ/mol
# Density = 2.672793 g / cm^3
# Si number density = 26.788905 Si / 1000 Ang^3
#
#
#
# Elastic Constant Matrix: (Units=GPa)
#
#
# Indices 1 2 3 4 5 6 
#
# 1 199.1382 23.2689 28.1329 0.0000 0.0000 0.0000
# 2 23.2689 84.9094 57.8092 0.0000 0.0000 0.0000
# 3 28.1329 57.8092 146.8286 0.0000 0.0000 0.0000
# 4 0.0000 0.0000 0.0000 59.7847 0.0000 0.0000
# 5 0.0000 0.0000 0.0000 0.0000 36.7541 0.0000
# 6 0.0000 0.0000 0.0000 0.0000 0.0000 35.1679
#
#
#
# Elastic Compliance Matrix: (Units=1/GPa)
#
#
# Indices 1 2 3 4 5 6 
#
# 1 0.005226 -0.001025 -0.000598 0.000000 0.000000 0.000000
# 2 -0.001025 0.016292 -0.006218 0.000000 0.000000 0.000000
# 3 -0.000598 -0.006218 0.009373 0.000000 0.000000 0.000000
# 4 0.000000 0.000000 0.000000 0.016727 0.000000 0.000000
# 5 0.000000 0.000000 0.000000 0.000000 0.027208 0.000000
# 6 0.000000 0.000000 0.000000 0.000000 0.000000 0.028435
#
#
# Mechanical properties :
#
#
# Convention : Reuss Voigt Hill
#
# Bulk Modulus (GPa) = 65.74955 72.14424 68.94690
# Shear Modulus (GPa) = 40.31887 47.78568 44.05228
#
# Velocity S-wave (km/s) = 3.88372 4.22807 4.05955
# Velocity P-wave (km/s) = 6.68639 7.12913 6.91131
#
# Compressibility (1/GPa) = 0.01520923
#
# Stress axis : x y z
#
# Youngs Moduli (GPa) = 191.35595 61.38156 106.68643
#
# Poissons Ratio (x) = 0.06293 0.06376
# Poissons Ratio (y) = 0.19618 0.66336
# Poissons Ratio (z) = 0.11436 0.38166
#
# Static dielectric constant tensor:
#      x y z
#    x 2.252320 0.000000 0.000000 
#    y 0.000000 2.111460 0.000000 
#    z 0.000000 0.000000 2.177360 
# 
# From -- ./inp_files/9876.got.cif
#   From: 2010.05.17/outbox.cif.g08.bks.cpg/sg20_5_cif.got.tgz:9876.got - 2010.06.03 22:52:26.
