data_PCOD9316519
_publ_section_title
;
Structure prediction by ZEFSAII (Michael W. Deem and Ramdas Pophale) SiO2 
 PCOD9316519
Probable space group: C 2 2 21
;
_chemical_formula_sum "Si O2"
_cell_formula_units_Z 28
_cell_length_a 21.668106
_cell_length_b 12.840999
_cell_length_c 5.039737
_cell_angle_alpha 90.000000
_cell_angle_beta 90.000000
_cell_angle_gamma 90.000000
_cell_volume 1402.257065
_symmetry_space_group_name_H-M "C 2 2 21"
_symmetry_group_IT_number 20
_symmetry_cell_setting 'orthorhombic'
loop_
_space_group_symop_operation_xyz
x,y,z
-x,-y,1/2+z
x,-y,-z
-x,y,1/2-z
1/2+x,1/2+y,z
1/2-x,1/2-y,1/2+z
1/2+x,1/2-y,-z
1/2-x,1/2+y,1/2-z
loop_
_atom_site_type_symbol
_atom_site_label
_atom_site_fract_x
_atom_site_fract_y
_atom_site_fract_z
Si Si1 0.500000 0.429821 0.250000
Si Si2 0.250042 0.611607 0.932951
Si Si3 0.321958 0.175727 0.064896
Si Si4 0.040479 0.273379 0.516467
O O1 0.479211 0.500000 0.500000
O O2 0.548328 0.346229 0.374609
O O3 0.195613 0.636089 0.143765
O O4 0.277544 0.500000 0.000000
O O5 0.298468 0.705019 0.955125
O O6 0.219533 0.614295 0.645069
O O7 0.393578 0.173626 0.993614
O O8 0.000000 0.270119 0.250000
O O9 0.000000 0.324741 0.750000
#
# Coordination Sequence:
#
# PCOD9316519 Si02
#       4
#     4   8   8   8
#     4  10  18  32  48  78 114 144 184 220 270 340
#     4  10  21  38  60  85 111 147 193 239 278 326
#     4  10  21  38  60  84 114 150 188 229 288 334
#     4  10  20  34  55  79 112 155 174 223 284 339
#
# _framework density 19.967808999999999
#
# number of rings (size 3 to 8) (size 9 to 14) (size 15 to 20)
#    0.857    1.143    1.429    2.571    0.000    1.143 
#    0.000    0.000    0.000   17.143    0.000    0.000 
#    0.000    0.000    0.000    0.000    0.000    0.000 
#
# Total GULP energy -78022.162998 kJ/mol
# GULP energy per Si atom -5573.011643 kJ/mol
# Density = 1.992236 g / cm^3
# Si number density = 19.967809 Si / 1000 Ang^3
#
#
#
# Elastic Constant Matrix: (Units=GPa)
#
#
# Indices 1 2 3 4 5 6 
#
# 1 68.9070 -19.6006 14.2265 0.0000 0.0000 0.0000
# 2 -19.6006 46.6769 -3.3526 0.0000 0.0000 0.0000
# 3 14.2265 -3.3526 104.0767 0.0000 0.0000 0.0000
# 4 0.0000 0.0000 0.0000 15.3191 0.0000 0.0000
# 5 0.0000 0.0000 0.0000 0.0000 16.7032 0.0000
# 6 0.0000 0.0000 0.0000 0.0000 0.0000 2.3511
#
#
#
# Elastic Compliance Matrix: (Units=1/GPa)
#
#
# Indices 1 2 3 4 5 6 
#
# 1 0.016922 0.006956 -0.002089 0.000000 0.000000 0.000000
# 2 0.006956 0.024333 -0.000167 0.000000 0.000000 0.000000
# 3 -0.002089 -0.000167 0.009888 0.000000 0.000000 0.000000
# 4 0.000000 0.000000 0.000000 0.065278 0.000000 0.000000
# 5 0.000000 0.000000 0.000000 0.000000 0.059869 0.000000
# 6 0.000000 0.000000 0.000000 0.000000 0.000000 0.425342
#
#
# Mechanical properties :
#
#
# Convention : Reuss Voigt Hill
#
# Bulk Modulus (GPa) = 16.51712 22.46747 19.49229
# Shear Modulus (GPa) = 8.16442 22.10048 15.13245
#
# Velocity S-wave (km/s) = 2.02427 3.33048 2.75588
# Velocity P-wave (km/s) = 3.70856 5.10546 4.46201
#
# Compressibility (1/GPa) = 0.06054325
#
# Stress axis : x y z
#
# Youngs Moduli (GPa) = 59.09387 41.09679 101.12778
#
# Poissons Ratio (x) = -0.28587 0.21126
# Poissons Ratio (y) = -0.41105 0.01689
# Poissons Ratio (z) = 0.12345 0.00686
#
# Static dielectric constant tensor:
#      x y z
#    x 1.680350 0.000000 0.000000 
#    y 0.000000 1.751010 0.000000 
#    z 0.000000 0.000000 1.693600 
# 
# From -- ./inp_files/3016.got.cif
#   From: 2010.05.17/outbox.cif.g08.bks.cpg/sg20_2_cif.got.tgz:3016.got - 2010.06.03 22:52:26.
