data_PCOD9316567
_publ_section_title
;
Structure prediction by ZEFSAII (Michael W. Deem and Ramdas Pophale) SiO2 
 PCOD9316567
Probable space group: C 2 2 21
;
_chemical_formula_sum "Si O2"
_cell_formula_units_Z 48
_cell_length_a 8.425691
_cell_length_b 30.296270
_cell_length_c 8.048864
_cell_angle_alpha 90.000000
_cell_angle_beta 90.000000
_cell_angle_gamma 90.000000
_cell_volume 2054.609443
_symmetry_space_group_name_H-M "C 2 2 21"
_symmetry_group_IT_number 20
_symmetry_cell_setting 'orthorhombic'
loop_
_space_group_symop_operation_xyz
x,y,z
-x,-y,1/2+z
x,-y,-z
-x,y,1/2-z
1/2+x,1/2+y,z
1/2-x,1/2-y,1/2+z
1/2+x,1/2-y,-z
1/2-x,1/2+y,1/2-z
loop_
_atom_site_type_symbol
_atom_site_label
_atom_site_fract_x
_atom_site_fract_y
_atom_site_fract_z
Si Si1 0.817169 0.610575 0.199111
Si Si2 0.318900 0.347952 0.230633
Si Si3 0.321683 0.067668 0.832199
Si Si4 0.693335 0.806134 0.895604
Si Si5 0.106888 0.716614 0.586367
Si Si6 0.180443 0.479285 0.815625
O O1 0.754585 0.659398 0.250258
O O2 0.746356 0.569617 0.307022
O O3 0.000000 0.617171 0.250000
O O4 0.820449 0.588153 0.016715
O O5 0.500000 0.334852 0.250000
O O6 0.294078 0.399867 0.235752
O O7 0.220321 0.324673 0.377625
O O8 0.241843 0.332297 0.060910
O O9 0.500000 0.070569 0.750000
O O10 0.261758 0.017879 0.807531
O O11 0.790627 0.760849 0.909398
O O12 0.509217 0.792014 0.930840
O O13 0.000000 0.720034 0.750000
O O14 0.000000 0.473038 0.750000
O O15 0.179517 0.500000 0.000000
#
# Coordination Sequence:
#
# PCOD9316567 Si02
#       6
#     8   8   8   8   8   8
#     4  11  21  34  61  95 125 163 212 265 328 400
#     4  11  23  40  61  85 120 167 216 267 327 392
#     4  11  21  38  61  91 129 164 209 267 330 400
#     4  11  23  41  64  93 128 169 220 276 336 401
#     4  10  23  41  63  94 130 167 215 273 335 402
#     4  10  18  32  57  92 129 162 204 260 324 395
#
# _framework density 23.362106000000001
#
# number of rings (size 3 to 8) (size 9 to 14) (size 15 to 20)
#    0.000    1.333    0.000   10.000    0.000    7.333 
#    0.000    0.000    0.000    7.000    0.000    0.000 
#    0.000    0.000    0.000    0.000    0.000    0.000 
#
# Total GULP energy -133930.520642 kJ/mol
# GULP energy per Si atom -5580.438360 kJ/mol
# Density = 2.330893 g / cm^3
# Si number density = 23.362106 Si / 1000 Ang^3
#
#
#
# Elastic Constant Matrix: (Units=GPa)
#
#
# Indices 1 2 3 4 5 6 
#
# 1 59.9371 24.1324 6.2149 0.0000 0.0000 0.0000
# 2 24.1324 188.2813 32.9256 0.0000 0.0000 0.0000
# 3 6.2149 32.9256 124.8455 0.0000 0.0000 0.0000
# 4 0.0000 0.0000 0.0000 66.3008 0.0000 0.0000
# 5 0.0000 0.0000 0.0000 0.0000 3.0166 0.0000
# 6 0.0000 0.0000 0.0000 0.0000 0.0000 16.2702
#
#
#
# Elastic Compliance Matrix: (Units=1/GPa)
#
#
# Indices 1 2 3 4 5 6 
#
# 1 0.017602 -0.002205 -0.000295 0.000000 0.000000 0.000000
# 2 -0.002205 0.005844 -0.001432 0.000000 0.000000 0.000000
# 3 -0.000295 -0.001432 0.008402 0.000000 0.000000 0.000000
# 4 0.000000 0.000000 0.000000 0.015083 0.000000 0.000000
# 5 0.000000 0.000000 0.000000 0.000000 0.331501 0.000000
# 6 0.000000 0.000000 0.000000 0.000000 0.000000 0.061462
#
#
# Mechanical properties :
#
#
# Convention : Reuss Voigt Hill
#
# Bulk Modulus (GPa) = 41.68978 55.51219 48.60099
# Shear Modulus (GPa) = 10.97087 37.77024 24.37056
#
# Velocity S-wave (km/s) = 2.16938 4.02522 3.23331
# Velocity P-wave (km/s) = 4.91515 6.73917 5.89810
#
# Compressibility (1/GPa) = 0.02398669
#
# Stress axis : x y z
#
# Youngs Moduli (GPa) = 56.81059 171.11270 119.01764
#
# Poissons Ratio (x) = 0.37723 0.03509
# Poissons Ratio (y) = 0.12524 0.17038
# Poissons Ratio (z) = 0.01675 0.24495
#
# Static dielectric constant tensor:
#      x y z
#    x 1.879880 0.000000 0.000000 
#    y 0.000000 1.965580 0.000000 
#    z 0.000000 0.000000 1.959550 
# 
# From -- ./inp_files/6482.got.cif
#   From: 2010.05.17/outbox.cif.g08.bks.cpg/sg20_4_cif.got.tgz:6482.got - 2010.06.03 22:52:26.
