data_PCOD9316446
_publ_section_title
;
Structure prediction by ZEFSAII (Michael W. Deem and Ramdas Pophale) SiO2 
 PCOD9316446
Probable space group: C 2 2 21
;
_chemical_formula_sum "Si O2"
_cell_formula_units_Z 64
_cell_length_a 7.743271
_cell_length_b 17.152650
_cell_length_c 17.685925
_cell_angle_alpha 90.000000
_cell_angle_beta 90.000000
_cell_angle_gamma 90.000000
_cell_volume 2349.002419
_symmetry_space_group_name_H-M "C 2 2 21"
_symmetry_group_IT_number 20
_symmetry_cell_setting 'orthorhombic'
loop_
_space_group_symop_operation_xyz
x,y,z
-x,-y,1/2+z
x,-y,-z
-x,y,1/2-z
1/2+x,1/2+y,z
1/2-x,1/2-y,1/2+z
1/2+x,1/2-y,-z
1/2-x,1/2+y,1/2-z
loop_
_atom_site_type_symbol
_atom_site_label
_atom_site_fract_x
_atom_site_fract_y
_atom_site_fract_z
Si Si1 0.941840 0.393892 0.990138
Si Si2 0.263863 0.414115 0.289123
Si Si3 0.900254 0.791792 0.650242
Si Si4 0.621012 0.107990 0.858728
Si Si5 0.217285 0.257603 0.833573
Si Si6 0.064311 0.609000 0.323880
Si Si7 0.573268 0.558535 0.937454
Si Si8 0.040755 0.218320 0.975679
O O1 0.090837 0.408177 0.052287
O O2 0.946195 0.301073 0.973851
O O3 0.760086 0.419442 0.025483
O O4 0.960218 0.429822 0.906217
O O5 0.248503 0.434881 0.200521
O O6 0.323998 0.324072 0.294501
O O7 0.376386 0.462476 0.350613
O O8 0.071743 0.405990 0.324405
O O9 0.845810 0.700849 0.652312
O O10 0.906023 0.790615 0.816262
O O11 0.754808 0.852427 0.677248
O O12 0.927062 0.806006 0.561115
O O13 0.072348 0.320694 0.821106
O O14 0.204429 0.238245 0.922473
O O15 0.000000 0.562124 0.250000
O O16 0.497092 0.500000 0.000000
O O17 0.467068 0.639826 0.937249
#
# Coordination Sequence:
#
# PCOD9316446 Si02
#       8
#     8   8   8   8   8   8   8   8
#     4   9  18  32  49  75 113 150 195 252 305 363
#     4   8  14  27  46  72 104 139 191 241 288 355
#     4  10  18  29  50  74 114 151 189 252 313 367
#     4   8  14  26  48  70  98 142 188 243 288 347
#     4   9  19  30  48  78 112 150 192 249 308 367
#     4  11  21  31  48  75 117 151 196 252 317 375
#     4  10  18  30  52  84 121 157 198 255 316 380
#     4   9  16  31  52  81 112 151 201 249 303 366
#
# _framework density 27.245608000000001
#
# number of rings (size 3 to 8) (size 9 to 14) (size 15 to 20)
#    0.000    2.750    1.250    3.000    1.750    1.500 
#    0.000    0.000    5.500    0.000    0.000    7.875 
#    0.000    8.250    0.000    0.000    0.000    0.000 
#
# Total GULP energy -178767.070515 kJ/mol
# GULP energy per Si atom -5586.470954 kJ/mol
# Density = 2.718360 g / cm^3
# Si number density = 27.245608 Si / 1000 Ang^3
#
#
#
# Elastic Constant Matrix: (Units=GPa)
#
#
# Indices 1 2 3 4 5 6 
#
# 1 113.7436 27.5069 35.0558 0.0000 0.0000 0.0000
# 2 27.5069 121.4585 11.5581 0.0000 0.0000 0.0000
# 3 35.0558 11.5581 177.2179 0.0000 0.0000 0.0000
# 4 0.0000 0.0000 0.0000 15.4328 0.0000 0.0000
# 5 0.0000 0.0000 0.0000 0.0000 30.7527 0.0000
# 6 0.0000 0.0000 0.0000 0.0000 0.0000 17.1542
#
#
#
# Elastic Compliance Matrix: (Units=1/GPa)
#
#
# Indices 1 2 3 4 5 6 
#
# 1 0.009848 -0.002058 -0.001814 0.000000 0.000000 0.000000
# 2 -0.002058 0.008715 -0.000161 0.000000 0.000000 0.000000
# 3 -0.001814 -0.000161 0.006012 0.000000 0.000000 0.000000
# 4 0.000000 0.000000 0.000000 0.064797 0.000000 0.000000
# 5 0.000000 0.000000 0.000000 0.000000 0.032517 0.000000
# 6 0.000000 0.000000 0.000000 0.000000 0.000000 0.058295
#
#
# Mechanical properties :
#
#
# Convention : Reuss Voigt Hill
#
# Bulk Modulus (GPa) = 60.57252 62.29571 61.43412
# Shear Modulus (GPa) = 25.80599 35.22122 30.51361
#
# Velocity S-wave (km/s) = 3.08094 3.59936 3.35019
# Velocity P-wave (km/s) = 5.91071 6.33940 6.12880
#
# Compressibility (1/GPa) = 0.01650914
#
# Stress axis : x y z
#
# Youngs Moduli (GPa) = 101.53941 114.74935 166.33102
#
# Poissons Ratio (x) = 0.23613 0.30171
# Poissons Ratio (y) = 0.20894 0.02683
# Poissons Ratio (z) = 0.18418 0.01851
#
# Static dielectric constant tensor:
#      x y z
#    x 2.127830 0.000000 0.000000 
#    y 0.000000 2.156010 0.000000 
#    z 0.000000 0.000000 2.276570 
# 
# From -- ./inp_files/24576.got.cif
#   From: 2010.05.17/outbox.cif.g08.bks.cpg/sg20_13_cif.got.tgz:24576.got - 2010.06.03 22:52:26.
