data_PCOD9316235
_publ_section_title
;
Structure prediction by ZEFSAII (Michael W. Deem and Ramdas Pophale) SiO2 
 PCOD9316235
Probable space group: C 2 2 21
;
_chemical_formula_sum "Si O2"
_cell_formula_units_Z 48
_cell_length_a 7.202064
_cell_length_b 19.994996
_cell_length_c 13.405531
_cell_angle_alpha 90.000000
_cell_angle_beta 90.000000
_cell_angle_gamma 90.000000
_cell_volume 1930.466721
_symmetry_space_group_name_H-M "C 2 2 21"
_symmetry_group_IT_number 20
_symmetry_cell_setting 'orthorhombic'
loop_
_space_group_symop_operation_xyz
x,y,z
-x,-y,1/2+z
x,-y,-z
-x,y,1/2-z
1/2+x,1/2+y,z
1/2-x,1/2-y,1/2+z
1/2+x,1/2-y,-z
1/2-x,1/2+y,1/2-z
loop_
_atom_site_type_symbol
_atom_site_label
_atom_site_fract_x
_atom_site_fract_y
_atom_site_fract_z
Si Si1 0.774449 0.127668 0.749938
Si Si2 0.337740 0.555623 0.564375
Si Si3 0.450975 0.317083 0.976303
Si Si4 0.741001 0.489095 0.385829
Si Si5 0.715076 0.624041 0.289717
Si Si6 0.260760 0.241827 0.154544
O O1 0.720078 0.089782 0.650115
O O2 0.708037 0.082938 0.842078
O O3 0.721479 0.204090 0.759861
O O4 0.000000 0.126748 0.750000
O O5 0.798171 0.500000 0.500000
O O6 0.431519 0.616628 0.504410
O O7 0.102455 0.778570 0.422874
O O8 0.292300 0.341338 0.899543
O O9 0.580556 0.270200 0.911208
O O10 0.486229 0.485216 0.109809
O O11 0.235165 0.500000 0.500000
O O12 0.788694 0.549850 0.312038
O O13 0.500000 0.619959 0.250000
O O14 0.809906 0.672006 0.207850
#
# Coordination Sequence:
#
# PCOD9316235 Si02
#       6
#     8   8   8   8   8   8
#     4  10  19  33  55  88 126 158 207 253 324 361
#     4  10  18  33  61  90 126 152 208 275 324 345
#     4  11  22  39  58  92 132 167 207 255 324 376
#     4  10  16  31  56  83 123 148 203 271 321 339
#     4  10  20  34  56  89 126 157 207 262 317 364
#     4  11  24  37  58  93 135 174 202 258 318 387
#
# _framework density 24.864450999999999
#
# number of rings (size 3 to 8) (size 9 to 14) (size 15 to 20)
#    0.000    1.667    6.667    1.500    4.667    0.000 
#    0.000    0.000    0.000    0.000    0.000   38.500 
#    0.000    0.000    0.000    0.000    0.000    0.000 
#
# Total GULP energy -134184.461953 kJ/mol
# GULP energy per Si atom -5591.019248 kJ/mol
# Density = 2.480786 g / cm^3
# Si number density = 24.864451 Si / 1000 Ang^3
#
#
#
# Elastic Constant Matrix: (Units=GPa)
#
#
# Indices 1 2 3 4 5 6 
#
# 1 63.9834 13.6187 6.9407 0.0000 0.0000 0.0000
# 2 13.6187 146.4620 41.0375 0.0000 0.0000 0.0000
# 3 6.9407 41.0375 103.7129 0.0000 0.0000 0.0000
# 4 0.0000 0.0000 0.0000 64.3385 0.0000 0.0000
# 5 0.0000 0.0000 0.0000 0.0000 7.2030 0.0000
# 6 0.0000 0.0000 0.0000 0.0000 0.0000 5.8699
#
#
#
# Elastic Compliance Matrix: (Units=1/GPa)
#
#
# Indices 1 2 3 4 5 6 
#
# 1 0.015972 -0.001333 -0.000541 0.000000 0.000000 0.000000
# 2 -0.001333 0.007790 -0.002993 0.000000 0.000000 0.000000
# 3 -0.000541 -0.002993 0.010863 0.000000 0.000000 0.000000
# 4 0.000000 0.000000 0.000000 0.015543 0.000000 0.000000
# 5 0.000000 0.000000 0.000000 0.000000 0.138831 0.000000
# 6 0.000000 0.000000 0.000000 0.000000 0.000000 0.170362
#
#
# Mechanical properties :
#
#
# Convention : Reuss Voigt Hill
#
# Bulk Modulus (GPa) = 40.17898 48.59468 44.38683
# Shear Modulus (GPa) = 13.24878 32.31969 22.78424
#
# Velocity S-wave (km/s) = 2.31084 3.60923 3.03039
# Velocity P-wave (km/s) = 4.82848 6.07906 5.48950
#
# Compressibility (1/GPa) = 0.02488863
#
# Stress axis : x y z
#
# Youngs Moduli (GPa) = 62.61122 128.36305 92.05880
#
# Poissons Ratio (x) = 0.17117 0.04982
# Poissons Ratio (y) = 0.08349 0.27556
# Poissons Ratio (z) = 0.03389 0.38423
#
# Static dielectric constant tensor:
#      x y z
#    x 2.026530 0.000000 0.000000 
#    y 0.000000 1.966910 0.000000 
#    z 0.000000 0.000000 2.034270 
# 
# From -- ./inp_files/18911.got.cif
#   From: 2010.05.17/outbox.cif.g08.bks.cpg/sg20_10_cif.got.tgz:18911.got - 2010.06.03 22:52:26.
