data_PCOD9316342
_publ_section_title
;
Structure prediction by ZEFSAII (Michael W. Deem and Ramdas Pophale) SiO2 
 PCOD9316342
Probable space group: C 2 2 21
;
_chemical_formula_sum "Si O2"
_cell_formula_units_Z 40
_cell_length_a 17.570564
_cell_length_b 8.528283
_cell_length_c 13.882882
_cell_angle_alpha 90.000000
_cell_angle_beta 90.000000
_cell_angle_gamma 90.000000
_cell_volume 2080.304641
_symmetry_space_group_name_H-M "C 2 2 21"
_symmetry_group_IT_number 20
_symmetry_cell_setting 'orthorhombic'
loop_
_space_group_symop_operation_xyz
x,y,z
-x,-y,1/2+z
x,-y,-z
-x,y,1/2-z
1/2+x,1/2+y,z
1/2-x,1/2-y,1/2+z
1/2+x,1/2-y,-z
1/2-x,1/2+y,1/2-z
loop_
_atom_site_type_symbol
_atom_site_label
_atom_site_fract_x
_atom_site_fract_y
_atom_site_fract_z
Si Si1 0.139582 0.000000 0.000000
Si Si2 0.248425 0.326060 0.355707
Si Si3 0.083287 0.262659 0.362100
Si Si4 0.738697 0.049673 0.857302
Si Si5 0.361412 0.500000 0.000000
Si Si6 0.416075 0.230154 0.634796
O O1 0.193614 0.904998 0.072241
O O2 0.092966 0.122268 0.064632
O O3 0.090943 0.110143 0.429464
O O4 0.240671 0.638617 0.143506
O O5 0.159994 0.359972 0.381588
O O6 0.259897 0.388451 0.247897
O O7 0.088853 0.221449 0.247970
O O8 0.000850 0.338892 0.378021
O O9 0.655434 0.115934 0.882844
O O10 0.803170 0.099886 0.933407
#
# Coordination Sequence:
#
# PCOD9316342 Si02
#       6
#     4   8   8   8   4   8
#     4  12  21  34  57  84 106 140 182 220 263 320
#     4  10  21  37  58  80 106 142 181 220 264 318
#     4   9  19  34  54  76 108 143 174 219 269 314
#     4  10  20  35  57  80 107 140 181 224 264 315
#     4  10  17  32  55  80 104 140 176 214 263 322
#     4  10  20  35  54  79 110 141 177 220 269 316
#
# _framework density 19.227954
#
# number of rings (size 3 to 8) (size 9 to 14) (size 15 to 20)
#    0.000    2.000    0.000    6.600    0.000    0.000 
#    0.000    3.000    0.000   40.800    0.000    0.000 
#    0.000    0.000    0.000    0.000    0.000    0.000 
#
# Total GULP energy -111570.219249 kJ/mol
# GULP energy per Si atom -5578.510962 kJ/mol
# Density = 1.918419 g / cm^3
# Si number density = 19.227954 Si / 1000 Ang^3
#
#
#
# Elastic Constant Matrix: (Units=GPa)
#
#
# Indices 1 2 3 4 5 6 
#
# 1 120.5982 17.6444 28.8150 0.0000 0.0000 0.0000
# 2 17.6444 49.2685 13.6678 0.0000 0.0000 0.0000
# 3 28.8150 13.6678 65.5042 0.0000 0.0000 0.0000
# 4 0.0000 0.0000 0.0000 30.5307 0.0000 0.0000
# 5 0.0000 0.0000 0.0000 0.0000 15.1568 0.0000
# 6 0.0000 0.0000 0.0000 0.0000 0.0000 18.7190
#
#
#
# Elastic Compliance Matrix: (Units=1/GPa)
#
#
# Indices 1 2 3 4 5 6 
#
# 1 0.009523 -0.002386 -0.003691 0.000000 0.000000 0.000000
# 2 -0.002386 0.022142 -0.003570 0.000000 0.000000 0.000000
# 3 -0.003691 -0.003570 0.017635 0.000000 0.000000 0.000000
# 4 0.000000 0.000000 0.000000 0.032754 0.000000 0.000000
# 5 0.000000 0.000000 0.000000 0.000000 0.065977 0.000000
# 6 0.000000 0.000000 0.000000 0.000000 0.000000 0.053422
#
#
# Mechanical properties :
#
#
# Convention : Reuss Voigt Hill
#
# Bulk Modulus (GPa) = 33.32871 39.51392 36.42131
# Shear Modulus (GPa) = 21.66850 24.56423 23.11637
#
# Velocity S-wave (km/s) = 3.36062 3.57813 3.47108
# Velocity P-wave (km/s) = 5.69468 6.13723 5.92009
#
# Compressibility (1/GPa) = 0.03000416
#
# Stress axis : x y z
#
# Youngs Moduli (GPa) = 105.00760 45.16291 56.70573
#
# Poissons Ratio (x) = 0.10778 0.20931
# Poissons Ratio (y) = 0.25060 0.20245
# Poissons Ratio (z) = 0.38761 0.16124
#
# Static dielectric constant tensor:
#      x y z
#    x 1.699270 0.000000 0.000000 
#    y 0.000000 1.645010 0.000000 
#    z 0.000000 0.000000 1.692960 
# 
# From -- ./inp_files/16187.got.cif
#   From: 2010.05.17/outbox.cif.g08.bks.cpg/sg20_9_cif.got.tgz:16187.got - 2010.06.03 22:52:26.
