data_PCOD9316917
_publ_section_title
;
Structure prediction by ZEFSAII (Michael W. Deem and Ramdas Pophale) SiO2 
 PCOD9316917
Probable space group: C 2 2 21
;
_chemical_formula_sum "Si O2"
_cell_formula_units_Z 48
_cell_length_a 21.701859
_cell_length_b 26.936927
_cell_length_c 5.221506
_cell_angle_alpha 90.000000
_cell_angle_beta 90.000000
_cell_angle_gamma 90.000000
_cell_volume 3052.395244
_symmetry_space_group_name_H-M "C 2 2 21"
_symmetry_group_IT_number 20
_symmetry_cell_setting 'orthorhombic'
loop_
_space_group_symop_operation_xyz
x,y,z
-x,-y,1/2+z
x,-y,-z
-x,y,1/2-z
1/2+x,1/2+y,z
1/2-x,1/2-y,1/2+z
1/2+x,1/2-y,-z
1/2-x,1/2+y,1/2-z
loop_
_atom_site_type_symbol
_atom_site_label
_atom_site_fract_x
_atom_site_fract_y
_atom_site_fract_z
Si Si1 0.665904 0.213608 0.893389
Si Si2 0.067094 0.446052 0.126036
Si Si3 0.799787 0.466557 0.242290
Si Si4 0.541793 0.839259 0.992714
Si Si5 0.756692 0.138646 0.676496
Si Si6 0.286246 0.310279 0.834097
O O1 0.599247 0.197492 0.983908
O O2 0.718149 0.214227 0.117068
O O3 0.693162 0.170008 0.712092
O O4 0.669746 0.265936 0.750664
O O5 0.129506 0.447111 0.291225
O O6 0.000000 0.443760 0.250000
O O7 0.068238 0.500000 0.000000
O O8 0.068636 0.395580 0.961212
O O9 0.796145 0.500000 0.500000
O O10 0.757467 0.417942 0.243568
O O11 0.784319 0.500000 0.000000
O O12 0.500000 0.828061 0.750000
O O13 0.500000 0.837408 0.250000
O O14 0.780463 0.150089 0.393771
O O15 0.799318 0.163298 0.896107
#
# Coordination Sequence:
#
# PCOD9316917 Si02
#       6
#     8   8   8   8   8   8
#     4  10  20  34  51  73  95 116 171 208 261 299
#     4  10  19  32  44  59  79 119 170 208 238 279
#     4  11  22  33  47  66  92 126 156 203 255 296
#     4  11  25  34  48  67  97 132 159 210 263 301
#     4  10  19  33  48  74  90 118 156 211 250 300
#     4  10  19  30  56  72  89 117 156 226 249 281
#
# _framework density 15.725356
#
# number of rings (size 3 to 8) (size 9 to 14) (size 15 to 20)
#    1.000    0.667    3.333    2.000    2.333    4.000 
#    0.000    0.000    0.000    0.000    0.000    0.000 
#    0.000    0.000    0.000    0.000    0.000   46.667 
#
# Total GULP energy -133636.903227 kJ/mol
# GULP energy per Si atom -5568.204301 kJ/mol
# Density = 1.568956 g / cm^3
# Si number density = 15.725356 Si / 1000 Ang^3
#
#
#
# Elastic Constant Matrix: (Units=GPa)
#
#
# Indices 1 2 3 4 5 6 
#
# 1 41.3045 33.1088 8.4051 0.0000 0.0000 0.0000
# 2 33.1088 88.2980 17.8319 0.0000 0.0000 0.0000
# 3 8.4051 17.8319 75.5246 0.0000 0.0000 0.0000
# 4 0.0000 0.0000 0.0000 21.7763 0.0000 0.0000
# 5 0.0000 0.0000 0.0000 0.0000 13.3447 0.0000
# 6 0.0000 0.0000 0.0000 0.0000 0.0000 30.2097
#
#
#
# Elastic Compliance Matrix: (Units=1/GPa)
#
#
# Indices 1 2 3 4 5 6 
#
# 1 0.034664 -0.012830 -0.000828 0.000000 0.000000 0.000000
# 2 -0.012830 0.016641 -0.002501 0.000000 0.000000 0.000000
# 3 -0.000828 -0.002501 0.013923 0.000000 0.000000 0.000000
# 4 0.000000 0.000000 0.000000 0.045921 0.000000 0.000000
# 5 0.000000 0.000000 0.000000 0.000000 0.074936 0.000000
# 6 0.000000 0.000000 0.000000 0.000000 0.000000 0.033102
#
#
# Mechanical properties :
#
#
# Convention : Reuss Voigt Hill
#
# Bulk Modulus (GPa) = 30.38736 35.97987 33.18361
# Shear Modulus (GPa) = 19.04925 22.78489 20.91707
#
# Velocity S-wave (km/s) = 3.48425 3.81061 3.65108
# Velocity P-wave (km/s) = 5.96259 6.50314 6.23872
#
# Compressibility (1/GPa) = 0.03290842
#
# Stress axis : x y z
#
# Youngs Moduli (GPa) = 28.84867 60.09105 71.82114
#
# Poissons Ratio (x) = 0.77099 0.05949
# Poissons Ratio (y) = 0.37014 0.17964
# Poissons Ratio (z) = 0.02390 0.15030
#
# Static dielectric constant tensor:
#      x y z
#    x 1.520580 0.000000 0.000000 
#    y 0.000000 1.546370 0.000000 
#    z 0.000000 0.000000 1.567090 
# 
# From -- ./inp_files/3350.got.cif
#   From: 2010.05.17/outbox.cif.g08.bks.cpg/sg20_2_cif.got.tgz:3350.got - 2010.06.03 22:52:26.
