data_PCOD9316871
_publ_section_title
;
Structure prediction by ZEFSAII (Michael W. Deem and Ramdas Pophale) SiO2 
 PCOD9316871
Probable space group: C 2 2 21
;
_chemical_formula_sum "Si O2"
_cell_formula_units_Z 24
_cell_length_a 11.374626
_cell_length_b 10.617432
_cell_length_c 9.262716
_cell_angle_alpha 90.000000
_cell_angle_beta 90.000000
_cell_angle_gamma 90.000000
_cell_volume 1118.651895
_symmetry_space_group_name_H-M "C 2 2 21"
_symmetry_group_IT_number 20
_symmetry_cell_setting 'orthorhombic'
loop_
_space_group_symop_operation_xyz
x,y,z
-x,-y,1/2+z
x,-y,-z
-x,y,1/2-z
1/2+x,1/2+y,z
1/2-x,1/2-y,1/2+z
1/2+x,1/2-y,-z
1/2-x,1/2+y,1/2-z
loop_
_atom_site_type_symbol
_atom_site_label
_atom_site_fract_x
_atom_site_fract_y
_atom_site_fract_z
Si Si1 0.550191 0.241845 0.945438
Si Si2 0.361490 0.500000 0.500000
Si Si3 0.000000 0.367110 0.750000
Si Si4 0.336472 0.100171 0.796339
O O1 0.565813 0.389897 0.923475
O O2 0.427845 0.188487 0.882780
O O3 0.653770 0.163424 0.862672
O O4 0.542278 0.211042 0.113852
O O5 0.281323 0.424259 0.384275
O O6 0.104333 0.462581 0.708692
#
# Coordination Sequence:
#
# PCOD9316871 Si02
#       4
#     8   4   4   8
#     4  10  23  39  67  92 131 168 218 267 324 385
#     4  12  24  38  68 100 126 176 220 260 338 388
#     4  10  18  42  68  86 126 176 204 276 320 370
#     4  10  21  44  61  94 128 168 217 269 318 388
#
# _framework density 21.454394000000001
#
# number of rings (size 3 to 8) (size 9 to 14) (size 15 to 20)
#    0.000    2.000    3.333    3.000    4.667    2.667 
#    0.000    0.000    0.000    0.000    0.000    0.000 
#    0.000    0.000    0.000    0.000    0.000    0.000 
#
# Total GULP energy -66954.519596 kJ/mol
# GULP energy per Si atom -5579.543300 kJ/mol
# Density = 2.140556 g / cm^3
# Si number density = 21.454394 Si / 1000 Ang^3
#
#
#
# Elastic Constant Matrix: (Units=GPa)
#
#
# Indices 1 2 3 4 5 6 
#
# 1 29.8775 46.3052 38.4199 0.0000 0.0000 0.0000
# 2 46.3052 138.0958 56.6768 0.0000 0.0000 0.0000
# 3 38.4199 56.6768 140.9672 0.0000 0.0000 0.0000
# 4 0.0000 0.0000 0.0000 11.0956 0.0000 0.0000
# 5 0.0000 0.0000 0.0000 0.0000 17.4443 0.0000
# 6 0.0000 0.0000 0.0000 0.0000 0.0000 -50.3080
#
#
#
# Elastic Compliance Matrix: (Units=1/GPa)
#
#
# Indices 1 2 3 4 5 6 
#
# 1 0.089700 -0.024005 -0.014796 0.000000 0.000000 0.000000
# 2 -0.024005 0.015097 0.000473 0.000000 0.000000 0.000000
# 3 -0.014796 0.000473 0.010936 0.000000 0.000000 0.000000
# 4 0.000000 0.000000 0.000000 0.090126 0.000000 0.000000
# 5 0.000000 0.000000 0.000000 0.000000 0.057325 0.000000
# 6 0.000000 0.000000 0.000000 0.000000 0.000000 -0.019878
#
#
# Mechanical properties :
#
#
# Convention : Reuss Voigt Hill
#
# Bulk Modulus (GPa) = 25.59075 65.74939 45.67007
# Shear Modulus (GPa) = 15.01553 6.81561 10.91557
#
# Velocity S-wave (km/s) = 2.64840 1.78429 2.25806
# Velocity P-wave (km/s) = 4.61583 5.91249 5.30393
#
# Compressibility (1/GPa) = 0.03907663
#
# Stress axis : x y z
#
# Youngs Moduli (GPa) = 11.14824 66.24051 91.43858
#
# Poissons Ratio (x) = 1.59011 1.35292
# Poissons Ratio (y) = 0.26761 -0.04323
# Poissons Ratio (z) = 0.16495 -0.03132
#
# Static dielectric constant tensor:
#      x y z
#    x 1.820280 0.000000 0.000000 
#    y 0.000000 1.729310 0.000000 
#    z 0.000000 0.000000 1.984230 
# 
# From -- ./inp_files/5570.got.cif
#   From: 2010.05.17/outbox.cif.g08.bks.cpg/sg20_3_cif.got.tgz:5570.got - 2010.06.03 22:52:26.
