data_PCOD9316127
_publ_section_title
;
Structure prediction by ZEFSAII (Michael W. Deem and Ramdas Pophale) SiO2 
 PCOD9316127
Probable space group: P 21 21 21
;
_chemical_formula_sum "Si O2"
_cell_formula_units_Z 32
_cell_length_a 12.000000
_cell_length_b 9.000000
_cell_length_c 15.000000
_cell_angle_alpha 90.000000
_cell_angle_beta 90.000000
_cell_angle_gamma 90.000000
_cell_volume 1620.000000
_symmetry_space_group_name_H-M "P 21 21 21"
_symmetry_group_IT_number 19
_symmetry_cell_setting 'orthorhombic'
loop_
_space_group_symop_operation_xyz
x,y,z
1/2-x,-y,1/2+z
1/2+x,1/2-y,-z
-x,1/2+y,1/2-z
loop_
_atom_site_type_symbol
_atom_site_label
_atom_site_fract_x
_atom_site_fract_y
_atom_site_fract_z
Si Si1 0.920089 0.870226 0.129606
Si Si2 0.729445 0.278242 0.012850
Si Si3 0.166025 0.737557 0.853843
Si Si4 0.962238 0.494667 0.547081
Si Si5 0.439316 0.540287 0.444188
Si Si6 0.435920 0.106054 0.874282
Si Si7 0.105768 0.733380 0.646200
Si Si8 0.500261 0.367459 0.755405
O O1 0.796491 0.798409 0.127057
O O2 0.006653 0.750029 0.172822
O O3 0.917195 0.013092 0.197255
O O4 0.967647 0.920958 0.033705
O O5 0.623672 0.386164 0.006114
O O6 0.678120 0.123411 0.044089
O O7 0.820602 0.335136 0.084249
O O8 0.790533 0.261111 0.919072
O O9 0.118495 0.887226 0.897274
O O10 0.088415 0.614921 0.900735
O O11 0.143498 0.734193 0.748022
O O12 0.045935 0.582073 0.613012
O O13 0.498104 0.537298 0.541293
O O14 0.517478 0.637448 0.378972
O O15 0.508044 0.244189 0.834372
O O16 0.418443 0.987319 0.794138
#
# Coordination Sequence:
#
# PCOD9316127 Si02
#       8
#     4   4   4   4   4   4   4   4
#     4  11  24  41  64  96 129 167 218 267 329 384
#     4  10  21  41  66  86 128 178 212 253 337 397
#     4  12  24  40  68  97 130 167 221 273 322 388
#     4  11  24  44  66  95 136 170 217 273 327 385
#     4  10  21  39  62  88 129 170 210 264 328 387
#     4  10  20  37  60  90 122 165 209 261 332 379
#     4  10  23  41  67  92 127 176 220 260 326 398
#     4  10  21  37  61  90 129 153 209 275 309 380
#
# _framework density 19.753086
#
# number of rings (size 3 to 8) (size 9 to 14) (size 15 to 20)
#    0.000    1.500    0.000    6.000    5.250    1.000 
#    2.250    0.000    8.250    0.000    0.000    0.000 
#    0.000    0.000    0.000    0.000    0.000    0.000 
#
# Total GULP energy -178337.015789 kJ/mol
# GULP energy per Si atom -5573.031743 kJ/mol
# Density = 1.970813 g / cm^3
# Si number density = 19.753086 Si / 1000 Ang^3
#
#
#
# Elastic Constant Matrix: (Units=GPa)
#
#
# Indices 1 2 3 4 5 6 
#
# 1 60.9007 5.4289 42.1815 0.0000 0.0000 0.0000
# 2 5.4289 86.6944 31.6558 0.0000 0.0000 0.0000
# 3 42.1815 31.6558 109.8560 0.0000 0.0000 0.0000
# 4 0.0000 0.0000 0.0000 44.6100 0.0000 0.0000
# 5 0.0000 0.0000 0.0000 0.0000 20.3494 0.0000
# 6 0.0000 0.0000 0.0000 0.0000 0.0000 17.9433
#
#
#
# Elastic Compliance Matrix: (Units=1/GPa)
#
#
# Indices 1 2 3 4 5 6 
#
# 1 0.022665 0.001965 -0.009269 0.000000 0.000000 0.000000
# 2 0.001965 0.013062 -0.004518 0.000000 0.000000 0.000000
# 3 -0.009269 -0.004518 0.013964 0.000000 0.000000 0.000000
# 4 0.000000 0.000000 0.000000 0.022417 0.000000 0.000000
# 5 0.000000 0.000000 0.000000 0.000000 0.049141 0.000000
# 6 0.000000 0.000000 0.000000 0.000000 0.000000 0.055731
#
#
# Mechanical properties :
#
#
# Convention : Reuss Voigt Hill
#
# Bulk Modulus (GPa) = 38.39351 46.22038 42.30695
# Shear Modulus (GPa) = 23.88851 28.45953 26.17402
#
# Velocity S-wave (km/s) = 3.48135 3.79986 3.64409
# Velocity P-wave (km/s) = 5.96981 6.53466 6.25861
#
# Compressibility (1/GPa) = 0.02604607
#
# Stress axis : x y z
#
# Youngs Moduli (GPa) = 44.12102 76.56058 71.61362
#
# Poissons Ratio (x) = -0.15046 0.66378
# Poissons Ratio (y) = -0.08671 0.32358
# Poissons Ratio (z) = 0.40896 0.34593
#
# Static dielectric constant tensor:
#      x y z
#    x 1.675630 0.000000 0.000000 
#    y 0.000000 1.771150 0.000000 
#    z 0.000000 0.000000 1.677670 
# 
# From -- ./inp_files/5922.got.cif
#   From: 2010.05.17/outbox.ucp.g08.bks.cvg/sg19_3_cif.got.tgz:5922.got - 2010.06.11 13:13:52.
