data_PCOD9316919
_publ_section_title
;
Structure prediction by ZEFSAII (Michael W. Deem and Ramdas Pophale) SiO2 
 PCOD9316919
Probable space group: C 2 2 21
;
_chemical_formula_sum "Si O2"
_cell_formula_units_Z 60
_cell_length_a 28.801012
_cell_length_b 26.298174
_cell_length_c 5.468102
_cell_angle_alpha 90.000000
_cell_angle_beta 90.000000
_cell_angle_gamma 90.000000
_cell_volume 4141.617145
_symmetry_space_group_name_H-M "C 2 2 21"
_symmetry_group_IT_number 20
_symmetry_cell_setting 'orthorhombic'
loop_
_space_group_symop_operation_xyz
x,y,z
-x,-y,1/2+z
x,-y,-z
-x,y,1/2-z
1/2+x,1/2+y,z
1/2-x,1/2-y,1/2+z
1/2+x,1/2-y,-z
1/2-x,1/2+y,1/2-z
loop_
_atom_site_type_symbol
_atom_site_label
_atom_site_fract_x
_atom_site_fract_y
_atom_site_fract_z
Si Si1 0.090281 0.943612 0.519233
Si Si2 0.063951 0.134043 0.858996
Si Si3 0.293097 0.201203 0.676307
Si Si4 0.607594 0.242075 0.732869
Si Si5 0.855371 0.145823 0.269339
Si Si6 0.000000 0.090460 0.250000
Si Si7 0.745456 0.682418 0.175004
Si Si8 0.553778 0.746808 0.748744
O O1 0.068375 0.918955 0.278791
O O2 0.126837 0.901216 0.607960
O O3 0.044704 0.943327 0.689807
O O4 0.109359 0.000000 0.500000
O O5 0.056215 0.185549 0.710309
O O6 0.113740 0.140610 0.987992
O O7 0.021400 0.127546 0.045229
O O8 0.348218 0.206771 0.709677
O O9 0.272902 0.259037 0.671905
O O10 0.276852 0.177453 0.418321
O O11 0.271657 0.175240 0.917944
O O12 0.628966 0.298369 0.677802
O O13 0.580049 0.228895 0.484349
O O14 0.576895 0.244518 0.982379
O O15 0.800560 0.148103 0.306978
O O16 0.500000 0.762077 0.750000
#
# Coordination Sequence:
#
# PCOD9316919 Si02
#       8
#     8   8   8   8   8   4   8   8
#     4  11  22  33  46  58  78 104 140 183 229 269
#     4  10  21  33  46  58  80 103 142 182 221 270
#     4   9  17  28  45  65  84 103 126 162 207 259
#     4  10  19  31  44  64  86 108 137 174 209 254
#     4   9  20  31  44  62  79 103 131 170 224 268
#     4  10  22  32  44  60  72 104 140 188 226 272
#     4   9  17  28  46  65  83 102 127 157 212 272
#     4  11  20  29  46  61  86 114 145 171 210 253
#
# _framework density 14.487094000000001
#
# number of rings (size 3 to 8) (size 9 to 14) (size 15 to 20)
#    0.000    2.133    1.333    2.400    7.467    4.800 
#    0.000    0.000    0.000    0.000    0.000    0.000 
#    0.000    0.000    0.000    0.000    0.000    0.000 
#
# Total GULP energy -167010.289701 kJ/mol
# GULP energy per Si atom -5567.009657 kJ/mol
# Density = 1.445412 g / cm^3
# Si number density = 14.487094 Si / 1000 Ang^3
#
#
#
# Elastic Constant Matrix: (Units=GPa)
#
#
# Indices 1 2 3 4 5 6 
#
# 1 86.1707 22.5434 28.4557 0.0000 0.0000 0.0000
# 2 22.5434 22.9571 7.4508 0.0000 0.0000 0.0000
# 3 28.4557 7.4508 63.7186 0.0000 0.0000 0.0000
# 4 0.0000 0.0000 0.0000 7.0866 0.0000 0.0000
# 5 0.0000 0.0000 0.0000 0.0000 19.8399 0.0000
# 6 0.0000 0.0000 0.0000 0.0000 0.0000 13.6137
#
#
#
# Elastic Compliance Matrix: (Units=1/GPa)
#
#
# Indices 1 2 3 4 5 6 
#
# 1 0.017623 -0.015333 -0.006077 0.000000 0.000000 0.000000
# 2 -0.015333 0.058619 -0.000007 0.000000 0.000000 0.000000
# 3 -0.006077 -0.000007 0.018409 0.000000 0.000000 0.000000
# 4 0.000000 0.000000 0.000000 0.141112 0.000000 0.000000
# 5 0.000000 0.000000 0.000000 0.000000 0.050403 0.000000
# 6 0.000000 0.000000 0.000000 0.000000 0.000000 0.073455
#
#
# Mechanical properties :
#
#
# Convention : Reuss Voigt Hill
#
# Bulk Modulus (GPa) = 19.29907 32.19403 25.74655
# Shear Modulus (GPa) = 11.91248 15.73447 13.82347
#
# Velocity S-wave (km/s) = 2.87066 3.29918 3.09235
# Velocity P-wave (km/s) = 4.93336 6.06495 5.52818
#
# Compressibility (1/GPa) = 0.05181597
#
# Stress axis : x y z
#
# Youngs Moduli (GPa) = 56.74372 17.05938 54.32180
#
# Poissons Ratio (x) = 0.26157 0.33013
# Poissons Ratio (y) = 0.87006 0.00038
# Poissons Ratio (z) = 0.34484 0.00012
#
# Static dielectric constant tensor:
#      x y z
#    x 1.490500 0.000000 0.000000 
#    y 0.000000 1.447060 0.000000 
#    z 0.000000 0.000000 1.574090 
# 
# From -- ./inp_files/3938.got.cif
#   From: 2010.05.17/outbox.cif.g08.bks.cpg/sg20_2_cif.got.tgz:3938.got - 2010.06.03 22:52:26.
