data_PCOD9316503
_publ_section_title
;
Structure prediction by ZEFSAII (Michael W. Deem and Ramdas Pophale) SiO2 
 PCOD9316503
Probable space group: C 2 2 21
;
_chemical_formula_sum "Si O2"
_cell_formula_units_Z 60
_cell_length_a 9.933879
_cell_length_b 25.231834
_cell_length_c 13.408351
_cell_angle_alpha 90.000000
_cell_angle_beta 90.000000
_cell_angle_gamma 90.000000
_cell_volume 3360.802989
_symmetry_space_group_name_H-M "C 2 2 21"
_symmetry_group_IT_number 20
_symmetry_cell_setting 'orthorhombic'
loop_
_space_group_symop_operation_xyz
x,y,z
-x,-y,1/2+z
x,-y,-z
-x,y,1/2-z
1/2+x,1/2+y,z
1/2-x,1/2-y,1/2+z
1/2+x,1/2-y,-z
1/2-x,1/2+y,1/2-z
loop_
_atom_site_type_symbol
_atom_site_label
_atom_site_fract_x
_atom_site_fract_y
_atom_site_fract_z
Si Si1 0.313912 0.869756 0.440441
Si Si2 0.394981 0.714106 0.011983
Si Si3 0.932347 0.939362 0.030519
Si Si4 0.603533 0.162779 0.519023
Si Si5 0.729240 0.832090 0.263335
Si Si6 0.124270 0.144774 0.072544
Si Si7 0.648465 0.280498 0.740696
Si Si8 0.000000 0.896865 0.250000
O O1 0.208030 0.821147 0.450826
O O2 0.222341 0.918767 0.474427
O O3 0.454959 0.860612 0.494642
O O4 0.343220 0.865798 0.323020
O O5 0.394958 0.775586 0.986583
O O6 0.547796 0.692076 0.011678
O O7 0.343026 0.704217 0.125460
O O8 0.973860 0.928782 0.146653
O O9 0.025269 0.903776 0.955581
O O10 0.944349 0.000000 0.000000
O O11 0.647901 0.164098 0.634211
O O12 0.725762 0.133737 0.464173
O O13 0.743812 0.769233 0.239234
O O14 0.873249 0.859645 0.272756
O O15 0.142303 0.170131 0.183264
O O16 0.500000 0.254936 0.750000
#
# Coordination Sequence:
#
# PCOD9316503 Si02
#       8
#     8   8   8   8   8   8   8   4
#     4  10  20  33  52  76 110 142 180 231 279 338
#     4   9  18  31  48  77 118 153 188 207 272 346
#     4  10  22  42  59  80 104 143 200 249 297 331
#     4  11  18  30  53  83 112 147 177 224 282 342
#     4  10  18  31  52  80 115 145 180 220 276 343
#     4  10  19  34  53  80 114 146 192 232 275 336
#     4   9  17  31  50  78 115 157 185 212 271 348
#     4  10  20  38  60  88 108 142 194 248 284 334
#
# _framework density 17.852876999999999
#
# number of rings (size 3 to 8) (size 9 to 14) (size 15 to 20)
#    0.000    2.133    1.333    4.400    0.000    0.000 
#   10.800    0.667    0.000    0.000    0.000    0.000 
#    0.000    0.000    0.000    0.000    0.000    0.000 
#
# Total GULP energy -167034.773375 kJ/mol
# GULP energy per Si atom -5567.825779 kJ/mol
# Density = 1.781224 g / cm^3
# Si number density = 17.852877 Si / 1000 Ang^3
#
#
#
# Elastic Constant Matrix: (Units=GPa)
#
#
# Indices 1 2 3 4 5 6 
#
# 1 92.8425 29.4597 2.6883 0.0000 0.0000 0.0000
# 2 29.4597 102.7574 24.8327 0.0000 0.0000 0.0000
# 3 2.6883 24.8327 53.8253 0.0000 0.0000 0.0000
# 4 0.0000 0.0000 0.0000 16.5599 0.0000 0.0000
# 5 0.0000 0.0000 0.0000 0.0000 19.0170 0.0000
# 6 0.0000 0.0000 0.0000 0.0000 0.0000 10.3015
#
#
#
# Elastic Compliance Matrix: (Units=1/GPa)
#
#
# Indices 1 2 3 4 5 6 
#
# 1 0.011907 -0.003680 0.001103 0.000000 0.000000 0.000000
# 2 -0.003680 0.012090 -0.005394 0.000000 0.000000 0.000000
# 3 0.001103 -0.005394 0.021012 0.000000 0.000000 0.000000
# 4 0.000000 0.000000 0.000000 0.060387 0.000000 0.000000
# 5 0.000000 0.000000 0.000000 0.000000 0.052584 0.000000
# 6 0.000000 0.000000 0.000000 0.000000 0.000000 0.097073
#
#
# Mechanical properties :
#
#
# Convention : Reuss Voigt Hill
#
# Bulk Modulus (GPa) = 34.40334 40.37629 37.38981
# Shear Modulus (GPa) = 17.81357 22.00531 19.90944
#
# Velocity S-wave (km/s) = 3.16222 3.51464 3.34308
# Velocity P-wave (km/s) = 5.71359 6.25583 5.99085
#
# Compressibility (1/GPa) = 0.02906695
#
# Stress axis : x y z
#
# Youngs Moduli (GPa) = 83.98605 82.71088 47.59151
#
# Poissons Ratio (x) = 0.30439 -0.05250
# Poissons Ratio (y) = 0.30908 0.25672
# Poissons Ratio (z) = -0.09265 0.44616
#
# Static dielectric constant tensor:
#      x y z
#    x 1.651930 0.000000 0.000000 
#    y 0.000000 1.597800 0.000000 
#    z 0.000000 0.000000 1.711260 
# 
# From -- ./inp_files/19315.got.cif
#   From: 2010.05.17/outbox.cif.g08.bks.cpg/sg20_10_cif.got.tgz:19315.got - 2010.06.03 22:52:26.
