data_PCOD9316576
_publ_section_title
;
Structure prediction by ZEFSAII (Michael W. Deem and Ramdas Pophale) SiO2 
 PCOD9316576
Probable space group: C 2 2 21
;
_chemical_formula_sum "Si O2"
_cell_formula_units_Z 48
_cell_length_a 7.980498
_cell_length_b 17.064881
_cell_length_c 14.655060
_cell_angle_alpha 90.000000
_cell_angle_beta 90.000000
_cell_angle_gamma 90.000000
_cell_volume 1995.817646
_symmetry_space_group_name_H-M "C 2 2 21"
_symmetry_group_IT_number 20
_symmetry_cell_setting 'orthorhombic'
loop_
_space_group_symop_operation_xyz
x,y,z
-x,-y,1/2+z
x,-y,-z
-x,y,1/2-z
1/2+x,1/2+y,z
1/2-x,1/2-y,1/2+z
1/2+x,1/2-y,-z
1/2-x,1/2+y,1/2-z
loop_
_atom_site_type_symbol
_atom_site_label
_atom_site_fract_x
_atom_site_fract_y
_atom_site_fract_z
Si Si1 0.064647 0.383803 0.882947
Si Si2 0.726116 0.571895 0.205684
Si Si3 0.672527 0.573954 0.687106
Si Si4 0.000000 0.665325 0.750000
Si Si5 0.539881 0.290900 0.889192
Si Si6 0.910105 0.218537 0.914059
Si Si7 0.244247 0.500000 0.000000
O O1 0.193953 0.394887 0.799726
O O2 0.134225 0.424847 0.972637
O O3 0.890168 0.427286 0.858431
O O4 0.024823 0.293134 0.893831
O O5 0.658710 0.485692 0.228108
O O6 0.589580 0.629768 0.163194
O O7 0.565655 0.649898 0.659073
O O8 0.665969 0.523969 0.593312
O O9 0.856587 0.610983 0.707690
O O10 0.941109 0.726977 0.828270
O O11 0.720196 0.250319 0.908183
O O12 0.449529 0.308762 0.983635
#
# Coordination Sequence:
#
# PCOD9316576 Si02
#       7
#     8   8   8   4   8   8   4
#     4   9  17  33  60  93 125 163 212 259 302 366
#     4   9  19  36  61  89 123 163 204 251 310 366
#     4  10  20  36  61  92 122 162 206 255 308 370
#     4  10  20  36  62  90 118 158 214 256 296 366
#     4  10  22  38  64  95 124 160 204 258 313 369
#     4  10  21  38  63  96 127 163 208 257 312 372
#     4  10  18  32  60  90 124 164 206 252 306 366
#
# _framework density 24.050293
#
# number of rings (size 3 to 8) (size 9 to 14) (size 15 to 20)
#    0.000    2.333    0.000    4.000    0.000    4.000 
#    0.000    1.667    0.000   48.000    0.000    0.000 
#    0.000    0.000    0.000    0.000    0.000    0.000 
#
# Total GULP energy -134252.617307 kJ/mol
# GULP energy per Si atom -5593.859054 kJ/mol
# Density = 2.399555 g / cm^3
# Si number density = 24.050293 Si / 1000 Ang^3
#
#
#
# Elastic Constant Matrix: (Units=GPa)
#
#
# Indices 1 2 3 4 5 6 
#
# 1 56.1690 33.6451 17.4154 0.0000 0.0000 0.0000
# 2 33.6451 168.3251 39.5549 0.0000 0.0000 0.0000
# 3 17.4154 39.5549 102.9726 0.0000 0.0000 0.0000
# 4 0.0000 0.0000 0.0000 52.8998 0.0000 0.0000
# 5 0.0000 0.0000 0.0000 0.0000 32.6567 0.0000
# 6 0.0000 0.0000 0.0000 0.0000 0.0000 15.9514
#
#
#
# Elastic Compliance Matrix: (Units=1/GPa)
#
#
# Indices 1 2 3 4 5 6 
#
# 1 0.020628 -0.003631 -0.002094 0.000000 0.000000 0.000000
# 2 -0.003631 0.007170 -0.002140 0.000000 0.000000 0.000000
# 3 -0.002094 -0.002140 0.010887 0.000000 0.000000 0.000000
# 4 0.000000 0.000000 0.000000 0.018904 0.000000 0.000000
# 5 0.000000 0.000000 0.000000 0.000000 0.030622 0.000000
# 6 0.000000 0.000000 0.000000 0.000000 0.000000 0.062690
#
#
# Mechanical properties :
#
#
# Convention : Reuss Voigt Hill
#
# Bulk Modulus (GPa) = 43.56371 56.52196 50.04283
# Shear Modulus (GPa) = 28.68921 36.09167 32.39044
#
# Velocity S-wave (km/s) = 3.45756 3.87806 3.67383
# Velocity P-wave (km/s) = 5.83888 6.60341 6.23288
#
# Compressibility (1/GPa) = 0.02295489
#
# Stress axis : x y z
#
# Youngs Moduli (GPa) = 48.47875 139.47923 91.84873
#
# Poissons Ratio (x) = 0.50645 0.19232
# Poissons Ratio (y) = 0.17603 0.19655
# Poissons Ratio (z) = 0.10151 0.29848
#
# Static dielectric constant tensor:
#      x y z
#    x 1.981960 0.000000 0.000000 
#    y 0.000000 1.916370 0.000000 
#    z 0.000000 0.000000 1.926570 
# 
# From -- ./inp_files/18958.got.cif
#   From: 2010.05.17/outbox.cif.g08.bks.cpg/sg20_10_cif.got.tgz:18958.got - 2010.06.03 22:52:26.
