data_PCOD9316562
_publ_section_title
;
Structure prediction by ZEFSAII (Michael W. Deem and Ramdas Pophale) SiO2 
 PCOD9316562
Probable space group: C 2 2 21
;
_chemical_formula_sum "Si O2"
_cell_formula_units_Z 60
_cell_length_a 23.139127
_cell_length_b 5.668470
_cell_length_c 26.082906
_cell_angle_alpha 90.000000
_cell_angle_beta 90.000000
_cell_angle_gamma 90.000000
_cell_volume 3421.123865
_symmetry_space_group_name_H-M "C 2 2 21"
_symmetry_group_IT_number 20
_symmetry_cell_setting 'orthorhombic'
loop_
_space_group_symop_operation_xyz
x,y,z
-x,-y,1/2+z
x,-y,-z
-x,y,1/2-z
1/2+x,1/2+y,z
1/2-x,1/2-y,1/2+z
1/2+x,1/2-y,-z
1/2-x,1/2+y,1/2-z
loop_
_atom_site_type_symbol
_atom_site_label
_atom_site_fract_x
_atom_site_fract_y
_atom_site_fract_z
Si Si1 0.128404 0.375603 0.678978
Si Si2 0.340825 0.248248 0.902345
Si Si3 0.333437 0.802643 0.269809
Si Si4 0.933226 0.118991 0.948303
Si Si5 0.649184 0.000000 0.500000
Si Si6 0.494433 0.739378 0.846831
Si Si7 0.275882 0.498869 0.819977
Si Si8 0.537647 0.757423 0.197190
O O1 0.124329 0.572109 0.635012
O O2 0.146989 0.490486 0.731786
O O3 0.180120 0.204411 0.665005
O O4 0.067247 0.250574 0.682509
O O5 0.388682 0.440489 0.919649
O O6 0.318247 0.135830 0.955072
O O7 0.287086 0.322185 0.866711
O O8 0.300210 0.615926 0.232968
O O9 0.287416 0.903151 0.309964
O O10 0.394215 0.722063 0.292259
O O11 0.892240 0.322411 0.969900
O O12 0.978204 0.218582 0.907057
O O13 0.958468 0.000000 0.000000
O O14 0.520242 0.485233 0.831407
O O15 0.525758 0.987923 0.831272
O O16 0.500000 0.769268 0.250000
#
# Coordination Sequence:
#
# PCOD9316562 Si02
#       8
#     8   8   8   8   4   8   8   8
#     4  11  20  36  55  83 119 160 199 239 305 360
#     4  10  19  33  53  90 118 154 188 251 315 370
#     4  11  24  37  55  86 117 167 213 247 297 368
#     4  10  21  34  59  89 120 150 197 254 317 370
#     4  10  18  32  56  88 124 144 188 252 316 380
#     4  12  23  40  59  86 126 162 199 252 310 364
#     4  11  21  36  59  79 120 158 203 256 304 357
#     4  12  26  38  58  86 126 170 205 245 298 368
#
# _framework density 17.538097
#
# number of rings (size 3 to 8) (size 9 to 14) (size 15 to 20)
#    0.000    1.067    5.333    2.000    3.733    0.000 
#    0.000    0.000    0.000    0.000    1.733    1.867 
#    0.000    0.000    0.000    0.000    0.000    0.000 
#
# Total GULP energy -167202.082628 kJ/mol
# GULP energy per Si atom -5573.402754 kJ/mol
# Density = 1.749818 g / cm^3
# Si number density = 17.538097 Si / 1000 Ang^3
#
#
#
# Elastic Constant Matrix: (Units=GPa)
#
#
# Indices 1 2 3 4 5 6 
#
# 1 95.5794 27.9449 23.3625 0.0000 0.0000 0.0000
# 2 27.9449 87.9035 37.6331 0.0000 0.0000 0.0000
# 3 23.3625 37.6331 72.7239 0.0000 0.0000 0.0000
# 4 0.0000 0.0000 0.0000 14.4731 0.0000 0.0000
# 5 0.0000 0.0000 0.0000 0.0000 -4.0809 0.0000
# 6 0.0000 0.0000 0.0000 0.0000 0.0000 6.8836
#
#
#
# Elastic Compliance Matrix: (Units=1/GPa)
#
#
# Indices 1 2 3 4 5 6 
#
# 1 0.011848 -0.002745 -0.002386 0.000000 0.000000 0.000000
# 2 -0.002745 0.015250 -0.007009 0.000000 0.000000 0.000000
# 3 -0.002386 -0.007009 0.018144 0.000000 0.000000 0.000000
# 4 0.000000 0.000000 0.000000 0.069094 0.000000 0.000000
# 5 0.000000 0.000000 0.000000 0.000000 -0.245045 0.000000
# 6 0.000000 0.000000 0.000000 0.000000 0.000000 0.145273
#
#
# Mechanical properties :
#
#
# Convention : Reuss Voigt Hill
#
# Bulk Modulus (GPa) = 47.70653 48.23196 47.96924
# Shear Modulus (GPa) = 109.09590 14.60625 61.85108
#
# Velocity S-wave (km/s) = 7.89558 2.88901 5.94502
# Velocity P-wave (km/s) = 10.50623 6.22009 8.63338
#
# Compressibility (1/GPa) = 0.02096149
#
# Stress axis : x y z
#
# Youngs Moduli (GPa) = 84.40049 65.57491 55.11379
#
# Poissons Ratio (x) = 0.18002 0.13148
# Poissons Ratio (y) = 0.23170 0.38632
# Poissons Ratio (z) = 0.20135 0.45965
#
# Static dielectric constant tensor:
#      x y z
#    x 1.594990 0.000000 0.000000 
#    y 0.000000 1.728850 0.000000 
#    z 0.000000 0.000000 1.622840 
# 
# From -- ./inp_files/29540.got.cif
#   From: 2010.05.17/outbox.cif.g08.bks.cpg/sg20_15_cif.got.tgz:29540.got - 2010.06.03 22:52:26.
