data_PCOD9316673
_publ_section_title
;
Structure prediction by ZEFSAII (Michael W. Deem and Ramdas Pophale) SiO2 
 PCOD9316673
Probable space group: C 2 2 21
;
_chemical_formula_sum "Si O2"
_cell_formula_units_Z 48
_cell_length_a 17.559920
_cell_length_b 9.247679
_cell_length_c 16.898518
_cell_angle_alpha 90.000000
_cell_angle_beta 90.000000
_cell_angle_gamma 90.000000
_cell_volume 2744.125048
_symmetry_space_group_name_H-M "C 2 2 21"
_symmetry_group_IT_number 20
_symmetry_cell_setting 'orthorhombic'
loop_
_space_group_symop_operation_xyz
x,y,z
-x,-y,1/2+z
x,-y,-z
-x,y,1/2-z
1/2+x,1/2+y,z
1/2-x,1/2-y,1/2+z
1/2+x,1/2-y,-z
1/2-x,1/2+y,1/2-z
loop_
_atom_site_type_symbol
_atom_site_label
_atom_site_fract_x
_atom_site_fract_y
_atom_site_fract_z
Si Si1 0.500000 0.299683 0.250000
Si Si2 0.286758 0.331188 0.483523
Si Si3 0.896666 0.650276 0.377391
Si Si4 0.222991 0.423538 0.088095
Si Si5 0.611375 0.260087 0.538288
Si Si6 0.393267 0.443007 0.121906
Si Si7 0.490635 0.000000 0.000000
O O1 0.442438 0.203969 0.302061
O O2 0.448190 0.393803 0.191166
O O3 0.292009 0.500000 0.500000
O O4 0.346081 0.276734 0.417495
O O5 0.302655 0.235946 0.562484
O O6 0.200023 0.287582 0.460398
O O7 0.838382 0.517609 0.365882
O O8 0.956225 0.590244 0.441426
O O9 0.302556 0.423913 0.133688
O O10 0.233936 0.500000 0.000000
O O11 0.595783 0.389073 0.599457
O O12 0.593686 0.338107 0.454035
O O13 0.561492 0.116451 0.545214
#
# Coordination Sequence:
#
# PCOD9316673 Si02
#       7
#     4   8   8   8   8   8   4
#     4  12  26  38  60  96 136 162 200 260 338 372
#     4  10  18  34  67  98 114 148 222 262 290 364
#     4  11  22  40  59  91 129 165 200 257 317 373
#     4   9  16  37  66  87 112 164 212 251 298 361
#     4  10  19  36  68  91 116 164 214 254 302 370
#     4  10  19  39  61  88 125 163 202 257 312 372
#     4  12  20  36  66 100 120 154 212 264 298 358
#
# _framework density 17.491914999999999
#
# number of rings (size 3 to 8) (size 9 to 14) (size 15 to 20)
#    0.000    1.667   10.000    0.000    0.000    1.333 
#    0.000    5.833    0.000    0.000    0.000    0.000 
#    0.000    0.000    0.000    0.000    0.000    0.000 
#
# Total GULP energy -133787.406740 kJ/mol
# GULP energy per Si atom -5574.475281 kJ/mol
# Density = 1.745210 g / cm^3
# Si number density = 17.491915 Si / 1000 Ang^3
#
#
#
# Elastic Constant Matrix: (Units=GPa)
#
#
# Indices 1 2 3 4 5 6 
#
# 1 116.3986 59.9021 62.7312 0.0000 0.0000 0.0000
# 2 59.9021 147.8507 47.3924 0.0000 0.0000 0.0000
# 3 62.7312 47.3924 79.1775 0.0000 0.0000 0.0000
# 4 0.0000 0.0000 0.0000 19.5115 0.0000 0.0000
# 5 0.0000 0.0000 0.0000 0.0000 27.8142 0.0000
# 6 0.0000 0.0000 0.0000 0.0000 0.0000 8.6069
#
#
#
# Elastic Compliance Matrix: (Units=1/GPa)
#
#
# Indices 1 2 3 4 5 6 
#
# 1 0.015996 -0.002993 -0.010882 0.000000 0.000000 0.000000
# 2 -0.002993 0.008929 -0.002974 0.000000 0.000000 0.000000
# 3 -0.010882 -0.002974 0.023032 0.000000 0.000000 0.000000
# 4 0.000000 0.000000 0.000000 0.051252 0.000000 0.000000
# 5 0.000000 0.000000 0.000000 0.000000 0.035953 0.000000
# 6 0.000000 0.000000 0.000000 0.000000 0.000000 0.116185
#
#
# Mechanical properties :
#
#
# Convention : Reuss Voigt Hill
#
# Bulk Modulus (GPa) = 70.12669 75.94203 73.03436
# Shear Modulus (GPa) = 17.25345 22.74660 20.00002
#
# Velocity S-wave (km/s) = 3.14405 3.61003 3.38507
# Velocity P-wave (km/s) = 7.30466 7.80296 7.55792
#
# Compressibility (1/GPa) = 0.01425991
#
# Stress axis : x y z
#
# Youngs Moduli (GPa) = 62.51548 111.99173 43.41876
#
# Poissons Ratio (x) = 0.33515 0.47249
# Poissons Ratio (y) = 0.18709 0.12911
# Poissons Ratio (z) = 0.68030 0.33302
#
# Static dielectric constant tensor:
#      x y z
#    x 1.619990 0.000000 0.000000 
#    y 0.000000 1.612240 0.000000 
#    z 0.000000 0.000000 1.578220 
# 
# From -- ./inp_files/25189.got.cif
#   From: 2010.05.17/outbox.cif.g08.bks.cpg/sg20_13_cif.got.tgz:25189.got - 2010.06.03 22:52:26.
