data_PCOD9316244
_publ_section_title
;
Structure prediction by ZEFSAII (Michael W. Deem and Ramdas Pophale) SiO2 
 PCOD9316244
Probable space group: C 2 2 21
;
_chemical_formula_sum "Si O2"
_cell_formula_units_Z 60
_cell_length_a 5.322924
_cell_length_b 31.286582
_cell_length_c 18.122749
_cell_angle_alpha 90.000000
_cell_angle_beta 90.000000
_cell_angle_gamma 90.000000
_cell_volume 3018.091907
_symmetry_space_group_name_H-M "C 2 2 21"
_symmetry_group_IT_number 20
_symmetry_cell_setting 'orthorhombic'
loop_
_space_group_symop_operation_xyz
x,y,z
-x,-y,1/2+z
x,-y,-z
-x,y,1/2-z
1/2+x,1/2+y,z
1/2-x,1/2-y,1/2+z
1/2+x,1/2-y,-z
1/2-x,1/2+y,1/2-z
loop_
_atom_site_type_symbol
_atom_site_label
_atom_site_fract_x
_atom_site_fract_y
_atom_site_fract_z
Si Si1 0.606359 0.763652 0.325553
Si Si2 0.313294 0.681716 0.377391
Si Si3 0.886061 0.277708 0.014567
Si Si4 0.600293 0.936762 0.667487
Si Si5 0.514715 0.546741 0.960051
Si Si6 0.394143 0.399638 0.897730
Si Si7 0.487541 0.978289 0.418516
Si Si8 0.500000 0.200977 0.250000
O O1 0.500000 0.784003 0.250000
O O2 0.406616 0.728580 0.353830
O O3 0.643812 0.791001 0.399495
O O4 0.836974 0.733297 0.300682
O O5 0.162182 0.686251 0.453228
O O6 0.542246 0.649983 0.389846
O O7 0.155743 0.670647 0.304643
O O8 0.657524 0.243501 0.002315
O O9 0.500000 0.934415 0.750000
O O10 0.886769 0.922025 0.652610
O O11 0.391611 0.910349 0.621464
O O12 0.568175 0.984836 0.637132
O O13 0.785225 0.554747 0.925101
O O14 0.284418 0.541462 0.904098
O O15 0.543273 0.500000 0.000000
O O16 0.447993 0.581231 0.021651
O O17 0.456965 0.000000 0.500000
#
# Coordination Sequence:
#
# PCOD9316244 Si02
#       8
#     8   8   8   8   8   8   8   4
#     4   9  19  34  55  78 104 146 183 219 278 329
#     4  10  23  33  52  78 116 144 189 214 275 327
#     4  10  19  36  56  78 105 142 185 241 257 313
#     4  12  24  34  50  78 110 138 180 216 272 315
#     4  10  16  32  55  70  91 135 187 217 251 294
#     4  12  23  35  50  77 111 150 173 217 262 326
#     4  10  16  34  54  69  93 132 178 230 248 299
#     4  10  18  36  50  74 106 152 176 204 270 340
#
# _framework density 19.880109000000001
#
# number of rings (size 3 to 8) (size 9 to 14) (size 15 to 20)
#    0.000    1.600    6.667    0.400    2.800    2.133 
#    0.000    0.000    0.000    0.000    0.000    0.933 
#    0.000    0.000    0.000    0.000    0.000    0.000 
#
# Total GULP energy -167215.516381 kJ/mol
# GULP energy per Si atom -5573.850546 kJ/mol
# Density = 1.983486 g / cm^3
# Si number density = 19.880109 Si / 1000 Ang^3
#
#
#
# Elastic Constant Matrix: (Units=GPa)
#
#
# Indices 1 2 3 4 5 6 
#
# 1 73.7154 -6.1023 -8.6287 0.0000 0.0000 0.0000
# 2 -6.1023 10.8151 15.4163 0.0000 0.0000 0.0000
# 3 -8.6287 15.4163 80.4501 0.0000 0.0000 0.0000
# 4 0.0000 0.0000 0.0000 10.4522 0.0000 0.0000
# 5 0.0000 0.0000 0.0000 0.0000 18.8318 0.0000
# 6 0.0000 0.0000 0.0000 0.0000 0.0000 16.3310
#
#
#
# Elastic Compliance Matrix: (Units=1/GPa)
#
#
# Indices 1 2 3 4 5 6 
#
# 1 0.014230 0.008054 -0.000017 0.000000 0.000000 0.000000
# 2 0.008054 0.131770 -0.024387 0.000000 0.000000 0.000000
# 3 -0.000017 -0.024387 0.017101 0.000000 0.000000 0.000000
# 4 0.000000 0.000000 0.000000 0.095674 0.000000 0.000000
# 5 0.000000 0.000000 0.000000 0.000000 0.053102 0.000000
# 6 0.000000 0.000000 0.000000 0.000000 0.000000 0.061233
#
#
# Mechanical properties :
#
#
# Convention : Reuss Voigt Hill
#
# Bulk Modulus (GPa) = 7.66864 18.48347 13.07606
# Shear Modulus (GPa) = 11.12898 20.07601 15.60250
#
# Velocity S-wave (km/s) = 2.36859 3.18127 2.80452
# Velocity P-wave (km/s) = 3.36840 4.77615 4.13266
#
# Compressibility (1/GPa) = 0.13040117
#
# Stress axis : x y z
#
# Youngs Moduli (GPa) = 70.27215 7.58901 58.47484
#
# Poissons Ratio (x) = -0.06112 0.00099
# Poissons Ratio (y) = -0.56595 1.42601
# Poissons Ratio (z) = 0.00119 0.18507
#
# Static dielectric constant tensor:
#      x y z
#    x 1.805040 0.000000 0.000000 
#    y 0.000000 1.709580 0.000000 
#    z 0.000000 0.000000 1.838110 
# 
# From -- ./inp_files/22991.got.cif
#   From: 2010.05.17/outbox.cif.g08.bks.cpg/sg20_12_cif.got.tgz:22991.got - 2010.06.03 22:52:26.
