data_PCOD9316161
_publ_section_title
;
Structure prediction by ZEFSAII (Michael W. Deem and Ramdas Pophale) SiO2 
 PCOD9316161
Probable space group: P 21 21 21
;
_chemical_formula_sum "Si O2"
_cell_formula_units_Z 32
_cell_length_a 9.000000
_cell_length_b 12.000000
_cell_length_c 15.000000
_cell_angle_alpha 90.000000
_cell_angle_beta 90.000000
_cell_angle_gamma 90.000000
_cell_volume 1620.000000
_symmetry_space_group_name_H-M "P 21 21 21"
_symmetry_group_IT_number 19
_symmetry_cell_setting 'orthorhombic'
loop_
_space_group_symop_operation_xyz
x,y,z
1/2-x,-y,1/2+z
1/2+x,1/2-y,-z
-x,1/2+y,1/2-z
loop_
_atom_site_type_symbol
_atom_site_label
_atom_site_fract_x
_atom_site_fract_y
_atom_site_fract_z
Si Si1 0.622388 0.447324 0.533377
Si Si2 0.732751 0.365792 0.165040
Si Si3 0.334538 0.824102 0.688281
Si Si4 0.314018 0.506445 0.439530
Si Si5 0.579755 0.797781 0.556643
Si Si6 0.822204 0.432630 0.355559
Si Si7 0.514100 0.697707 0.374393
Si Si8 0.881231 0.796081 0.125588
O O1 0.704130 0.529453 0.606210
O O2 0.446857 0.476815 0.511524
O O3 0.714849 0.455737 0.439991
O O4 0.631585 0.318913 0.568690
O O5 0.837642 0.263187 0.137402
O O6 0.737389 0.381498 0.270963
O O7 0.571957 0.314456 0.141091
O O8 0.410649 0.796587 0.592990
O O9 0.156282 0.820955 0.686565
O O10 0.377137 0.746299 0.771292
O O11 0.383826 0.953400 0.689989
O O12 0.171657 0.587857 0.464881
O O13 0.406141 0.590210 0.373900
O O14 0.242372 0.391448 0.400394
O O15 0.579823 0.715966 0.472996
O O16 0.959301 0.356260 0.386365
#
# Coordination Sequence:
#
# PCOD9316161 Si02
#       8
#     4   4   4   4   4   4   4   4
#     4  12  25  48  71 103 146 188 232 298 366 431
#     4  11  24  42  71 103 134 184 240 288 357 426
#     4  12  23  43  71  98 139 188 235 293 356 420
#     4  11  24  42  70 101 141 179 238 296 354 432
#     4  11  21  43  70 103 133 179 238 295 358 416
#     4  12  24  47  70  97 147 186 229 300 348 432
#     4  11  24  41  73 102 138 181 237 306 353 426
#     4  12  27  44  72 103 142 195 237 284 370 437
#
# _framework density 19.753086
#
# number of rings (size 3 to 8) (size 9 to 14) (size 15 to 20)
#    0.000    0.500    6.250    3.000    1.750    0.000 
#    0.000    0.000    5.500    0.000    0.000    0.000 
#    0.000    0.000    0.000    0.000    0.000    0.000 
#
# Total GULP energy -178301.856773 kJ/mol
# GULP energy per Si atom -5571.933024 kJ/mol
# Density = 1.970813 g / cm^3
# Si number density = 19.753086 Si / 1000 Ang^3
#
#
#
# Elastic Constant Matrix: (Units=GPa)
#
#
# Indices 1 2 3 4 5 6 
#
# 1 108.8947 38.5210 21.3060 0.0000 0.0000 0.0000
# 2 38.5210 136.8792 21.9739 0.0000 0.0000 0.0000
# 3 21.3060 21.9739 75.2995 0.0000 0.0000 0.0000
# 4 0.0000 0.0000 0.0000 30.2097 0.0000 0.0000
# 5 0.0000 0.0000 0.0000 0.0000 28.6176 0.0000
# 6 0.0000 0.0000 0.0000 0.0000 0.0000 43.4780
#
#
#
# Elastic Compliance Matrix: (Units=1/GPa)
#
#
# Indices 1 2 3 4 5 6 
#
# 1 0.010541 -0.002610 -0.002221 0.000000 0.000000 0.000000
# 2 -0.002610 0.008311 -0.001687 0.000000 0.000000 0.000000
# 3 -0.002221 -0.001687 0.014401 0.000000 0.000000 0.000000
# 4 0.000000 0.000000 0.000000 0.033102 0.000000 0.000000
# 5 0.000000 0.000000 0.000000 0.000000 0.034943 0.000000
# 6 0.000000 0.000000 0.000000 0.000000 0.000000 0.023000
#
#
# Mechanical properties :
#
#
# Convention : Reuss Voigt Hill
#
# Bulk Modulus (GPa) = 49.46204 53.85281 51.65743
# Shear Modulus (GPa) = 34.70461 36.41257 35.55859
#
# Velocity S-wave (km/s) = 4.19611 4.29813 4.24742
# Velocity P-wave (km/s) = 6.96929 7.20791 7.08961
#
# Compressibility (1/GPa) = 0.02021752
#
# Stress axis : x y z
#
# Youngs Moduli (GPa) = 94.86784 120.32239 69.43983
#
# Poissons Ratio (x) = 0.31403 0.15422
# Poissons Ratio (y) = 0.24760 0.11713
# Poissons Ratio (z) = 0.21070 0.20296
#
# Static dielectric constant tensor:
#      x y z
#    x 1.761840 0.000000 0.000000 
#    y 0.000000 1.739830 0.000000 
#    z 0.000000 0.000000 1.724670 
# 
# From -- ./inp_files/5961.got.cif
#   From: 2010.05.17/outbox.ucp.g08.bks.cvg/sg19_3_cif.got.tgz:5961.got - 2010.06.11 13:13:52.
