data_PCOD9316817
_publ_section_title
;
Structure prediction by ZEFSAII (Michael W. Deem and Ramdas Pophale) SiO2 
 PCOD9316817
Probable space group: C 2 2 21
;
_chemical_formula_sum "Si O2"
_cell_formula_units_Z 36
_cell_length_a 6.130929
_cell_length_b 20.426602
_cell_length_c 13.546106
_cell_angle_alpha 90.000000
_cell_angle_beta 90.000000
_cell_angle_gamma 90.000000
_cell_volume 1696.433670
_symmetry_space_group_name_H-M "C 2 2 21"
_symmetry_group_IT_number 20
_symmetry_cell_setting 'orthorhombic'
loop_
_space_group_symop_operation_xyz
x,y,z
-x,-y,1/2+z
x,-y,-z
-x,y,1/2-z
1/2+x,1/2+y,z
1/2-x,1/2-y,1/2+z
1/2+x,1/2-y,-z
1/2-x,1/2+y,1/2-z
loop_
_atom_site_type_symbol
_atom_site_label
_atom_site_fract_x
_atom_site_fract_y
_atom_site_fract_z
Si Si1 0.327958 0.688561 0.124002
Si Si2 0.856153 0.000000 0.000000
Si Si3 0.000000 0.303504 0.250000
Si Si4 0.500000 0.899464 0.750000
Si Si5 0.095322 0.373679 0.057152
Si Si6 0.294828 0.405817 0.581259
O O1 0.350072 0.757147 0.180210
O O2 0.177286 0.643815 0.192983
O O3 0.571118 0.658523 0.114767
O O4 0.214200 0.678651 0.016944
O O5 0.712470 0.056310 0.951359
O O6 0.019015 0.959249 0.931681
O O7 0.112946 0.347852 0.167653
O O8 0.629728 0.933777 0.662975
O O9 0.851980 0.386178 0.013198
#
# Coordination Sequence:
#
# PCOD9316817 Si02
#       6
#     8   4   4   4   8   8
#     4  10  22  40  66 100 137 175 220 288 356 422
#     4  10  22  48  66  92 140 188 234 294 352 412
#     4  12  24  44  69 110 137 180 238 288 362 430
#     4  10  18  38  67 102 123 178 224 276 354 418
#     4  10  25  43  70  99 140 188 231 296 354 416
#     4  10  20  42  66  96 133 182 227 284 349 420
#
# _framework density 21.220987999999998
#
# number of rings (size 3 to 8) (size 9 to 14) (size 15 to 20)
#    0.000    1.778    2.222    0.667    3.111    0.000 
#    4.000   26.667    0.000    0.000    0.000    0.000 
#    0.000    0.000    0.000    0.000    0.000    0.000 
#
# Total GULP energy -100396.284040 kJ/mol
# GULP energy per Si atom -5577.571336 kJ/mol
# Density = 2.117269 g / cm^3
# Si number density = 21.220988 Si / 1000 Ang^3
#
#
#
# Elastic Constant Matrix: (Units=GPa)
#
#
# Indices 1 2 3 4 5 6 
#
# 1 106.2509 47.8420 38.0643 0.0000 0.0000 0.0000
# 2 47.8420 111.5190 68.3976 0.0000 0.0000 0.0000
# 3 38.0643 68.3976 143.2265 0.0000 0.0000 0.0000
# 4 0.0000 0.0000 0.0000 11.0273 0.0000 0.0000
# 5 0.0000 0.0000 0.0000 0.0000 30.4010 0.0000
# 6 0.0000 0.0000 0.0000 0.0000 0.0000 -7.5976
#
#
#
# Elastic Compliance Matrix: (Units=1/GPa)
#
#
# Indices 1 2 3 4 5 6 
#
# 1 0.011768 -0.004427 -0.001013 0.000000 0.000000 0.000000
# 2 -0.004427 0.014347 -0.005675 0.000000 0.000000 0.000000
# 3 -0.001013 -0.005675 0.009961 0.000000 0.000000 0.000000
# 4 0.000000 0.000000 0.000000 0.090684 0.000000 0.000000
# 5 0.000000 0.000000 0.000000 0.000000 0.032894 0.000000
# 6 0.000000 0.000000 0.000000 0.000000 0.000000 -0.131620
#
#
# Mechanical properties :
#
#
# Convention : Reuss Voigt Hill
#
# Bulk Modulus (GPa) = 72.22413 74.40045 73.31229
# Shear Modulus (GPa) = 91.10984 20.54565 55.82775
#
# Velocity S-wave (km/s) = 6.55950 3.11493 5.13468
# Velocity P-wave (km/s) = 9.56439 6.93347 8.35316
#
# Compressibility (1/GPa) = 0.01384579
#
# Stress axis : x y z
#
# Youngs Moduli (GPa) = 84.97553 69.70220 100.38906
#
# Poissons Ratio (x) = 0.30857 0.10174
# Poissons Ratio (y) = 0.37619 0.56968
# Poissons Ratio (z) = 0.08612 0.39554
#
# Static dielectric constant tensor:
#      x y z
#    x 1.793940 0.000000 0.000000 
#    y 0.000000 1.824230 0.000000 
#    z 0.000000 0.000000 1.817090 
# 
# From -- ./inp_files/17567.got.cif
#   From: 2010.05.17/outbox.cif.g08.bks.cpg/sg20_9_cif.got.tgz:17567.got - 2010.06.03 22:52:26.
