data_PCOD9316739
_publ_section_title
;
Structure prediction by ZEFSAII (Michael W. Deem and Ramdas Pophale) SiO2 
 PCOD9316739
Probable space group: C 2 2 21
;
_chemical_formula_sum "Si O2"
_cell_formula_units_Z 60
_cell_length_a 30.903987
_cell_length_b 8.793082
_cell_length_c 11.326156
_cell_angle_alpha 90.000000
_cell_angle_beta 90.000000
_cell_angle_gamma 90.000000
_cell_volume 3077.784263
_symmetry_space_group_name_H-M "C 2 2 21"
_symmetry_group_IT_number 20
_symmetry_cell_setting 'orthorhombic'
loop_
_space_group_symop_operation_xyz
x,y,z
-x,-y,1/2+z
x,-y,-z
-x,y,1/2-z
1/2+x,1/2+y,z
1/2-x,1/2-y,1/2+z
1/2+x,1/2-y,-z
1/2-x,1/2+y,1/2-z
loop_
_atom_site_type_symbol
_atom_site_label
_atom_site_fract_x
_atom_site_fract_y
_atom_site_fract_z
Si Si1 0.879747 0.439163 0.130350
Si Si2 0.956935 0.624206 0.709155
Si Si3 0.689874 0.735567 0.263901
Si Si4 0.239198 0.485461 0.859532
Si Si5 0.347716 0.816381 0.680904
Si Si6 0.600657 0.000000 0.000000
Si Si7 0.026296 0.039118 0.135347
Si Si8 0.370842 0.488411 0.637077
O O1 0.922786 0.359767 0.183682
O O2 0.837697 0.329711 0.139170
O O3 0.868835 0.580733 0.216882
O O4 0.886901 0.500000 0.000000
O O5 0.929620 0.550966 0.605468
O O6 0.974601 0.779682 0.652682
O O7 0.000000 0.536354 0.750000
O O8 0.717815 0.593249 0.308993
O O9 0.651771 0.663352 0.184273
O O10 0.721040 0.856629 0.196680
O O11 0.201596 0.364932 0.830293
O O12 0.243180 0.500000 0.000000
O O13 0.353482 0.639116 0.700495
O O14 0.369964 0.868530 0.557315
O O15 0.000000 0.975464 0.250000
O O16 0.077287 0.003414 0.147115
O O17 0.012521 0.000000 0.000000
O O18 0.359405 0.500000 0.500000
#
# Coordination Sequence:
#
# PCOD9316739 Si02
#       8
#     8   8   8   8   8   4   8   8
#     4  10  23  43  62  87 131 171 210 262 323 390
#     4  10  21  38  63  91 124 168 209 264 319 377
#     4  11  24  40  62  93 123 164 216 258 328 386
#     4  11  23  40  63  90 125 158 205 270 315 381
#     4  10  21  38  64  91 122 161 211 256 320 374
#     4  10  18  36  62  92 120 158 212 262 304 380
#     4  10  21  40  62  92 131 172 217 269 325 389
#     4  11  21  38  65  91 121 167 213 262 325 387
#
# _framework density 19.494544000000001
#
# number of rings (size 3 to 8) (size 9 to 14) (size 15 to 20)
#    0.000    1.600    2.000    3.200    2.800    3.200 
#    4.800    5.333    0.000    0.000    0.000    0.000 
#    0.000    0.000    0.000    0.000    0.000    0.000 
#
# Total GULP energy -167274.447389 kJ/mol
# GULP energy per Si atom -5575.814913 kJ/mol
# Density = 1.945017 g / cm^3
# Si number density = 19.494544 Si / 1000 Ang^3
#
#
#
# Elastic Constant Matrix: (Units=GPa)
#
#
# Indices 1 2 3 4 5 6 
#
# 1 89.0947 18.1793 51.1845 0.0000 0.0000 0.0000
# 2 18.1793 64.1918 21.6940 0.0000 0.0000 0.0000
# 3 51.1845 21.6940 125.4642 0.0000 0.0000 0.0000
# 4 0.0000 0.0000 0.0000 24.1963 0.0000 0.0000
# 5 0.0000 0.0000 0.0000 0.0000 23.5976 0.0000
# 6 0.0000 0.0000 0.0000 0.0000 0.0000 26.5420
#
#
#
# Elastic Compliance Matrix: (Units=1/GPa)
#
#
# Indices 1 2 3 4 5 6 
#
# 1 0.014976 -0.002312 -0.005710 0.000000 0.000000 0.000000
# 2 -0.002312 0.016902 -0.001979 0.000000 0.000000 0.000000
# 3 -0.005710 -0.001979 0.010642 0.000000 0.000000 0.000000
# 4 0.000000 0.000000 0.000000 0.041329 0.000000 0.000000
# 5 0.000000 0.000000 0.000000 0.000000 0.042377 0.000000
# 6 0.000000 0.000000 0.000000 0.000000 0.000000 0.037676
#
#
# Mechanical properties :
#
#
# Convention : Reuss Voigt Hill
#
# Bulk Modulus (GPa) = 44.40872 51.20738 47.80805
# Shear Modulus (GPa) = 26.12192 27.38002 26.75097
#
# Velocity S-wave (km/s) = 3.66452 3.75173 3.70838
# Velocity P-wave (km/s) = 6.38236 6.71505 6.55081
#
# Compressibility (1/GPa) = 0.02251810
#
# Stress axis : x y z
#
# Youngs Moduli (GPa) = 66.77349 59.16479 93.96641
#
# Poissons Ratio (x) = 0.13676 0.53654
# Poissons Ratio (y) = 0.15435 0.18601
# Poissons Ratio (z) = 0.38127 0.11712
#
# Static dielectric constant tensor:
#      x y z
#    x 1.735290 0.000000 0.000000 
#    y 0.000000 1.706880 0.000000 
#    z 0.000000 0.000000 1.707200 
# 
# From -- ./inp_files/17211.got.cif
#   From: 2010.05.17/outbox.cif.g08.bks.cpg/sg20_9_cif.got.tgz:17211.got - 2010.06.03 22:52:26.
