data_PCOD9316493
_publ_section_title
;
Structure prediction by ZEFSAII (Michael W. Deem and Ramdas Pophale) SiO2 
 PCOD9316493
Probable space group: C 2 2 21
;
_chemical_formula_sum "Si O2"
_cell_formula_units_Z 48
_cell_length_a 15.003994
_cell_length_b 16.071020
_cell_length_c 10.781985
_cell_angle_alpha 90.000000
_cell_angle_beta 90.000000
_cell_angle_gamma 90.000000
_cell_volume 2599.854519
_symmetry_space_group_name_H-M "C 2 2 21"
_symmetry_group_IT_number 20
_symmetry_cell_setting 'orthorhombic'
loop_
_space_group_symop_operation_xyz
x,y,z
-x,-y,1/2+z
x,-y,-z
-x,y,1/2-z
1/2+x,1/2+y,z
1/2-x,1/2-y,1/2+z
1/2+x,1/2-y,-z
1/2-x,1/2+y,1/2-z
loop_
_atom_site_type_symbol
_atom_site_label
_atom_site_fract_x
_atom_site_fract_y
_atom_site_fract_z
Si Si1 0.973810 0.826839 0.005191
Si Si2 0.337061 0.552915 0.258086
Si Si3 0.796427 0.303969 0.757031
Si Si4 0.076236 0.000000 0.000000
Si Si5 0.500000 0.681127 0.250000
Si Si6 0.000000 0.269208 0.750000
Si Si7 0.270525 0.500000 0.000000
Si Si8 0.739459 0.316071 0.482589
O O1 0.011001 0.786806 0.128628
O O2 0.867386 0.829112 0.010764
O O3 0.016020 0.918037 0.993913
O O4 0.001498 0.775019 0.882330
O O5 0.248552 0.606582 0.279982
O O6 0.364658 0.498077 0.375372
O O7 0.414385 0.621492 0.243863
O O8 0.325907 0.506837 0.127821
O O9 0.771621 0.278539 0.614698
O O10 0.753523 0.240952 0.859592
O O11 0.903468 0.311589 0.768588
O O12 0.221520 0.410621 0.016654
#
# Coordination Sequence:
#
# PCOD9316493 Si02
#       8
#     8   8   8   4   4   4   4   8
#     4  10  20  32  49  85 111 152 180 225 294 347
#     4  10  22  33  55  80 121 149 185 230 291 353
#     4  10  22  39  53  83 111 162 194 240 279 340
#     4  10  23  30  56  89 124 144 175 236 300 373
#     4  10  18  31  48  82 115 154 162 230 284 359
#     4  10  24  35  58  76 111 160 202 236 270 339
#     4  10  19  36  50  81 106 158 185 234 278 349
#     4  10  21  35  57  77 121 147 197 235 288 354
#
# _framework density 18.462572000000002
#
# number of rings (size 3 to 8) (size 9 to 14) (size 15 to 20)
#    0.000    2.000    3.333    0.500   11.667    0.667 
#    0.000    0.000    0.000    4.000    0.000    4.667 
#    0.000    0.000    0.000    0.000    0.000    0.000 
#
# Total GULP energy -133619.748512 kJ/mol
# GULP energy per Si atom -5567.489521 kJ/mol
# Density = 1.842055 g / cm^3
# Si number density = 18.462572 Si / 1000 Ang^3
#
#
#
# Elastic Constant Matrix: (Units=GPa)
#
#
# Indices 1 2 3 4 5 6 
#
# 1 72.1209 24.2267 18.1947 0.0000 0.0000 0.0000
# 2 24.2267 43.1679 42.5649 0.0000 0.0000 0.0000
# 3 18.1947 42.5649 169.7897 0.0000 0.0000 0.0000
# 4 0.0000 0.0000 0.0000 26.2486 0.0000 0.0000
# 5 0.0000 0.0000 0.0000 0.0000 29.2351 0.0000
# 6 0.0000 0.0000 0.0000 0.0000 0.0000 18.4475
#
#
#
# Elastic Compliance Matrix: (Units=1/GPa)
#
#
# Indices 1 2 3 4 5 6 
#
# 1 0.017161 -0.010385 0.000764 0.000000 0.000000 0.000000
# 2 -0.010385 0.037056 -0.008177 0.000000 0.000000 0.000000
# 3 0.000764 -0.008177 0.007858 0.000000 0.000000 0.000000
# 4 0.000000 0.000000 0.000000 0.038097 0.000000 0.000000
# 5 0.000000 0.000000 0.000000 0.000000 0.034205 0.000000
# 6 0.000000 0.000000 0.000000 0.000000 0.000000 0.054208
#
#
# Mechanical properties :
#
#
# Convention : Reuss Voigt Hill
#
# Bulk Modulus (GPa) = 37.76394 50.56123 44.16258
# Shear Modulus (GPa) = 21.45854 28.12572 24.79213
#
# Velocity S-wave (km/s) = 3.41291 3.90730 3.66844
# Velocity P-wave (km/s) = 6.00244 6.91384 6.47420
#
# Compressibility (1/GPa) = 0.02648029
#
# Stress axis : x y z
#
# Youngs Moduli (GPa) = 58.27074 26.98593 127.26539
#
# Poissons Ratio (x) = 0.28025 -0.09729
# Poissons Ratio (y) = 0.60514 1.04063
# Poissons Ratio (z) = -0.04454 0.22066
#
# Static dielectric constant tensor:
#      x y z
#    x 1.658030 0.000000 0.000000 
#    y 0.000000 1.655120 0.000000 
#    z 0.000000 0.000000 1.721080 
# 
# From -- ./inp_files/15102.got.cif
#   From: 2010.05.17/outbox.cif.g08.bks.cpg/sg20_8_cif.got.tgz:15102.got - 2010.06.03 22:52:26.
