data_PCOD9316930
_publ_section_title
;
Structure prediction by ZEFSAII (Michael W. Deem and Ramdas Pophale) SiO2 
 PCOD9316930
Probable space group: C 2 2 21
;
_chemical_formula_sum "Si O2"
_cell_formula_units_Z 48
_cell_length_a 7.893467
_cell_length_b 39.103568
_cell_length_c 7.429498
_cell_angle_alpha 90.000000
_cell_angle_beta 90.000000
_cell_angle_gamma 90.000000
_cell_volume 2293.209088
_symmetry_space_group_name_H-M "C 2 2 21"
_symmetry_group_IT_number 20
_symmetry_cell_setting 'orthorhombic'
loop_
_space_group_symop_operation_xyz
x,y,z
-x,-y,1/2+z
x,-y,-z
-x,y,1/2-z
1/2+x,1/2+y,z
1/2-x,1/2-y,1/2+z
1/2+x,1/2-y,-z
1/2-x,1/2+y,1/2-z
loop_
_atom_site_type_symbol
_atom_site_label
_atom_site_fract_x
_atom_site_fract_y
_atom_site_fract_z
Si Si1 0.500000 0.835327 0.029556
Si Si2 0.500000 0.914126 0.470584
Si Si3 0.809558 0.788705 0.465417
Si Si4 0.191199 0.960585 0.465241
Si Si5 0.308801 0.539415 0.534759
Si Si6 0.190442 0.211295 0.534583
O O1 0.500000 0.834693 0.250000
O O2 0.500000 0.874717 0.974317
O O3 0.333130 0.814877 0.968642
O O4 0.666870 0.814877 0.968642
O O5 0.500000 0.914630 0.250000
O O6 0.333310 0.934590 0.531463
O O7 0.666690 0.934590 0.531463
O O8 0.816739 0.792890 0.250000
O O9 0.750000 0.750000 0.500000
O O10 0.000000 0.793836 0.535797
O O11 0.183653 0.956455 0.250000
O O12 1.000000 0.955266 0.535613
O O13 0.239260 0.000000 0.500000
O O14 0.260740 0.500000 0.500000
#
# Coordination Sequence:
#
# PCOD9316930 Si02
#       6
#     8   8   8   8   8   8
#     4   9  18  31  46  70  98 122 154 198 239 277
#     4   9  17  29  46  68  96 124 154 192 232 273
#     4  10  19  31  50  72  93 121 156 194 238 284
#     4   9  17  29  47  70  93 121 156 192 229 272
#     4   9  17  29  47  70  93 121 156 192 229 272
#     4  10  19  31  50  72  93 121 156 194 238 284
#
# _framework density 20.931367000000002
#
# number of rings (size 3 to 8) (size 9 to 14) (size 15 to 20)
#    0.000    2.667    1.667    0.500    0.000    1.333 
#    0.000    6.667    0.000    4.000    0.000    4.667 
#    0.000    0.000    0.000    0.000    0.000    0.000 
#
# Total GULP energy -134023.712796 kJ/mol
# GULP energy per Si atom -5584.321367 kJ/mol
# Density = 2.088373 g / cm^3
# Si number density = 20.931367 Si / 1000 Ang^3
#
#
#
# Elastic Constant Matrix: (Units=GPa)
#
#
# Indices 1 2 3 4 5 6 
#
# 1 227.2289 159.3143 10.1457 0.0000 0.0000 0.0000
# 2 159.3143 217.1494 -1.2055 0.0000 0.0000 0.0000
# 3 10.1457 -1.2055 68.3427 0.0000 0.0000 0.0000
# 4 0.0000 0.0000 0.0000 20.3022 0.0000 0.0000
# 5 0.0000 0.0000 0.0000 0.0000 -2.7628 0.0000
# 6 0.0000 0.0000 0.0000 0.0000 0.0000 -229.1281
#
#
#
# Elastic Compliance Matrix: (Units=1/GPa)
#
#
# Indices 1 2 3 4 5 6 
#
# 1 0.009211 -0.006766 -0.001487 0.000000 0.000000 0.000000
# 2 -0.006766 0.009576 0.001173 0.000000 0.000000 0.000000
# 3 -0.001487 0.001173 0.014874 0.000000 0.000000 0.000000
# 4 0.000000 0.000000 0.000000 0.049256 0.000000 0.000000
# 5 0.000000 0.000000 0.000000 0.000000 -0.361952 0.000000
# 6 0.000000 0.000000 0.000000 0.000000 0.000000 -0.004364
#
#
# Mechanical properties :
#
#
# Convention : Reuss Voigt Hill
#
# Bulk Modulus (GPa) = 51.27864 94.35889 72.81877
# Shear Modulus (GPa) = -19.03016 -19.35332 -19.19174
#
# Velocity S-wave (km/s) = -3.01851 -3.04404 -3.03130
# Velocity P-wave (km/s) = 3.52180 5.72915 4.75532
#
# Compressibility (1/GPa) = 0.01950130
#
# Stress axis : x y z
#
# Youngs Moduli (GPa) = 108.56563 104.43190 67.23349
#
# Poissons Ratio (x) = 0.70659 0.09996
# Poissons Ratio (y) = 0.73456 -0.07889
# Poissons Ratio (z) = 0.16141 -0.12253
#
# Static dielectric constant tensor:
#      x y z
#    x 1.752200 0.000000 0.000000 
#    y 0.000000 1.678780 0.000000 
#    z 0.000000 0.000000 1.817640 
# 
# From -- ./inp_files/6518.got.cif
#   From: 2010.05.17/outbox.cif.g08.bks.cpg/sg20_4_cif.got.tgz:6518.got - 2010.06.03 22:52:26.
