data_PCOD9316833
_publ_section_title
;
Structure prediction by ZEFSAII (Michael W. Deem and Ramdas Pophale) SiO2 
 PCOD9316833
Probable space group: C 2 2 21
;
_chemical_formula_sum "Si O2"
_cell_formula_units_Z 52
_cell_length_a 7.000590
_cell_length_b 11.899201
_cell_length_c 26.251727
_cell_angle_alpha 90.000000
_cell_angle_beta 90.000000
_cell_angle_gamma 90.000000
_cell_volume 2186.806334
_symmetry_space_group_name_H-M "C 2 2 21"
_symmetry_group_IT_number 20
_symmetry_cell_setting 'orthorhombic'
loop_
_space_group_symop_operation_xyz
x,y,z
-x,-y,1/2+z
x,-y,-z
-x,y,1/2-z
1/2+x,1/2+y,z
1/2-x,1/2-y,1/2+z
1/2+x,1/2-y,-z
1/2-x,1/2+y,1/2-z
loop_
_atom_site_type_symbol
_atom_site_label
_atom_site_fract_x
_atom_site_fract_y
_atom_site_fract_z
Si Si1 0.291705 0.592372 0.363104
Si Si2 0.853427 0.392199 0.970132
Si Si3 0.172222 0.006275 0.588615
Si Si4 0.769268 0.018880 0.255393
Si Si5 0.500000 0.783029 0.750000
Si Si6 0.410212 0.347868 0.989980
Si Si7 0.734404 0.834748 0.177670
O O1 0.139429 0.604740 0.408813
O O2 0.475058 0.525874 0.383339
O O3 0.218058 0.523496 0.314830
O O4 0.351686 0.716718 0.342311
O O5 0.624053 0.386793 0.978026
O O6 0.927951 0.500000 0.000000
O O7 0.923055 0.282685 0.999161
O O8 0.149300 0.093048 0.542153
O O9 0.279555 0.076490 0.631710
O O10 0.219376 0.891338 0.557223
O O11 0.686748 0.911399 0.226416
O O12 0.000000 0.023042 0.250000
O O13 0.674773 0.134431 0.235419
O O14 0.561230 0.712063 0.700263
#
# Coordination Sequence:
#
# PCOD9316833 Si02
#       7
#     8   8   8   8   4   8   8
#     4  10  20  37  67  88 122 173 211 263 334 385
#     4  11  21  42  61  92 127 167 212 266 320 395
#     4  10  18  39  63  88 124 172 208 262 332 380
#     4  11  22  42  65  95 133 173 222 278 330 394
#     4  10  24  42  62  98 128 174 226 266 334 398
#     4  10  21  38  63  91 127 166 209 263 325 382
#     4  11  20  41  64  88 133 169 214 278 328 388
#
# _framework density 23.778967999999999
#
# number of rings (size 3 to 8) (size 9 to 14) (size 15 to 20)
#    0.000    1.538    6.923    0.000    0.000    0.000 
#   11.077    7.692    0.000    0.000    0.000    0.000 
#    0.000    0.000    0.000    0.000    0.000    0.000 
#
# Total GULP energy -145000.280396 kJ/mol
# GULP energy per Si atom -5576.933861 kJ/mol
# Density = 2.372485 g / cm^3
# Si number density = 23.778968 Si / 1000 Ang^3
#
#
#
# Elastic Constant Matrix: (Units=GPa)
#
#
# Indices 1 2 3 4 5 6 
#
# 1 69.8967 13.3836 17.2952 0.0000 0.0000 0.0000
# 2 13.3836 160.9440 65.0669 0.0000 0.0000 0.0000
# 3 17.2952 65.0669 150.4506 0.0000 0.0000 0.0000
# 4 0.0000 0.0000 0.0000 41.2263 0.0000 0.0000
# 5 0.0000 0.0000 0.0000 0.0000 -0.1199 0.0000
# 6 0.0000 0.0000 0.0000 0.0000 0.0000 -487.8791
#
#
#
# Elastic Compliance Matrix: (Units=1/GPa)
#
#
# Indices 1 2 3 4 5 6 
#
# 1 0.014783 -0.000657 -0.001415 0.000000 0.000000 0.000000
# 2 -0.000657 0.007559 -0.003194 0.000000 0.000000 0.000000
# 3 -0.001415 -0.003194 0.008191 0.000000 0.000000 0.000000
# 4 0.000000 0.000000 0.000000 0.024256 0.000000 0.000000
# 5 0.000000 0.000000 0.000000 0.000000 -8.337226 0.000000
# 6 0.000000 0.000000 0.000000 0.000000 0.000000 -0.002050
#
#
# Mechanical properties :
#
#
# Convention : Reuss Voigt Hill
#
# Bulk Modulus (GPa) = 49.99853 63.64254 56.82053
# Shear Modulus (GPa) = -0.60479 -70.31816 -35.46148
#
# Velocity S-wave (km/s) = -0.50487 -5.44388 -3.86592
# Velocity P-wave (km/s) = 4.55326 3.56259 2.00501
#
# Compressibility (1/GPa) = 0.02000059
#
# Stress axis : x y z
#
# Youngs Moduli (GPa) = 67.64609 132.29061 122.09183
#
# Poissons Ratio (x) = 0.08694 0.17278
# Poissons Ratio (y) = 0.04446 0.38991
# Poissons Ratio (z) = 0.09573 0.42249
#
# Static dielectric constant tensor:
#      x y z
#    x 2.005550 0.000000 0.000000 
#    y 0.000000 1.977450 0.000000 
#    z 0.000000 0.000000 2.104820 
# 
# From -- ./inp_files/30129.got.cif
#   From: 2010.05.17/outbox.cif.g08.bks.cpg/sg20_16_cif.got.tgz:30129.got - 2010.06.03 22:52:26.
