data_PCOD9316256
_publ_section_title
;
Structure prediction by ZEFSAII (Michael W. Deem and Ramdas Pophale) SiO2 
 PCOD9316256
Probable space group: C 2 2 21
;
_chemical_formula_sum "Si O2"
_cell_formula_units_Z 60
_cell_length_a 15.450898
_cell_length_b 19.539388
_cell_length_c 10.652827
_cell_angle_alpha 90.000000
_cell_angle_beta 90.000000
_cell_angle_gamma 90.000000
_cell_volume 3216.100093
_symmetry_space_group_name_H-M "C 2 2 21"
_symmetry_group_IT_number 20
_symmetry_cell_setting 'orthorhombic'
loop_
_space_group_symop_operation_xyz
x,y,z
-x,-y,1/2+z
x,-y,-z
-x,y,1/2-z
1/2+x,1/2+y,z
1/2-x,1/2-y,1/2+z
1/2+x,1/2-y,-z
1/2-x,1/2+y,1/2-z
loop_
_atom_site_type_symbol
_atom_site_label
_atom_site_fract_x
_atom_site_fract_y
_atom_site_fract_z
Si Si1 0.078724 0.431355 0.653656
Si Si2 0.570308 0.748276 0.334264
Si Si3 0.157933 0.679434 0.173668
Si Si4 0.248228 0.309616 0.244049
Si Si5 0.677505 0.351941 0.522236
Si Si6 0.175756 0.550893 0.772795
Si Si7 0.205135 0.000000 0.500000
Si Si8 0.535018 0.126536 0.949009
O O1 0.122742 0.360616 0.704034
O O2 0.142948 0.493987 0.676943
O O3 0.000000 0.444340 0.750000
O O4 0.034034 0.421094 0.520048
O O5 0.500000 0.710236 0.250000
O O6 0.656295 0.771309 0.259565
O O7 0.602296 0.699686 0.444051
O O8 0.520232 0.814564 0.383718
O O9 0.179665 0.759627 0.195673
O O10 0.249893 0.648869 0.130696
O O11 0.093188 0.660876 0.059494
O O12 0.228638 0.386762 0.291407
O O13 0.274915 0.323359 0.100990
O O14 0.651324 0.430476 0.508906
O O15 0.096584 0.586074 0.851868
O O16 0.233027 0.513830 0.880046
#
# Coordination Sequence:
#
# PCOD9316256 Si02
#       8
#     8   8   8   8   8   8   4   8
#     4  10  21  31  52  80 115 145 182 226 286 350
#     4  11  21  36  56  85 113 151 189 236 286 333
#     4  10  18  35  52  78 106 150 189 230 272 342
#     4  10  21  34  56  79 112 145 194 233 276 336
#     4  10  19  34  57  79 108 147 191 233 276 337
#     4  11  19  35  52  81 111 149 183 227 282 343
#     4  10  16  34  58  78 106 146 194 224 274 346
#     4  11  21  36  53  80 117 150 183 229 287 349
#
# _framework density 18.656134999999999
#
# number of rings (size 3 to 8) (size 9 to 14) (size 15 to 20)
#    0.000    1.600    5.333    1.600    1.867    0.000 
#    0.000    0.000    0.000    3.200    0.000    0.000 
#    0.000    0.000    0.000    0.000    0.000    0.000 
#
# Total GULP energy -167327.380886 kJ/mol
# GULP energy per Si atom -5577.579363 kJ/mol
# Density = 1.861367 g / cm^3
# Si number density = 18.656135 Si / 1000 Ang^3
#
#
#
# Elastic Constant Matrix: (Units=GPa)
#
#
# Indices 1 2 3 4 5 6 
#
# 1 48.9597 38.1295 14.7961 0.0000 0.0000 0.0000
# 2 38.1295 135.0748 35.7129 0.0000 0.0000 0.0000
# 3 14.7961 35.7129 33.1374 0.0000 0.0000 0.0000
# 4 0.0000 0.0000 0.0000 27.6578 0.0000 0.0000
# 5 0.0000 0.0000 0.0000 0.0000 26.1271 0.0000
# 6 0.0000 0.0000 0.0000 0.0000 0.0000 37.4007
#
#
#
# Elastic Compliance Matrix: (Units=1/GPa)
#
#
# Indices 1 2 3 4 5 6 
#
# 1 0.026840 -0.006164 -0.005341 0.000000 0.000000 0.000000
# 2 -0.006164 0.011769 -0.009931 0.000000 0.000000 0.000000
# 3 -0.005341 -0.009931 0.043265 0.000000 0.000000 0.000000
# 4 0.000000 0.000000 0.000000 0.036156 0.000000 0.000000
# 5 0.000000 0.000000 0.000000 0.000000 0.038274 0.000000
# 6 0.000000 0.000000 0.000000 0.000000 0.000000 0.026737
#
#
# Mechanical properties :
#
#
# Convention : Reuss Voigt Hill
#
# Bulk Modulus (GPa) = 25.64019 43.82765 34.73392
# Shear Modulus (GPa) = 20.92786 26.80601 23.86693
#
# Velocity S-wave (km/s) = 3.35291 3.79469 3.58062
# Velocity P-wave (km/s) = 5.36309 6.53781 5.97937
#
# Compressibility (1/GPa) = 0.03900128
#
# Stress axis : x y z
#
# Youngs Moduli (GPa) = 37.25816 84.96722 23.11319
#
# Poissons Ratio (x) = 0.52377 0.12344
# Poissons Ratio (y) = 0.22967 0.22955
# Poissons Ratio (z) = 0.19898 0.84385
#
# Static dielectric constant tensor:
#      x y z
#    x 1.654510 0.000000 0.000000 
#    y 0.000000 1.701150 0.000000 
#    z 0.000000 0.000000 1.694690 
# 
# From -- ./inp_files/15293.got.cif
#   From: 2010.05.17/outbox.cif.g08.bks.cpg/sg20_8_cif.got.tgz:15293.got - 2010.06.03 22:52:26.
