data_PCOD9316668
_publ_section_title
;
Structure prediction by ZEFSAII (Michael W. Deem and Ramdas Pophale) SiO2 
 PCOD9316668
Probable space group: C 2 2 21
;
_chemical_formula_sum "Si O2"
_cell_formula_units_Z 60
_cell_length_a 16.876799
_cell_length_b 8.796131
_cell_length_c 18.876746
_cell_angle_alpha 90.000000
_cell_angle_beta 90.000000
_cell_angle_gamma 90.000000
_cell_volume 2802.263040
_symmetry_space_group_name_H-M "C 2 2 21"
_symmetry_group_IT_number 20
_symmetry_cell_setting 'orthorhombic'
loop_
_space_group_symop_operation_xyz
x,y,z
-x,-y,1/2+z
x,-y,-z
-x,y,1/2-z
1/2+x,1/2+y,z
1/2-x,1/2-y,1/2+z
1/2+x,1/2-y,-z
1/2-x,1/2+y,1/2-z
loop_
_atom_site_type_symbol
_atom_site_label
_atom_site_fract_x
_atom_site_fract_y
_atom_site_fract_z
Si Si1 0.967521 0.500000 0.000000
Si Si2 0.680759 0.666471 0.027540
Si Si3 0.343799 0.163031 0.099609
Si Si4 0.804608 0.613612 0.815656
Si Si5 0.296935 0.845948 0.608091
Si Si6 0.869992 0.353074 0.336011
Si Si7 0.029305 0.275522 0.379567
Si Si8 0.624495 0.501270 0.415410
O O1 0.917240 0.412966 0.940124
O O2 0.000218 0.639014 0.951695
O O3 0.775551 0.661732 0.039741
O O4 0.651842 0.732683 0.102406
O O5 0.654537 0.500000 0.000000
O O6 0.668026 0.787644 0.965604
O O7 0.368317 0.333844 0.116797
O O8 0.308744 0.064685 0.164552
O O9 0.727111 0.697127 0.846288
O O10 0.818393 0.658154 0.734785
O O11 0.883601 0.668388 0.856936
O O12 0.354069 0.974378 0.638854
O O13 0.211111 0.925579 0.598393
O O14 0.962163 0.319343 0.323989
O O15 0.049299 0.098237 0.389136
O O16 0.616577 0.500000 0.500000
#
# Coordination Sequence:
#
# PCOD9316668 Si02
#       8
#     4   8   8   8   8   8   8   8
#     4  10  18  34  64  90 122 172 224 268 328 400
#     4  12  22  39  62  97 137 166 213 289 347 391
#     4  11  18  37  67  93 126 167 229 283 312 409
#     4  10  24  43  66  91 129 186 232 266 339 424
#     4  11  22  37  66  95 125 173 226 278 339 404
#     4  12  26  40  64  94 145 172 220 288 355 404
#     4  10  23  40  61  93 132 180 225 277 339 410
#     4  11  18  35  65  97 125 165 230 276 331 401
#
# _framework density 21.411266000000001
#
# number of rings (size 3 to 8) (size 9 to 14) (size 15 to 20)
#    0.000    1.067    6.000    1.600    3.733    0.533 
#    0.000    1.333    0.000    6.400    0.000    0.000 
#    0.000    0.000    0.000    0.000    0.000    0.000 
#
# Total GULP energy -167276.880216 kJ/mol
# GULP energy per Si atom -5575.896007 kJ/mol
# Density = 2.136253 g / cm^3
# Si number density = 21.411266 Si / 1000 Ang^3
#
#
#
# Elastic Constant Matrix: (Units=GPa)
#
#
# Indices 1 2 3 4 5 6 
#
# 1 52.9620 32.7511 4.7254 0.0000 0.0000 0.0000
# 2 32.7511 148.6804 51.4190 0.0000 0.0000 0.0000
# 3 4.7254 51.4190 81.7875 0.0000 0.0000 0.0000
# 4 0.0000 0.0000 0.0000 20.3201 0.0000 0.0000
# 5 0.0000 0.0000 0.0000 0.0000 29.9184 0.0000
# 6 0.0000 0.0000 0.0000 0.0000 0.0000 25.5895
#
#
#
# Elastic Compliance Matrix: (Units=1/GPa)
#
#
# Indices 1 2 3 4 5 6 
#
# 1 0.022189 -0.005679 0.002288 0.000000 0.000000 0.000000
# 2 -0.005679 0.010048 -0.005989 0.000000 0.000000 0.000000
# 3 0.002288 -0.005989 0.015860 0.000000 0.000000 0.000000
# 4 0.000000 0.000000 0.000000 0.049212 0.000000 0.000000
# 5 0.000000 0.000000 0.000000 0.000000 0.033424 0.000000
# 6 0.000000 0.000000 0.000000 0.000000 0.000000 0.039079
#
#
# Mechanical properties :
#
#
# Convention : Reuss Voigt Hill
#
# Bulk Modulus (GPa) = 34.08597 51.24679 42.66638
# Shear Modulus (GPa) = 25.20785 28.13457 26.67121
#
# Velocity S-wave (km/s) = 3.43493 3.62886 3.53322
# Velocity P-wave (km/s) = 5.62902 6.44551 6.05105
#
# Compressibility (1/GPa) = 0.02933758
#
# Stress axis : x y z
#
# Youngs Moduli (GPa) = 45.06680 99.52167 63.05249
#
# Poissons Ratio (x) = 0.56521 -0.14429
# Poissons Ratio (y) = 0.25595 0.37762
# Poissons Ratio (z) = -0.10313 0.59603
#
# Static dielectric constant tensor:
#      x y z
#    x 1.792500 0.000000 0.000000 
#    y 0.000000 1.865200 0.000000 
#    z 0.000000 0.000000 1.779880 
# 
# From -- ./inp_files/25271.got.cif
#   From: 2010.05.17/outbox.cif.g08.bks.cpg/sg20_13_cif.got.tgz:25271.got - 2010.06.03 22:52:26.
