data_PCOD9316794
_publ_section_title
;
Structure prediction by ZEFSAII (Michael W. Deem and Ramdas Pophale) SiO2 
 PCOD9316794
Probable space group: C 2 2 21
;
_chemical_formula_sum "Si O2"
_cell_formula_units_Z 36
_cell_length_a 14.078389
_cell_length_b 12.064200
_cell_length_c 9.730033
_cell_angle_alpha 90.000000
_cell_angle_beta 90.000000
_cell_angle_gamma 90.000000
_cell_volume 1652.592595
_symmetry_space_group_name_H-M "C 2 2 21"
_symmetry_group_IT_number 20
_symmetry_cell_setting 'orthorhombic'
loop_
_space_group_symop_operation_xyz
x,y,z
-x,-y,1/2+z
x,-y,-z
-x,y,1/2-z
1/2+x,1/2+y,z
1/2-x,1/2-y,1/2+z
1/2+x,1/2-y,-z
1/2-x,1/2+y,1/2-z
loop_
_atom_site_type_symbol
_atom_site_label
_atom_site_fract_x
_atom_site_fract_y
_atom_site_fract_z
Si Si1 0.204791 0.513491 0.275449
Si Si2 0.247338 0.178293 0.988494
Si Si3 0.046688 0.797010 0.911744
Si Si4 0.500000 0.913884 0.250000
Si Si5 0.862204 0.882227 0.877694
O O1 0.234336 0.412564 0.372700
O O2 0.215349 0.623729 0.369267
O O3 0.285451 0.523474 0.157566
O O4 0.095558 0.486396 0.240206
O O5 0.302827 0.287665 0.951192
O O6 0.135925 0.205604 0.989436
O O7 0.005594 0.674000 0.877898
O O8 0.096639 0.840954 0.770715
O O9 0.963225 0.880523 0.955985
#
# Coordination Sequence:
#
# PCOD9316794 Si02
#       5
#     8   8   8   4   8
#     4  10  20  34  62  83 116 154 195 234 294 349
#     4  10  19  35  60  85 113 155 193 234 294 347
#     4   9  18  35  62  77 122 152 183 240 301 334
#     4  10  18  38  60  90 116 148 190 250 290 334
#     4   9  18  36  57  83 117 153 186 244 287 337
#
# _framework density 21.783953
#
# number of rings (size 3 to 8) (size 9 to 14) (size 15 to 20)
#    0.000    2.667    4.444    0.000    0.000    1.778 
#    0.000    0.000   34.222    8.000    0.000    0.000 
#    0.000    0.000    0.000    0.000    0.000    0.000 
#
# Total GULP energy -100227.122084 kJ/mol
# GULP energy per Si atom -5568.173449 kJ/mol
# Density = 2.173437 g / cm^3
# Si number density = 21.783953 Si / 1000 Ang^3
#
#
#
# Elastic Constant Matrix: (Units=GPa)
#
#
# Indices 1 2 3 4 5 6 
#
# 1 242.9926 54.1451 27.4477 0.0000 0.0000 0.0000
# 2 54.1451 62.8190 12.0372 0.0000 0.0000 0.0000
# 3 27.4477 12.0372 19.9143 0.0000 0.0000 0.0000
# 4 0.0000 0.0000 0.0000 5.3323 0.0000 0.0000
# 5 0.0000 0.0000 0.0000 0.0000 31.8389 0.0000
# 6 0.0000 0.0000 0.0000 0.0000 0.0000 42.5671
#
#
#
# Elastic Compliance Matrix: (Units=1/GPa)
#
#
# Indices 1 2 3 4 5 6 
#
# 1 0.005563 -0.003761 -0.005394 0.000000 0.000000 0.000000
# 2 -0.003761 0.020547 -0.007236 0.000000 0.000000 0.000000
# 3 -0.005394 -0.007236 0.062023 0.000000 0.000000 0.000000
# 4 0.000000 0.000000 0.000000 0.187535 0.000000 0.000000
# 5 0.000000 0.000000 0.000000 0.000000 0.031408 0.000000
# 6 0.000000 0.000000 0.000000 0.000000 0.000000 0.023492
#
#
# Mechanical properties :
#
#
# Convention : Reuss Voigt Hill
#
# Bulk Modulus (GPa) = 18.06636 56.99844 37.53240
# Shear Modulus (GPa) = 13.09589 31.42072 22.25831
#
# Velocity S-wave (km/s) = 2.45454 3.80199 3.19999
# Velocity P-wave (km/s) = 4.04283 6.74504 5.56058
#
# Compressibility (1/GPa) = 0.05535150
#
# Stress axis : x y z
#
# Youngs Moduli (GPa) = 179.77006 48.66886 16.12313
#
# Poissons Ratio (x) = 0.18305 0.08696
# Poissons Ratio (y) = 0.67613 0.11666
# Poissons Ratio (z) = 0.96960 0.35216
#
# Static dielectric constant tensor:
#      x y z
#    x 1.868050 0.000000 0.000000 
#    y 0.000000 1.811000 0.000000 
#    z 0.000000 0.000000 1.920730 
# 
# From -- ./inp_files/13781.got.cif
#   From: 2010.05.17/outbox.cif.g08.bks.cpg/sg20_7_cif.got.tgz:13781.got - 2010.06.03 22:52:26.
