data_PCOD9316896
_publ_section_title
;
Structure prediction by ZEFSAII (Michael W. Deem and Ramdas Pophale) SiO2 
 PCOD9316896
Probable space group: C 2 2 21
;
_chemical_formula_sum "Si O2"
_cell_formula_units_Z 64
_cell_length_a 27.914572
_cell_length_b 21.757535
_cell_length_c 5.383854
_cell_angle_alpha 90.000000
_cell_angle_beta 90.000000
_cell_angle_gamma 90.000000
_cell_volume 3269.895988
_symmetry_space_group_name_H-M "C 2 2 21"
_symmetry_group_IT_number 20
_symmetry_cell_setting 'orthorhombic'
loop_
_space_group_symop_operation_xyz
x,y,z
-x,-y,1/2+z
x,-y,-z
-x,y,1/2-z
1/2+x,1/2+y,z
1/2-x,1/2-y,1/2+z
1/2+x,1/2-y,-z
1/2-x,1/2+y,1/2-z
loop_
_atom_site_type_symbol
_atom_site_label
_atom_site_fract_x
_atom_site_fract_y
_atom_site_fract_z
Si Si1 0.553320 0.959169 0.747760
Si Si2 0.794181 0.232921 0.308366
Si Si3 0.191812 0.074157 0.503093
Si Si4 0.027863 0.925042 0.997593
Si Si5 0.817632 0.252812 0.809358
Si Si6 0.795739 0.617698 0.680434
Si Si7 0.137701 0.074610 0.996035
Si Si8 0.850977 0.385482 0.815372
O O1 0.500000 0.930728 0.750000
O O2 0.596431 0.912472 0.705305
O O3 0.554035 0.000000 0.500000
O O4 0.559653 0.000000 0.000000
O O5 0.819640 0.214484 0.559486
O O6 0.737524 0.219500 0.308819
O O7 0.797934 0.307725 0.308331
O O8 0.818714 0.213420 0.056153
O O9 0.241851 0.099685 0.611949
O O10 0.153999 0.089697 0.717481
O O11 0.197300 0.000000 0.500000
O O12 0.173743 0.091267 0.224372
O O13 0.000000 0.905722 0.750000
O O14 0.082940 0.903960 0.974322
O O15 0.000000 0.906294 0.250000
O O16 0.028526 0.000000 0.000000
O O17 0.851695 0.311075 0.817011
O O18 0.825240 0.596078 0.440622
O O19 0.820027 0.595769 0.939350
O O20 0.136658 0.000000 0.000000
#
# Coordination Sequence:
#
# PCOD9316896 Si02
#       8
#     8   8   8   8   8   8   8   8
#     4  10  21  36  51  67  91 124 158 198 251 298
#     4   8  14  25  40  61  87 113 136 167 217 264
#     4  10  19  29  38  52  79 116 149 175 208 252
#     4   9  15  23  37  55  70  87 119 165 210 247
#     4   8  14  25  42  62  86 111 135 169 215 264
#     4  10  19  29  44  65  89 118 153 190 224 268
#     4   9  17  28  39  51  74 106 135 168 211 251
#     4  10  19  31  47  67  87 113 152 192 226 270
#
# _framework density 19.572486000000001
#
# number of rings (size 3 to 8) (size 9 to 14) (size 15 to 20)
#    0.000    2.750    0.000    2.250    0.000    4.500 
#    0.000    0.000    0.000    0.000    0.000    0.000 
#    0.000    3.000    0.000    3.500    0.000    4.125 
#
# Total GULP energy -178396.769535 kJ/mol
# GULP energy per Si atom -5574.899048 kJ/mol
# Density = 1.952794 g / cm^3
# Si number density = 19.572486 Si / 1000 Ang^3
#
#
#
# Elastic Constant Matrix: (Units=GPa)
#
#
# Indices 1 2 3 4 5 6 
#
# 1 128.3046 31.7306 50.1534 0.0000 0.0000 0.0000
# 2 31.7306 38.4695 25.5590 0.0000 0.0000 0.0000
# 3 50.1534 25.5590 190.7405 0.0000 0.0000 0.0000
# 4 0.0000 0.0000 0.0000 15.8615 0.0000 0.0000
# 5 0.0000 0.0000 0.0000 0.0000 33.3028 0.0000
# 6 0.0000 0.0000 0.0000 0.0000 0.0000 8.0165
#
#
#
# Elastic Compliance Matrix: (Units=1/GPa)
#
#
# Indices 1 2 3 4 5 6 
#
# 1 0.010281 -0.007337 -0.001720 0.000000 0.000000 0.000000
# 2 -0.007337 0.033771 -0.002596 0.000000 0.000000 0.000000
# 3 -0.001720 -0.002596 0.006043 0.000000 0.000000 0.000000
# 4 0.000000 0.000000 0.000000 0.063046 0.000000 0.000000
# 5 0.000000 0.000000 0.000000 0.000000 0.030028 0.000000
# 6 0.000000 0.000000 0.000000 0.000000 0.000000 0.124742
#
#
# Mechanical properties :
#
#
# Convention : Reuss Voigt Hill
#
# Bulk Modulus (GPa) = 37.32948 63.60007 50.46477
# Shear Modulus (GPa) = 16.65854 28.10760 22.38307
#
# Velocity S-wave (km/s) = 2.92056 3.79367 3.38538
# Velocity P-wave (km/s) = 5.52148 7.19406 6.41253
#
# Compressibility (1/GPa) = 0.02678848
#
# Stress axis : x y z
#
# Youngs Moduli (GPa) = 97.26839 29.61094 165.48400
#
# Poissons Ratio (x) = 0.21726 0.28465
# Poissons Ratio (y) = 0.71367 0.42961
# Poissons Ratio (z) = 0.16731 0.07687
#
# Static dielectric constant tensor:
#      x y z
#    x 1.677310 0.000000 0.000000 
#    y 0.000000 1.738930 0.000000 
#    z 0.000000 0.000000 1.791640 
# 
# From -- ./inp_files/3878.got.cif
#   From: 2010.05.17/outbox.cif.g08.bks.cpg/sg20_2_cif.got.tgz:3878.got - 2010.06.03 22:52:26.
