data_PCOD9316571
_publ_section_title
;
Structure prediction by ZEFSAII (Michael W. Deem and Ramdas Pophale) SiO2 
 PCOD9316571
Probable space group: C 2 2 21
;
_chemical_formula_sum "Si O2"
_cell_formula_units_Z 44
_cell_length_a 14.086178
_cell_length_b 17.984635
_cell_length_c 8.142893
_cell_angle_alpha 90.000000
_cell_angle_beta 90.000000
_cell_angle_gamma 90.000000
_cell_volume 2062.877924
_symmetry_space_group_name_H-M "C 2 2 21"
_symmetry_group_IT_number 20
_symmetry_cell_setting 'orthorhombic'
loop_
_space_group_symop_operation_xyz
x,y,z
-x,-y,1/2+z
x,-y,-z
-x,y,1/2-z
1/2+x,1/2+y,z
1/2-x,1/2-y,1/2+z
1/2+x,1/2-y,-z
1/2-x,1/2+y,1/2-z
loop_
_atom_site_type_symbol
_atom_site_label
_atom_site_fract_x
_atom_site_fract_y
_atom_site_fract_z
Si Si1 0.718273 0.885280 0.601005
Si Si2 0.000000 0.388378 0.250000
Si Si3 0.805904 0.463781 0.257340
Si Si4 0.937218 0.727917 0.025321
Si Si5 0.285938 0.664548 0.909069
Si Si6 0.852311 0.776596 0.444755
O O1 0.703940 0.927051 0.425447
O O2 0.632565 0.826641 0.629741
O O3 0.815065 0.838470 0.575711
O O4 0.714143 0.949504 0.735544
O O5 0.913222 0.441115 0.306114
O O6 0.037116 0.330157 0.383978
O O7 0.733135 0.421490 0.376731
O O8 0.870927 0.799131 0.986415
O O9 0.036763 0.763021 0.079706
O O10 0.305823 0.696441 0.725490
O O11 0.192776 0.701222 0.985769
#
# Coordination Sequence:
#
# PCOD9316571 Si02
#       6
#     8   4   8   8   8   8
#     4   8  18  32  55  84 119 154 202 245 320 368
#     4  10  18  32  58  88 122 162 208 252 324 384
#     4   9  16  34  53  83 118 158 196 250 311 384
#     4  10  19  33  57  92 119 163 211 262 308 379
#     4  10  20  33  58  87 123 157 208 254 318 369
#     4  10  19  35  54  89 120 160 201 265 304 380
#
# _framework density 21.329423999999999
#
# number of rings (size 3 to 8) (size 9 to 14) (size 15 to 20)
#    0.000    2.545    1.818    1.636    0.000    0.000 
#    6.545    0.000    0.000    4.364   18.909    0.000 
#    0.000    0.000    0.000    0.000    0.000    0.000 
#
# Total GULP energy -122555.681884 kJ/mol
# GULP energy per Si atom -5570.712813 kJ/mol
# Density = 2.128088 g / cm^3
# Si number density = 21.329424 Si / 1000 Ang^3
#
#
#
# Elastic Constant Matrix: (Units=GPa)
#
#
# Indices 1 2 3 4 5 6 
#
# 1 127.8639 65.3737 18.2190 0.0000 0.0000 0.0000
# 2 65.3737 132.0667 41.7165 0.0000 0.0000 0.0000
# 3 18.2190 41.7165 43.5354 0.0000 0.0000 0.0000
# 4 0.0000 0.0000 0.0000 39.9122 0.0000 0.0000
# 5 0.0000 0.0000 0.0000 0.0000 20.0119 0.0000
# 6 0.0000 0.0000 0.0000 0.0000 0.0000 17.9884
#
#
#
# Elastic Compliance Matrix: (Units=1/GPa)
#
#
# Indices 1 2 3 4 5 6 
#
# 1 0.010492 -0.005459 0.000840 0.000000 0.000000 0.000000
# 2 -0.005459 0.013699 -0.010842 0.000000 0.000000 0.000000
# 3 0.000840 -0.010842 0.033007 0.000000 0.000000 0.000000
# 4 0.000000 0.000000 0.000000 0.025055 0.000000 0.000000
# 5 0.000000 0.000000 0.000000 0.000000 0.049970 0.000000
# 6 0.000000 0.000000 0.000000 0.000000 0.000000 0.055591
#
#
# Mechanical properties :
#
#
# Convention : Reuss Voigt Hill
#
# Bulk Modulus (GPa) = 38.05686 61.56495 49.81091
# Shear Modulus (GPa) = 21.97841 27.45961 24.71901
#
# Velocity S-wave (km/s) = 3.21351 3.59194 3.40798
# Velocity P-wave (km/s) = 5.62583 6.79185 6.23615
#
# Compressibility (1/GPa) = 0.02627647
#
# Stress axis : x y z
#
# Youngs Moduli (GPa) = 95.30890 72.99838 30.29634
#
# Poissons Ratio (x) = 0.39850 -0.02545
# Poissons Ratio (y) = 0.52030 0.32847
# Poissons Ratio (z) = -0.08007 0.79145
#
# Static dielectric constant tensor:
#      x y z
#    x 1.800560 0.000000 0.000000 
#    y 0.000000 1.760730 0.000000 
#    z 0.000000 0.000000 1.899020 
# 
# From -- ./inp_files/8297.got.cif
#   From: 2010.05.17/outbox.cif.g08.bks.cpg/sg20_5_cif.got.tgz:8297.got - 2010.06.03 22:52:26.
