data_PCOD9316697
_publ_section_title
;
Structure prediction by ZEFSAII (Michael W. Deem and Ramdas Pophale) SiO2 
 PCOD9316697
Probable space group: C 2 2 21
;
_chemical_formula_sum "Si O2"
_cell_formula_units_Z 64
_cell_length_a 8.759599
_cell_length_b 14.756122
_cell_length_c 23.731199
_cell_angle_alpha 90.000000
_cell_angle_beta 90.000000
_cell_angle_gamma 90.000000
_cell_volume 3067.440474
_symmetry_space_group_name_H-M "C 2 2 21"
_symmetry_group_IT_number 20
_symmetry_cell_setting 'orthorhombic'
loop_
_space_group_symop_operation_xyz
x,y,z
-x,-y,1/2+z
x,-y,-z
-x,y,1/2-z
1/2+x,1/2+y,z
1/2-x,1/2-y,1/2+z
1/2+x,1/2-y,-z
1/2-x,1/2+y,1/2-z
loop_
_atom_site_type_symbol
_atom_site_label
_atom_site_fract_x
_atom_site_fract_y
_atom_site_fract_z
Si Si1 0.395693 0.563885 0.301098
Si Si2 0.506006 0.656153 0.444143
Si Si3 0.319839 0.634410 0.737907
Si Si4 0.328077 0.795084 0.130137
Si Si5 0.385797 0.511919 0.899837
Si Si6 0.474605 0.705677 0.566585
Si Si7 0.861661 0.623538 0.646166
Si Si8 0.225852 0.686548 0.384686
O O1 0.500000 0.601457 0.250000
O O2 0.316453 0.470838 0.281125
O O3 0.513772 0.528182 0.348561
O O4 0.274575 0.634116 0.327830
O O5 0.579690 0.706918 0.390172
O O6 0.597765 0.562850 0.447913
O O7 0.511181 0.714321 0.500628
O O8 0.327587 0.635877 0.431677
O O9 0.500000 0.652921 0.750000
O O10 0.262634 0.701130 0.688889
O O11 0.208976 0.638655 0.791687
O O12 0.457441 0.871608 0.138991
O O13 0.202228 0.803893 0.081735
O O14 0.457947 0.608542 0.914922
O O15 0.216218 0.534662 0.879292
O O16 0.552575 0.789425 0.600103
O O17 0.798510 0.712694 0.614585
#
# Coordination Sequence:
#
# PCOD9316697 Si02
#       8
#     8   8   8   8   8   8   8   8
#     4  10  18  35  64  93 125 163 214 261 319 390
#     4  10  22  38  62  91 123 163 216 273 321 373
#     4  11  19  38  64  91 129 175 208 255 330 402
#     4  11  23  38  61  94 127 168 216 267 324 389
#     4  10  19  38  62  91 119 167 215 259 319 396
#     4  11  20  40  63  86 124 168 216 265 324 378
#     4  10  20  37  60  89 132 167 202 261 324 390
#     4   9  21  36  59  90 119 162 213 253 308 382
#
# _framework density 20.8643
#
# number of rings (size 3 to 8) (size 9 to 14) (size 15 to 20)
#    0.000    1.750    3.750    2.250    0.000    3.000 
#    2.250    0.000    0.000    3.000    0.000    0.000 
#    0.000    0.000    0.000    0.000    0.000    0.000 
#
# Total GULP energy -178234.547754 kJ/mol
# GULP energy per Si atom -5569.829617 kJ/mol
# Density = 2.081681 g / cm^3
# Si number density = 20.864300 Si / 1000 Ang^3
#
#
#
# Elastic Constant Matrix: (Units=GPa)
#
#
# Indices 1 2 3 4 5 6 
#
# 1 113.7071 38.2377 30.1359 0.0000 0.0000 0.0000
# 2 38.2377 57.2355 17.6087 0.0000 0.0000 0.0000
# 3 30.1359 17.6087 61.7149 0.0000 0.0000 0.0000
# 4 0.0000 0.0000 0.0000 33.1249 0.0000 0.0000
# 5 0.0000 0.0000 0.0000 0.0000 26.2468 0.0000
# 6 0.0000 0.0000 0.0000 0.0000 0.0000 28.1063
#
#
#
# Elastic Compliance Matrix: (Units=1/GPa)
#
#
# Indices 1 2 3 4 5 6 
#
# 1 0.012170 -0.006909 -0.003972 0.000000 0.000000 0.000000
# 2 -0.006909 0.023075 -0.003210 0.000000 0.000000 0.000000
# 3 -0.003972 -0.003210 0.019059 0.000000 0.000000 0.000000
# 4 0.000000 0.000000 0.000000 0.030189 0.000000 0.000000
# 5 0.000000 0.000000 0.000000 0.000000 0.038100 0.000000
# 6 0.000000 0.000000 0.000000 0.000000 0.000000 0.035579
#
#
# Mechanical properties :
#
#
# Convention : Reuss Voigt Hill
#
# Bulk Modulus (GPa) = 38.28066 44.95802 41.61934
# Shear Modulus (GPa) = 25.63297 27.27394 26.45346
#
# Velocity S-wave (km/s) = 3.50888 3.61945 3.56460
# Velocity P-wave (km/s) = 5.89946 6.24995 6.07723
#
# Compressibility (1/GPa) = 0.02612285
#
# Stress axis : x y z
#
# Youngs Moduli (GPa) = 82.16597 43.33705 52.46902
#
# Poissons Ratio (x) = 0.29941 0.20839
# Poissons Ratio (y) = 0.56768 0.16843
# Poissons Ratio (z) = 0.32634 0.13912
#
# Static dielectric constant tensor:
#      x y z
#    x 1.854530 0.000000 0.000000 
#    y 0.000000 1.762680 0.000000 
#    z 0.000000 0.000000 1.824200 
# 
# From -- ./inp_files/28877.got.cif
#   From: 2010.05.17/outbox.cif.g08.bks.cpg/sg20_15_cif.got.tgz:28877.got - 2010.06.03 22:52:26.
