data_PCOD9316521
_publ_section_title
;
Structure prediction by ZEFSAII (Michael W. Deem and Ramdas Pophale) SiO2 
 PCOD9316521
Probable space group: C 2 2 21
;
_chemical_formula_sum "Si O2"
_cell_formula_units_Z 48
_cell_length_a 7.315685
_cell_length_b 26.131995
_cell_length_c 10.853785
_cell_angle_alpha 90.000000
_cell_angle_beta 90.000000
_cell_angle_gamma 90.000000
_cell_volume 2074.955457
_symmetry_space_group_name_H-M "C 2 2 21"
_symmetry_group_IT_number 20
_symmetry_cell_setting 'orthorhombic'
loop_
_space_group_symop_operation_xyz
x,y,z
-x,-y,1/2+z
x,-y,-z
-x,y,1/2-z
1/2+x,1/2+y,z
1/2-x,1/2-y,1/2+z
1/2+x,1/2-y,-z
1/2-x,1/2+y,1/2-z
loop_
_atom_site_type_symbol
_atom_site_label
_atom_site_fract_x
_atom_site_fract_y
_atom_site_fract_z
Si Si1 0.229772 0.744134 0.565920
Si Si2 0.789121 0.041614 0.100872
Si Si3 0.500000 0.294571 0.750000
Si Si4 0.235461 0.962617 0.886341
Si Si5 0.270546 0.349786 0.591663
Si Si6 0.500000 0.314236 0.250000
Si Si7 0.178252 0.146300 0.524644
O O1 0.046307 0.757526 0.639906
O O2 0.184222 0.698795 0.472425
O O3 0.381982 0.722001 0.659326
O O4 0.268568 0.799492 0.507709
O O5 0.722644 0.028983 0.240315
O O6 0.012387 0.039867 0.109080
O O7 0.738669 0.096430 0.039823
O O8 0.732647 0.000000 0.000000
O O9 0.326352 0.330932 0.727657
O O10 0.310603 0.905594 0.912876
O O11 0.288193 0.000000 0.000000
O O12 0.470765 0.353790 0.528772
O O13 0.362076 0.350011 0.171127
#
# Coordination Sequence:
#
# PCOD9316521 Si02
#       7
#     8   8   4   8   8   4   8
#     4  10  19  31  49  73 103 137 170 210 258 310
#     4   9  17  27  42  65  95 131 168 209 257 306
#     4  10  18  32  50  69 104 137 164 208 256 302
#     4   9  16  27  43  64  94 133 170 206 254 310
#     4   9  17  29  45  67  97 133 169 203 250 306
#     4  10  20  32  50  75 104 139 176 214 264 320
#     4   9  18  30  45  68 101 135 170 212 257 310
#
# _framework density 23.133029000000001
#
# number of rings (size 3 to 8) (size 9 to 14) (size 15 to 20)
#    0.000    2.667    0.000    4.000    0.000    5.333 
#    0.000    0.000    0.000    0.000    0.000    0.000 
#    0.000   84.000    0.000    0.000    0.000    0.000 
#
# Total GULP energy -133716.337653 kJ/mol
# GULP energy per Si atom -5571.514069 kJ/mol
# Density = 2.308038 g / cm^3
# Si number density = 23.133029 Si / 1000 Ang^3
#
#
#
# Elastic Constant Matrix: (Units=GPa)
#
#
# Indices 1 2 3 4 5 6 
#
# 1 60.1201 16.7049 15.7745 0.0000 0.0000 0.0000
# 2 16.7049 209.8200 127.9745 0.0000 0.0000 0.0000
# 3 15.7745 127.9745 177.8479 0.0000 0.0000 0.0000
# 4 0.0000 0.0000 0.0000 36.6405 0.0000 0.0000
# 5 0.0000 0.0000 0.0000 0.0000 18.1198 0.0000
# 6 0.0000 0.0000 0.0000 0.0000 0.0000 11.8488
#
#
#
# Elastic Compliance Matrix: (Units=1/GPa)
#
#
# Indices 1 2 3 4 5 6 
#
# 1 0.017101 -0.000778 -0.000957 0.000000 0.000000 0.000000
# 2 -0.000778 0.008529 -0.006068 0.000000 0.000000 0.000000
# 3 -0.000957 -0.006068 0.010074 0.000000 0.000000 0.000000
# 4 0.000000 0.000000 0.000000 0.027292 0.000000 0.000000
# 5 0.000000 0.000000 0.000000 0.000000 0.055188 0.000000
# 6 0.000000 0.000000 0.000000 0.000000 0.000000 0.084397
#
#
# Mechanical properties :
#
#
# Convention : Reuss Voigt Hill
#
# Bulk Modulus (GPa) = 49.75706 85.41064 67.58385
# Shear Modulus (GPa) = 22.23340 32.47744 27.35542
#
# Velocity S-wave (km/s) = 3.10354 3.75099 3.44252
# Velocity P-wave (km/s) = 5.86502 7.46736 6.71416
#
# Compressibility (1/GPa) = 0.02009765
#
# Stress axis : x y z
#
# Youngs Moduli (GPa) = 58.47744 117.24498 99.26243
#
# Poissons Ratio (x) = 0.09118 0.09501
# Poissons Ratio (y) = 0.04548 0.60236
# Poissons Ratio (z) = 0.05597 0.71149
#
# Static dielectric constant tensor:
#      x y z
#    x 1.967950 0.000000 0.000000 
#    y 0.000000 1.864810 0.000000 
#    z 0.000000 0.000000 2.104530 
# 
# From -- ./inp_files/13149.got.cif
#   From: 2010.05.17/outbox.cif.g08.bks.cpg/sg20_7_cif.got.tgz:13149.got - 2010.06.03 22:52:26.
