data_PCOD9316677
_publ_section_title
;
Structure prediction by ZEFSAII (Michael W. Deem and Ramdas Pophale) SiO2 
 PCOD9316677
Probable space group: C 2 2 21
;
_chemical_formula_sum "Si O2"
_cell_formula_units_Z 64
_cell_length_a 23.442575
_cell_length_b 8.811146
_cell_length_c 15.653084
_cell_angle_alpha 90.000000
_cell_angle_beta 90.000000
_cell_angle_gamma 90.000000
_cell_volume 3233.237651
_symmetry_space_group_name_H-M "C 2 2 21"
_symmetry_group_IT_number 20
_symmetry_cell_setting 'orthorhombic'
loop_
_space_group_symop_operation_xyz
x,y,z
-x,-y,1/2+z
x,-y,-z
-x,y,1/2-z
1/2+x,1/2+y,z
1/2-x,1/2-y,1/2+z
1/2+x,1/2-y,-z
1/2-x,1/2+y,1/2-z
loop_
_atom_site_type_symbol
_atom_site_label
_atom_site_fract_x
_atom_site_fract_y
_atom_site_fract_z
Si Si1 0.774372 0.658206 0.899006
Si Si2 0.159758 0.141844 0.831926
Si Si3 0.819960 0.020383 0.160925
Si Si4 0.349895 0.744635 0.945897
Si Si5 0.560324 0.163514 0.737280
Si Si6 0.153888 0.566454 0.285502
Si Si7 0.065681 0.867958 0.584646
Si Si8 0.460301 0.514078 0.328231
O O1 0.706401 0.638980 0.907156
O O2 0.787957 0.824673 0.859115
O O3 0.797295 0.531296 0.833026
O O4 0.812120 0.665018 0.984945
O O5 0.164318 0.305687 0.785459
O O6 0.182755 0.029498 0.757880
O O7 0.094764 0.088015 0.848943
O O8 0.886698 0.044971 0.140088
O O9 0.807859 0.882223 0.095937
O O10 0.371956 0.842865 0.866766
O O11 0.402955 0.669087 0.996263
O O12 0.500000 0.083559 0.750000
O O13 0.561826 0.211937 0.638048
O O14 0.559044 0.318733 0.792897
O O15 0.612608 0.057183 0.755266
O O16 0.005150 0.950017 0.595716
O O17 0.500000 0.451900 0.250000
#
# Coordination Sequence:
#
# PCOD9316677 Si02
#       8
#     8   8   8   8   8   8   8   8
#     4  11  20  34  52  79 120 146 184 236 292 340
#     4  11  21  32  52  87 113 147 187 239 287 337
#     4  10  18  35  55  78 108 147 194 227 277 337
#     4  10  21  33  58  85 107 147 200 236 281 335
#     4   9  17  31  53  80 111 148 175 230 299 339
#     4  11  21  33  53  84 119 142 188 246 295 324
#     4   9  15  31  58  76 108 143 188 231 272 336
#     4   9  17  34  57  79 113 148 189 226 286 350
#
# _framework density 19.794401000000001
#
# number of rings (size 3 to 8) (size 9 to 14) (size 15 to 20)
#    0.000    2.250    5.000    2.625    0.000    0.500 
#    0.000    0.000    0.000    3.000    0.000    3.500 
#    0.000    0.000    0.000    0.000    0.000    0.000 
#
# Total GULP energy -178145.348523 kJ/mol
# GULP energy per Si atom -5567.042141 kJ/mol
# Density = 1.974935 g / cm^3
# Si number density = 19.794401 Si / 1000 Ang^3
#
#
#
# Elastic Constant Matrix: (Units=GPa)
#
#
# Indices 1 2 3 4 5 6 
#
# 1 117.1698 33.6335 33.9053 0.0000 0.0000 0.0000
# 2 33.6335 65.2090 6.4391 0.0000 0.0000 0.0000
# 3 33.9053 6.4391 50.4668 0.0000 0.0000 0.0000
# 4 0.0000 0.0000 0.0000 14.1383 0.0000 0.0000
# 5 0.0000 0.0000 0.0000 0.0000 9.4119 0.0000
# 6 0.0000 0.0000 0.0000 0.0000 0.0000 -12.2638
#
#
#
# Elastic Compliance Matrix: (Units=1/GPa)
#
#
# Indices 1 2 3 4 5 6 
#
# 1 0.012338 -0.005616 -0.007572 0.000000 0.000000 0.000000
# 2 -0.005616 0.018087 0.001465 0.000000 0.000000 0.000000
# 3 -0.007572 0.001465 0.024715 0.000000 0.000000 0.000000
# 4 0.000000 0.000000 0.000000 0.070730 0.000000 0.000000
# 5 0.000000 0.000000 0.000000 0.000000 0.106248 0.000000
# 6 0.000000 0.000000 0.000000 0.000000 0.000000 -0.081541
#
#
# Mechanical properties :
#
#
# Convention : Reuss Voigt Hill
#
# Bulk Modulus (GPa) = 31.55152 42.31128 36.93140
# Shear Modulus (GPa) = 27.08716 12.84846 19.96781
#
# Velocity S-wave (km/s) = 3.70324 2.55050 3.17954
# Velocity P-wave (km/s) = 5.85316 5.48591 5.67251
#
# Compressibility (1/GPa) = 0.03169419
#
# Stress axis : x y z
#
# Youngs Moduli (GPa) = 81.05114 55.28778 40.46048
#
# Poissons Ratio (x) = 0.31049 0.30639
# Poissons Ratio (y) = 0.45517 -0.05928
# Poissons Ratio (z) = 0.61376 -0.08101
#
# Static dielectric constant tensor:
#      x y z
#    x 1.730430 0.000000 0.000000 
#    y 0.000000 1.767320 0.000000 
#    z 0.000000 0.000000 1.718120 
# 
# From -- ./inp_files/25644.got.cif
#   From: 2010.05.17/outbox.cif.g08.bks.cpg/sg20_13_cif.got.tgz:25644.got - 2010.06.03 22:52:26.
