data_PCOD9316260
_publ_section_title
;
Structure prediction by ZEFSAII (Michael W. Deem and Ramdas Pophale) SiO2 
 PCOD9316260
Probable space group: C 2 2 21
;
_chemical_formula_sum "Si O2"
_cell_formula_units_Z 44
_cell_length_a 7.678477
_cell_length_b 20.849477
_cell_length_c 13.539294
_cell_angle_alpha 90.000000
_cell_angle_beta 90.000000
_cell_angle_gamma 90.000000
_cell_volume 2167.535764
_symmetry_space_group_name_H-M "C 2 2 21"
_symmetry_group_IT_number 20
_symmetry_cell_setting 'orthorhombic'
loop_
_space_group_symop_operation_xyz
x,y,z
-x,-y,1/2+z
x,-y,-z
-x,y,1/2-z
1/2+x,1/2+y,z
1/2-x,1/2-y,1/2+z
1/2+x,1/2-y,-z
1/2-x,1/2+y,1/2-z
loop_
_atom_site_type_symbol
_atom_site_label
_atom_site_fract_x
_atom_site_fract_y
_atom_site_fract_z
Si Si1 0.000000 0.505291 0.750000
Si Si2 0.859232 0.439271 0.934592
Si Si3 0.615338 0.893070 0.090124
Si Si4 0.133357 0.726820 0.630447
Si Si5 0.825205 0.192405 0.449270
Si Si6 0.158000 0.791427 0.322925
O O1 0.114889 0.461534 0.677648
O O2 0.100811 0.551790 0.827015
O O3 0.721852 0.381893 0.944403
O O4 0.801623 0.500000 0.000000
O O5 0.046809 0.419222 0.984659
O O6 0.470162 0.839027 0.111755
O O7 0.790674 0.852488 0.109279
O O8 0.301479 0.720451 0.559383
O O9 0.191917 0.725384 0.742632
O O10 0.008102 0.784544 0.595915
O O11 0.668992 0.228741 0.390652
O O12 0.000000 0.804192 0.250000
#
# Coordination Sequence:
#
# PCOD9316260 Si02
#       6
#     4   8   8   8   8   8
#     4  10  16  34  60  88 110 164 198 232 290 360
#     4   9  20  33  58  90 118 158 199 237 287 360
#     4   9  17  35  57  86 114 150 200 238 289 350
#     4  10  19  36  59  85 116 148 188 246 304 348
#     4  10  20  35  54  90 116 148 197 243 295 351
#     4  11  21  34  59  91 118 155 192 248 305 353
#
# _framework density 20.29955
#
# number of rings (size 3 to 8) (size 9 to 14) (size 15 to 20)
#    0.000    2.182    1.818    2.727    1.273    0.000 
#    0.000    0.000    0.000    2.182   23.636    0.000 
#    0.000    0.000    0.000    0.000    0.000    0.000 
#
# Total GULP energy -122559.060976 kJ/mol
# GULP energy per Si atom -5570.866408 kJ/mol
# Density = 2.025335 g / cm^3
# Si number density = 20.299550 Si / 1000 Ang^3
#
#
#
# Elastic Constant Matrix: (Units=GPa)
#
#
# Indices 1 2 3 4 5 6 
#
# 1 46.5063 24.1860 -3.9860 0.0000 0.0000 0.0000
# 2 24.1860 121.3870 28.1697 0.0000 0.0000 0.0000
# 3 -3.9860 28.1697 63.8148 0.0000 0.0000 0.0000
# 4 0.0000 0.0000 0.0000 29.9619 0.0000 0.0000
# 5 0.0000 0.0000 0.0000 0.0000 31.7540 0.0000
# 6 0.0000 0.0000 0.0000 0.0000 0.0000 10.7407
#
#
#
# Elastic Compliance Matrix: (Units=1/GPa)
#
#
# Indices 1 2 3 4 5 6 
#
# 1 0.024951 -0.005942 0.004181 0.000000 0.000000 0.000000
# 2 -0.005942 0.010593 -0.005047 0.000000 0.000000 0.000000
# 3 0.004181 -0.005047 0.018160 0.000000 0.000000 0.000000
# 4 0.000000 0.000000 0.000000 0.033376 0.000000 0.000000
# 5 0.000000 0.000000 0.000000 0.000000 0.031492 0.000000
# 6 0.000000 0.000000 0.000000 0.000000 0.000000 0.093104
#
#
# Mechanical properties :
#
#
# Convention : Reuss Voigt Hill
#
# Bulk Modulus (GPa) = 24.94492 36.49416 30.71954
# Shear Modulus (GPa) = 20.95089 26.71390 23.83239
#
# Velocity S-wave (km/s) = 3.21610 3.63159 3.43014
# Velocity P-wave (km/s) = 5.10941 5.96669 5.55462
#
# Compressibility (1/GPa) = 0.04008832
#
# Stress axis : x y z
#
# Youngs Moduli (GPa) = 40.07871 94.39937 55.06747
#
# Poissons Ratio (x) = 0.56090 -0.23026
# Poissons Ratio (y) = 0.23814 0.27794
# Poissons Ratio (z) = -0.16758 0.47646
#
# Static dielectric constant tensor:
#      x y z
#    x 1.828960 0.000000 0.000000 
#    y 0.000000 1.716390 0.000000 
#    z 0.000000 0.000000 1.768760 
# 
# From -- ./inp_files/13015.got.cif
#   From: 2010.05.17/outbox.cif.g08.bks.cpg/sg20_7_cif.got.tgz:13015.got - 2010.06.03 22:52:26.
