data_PCOD9316960
_publ_section_title
;
Structure prediction by ZEFSAII (Michael W. Deem and Ramdas Pophale) SiO2 
 PCOD9316960
Probable space group: C 2 2 21
;
_chemical_formula_sum "Si O2"
_cell_formula_units_Z 48
_cell_length_a 19.841377
_cell_length_b 7.023223
_cell_length_c 15.324012
_cell_angle_alpha 90.000000
_cell_angle_beta 90.000000
_cell_angle_gamma 90.000000
_cell_volume 2135.407436
_symmetry_space_group_name_H-M "C 2 2 21"
_symmetry_group_IT_number 20
_symmetry_cell_setting 'orthorhombic'
loop_
_space_group_symop_operation_xyz
x,y,z
-x,-y,1/2+z
x,-y,-z
-x,y,1/2-z
1/2+x,1/2+y,z
1/2-x,1/2-y,1/2+z
1/2+x,1/2-y,-z
1/2-x,1/2+y,1/2-z
loop_
_atom_site_type_symbol
_atom_site_label
_atom_site_fract_x
_atom_site_fract_y
_atom_site_fract_z
Si Si1 0.575217 0.160948 0.575213
Si Si2 0.072811 0.594439 0.251439
Si Si3 0.709691 0.293061 0.631515
Si Si4 0.784802 0.785640 0.530411
Si Si5 0.072195 0.655051 0.923742
Si Si6 0.784432 0.641255 0.198543
O O1 0.636019 0.309557 0.587622
O O2 0.500989 0.251777 0.566036
O O3 0.588065 0.000000 0.500000
O O4 0.568583 0.040025 0.664041
O O5 0.078861 0.459032 0.167089
O O6 0.143237 0.705035 0.263045
O O7 0.000000 0.699003 0.250000
O O8 0.765352 0.328938 0.556804
O O9 0.730671 0.380162 0.723777
O O10 0.708657 0.070201 0.659906
O O11 0.861766 0.778093 0.560564
O O12 0.740094 0.738864 0.615362
O O13 0.769998 0.000000 0.500000
O O14 0.072931 0.500000 0.000000
#
# Coordination Sequence:
#
# PCOD9316960 Si02
#       6
#     8   8   8   8   8   8
#     4   9  17  31  52  75  96 125 166 206 242 283
#     4   9  17  30  50  75  97 122 162 209 243 278
#     4  10  19  33  52  75 101 131 165 203 248 296
#     4  10  20  32  49  73 103 133 159 198 254 304
#     4  10  19  32  53  76  96 125 170 212 241 284
#     4  10  19  32  51  74 101 132 166 202 246 295
#
# _framework density 22.478145999999999
#
# number of rings (size 3 to 8) (size 9 to 14) (size 15 to 20)
#    0.000    2.333    0.000    5.500    0.000    0.000 
#    0.000    0.000    0.000   19.000    0.000   10.500 
#    0.000    0.000    0.000    0.000    0.000    0.000 
#
# Total GULP energy -133814.231894 kJ/mol
# GULP energy per Si atom -5575.592996 kJ/mol
# Density = 2.242698 g / cm^3
# Si number density = 22.478146 Si / 1000 Ang^3
#
#
#
# Elastic Constant Matrix: (Units=GPa)
#
#
# Indices 1 2 3 4 5 6 
#
# 1 189.1235 2.8521 54.2870 0.0000 0.0000 0.0000
# 2 2.8521 14.7395 10.9463 0.0000 0.0000 0.0000
# 3 54.2870 10.9463 164.0528 0.0000 0.0000 0.0000
# 4 0.0000 0.0000 0.0000 24.4321 0.0000 0.0000
# 5 0.0000 0.0000 0.0000 0.0000 37.9040 0.0000
# 6 0.0000 0.0000 0.0000 0.0000 0.0000 32.1634
#
#
#
# Elastic Compliance Matrix: (Units=1/GPa)
#
#
# Indices 1 2 3 4 5 6 
#
# 1 0.005844 0.000321 -0.001955 0.000000 0.000000 0.000000
# 2 0.000321 0.071400 -0.004870 0.000000 0.000000 0.000000
# 3 -0.001955 -0.004870 0.007068 0.000000 0.000000 0.000000
# 4 0.000000 0.000000 0.000000 0.040930 0.000000 0.000000
# 5 0.000000 0.000000 0.000000 0.000000 0.026382 0.000000
# 6 0.000000 0.000000 0.000000 0.000000 0.000000 0.031091
#
#
# Mechanical properties :
#
#
# Convention : Reuss Voigt Hill
#
# Bulk Modulus (GPa) = 14.02475 56.00964 35.01719
# Shear Modulus (GPa) = 22.77996 38.88859 30.83427
#
# Velocity S-wave (km/s) = 3.18689 4.16391 3.70772
# Velocity P-wave (km/s) = 4.44910 6.93463 5.82596
#
# Compressibility (1/GPa) = 0.07130252
#
# Stress axis : x y z
#
# Youngs Moduli (GPa) = 171.11696 14.00564 141.49080
#
# Poissons Ratio (x) = -0.00450 0.27665
# Poissons Ratio (y) = -0.05497 0.68912
# Poissons Ratio (z) = 0.33458 0.06821
#
# Static dielectric constant tensor:
#      x y z
#    x 1.995830 0.000000 0.000000 
#    y 0.000000 1.876780 0.000000 
#    z 0.000000 0.000000 1.826900 
# 
# From -- ./inp_files/21633.got.cif
#   From: 2010.05.17/outbox.cif.g08.bks.cpg/sg20_11_cif.got.tgz:21633.got - 2010.06.03 22:52:26.
