data_PCOD9316766
_publ_section_title
;
Structure prediction by ZEFSAII (Michael W. Deem and Ramdas Pophale) SiO2 
 PCOD9316766
Probable space group: C 2 2 21
;
_chemical_formula_sum "Si O2"
_cell_formula_units_Z 52
_cell_length_a 17.164574
_cell_length_b 8.554286
_cell_length_c 17.682603
_cell_angle_alpha 90.000000
_cell_angle_beta 90.000000
_cell_angle_gamma 90.000000
_cell_volume 2596.348535
_symmetry_space_group_name_H-M "C 2 2 21"
_symmetry_group_IT_number 20
_symmetry_cell_setting 'orthorhombic'
loop_
_space_group_symop_operation_xyz
x,y,z
-x,-y,1/2+z
x,-y,-z
-x,y,1/2-z
1/2+x,1/2+y,z
1/2-x,1/2-y,1/2+z
1/2+x,1/2-y,-z
1/2-x,1/2+y,1/2-z
loop_
_atom_site_type_symbol
_atom_site_label
_atom_site_fract_x
_atom_site_fract_y
_atom_site_fract_z
Si Si1 0.992096 0.500000 0.500000
Si Si2 0.085588 0.438851 0.255688
Si Si3 0.864944 0.662835 0.596395
Si Si4 0.288223 0.586026 0.853974
Si Si5 0.110693 0.662148 0.383641
Si Si6 0.714610 0.474319 0.911685
Si Si7 0.733811 0.767261 0.303004
O O1 0.932997 0.623625 0.538768
O O2 0.048031 0.591528 0.441525
O O3 0.115106 0.439170 0.170420
O O4 0.084696 0.600491 0.301095
O O5 0.146496 0.335687 0.301769
O O6 0.000000 0.370147 0.250000
O O7 0.776394 0.608849 0.580164
O O8 0.849456 0.845787 0.614060
O O9 0.370835 0.652806 0.881849
O O10 0.277102 0.412388 0.823196
O O11 0.267035 0.695810 0.780716
O O12 0.196752 0.591784 0.403010
O O13 0.715778 0.632400 0.862494
O O14 0.700709 0.500000 0.000000
#
# Coordination Sequence:
#
# PCOD9316766 Si02
#       7
#     4   8   8   8   8   8   8
#     4  12  22  38  64  98 134 172 206 272 334 390
#     4  10  18  37  60  87 121 171 207 258 319 377
#     4  10  22  36  61  90 125 165 219 256 320 385
#     4  10  20  40  64  95 120 167 226 270 307 386
#     4  10  21  39  65  88 125 172 218 254 329 385
#     4  10  21  39  62  89 125 173 213 267 321 380
#     4  10  20  36  67  94 125 163 226 274 308 376
#
# _framework density 20.028129
#
# number of rings (size 3 to 8) (size 9 to 14) (size 15 to 20)
#    0.000    1.846    2.308    4.615    2.154    0.000 
#    0.000    2.308    0.000    0.000    0.000    0.000 
#    0.000    0.000    0.000    0.000    0.000    0.000 
#
# Total GULP energy -144757.142583 kJ/mol
# GULP energy per Si atom -5567.582407 kJ/mol
# Density = 1.998254 g / cm^3
# Si number density = 20.028129 Si / 1000 Ang^3
#
#
#
# Elastic Constant Matrix: (Units=GPa)
#
#
# Indices 1 2 3 4 5 6 
#
# 1 100.9844 44.4739 37.1398 0.0000 0.0000 0.0000
# 2 44.4739 118.8083 37.9265 0.0000 0.0000 0.0000
# 3 37.1398 37.9265 86.8271 0.0000 0.0000 0.0000
# 4 0.0000 0.0000 0.0000 19.5481 0.0000 0.0000
# 5 0.0000 0.0000 0.0000 0.0000 27.0067 0.0000
# 6 0.0000 0.0000 0.0000 0.0000 0.0000 19.8817
#
#
#
# Elastic Compliance Matrix: (Units=1/GPa)
#
#
# Indices 1 2 3 4 5 6 
#
# 1 0.012938 -0.003575 -0.003973 0.000000 0.000000 0.000000
# 2 -0.003575 0.010769 -0.003175 0.000000 0.000000 0.000000
# 3 -0.003973 -0.003175 0.014603 0.000000 0.000000 0.000000
# 4 0.000000 0.000000 0.000000 0.051156 0.000000 0.000000
# 5 0.000000 0.000000 0.000000 0.000000 0.037028 0.000000
# 6 0.000000 0.000000 0.000000 0.000000 0.000000 0.050298
#
#
# Mechanical properties :
#
#
# Convention : Reuss Voigt Hill
#
# Bulk Modulus (GPa) = 59.29328 60.63338 59.96333
# Shear Modulus (GPa) = 24.52699 25.75926 25.14313
#
# Velocity S-wave (km/s) = 3.50326 3.59019 3.54699
# Velocity P-wave (km/s) = 6.78477 6.89389 6.83955
#
# Compressibility (1/GPa) = 0.01686532
#
# Stress axis : x y z
#
# Youngs Moduli (GPa) = 77.29182 92.86298 68.47881
#
# Poissons Ratio (x) = 0.33198 0.27204
# Poissons Ratio (y) = 0.27632 0.21739
# Poissons Ratio (z) = 0.30705 0.29480
#
# Static dielectric constant tensor:
#      x y z
#    x 1.764760 0.000000 0.000000 
#    y 0.000000 1.781060 0.000000 
#    z 0.000000 0.000000 1.748060 
# 
# From -- ./inp_files/25238.got.cif
#   From: 2010.05.17/outbox.cif.g08.bks.cpg/sg20_13_cif.got.tgz:25238.got - 2010.06.03 22:52:26.
