data_PCOD9316757
_publ_section_title
;
Structure prediction by ZEFSAII (Michael W. Deem and Ramdas Pophale) SiO2 
 PCOD9316757
Probable space group: C 2 2 21
;
_chemical_formula_sum "Si O2"
_cell_formula_units_Z 44
_cell_length_a 8.250571
_cell_length_b 10.476906
_cell_length_c 20.798059
_cell_angle_alpha 90.000000
_cell_angle_beta 90.000000
_cell_angle_gamma 90.000000
_cell_volume 1797.793721
_symmetry_space_group_name_H-M "C 2 2 21"
_symmetry_group_IT_number 20
_symmetry_cell_setting 'orthorhombic'
loop_
_space_group_symop_operation_xyz
x,y,z
-x,-y,1/2+z
x,-y,-z
-x,y,1/2-z
1/2+x,1/2+y,z
1/2-x,1/2-y,1/2+z
1/2+x,1/2-y,-z
1/2-x,1/2+y,1/2-z
loop_
_atom_site_type_symbol
_atom_site_label
_atom_site_fract_x
_atom_site_fract_y
_atom_site_fract_z
Si Si1 0.098330 0.638245 0.411311
Si Si2 0.180798 0.277380 0.730023
Si Si3 0.065724 0.622752 0.606910
Si Si4 0.711902 0.395738 0.444772
Si Si5 0.261582 0.611662 0.139884
Si Si6 0.000000 0.610500 0.750000
O O1 0.175891 0.681695 0.343599
O O2 0.159533 0.495203 0.426591
O O3 0.905327 0.626969 0.400020
O O4 0.128529 0.760054 0.456331
O O5 0.220350 0.384520 0.784219
O O6 0.333506 0.186683 0.737729
O O7 0.000000 0.230126 0.750000
O O8 0.140652 0.760429 0.621325
O O9 0.033136 0.560769 0.678019
O O10 0.899221 0.637310 0.568526
O O11 0.690772 0.500000 0.500000
O O12 0.657753 0.478752 0.381906
#
# Coordination Sequence:
#
# PCOD9316757 Si02
#       6
#     8   8   8   8   8   4
#     4  10  21  38  62  90 122 167 203 264 327 369
#     4   9  18  35  62  93 134 164 208 267 325 394
#     4  10  22  39  65  93 126 164 210 264 324 375
#     4  11  24  42  62  87 127 173 214 256 316 391
#     4   9  22  38  59  92 123 161 210 261 319 379
#     4  10  18  36  66  96 132 172 206 262 336 394
#
# _framework density 24.474440000000001
#
# number of rings (size 3 to 8) (size 9 to 14) (size 15 to 20)
#    0.000    2.182    1.818    0.000    6.364    4.364 
#    0.000    0.909    4.000    0.000    0.000    0.000 
#    0.000    0.000    0.000    0.000    0.000    0.000 
#
# Total GULP energy -122744.306281 kJ/mol
# GULP energy per Si atom -5579.286649 kJ/mol
# Density = 2.441874 g / cm^3
# Si number density = 24.474440 Si / 1000 Ang^3
#
#
#
# Elastic Constant Matrix: (Units=GPa)
#
#
# Indices 1 2 3 4 5 6 
#
# 1 50.5475 35.7527 -1.8672 0.0000 0.0000 0.0000
# 2 35.7527 145.7003 -10.7618 0.0000 0.0000 0.0000
# 3 -1.8672 -10.7618 78.6000 0.0000 0.0000 0.0000
# 4 0.0000 0.0000 0.0000 37.1236 0.0000 0.0000
# 5 0.0000 0.0000 0.0000 0.0000 19.1296 0.0000
# 6 0.0000 0.0000 0.0000 0.0000 0.0000 35.6088
#
#
#
# Elastic Compliance Matrix: (Units=1/GPa)
#
#
# Indices 1 2 3 4 5 6 
#
# 1 0.023943 -0.005893 -0.000238 0.000000 0.000000 0.000000
# 2 -0.005893 0.008384 0.001008 0.000000 0.000000 0.000000
# 3 -0.000238 0.001008 0.012855 0.000000 0.000000 0.000000
# 4 0.000000 0.000000 0.000000 0.026937 0.000000 0.000000
# 5 0.000000 0.000000 0.000000 0.000000 0.052275 0.000000
# 6 0.000000 0.000000 0.000000 0.000000 0.000000 0.028083
#
#
# Mechanical properties :
#
#
# Convention : Reuss Voigt Hill
#
# Bulk Modulus (GPa) = 28.62405 35.67726 32.15066
# Shear Modulus (GPa) = 28.67512 35.15403 31.91457
#
# Velocity S-wave (km/s) = 3.42663 3.79404 3.61501
# Velocity P-wave (km/s) = 5.23226 5.81395 5.53076
#
# Compressibility (1/GPa) = 0.03493565
#
# Stress axis : x y z
#
# Youngs Moduli (GPa) = 41.76664 119.27705 77.79079
#
# Poissons Ratio (x) = 0.70287 0.01852
# Poissons Ratio (y) = 0.24612 -0.07841
# Poissons Ratio (z) = 0.00994 -0.12022
#
# Static dielectric constant tensor:
#      x y z
#    x 1.913880 0.000000 0.000000 
#    y 0.000000 2.048650 0.000000 
#    z 0.000000 0.000000 2.085120 
# 
# From -- ./inp_files/28651.got.cif
#   From: 2010.05.17/outbox.cif.g08.bks.cpg/sg20_15_cif.got.tgz:28651.got - 2010.06.03 22:52:26.
