data_PCOD9316128
_publ_section_title
;
Structure prediction by ZEFSAII (Michael W. Deem and Ramdas Pophale) SiO2 
 PCOD9316128
Probable space group: P 21 21 21
;
_chemical_formula_sum "Si O2"
_cell_formula_units_Z 32
_cell_length_a 12.000000
_cell_length_b 21.000000
_cell_length_c 6.000000
_cell_angle_alpha 90.000000
_cell_angle_beta 90.000000
_cell_angle_gamma 90.000000
_cell_volume 1512.000000
_symmetry_space_group_name_H-M "P 21 21 21"
_symmetry_group_IT_number 19
_symmetry_cell_setting 'orthorhombic'
loop_
_space_group_symop_operation_xyz
x,y,z
1/2-x,-y,1/2+z
1/2+x,1/2-y,-z
-x,1/2+y,1/2-z
loop_
_atom_site_type_symbol
_atom_site_label
_atom_site_fract_x
_atom_site_fract_y
_atom_site_fract_z
Si Si1 0.003839 0.123936 0.443181
Si Si2 0.189946 0.199671 0.173849
Si Si3 0.109208 0.753572 0.974530
Si Si4 0.505459 0.519049 0.777429
Si Si5 0.639763 0.639308 0.646760
Si Si6 0.316496 0.571421 0.472908
Si Si7 0.936144 0.803583 0.630839
Si Si8 0.587793 0.957750 0.320524
O O1 0.912165 0.182254 0.426355
O O2 0.981172 0.097184 0.693731
O O3 0.114158 0.159433 0.348243
O O4 0.003089 0.053473 0.323063
O O5 0.287100 0.239905 0.301686
O O6 0.249819 0.151119 0.000220
O O7 0.116788 0.249197 0.027278
O O8 0.992732 0.772517 0.849544
O O9 0.135892 0.809156 0.152996
O O10 0.607946 0.566912 0.720165
O O11 0.396937 0.558404 0.687741
O O12 0.492344 0.503487 0.036912
O O13 0.539878 0.662771 0.489334
O O14 0.351078 0.636841 0.348511
O O15 0.186579 0.573111 0.533567
O O16 0.344859 0.507827 0.333719
#
# Coordination Sequence:
#
# PCOD9316128 Si02
#       8
#     4   4   4   4   4   4   4   4
#     4  11  26  43  67 106 141 185 238 293 346 422
#     4  11  25  45  68 102 140 184 237 288 356 419
#     4  11  24  44  70 100 134 184 237 288 358 417
#     4  10  23  43  67  96 144 182 233 293 342 422
#     4  10  23  45  69  96 137 185 236 288 357 421
#     4  10  20  38  63 105 134 181 228 280 358 413
#     4  10  22  41  67  94 137 174 231 295 341 414
#     4  11  21  39  67 101 147 181 230 283 352 420
#
# _framework density 21.164021000000002
#
# number of rings (size 3 to 8) (size 9 to 14) (size 15 to 20)
#    0.000    1.500    2.500    1.500    3.500    2.000 
#    2.250    0.000    0.000    0.000    0.000    0.000 
#    0.000    0.000    0.000    0.000    0.000    0.000 
#
# Total GULP energy -178505.818145 kJ/mol
# GULP energy per Si atom -5578.306817 kJ/mol
# Density = 2.111585 g / cm^3
# Si number density = 21.164021 Si / 1000 Ang^3
#
#
#
# Elastic Constant Matrix: (Units=GPa)
#
#
# Indices 1 2 3 4 5 6 
#
# 1 93.5841 45.6902 33.3190 0.0000 0.0000 0.0000
# 2 45.6902 136.5115 29.0961 0.0000 0.0000 0.0000
# 3 33.3190 29.0961 63.5803 0.0000 0.0000 0.0000
# 4 0.0000 0.0000 0.0000 42.2154 0.0000 0.0000
# 5 0.0000 0.0000 0.0000 0.0000 40.4833 0.0000
# 6 0.0000 0.0000 0.0000 0.0000 0.0000 31.5416
#
#
#
# Elastic Compliance Matrix: (Units=1/GPa)
#
#
# Indices 1 2 3 4 5 6 
#
# 1 0.014577 -0.003602 -0.005991 0.000000 0.000000 0.000000
# 2 -0.003602 0.009007 -0.002234 0.000000 0.000000 0.000000
# 3 -0.005991 -0.002234 0.019890 0.000000 0.000000 0.000000
# 4 0.000000 0.000000 0.000000 0.023688 0.000000 0.000000
# 5 0.000000 0.000000 0.000000 0.000000 0.024702 0.000000
# 6 0.000000 0.000000 0.000000 0.000000 0.000000 0.031704
#
#
# Mechanical properties :
#
#
# Convention : Reuss Voigt Hill
#
# Bulk Modulus (GPa) = 50.45347 56.65404 53.55376
# Shear Modulus (GPa) = 32.50370 35.21946 33.86158
#
# Velocity S-wave (km/s) = 3.92318 4.08379 4.00429
# Velocity P-wave (km/s) = 6.66429 7.00454 6.83653
#
# Compressibility (1/GPa) = 0.01982024
#
# Stress axis : x y z
#
# Youngs Moduli (GPa) = 68.60100 111.02217 50.27660
#
# Poissons Ratio (x) = 0.39991 0.30119
# Poissons Ratio (y) = 0.24711 0.11233
# Poissons Ratio (z) = 0.41096 0.24806
#
# Static dielectric constant tensor:
#      x y z
#    x 1.774170 0.000000 0.000000 
#    y 0.000000 1.735360 0.000000 
#    z 0.000000 0.000000 1.864290 
# 
# From -- ./inp_files/1219.got.cif
#   From: 2010.05.17/outbox.ucp.g08.bks.cvg/sg19_1_cif.got.tgz:1219.got - 2010.06.11 13:13:52.
