data_PCOD9316279
_publ_section_title
;
Structure prediction by ZEFSAII (Michael W. Deem and Ramdas Pophale) SiO2 
 PCOD9316279
Probable space group: C 2 2 21
;
_chemical_formula_sum "Si O2"
_cell_formula_units_Z 48
_cell_length_a 10.802982
_cell_length_b 14.164949
_cell_length_c 17.608914
_cell_angle_alpha 90.000000
_cell_angle_beta 90.000000
_cell_angle_gamma 90.000000
_cell_volume 2694.580981
_symmetry_space_group_name_H-M "C 2 2 21"
_symmetry_group_IT_number 20
_symmetry_cell_setting 'orthorhombic'
loop_
_space_group_symop_operation_xyz
x,y,z
-x,-y,1/2+z
x,-y,-z
-x,y,1/2-z
1/2+x,1/2+y,z
1/2-x,1/2-y,1/2+z
1/2+x,1/2-y,-z
1/2-x,1/2+y,1/2-z
loop_
_atom_site_type_symbol
_atom_site_label
_atom_site_fract_x
_atom_site_fract_y
_atom_site_fract_z
Si Si1 0.603359 0.104001 0.523223
Si Si2 0.765636 0.425893 0.655475
Si Si3 0.000000 0.611991 0.250000
Si Si4 0.269172 0.708966 0.645617
Si Si5 0.553509 0.245083 0.386467
Si Si6 0.135160 0.897164 0.287573
Si Si7 0.636018 0.000000 0.000000
O O1 0.680376 0.150911 0.590238
O O2 0.596485 0.180638 0.455665
O O3 0.656958 0.000000 0.500000
O O4 0.459804 0.075399 0.537731
O O5 0.895118 0.439555 0.701552
O O6 0.728189 0.316599 0.660025
O O7 0.671391 0.497244 0.693349
O O8 0.789050 0.452366 0.567707
O O9 0.064152 0.679620 0.311620
O O10 0.408441 0.723973 0.610304
O O11 0.280156 0.652584 0.724463
O O12 0.631753 0.337238 0.365523
O O13 0.000000 0.892560 0.250000
#
# Coordination Sequence:
#
# PCOD9316279 Si02
#       7
#     8   8   4   8   8   8   4
#     4  10  21  35  59  86 117 145 196 240 282 347
#     4  11  22  37  62  86 118 152 194 243 292 340
#     4  10  16  38  62  80 106 160 194 230 284 344
#     4  10  20  38  59  84 116 151 187 243 285 344
#     4  10  18  38  58  80 113 157 195 223 298 354
#     4  10  22  38  61  82 114 159 197 233 290 354
#     4  10  22  38  56  90 114 150 196 240 284 350
#
# _framework density 17.813531000000001
#
# number of rings (size 3 to 8) (size 9 to 14) (size 15 to 20)
#    0.500    1.333    7.500    0.000    7.000    0.000 
#    0.000    5.000    0.000    0.000    0.000    0.000 
#    0.000    0.000    0.000    0.000    0.000    0.000 
#
# Total GULP energy -133630.657790 kJ/mol
# GULP energy per Si atom -5567.944075 kJ/mol
# Density = 1.777299 g / cm^3
# Si number density = 17.813531 Si / 1000 Ang^3
#
#
#
# Elastic Constant Matrix: (Units=GPa)
#
#
# Indices 1 2 3 4 5 6 
#
# 1 15.0828 28.7539 16.7215 0.0000 0.0000 0.0000
# 2 28.7539 131.3313 43.4860 0.0000 0.0000 0.0000
# 3 16.7215 43.4860 40.7068 0.0000 0.0000 0.0000
# 4 0.0000 0.0000 0.0000 36.0803 0.0000 0.0000
# 5 0.0000 0.0000 0.0000 0.0000 24.9650 0.0000
# 6 0.0000 0.0000 0.0000 0.0000 0.0000 17.7956
#
#
#
# Elastic Compliance Matrix: (Units=1/GPa)
#
#
# Indices 1 2 3 4 5 6 
#
# 1 0.146703 -0.018824 -0.040153 0.000000 0.000000 0.000000
# 2 -0.018824 0.014197 -0.007434 0.000000 0.000000 0.000000
# 3 -0.040153 -0.007434 0.049002 0.000000 0.000000 0.000000
# 4 0.000000 0.000000 0.000000 0.027716 0.000000 0.000000
# 5 0.000000 0.000000 0.000000 0.000000 0.040056 0.000000
# 6 0.000000 0.000000 0.000000 0.000000 0.000000 0.056194
#
#
# Mechanical properties :
#
#
# Convention : Reuss Voigt Hill
#
# Bulk Modulus (GPa) = 12.97366 40.56042 26.76704
# Shear Modulus (GPa) = 10.15468 22.31213 16.23340
#
# Velocity S-wave (km/s) = 2.39017 3.54296 3.02204
# Velocity P-wave (km/s) = 3.86213 6.28933 5.21880
#
# Compressibility (1/GPa) = 0.07707926
#
# Stress axis : x y z
#
# Youngs Moduli (GPa) = 6.81648 70.43634 20.40746
#
# Poissons Ratio (x) = 1.32589 0.81943
# Poissons Ratio (y) = 0.12831 0.15171
# Poissons Ratio (z) = 0.27371 0.52363
#
# Static dielectric constant tensor:
#      x y z
#    x 1.616460 0.000000 0.000000 
#    y 0.000000 1.635860 0.000000 
#    z 0.000000 0.000000 1.607140 
# 
# From -- ./inp_files/24274.got.cif
#   From: 2010.05.17/outbox.cif.g08.bks.cpg/sg20_13_cif.got.tgz:24274.got - 2010.06.03 22:52:26.
