data_PCOD9316364
_publ_section_title
;
Structure prediction by ZEFSAII (Michael W. Deem and Ramdas Pophale) SiO2 
 PCOD9316364
Probable space group: C 2 2 21
;
_chemical_formula_sum "Si O2"
_cell_formula_units_Z 64
_cell_length_a 12.100107
_cell_length_b 28.271334
_cell_length_c 10.620099
_cell_angle_alpha 90.000000
_cell_angle_beta 90.000000
_cell_angle_gamma 90.000000
_cell_volume 3632.988954
_symmetry_space_group_name_H-M "C 2 2 21"
_symmetry_group_IT_number 20
_symmetry_cell_setting 'orthorhombic'
loop_
_space_group_symop_operation_xyz
x,y,z
-x,-y,1/2+z
x,-y,-z
-x,y,1/2-z
1/2+x,1/2+y,z
1/2-x,1/2-y,1/2+z
1/2+x,1/2-y,-z
1/2-x,1/2+y,1/2-z
loop_
_atom_site_type_symbol
_atom_site_label
_atom_site_fract_x
_atom_site_fract_y
_atom_site_fract_z
Si Si1 0.630903 0.129044 0.411283
Si Si2 0.117009 0.229374 0.813056
Si Si3 0.026423 0.538538 0.108817
Si Si4 0.347299 0.738285 0.284809
Si Si5 0.856945 0.156204 0.495189
Si Si6 0.070796 0.844951 0.629633
Si Si7 0.945905 0.692956 0.522626
Si Si8 0.186197 0.380726 0.874915
O O1 0.559790 0.081196 0.420143
O O2 0.755484 0.122391 0.461868
O O3 0.566608 0.170918 0.487408
O O4 0.639597 0.138607 0.260275
O O5 0.219852 0.248802 0.734910
O O6 0.000000 0.220413 0.750000
O O7 0.161940 0.181334 0.873555
O O8 0.086277 0.267133 0.921033
O O9 0.143480 0.565939 0.114921
O O10 0.000000 0.520391 0.250000
O O11 0.022603 0.500000 0.000000
O O12 0.347634 0.696806 0.388064
O O13 0.397114 0.710613 0.161232
O O14 0.413772 0.782398 0.345110
O O15 0.987048 0.144884 0.483990
O O16 0.184234 0.872541 0.623156
O O17 0.000000 0.861099 0.750000
O O18 0.865484 0.649584 0.488021
#
# Coordination Sequence:
#
# PCOD9316364 Si02
#       8
#     8   8   8   8   8   8   8   8
#     4  10  18  35  55  80 106 141 188 224 282 343
#     4  11  21  30  44  66 104 146 190 231 273 321
#     4   9  20  37  65  93 112 135 176 236 300 361
#     4  10  20  31  44  71 106 142 193 240 266 302
#     4  10  21  31  49  70 102 144 183 230 266 314
#     4  10  18  32  48  75 104 137 187 228 259 303
#     4  10  19  30  49  70 103 145 186 236 270 312
#     4  10  17  33  59  79 106 142 185 231 276 344
#
# _framework density 17.616349
#
# number of rings (size 3 to 8) (size 9 to 14) (size 15 to 20)
#    0.000    2.000    3.750    2.625    1.750    4.000 
#    0.000    2.500    0.000    0.750    0.000    0.000 
#    0.000    0.000    0.000    0.000    0.000    0.000 
#
# Total GULP energy -178150.278225 kJ/mol
# GULP energy per Si atom -5567.196195 kJ/mol
# Density = 1.757625 g / cm^3
# Si number density = 17.616349 Si / 1000 Ang^3
#
#
#
# Elastic Constant Matrix: (Units=GPa)
#
#
# Indices 1 2 3 4 5 6 
#
# 1 144.7934 36.2579 36.5389 0.0000 0.0000 0.0000
# 2 36.2579 57.6809 35.5906 0.0000 0.0000 0.0000
# 3 36.5389 35.5906 47.1905 0.0000 0.0000 0.0000
# 4 0.0000 0.0000 0.0000 26.3234 0.0000 0.0000
# 5 0.0000 0.0000 0.0000 0.0000 7.9239 0.0000
# 6 0.0000 0.0000 0.0000 0.0000 0.0000 10.7430
#
#
#
# Elastic Compliance Matrix: (Units=1/GPa)
#
#
# Indices 1 2 3 4 5 6 
#
# 1 0.008768 -0.002474 -0.004923 0.000000 0.000000 0.000000
# 2 -0.002474 0.033125 -0.023067 0.000000 0.000000 0.000000
# 3 -0.004923 -0.023067 0.042400 0.000000 0.000000 0.000000
# 4 0.000000 0.000000 0.000000 0.037989 0.000000 0.000000
# 5 0.000000 0.000000 0.000000 0.000000 0.126200 0.000000
# 6 0.000000 0.000000 0.000000 0.000000 0.000000 0.093084
#
#
# Mechanical properties :
#
#
# Convention : Reuss Voigt Hill
#
# Bulk Modulus (GPa) = 42.80019 51.82662 47.31341
# Shear Modulus (GPa) = 12.18674 18.41656 15.30165
#
# Velocity S-wave (km/s) = 2.63304 3.23681 2.95041
# Velocity P-wave (km/s) = 5.79589 6.59187 6.20665
#
# Compressibility (1/GPa) = 0.02336438
#
# Stress axis : x y z
#
# Youngs Moduli (GPa) = 114.04717 30.18905 23.58512
#
# Poissons Ratio (x) = 0.07468 0.11612
# Poissons Ratio (y) = 0.28213 0.54403
# Poissons Ratio (z) = 0.56150 0.69637
#
# Static dielectric constant tensor:
#      x y z
#    x 1.677200 0.000000 0.000000 
#    y 0.000000 1.589430 0.000000 
#    z 0.000000 0.000000 1.674300 
# 
# From -- ./inp_files/14536.got.cif
#   From: 2010.05.17/outbox.cif.g08.bks.cpg/sg20_8_cif.got.tgz:14536.got - 2010.06.03 22:52:26.
