data_PCOD9316853
_publ_section_title
;
Structure prediction by ZEFSAII (Michael W. Deem and Ramdas Pophale) SiO2 
 PCOD9316853
Probable space group: C 2 2 21
;
_chemical_formula_sum "Si O2"
_cell_formula_units_Z 28
_cell_length_a 8.426528
_cell_length_b 11.780408
_cell_length_c 11.917199
_cell_angle_alpha 90.000000
_cell_angle_beta 90.000000
_cell_angle_gamma 90.000000
_cell_volume 1182.995770
_symmetry_space_group_name_H-M "C 2 2 21"
_symmetry_group_IT_number 20
_symmetry_cell_setting 'orthorhombic'
loop_
_space_group_symop_operation_xyz
x,y,z
-x,-y,1/2+z
x,-y,-z
-x,y,1/2-z
1/2+x,1/2+y,z
1/2-x,1/2-y,1/2+z
1/2+x,1/2-y,-z
1/2-x,1/2+y,1/2-z
loop_
_atom_site_type_symbol
_atom_site_label
_atom_site_fract_x
_atom_site_fract_y
_atom_site_fract_z
Si Si1 0.095617 0.386093 0.070855
Si Si2 0.317823 0.507117 0.744050
Si Si3 0.368536 0.685465 0.086505
Si Si4 0.883866 0.000000 0.500000
O O1 0.196908 0.424695 0.178882
O O2 0.950656 0.305413 0.100552
O O3 0.059931 0.500000 0.000000
O O4 0.213816 0.314180 0.990627
O O5 0.500000 0.552298 0.750000
O O6 0.327094 0.381010 0.798574
O O7 0.283202 0.505687 0.613031
O O8 0.494648 0.603549 0.023143
#
# Coordination Sequence:
#
# PCOD9316853 Si02
#       4
#     8   8   8   4
#     4  10  20  40  62  96 130 159 207 263 311 375
#     4   9  17  38  61  88 126 165 207 251 313 372
#     4  10  19  38  68  91 126 168 202 257 321 370
#     4  10  18  40  64  90 122 174 206 252 320 370
#
# _framework density 23.668723
#
# number of rings (size 3 to 8) (size 9 to 14) (size 15 to 20)
#    0.000    2.286    7.143    0.000    0.000    0.000 
#   28.286    0.000    0.000    0.000    0.000    0.000 
#    0.000    0.000    0.000    0.000    0.000    0.000 
#
# Total GULP energy -78363.568258 kJ/mol
# GULP energy per Si atom -5597.397733 kJ/mol
# Density = 2.361485 g / cm^3
# Si number density = 23.668723 Si / 1000 Ang^3
#
#
#
# Elastic Constant Matrix: (Units=GPa)
#
#
# Indices 1 2 3 4 5 6 
#
# 1 90.3230 84.1083 57.1168 0.0000 0.0000 0.0000
# 2 84.1083 139.5324 56.0495 0.0000 0.0000 0.0000
# 3 57.1168 56.0495 223.2837 0.0000 0.0000 0.0000
# 4 0.0000 0.0000 0.0000 16.4744 0.0000 0.0000
# 5 0.0000 0.0000 0.0000 0.0000 25.0353 0.0000
# 6 0.0000 0.0000 0.0000 0.0000 0.0000 48.5461
#
#
#
# Elastic Compliance Matrix: (Units=1/GPa)
#
#
# Indices 1 2 3 4 5 6 
#
# 1 0.027091 -0.015066 -0.003148 0.000000 0.000000 0.000000
# 2 -0.015066 0.016349 -0.000250 0.000000 0.000000 0.000000
# 3 -0.003148 -0.000250 0.005347 0.000000 0.000000 0.000000
# 4 0.000000 0.000000 0.000000 0.060700 0.000000 0.000000
# 5 0.000000 0.000000 0.000000 0.000000 0.039944 0.000000
# 6 0.000000 0.000000 0.000000 0.000000 0.000000 0.020599
#
#
# Mechanical properties :
#
#
# Convention : Reuss Voigt Hill
#
# Bulk Modulus (GPa) = 84.32578 94.18760 89.25669
# Shear Modulus (GPa) = 23.70684 35.06880 29.38782
#
# Velocity S-wave (km/s) = 3.16826 3.85340 3.52750
# Velocity P-wave (km/s) = 7.00633 7.72520 7.37453
#
# Compressibility (1/GPa) = 0.01185877
#
# Stress axis : x y z
#
# Youngs Moduli (GPa) = 36.91245 61.16752 187.03131
#
# Poissons Ratio (x) = 0.92152 0.58881
# Poissons Ratio (y) = 0.55611 0.04677
# Poissons Ratio (z) = 0.11621 0.01529
#
# Static dielectric constant tensor:
#      x y z
#    x 1.889560 0.000000 0.000000 
#    y 0.000000 1.886670 0.000000 
#    z 0.000000 0.000000 1.934680 
# 
# From -- ./inp_files/12416.got.cif
#   From: 2010.05.17/outbox.cif.g08.bks.cpg/sg20_7_cif.got.tgz:12416.got - 2010.06.03 22:52:26.
