data_PCOD9316387
_publ_section_title
;
Structure prediction by ZEFSAII (Michael W. Deem and Ramdas Pophale) SiO2 
 PCOD9316387
Probable space group: C 2 2 21
;
_chemical_formula_sum "Si O2"
_cell_formula_units_Z 48
_cell_length_a 17.299772
_cell_length_b 9.848169
_cell_length_c 14.915894
_cell_angle_alpha 90.000000
_cell_angle_beta 90.000000
_cell_angle_gamma 90.000000
_cell_volume 2541.236945
_symmetry_space_group_name_H-M "C 2 2 21"
_symmetry_group_IT_number 20
_symmetry_cell_setting 'orthorhombic'
loop_
_space_group_symop_operation_xyz
x,y,z
-x,-y,1/2+z
x,-y,-z
-x,y,1/2-z
1/2+x,1/2+y,z
1/2-x,1/2-y,1/2+z
1/2+x,1/2-y,-z
1/2-x,1/2+y,1/2-z
loop_
_atom_site_type_symbol
_atom_site_label
_atom_site_fract_x
_atom_site_fract_y
_atom_site_fract_z
Si Si1 0.448315 0.693198 0.829170
Si Si2 0.535922 0.564562 0.099207
Si Si3 0.079344 0.257645 0.473434
Si Si4 0.808683 0.000000 0.000000
Si Si5 0.184618 0.500000 0.500000
Si Si6 0.271242 0.611632 0.812853
Si Si7 0.290274 0.602640 0.339181
O O1 0.500000 0.754719 0.750000
O O2 0.484119 0.544506 0.848639
O O3 0.450354 0.771856 0.923748
O O4 0.359003 0.669875 0.805392
O O5 0.620292 0.575237 0.140293
O O6 0.543628 0.500000 0.000000
O O7 0.490870 0.706999 0.088273
O O8 0.129447 0.389520 0.452244
O O9 0.136738 0.127577 0.475994
O O10 0.763528 0.956435 0.088967
O O11 0.238687 0.576932 0.428113
O O12 0.261115 0.500802 0.736382
O O13 0.218308 0.743213 0.807168
#
# Coordination Sequence:
#
# PCOD9316387 Si02
#       7
#     8   8   8   4   4   8   8
#     4  10  17  35  61  86 111 159 209 246 287 370
#     4  10  19  36  64  89 111 157 220 249 286 376
#     4  10  20  38  65  87 117 166 208 245 314 377
#     4  10  18  41  63  80 118 176 210 238 306 385
#     4  12  24  41  63  92 132 166 196 266 332 373
#     4  11  24  39  61  96 127 166 207 260 322 369
#     4  12  25  39  63  98 127 162 211 268 315 374
#
# _framework density 18.888437
#
# number of rings (size 3 to 8) (size 9 to 14) (size 15 to 20)
#    0.000    1.333   10.000    0.000    2.333    0.000 
#    0.000    2.500    0.000    0.000    0.000    0.000 
#    0.000    0.000    0.000    0.000    0.000    0.000 
#
# Total GULP energy -133945.097996 kJ/mol
# GULP energy per Si atom -5581.045750 kJ/mol
# Density = 1.884545 g / cm^3
# Si number density = 18.888437 Si / 1000 Ang^3
#
#
#
# Elastic Constant Matrix: (Units=GPa)
#
#
# Indices 1 2 3 4 5 6 
#
# 1 44.0428 3.9160 -15.6158 0.0000 0.0000 0.0000
# 2 3.9160 64.8471 -10.8074 0.0000 0.0000 0.0000
# 3 -15.6158 -10.8074 38.3270 0.0000 0.0000 0.0000
# 4 0.0000 0.0000 0.0000 21.0742 0.0000 0.0000
# 5 0.0000 0.0000 0.0000 0.0000 6.4609 0.0000
# 6 0.0000 0.0000 0.0000 0.0000 0.0000 24.1794
#
#
#
# Elastic Compliance Matrix: (Units=1/GPa)
#
#
# Indices 1 2 3 4 5 6 
#
# 1 0.026542 0.000209 0.010873 0.000000 0.000000 0.000000
# 2 0.000209 0.016183 0.004649 0.000000 0.000000 0.000000
# 3 0.010873 0.004649 0.031832 0.000000 0.000000 0.000000
# 4 0.000000 0.000000 0.000000 0.047451 0.000000 0.000000
# 5 0.000000 0.000000 0.000000 0.000000 0.154776 0.000000
# 6 0.000000 0.000000 0.000000 0.000000 0.000000 0.041358
#
#
# Mechanical properties :
#
#
# Convention : Reuss Voigt Hill
#
# Bulk Modulus (GPa) = 9.43229 11.35582 10.39405
# Shear Modulus (GPa) = 15.52700 21.65785 18.59242
#
# Velocity S-wave (km/s) = 2.87023 3.38985 3.14080
# Velocity P-wave (km/s) = 3.99860 4.62023 4.32061
#
# Compressibility (1/GPa) = 0.10601878
#
# Stress axis : x y z
#
# Youngs Moduli (GPa) = 37.67647 61.79334 31.41480
#
# Poissons Ratio (x) = -0.01293 -0.34158
# Poissons Ratio (y) = -0.00789 -0.14603
# Poissons Ratio (z) = -0.40966 -0.28725
#
# Static dielectric constant tensor:
#      x y z
#    x 1.641300 0.000000 0.000000 
#    y 0.000000 1.638420 0.000000 
#    z 0.000000 0.000000 1.696110 
# 
# From -- ./inp_files/21317.got.cif
#   From: 2010.05.17/outbox.cif.g08.bks.cpg/sg20_11_cif.got.tgz:21317.got - 2010.06.03 22:52:26.
