data_PCOD9316437
_publ_section_title
;
Structure prediction by ZEFSAII (Michael W. Deem and Ramdas Pophale) SiO2 
 PCOD9316437
Probable space group: C 2 2 21
;
_chemical_formula_sum "Si O2"
_cell_formula_units_Z 48
_cell_length_a 13.844328
_cell_length_b 25.227206
_cell_length_c 7.389838
_cell_angle_alpha 90.000000
_cell_angle_beta 90.000000
_cell_angle_gamma 90.000000
_cell_volume 2580.928370
_symmetry_space_group_name_H-M "C 2 2 21"
_symmetry_group_IT_number 20
_symmetry_cell_setting 'orthorhombic'
loop_
_space_group_symop_operation_xyz
x,y,z
-x,-y,1/2+z
x,-y,-z
-x,y,1/2-z
1/2+x,1/2+y,z
1/2-x,1/2-y,1/2+z
1/2+x,1/2-y,-z
1/2-x,1/2+y,1/2-z
loop_
_atom_site_type_symbol
_atom_site_label
_atom_site_fract_x
_atom_site_fract_y
_atom_site_fract_z
Si Si1 0.246669 0.655798 0.981074
Si Si2 0.191254 0.329775 0.614454
Si Si3 0.131164 0.236758 0.084827
Si Si4 0.644294 0.948951 0.097179
Si Si5 0.416278 0.273143 0.014410
Si Si6 0.051091 0.589908 0.581793
O O1 0.229560 0.648980 0.195282
O O2 0.353654 0.675676 0.931845
O O3 0.175554 0.704880 0.938188
O O4 0.214213 0.601122 0.894238
O O5 0.287323 0.305311 0.522396
O O6 0.123658 0.277556 0.622927
O O7 0.125963 0.374130 0.521271
O O8 0.112087 0.232862 0.300856
O O9 0.031252 0.226076 0.983255
O O10 0.545306 0.932353 0.988473
O O11 0.605554 0.955556 0.302551
O O12 0.685434 0.000000 0.000000
O O13 0.000000 0.622529 0.750000
#
# Coordination Sequence:
#
# PCOD9316437 Si02
#       6
#     8   8   8   8   8   8
#     4  10  19  29  46  71  95 122 162 201 224 285
#     4  10  18  29  47  72  96 125 160 191 237 282
#     4   9  18  31  47  68  99 131 153 189 232 292
#     4   9  19  34  48  66  91 125 157 191 242 279
#     4   9  18  30  45  66  98 131 156 183 242 281
#     4   8  20  32  46  66  93 127 148 188 240 284
#
# _framework density 18.597958999999999
#
# number of rings (size 3 to 8) (size 9 to 14) (size 15 to 20)
#    1.000    1.667    0.000    2.000    2.333    6.667 
#    0.000    0.000    0.000    0.000    0.000   10.500 
#    0.000    0.000    0.000    0.000    0.000    0.000 
#
# Total GULP energy -133607.469245 kJ/mol
# GULP energy per Si atom -5566.977885 kJ/mol
# Density = 1.855563 g / cm^3
# Si number density = 18.597959 Si / 1000 Ang^3
#
#
#
# Elastic Constant Matrix: (Units=GPa)
#
#
# Indices 1 2 3 4 5 6 
#
# 1 91.8919 9.1996 -2.8011 0.0000 0.0000 0.0000
# 2 9.1996 41.3740 -4.9017 0.0000 0.0000 0.0000
# 3 -2.8011 -4.9017 18.2354 0.0000 0.0000 0.0000
# 4 0.0000 0.0000 0.0000 12.8934 0.0000 0.0000
# 5 0.0000 0.0000 0.0000 0.0000 17.3248 0.0000
# 6 0.0000 0.0000 0.0000 0.0000 0.0000 19.3775
#
#
#
# Elastic Compliance Matrix: (Units=1/GPa)
#
#
# Indices 1 2 3 4 5 6 
#
# 1 0.011151 -0.002351 0.001081 0.000000 0.000000 0.000000
# 2 -0.002351 0.025461 0.006483 0.000000 0.000000 0.000000
# 3 0.001081 0.006483 0.056747 0.000000 0.000000 0.000000
# 4 0.000000 0.000000 0.000000 0.077559 0.000000 0.000000
# 5 0.000000 0.000000 0.000000 0.000000 0.057721 0.000000
# 6 0.000000 0.000000 0.000000 0.000000 0.000000 0.051606
#
#
# Mechanical properties :
#
#
# Convention : Reuss Voigt Hill
#
# Bulk Modulus (GPa) = 9.63552 17.16610 13.40081
# Shear Modulus (GPa) = 16.42498 19.91944 18.17221
#
# Velocity S-wave (km/s) = 2.97503 3.27625 3.12926
# Velocity P-wave (km/s) = 4.12228 4.85406 4.50306
#
# Compressibility (1/GPa) = 0.10378272
#
# Stress axis : x y z
#
# Youngs Moduli (GPa) = 89.68053 39.27632 17.62204
#
# Poissons Ratio (x) = 0.09235 -0.01905
# Poissons Ratio (y) = 0.21087 -0.11424
# Poissons Ratio (z) = -0.09693 -0.25462
#
# Static dielectric constant tensor:
#      x y z
#    x 1.672580 0.000000 0.000000 
#    y 0.000000 1.638440 0.000000 
#    z 0.000000 0.000000 1.746570 
# 
# From -- ./inp_files/8789.got.cif
#   From: 2010.05.17/outbox.cif.g08.bks.cpg/sg20_5_cif.got.tgz:8789.got - 2010.06.03 22:52:26.
