data_PCOD9316814
_publ_section_title
;
Structure prediction by ZEFSAII (Michael W. Deem and Ramdas Pophale) SiO2 
 PCOD9316814
Probable space group: C 2 2 21
;
_chemical_formula_sum "Si O2"
_cell_formula_units_Z 60
_cell_length_a 26.195596
_cell_length_b 8.832719
_cell_length_c 12.118239
_cell_angle_alpha 90.000000
_cell_angle_beta 90.000000
_cell_angle_gamma 90.000000
_cell_volume 2803.898005
_symmetry_space_group_name_H-M "C 2 2 21"
_symmetry_group_IT_number 20
_symmetry_cell_setting 'orthorhombic'
loop_
_space_group_symop_operation_xyz
x,y,z
-x,-y,1/2+z
x,-y,-z
-x,y,1/2-z
1/2+x,1/2+y,z
1/2-x,1/2-y,1/2+z
1/2+x,1/2-y,-z
1/2-x,1/2+y,1/2-z
loop_
_atom_site_type_symbol
_atom_site_label
_atom_site_fract_x
_atom_site_fract_y
_atom_site_fract_z
Si Si1 0.667582 0.500000 0.500000
Si Si2 0.768920 0.153384 0.807242
Si Si3 0.599522 0.765166 0.521356
Si Si4 0.156826 0.976487 0.132973
Si Si5 0.446035 0.204822 0.797031
Si Si6 0.941670 0.071577 0.773671
Si Si7 0.839806 0.316068 0.281152
Si Si8 0.307053 0.040282 0.110716
O O1 0.698498 0.433311 0.398708
O O2 0.632929 0.637277 0.459216
O O3 0.710291 0.119801 0.842835
O O4 0.777922 0.333842 0.819302
O O5 0.795095 0.110347 0.689802
O O6 0.563602 0.832254 0.426106
O O7 0.573786 0.667932 0.618654
O O8 0.639571 0.879103 0.577379
O O9 0.159704 0.142209 0.187379
O O10 0.103268 0.906227 0.181324
O O11 0.155949 0.000000 0.000000
O O12 0.500000 0.152837 0.750000
O O13 0.444833 0.389086 0.790287
O O14 0.399340 0.140212 0.722764
O O15 0.000000 0.118529 0.750000
O O16 0.820476 0.380972 0.164494
O O17 0.277584 0.000000 0.000000
#
# Coordination Sequence:
#
# PCOD9316814 Si02
#       8
#     4   8   8   8   8   8   8   8
#     4  10  18  38  66  96 126 168 228 276 332 396
#     4  11  24  41  67  97 132 176 227 283 335 410
#     4  11  18  38  66  95 126 172 231 277 330 407
#     4  11  24  46  64  98 141 178 221 285 349 406
#     4  10  20  36  65  96 132 171 223 283 340 400
#     4  10  20  36  65  99 128 170 226 287 333 399
#     4  11  24  42  61 100 132 174 225 279 344 414
#     4  11  23  40  70  98 133 176 233 277 333 410
#
# _framework density 21.398779999999999
#
# number of rings (size 3 to 8) (size 9 to 14) (size 15 to 20)
#    0.000    1.333    5.333    1.600    1.867    5.333 
#    2.400    0.667    0.000    1.600    0.000    0.000 
#    0.000    0.000    0.000    0.000    0.000    0.000 
#
# Total GULP energy -167009.424156 kJ/mol
# GULP energy per Si atom -5566.980805 kJ/mol
# Density = 2.135008 g / cm^3
# Si number density = 21.398780 Si / 1000 Ang^3
#
#
#
# Elastic Constant Matrix: (Units=GPa)
#
#
# Indices 1 2 3 4 5 6 
#
# 1 182.0350 4.3351 61.1764 0.0000 0.0000 0.0000
# 2 4.3351 46.9412 39.2005 0.0000 0.0000 0.0000
# 3 61.1764 39.2005 110.6793 0.0000 0.0000 0.0000
# 4 0.0000 0.0000 0.0000 27.6638 0.0000 0.0000
# 5 0.0000 0.0000 0.0000 0.0000 28.6768 0.0000
# 6 0.0000 0.0000 0.0000 0.0000 0.0000 18.3478
#
#
#
# Elastic Compliance Matrix: (Units=1/GPa)
#
#
# Indices 1 2 3 4 5 6 
#
# 1 0.007187 0.003768 -0.005307 0.000000 0.000000 0.000000
# 2 0.003768 0.032227 -0.013497 0.000000 0.000000 0.000000
# 3 -0.005307 -0.013497 0.016749 0.000000 0.000000 0.000000
# 4 0.000000 0.000000 0.000000 0.036148 0.000000 0.000000
# 5 0.000000 0.000000 0.000000 0.000000 0.034871 0.000000
# 6 0.000000 0.000000 0.000000 0.000000 0.000000 0.054503
#
#
# Mechanical properties :
#
#
# Convention : Reuss Voigt Hill
#
# Bulk Modulus (GPa) = 38.32728 61.00882 49.66805
# Shear Modulus (GPa) = 22.68046 30.60058 26.64052
#
# Velocity S-wave (km/s) = 3.25913 3.78566 3.53222
# Velocity P-wave (km/s) = 5.66679 6.90511 6.31637
#
# Compressibility (1/GPa) = 0.02609108
#
# Stress axis : x y z
#
# Youngs Moduli (GPa) = 139.13295 31.03034 59.70473
#
# Poissons Ratio (x) = -0.11694 0.31688
# Poissons Ratio (y) = -0.52432 0.80583
# Poissons Ratio (z) = 0.73844 0.41882
#
# Static dielectric constant tensor:
#      x y z
#    x 1.869170 0.000000 0.000000 
#    y 0.000000 1.802340 0.000000 
#    z 0.000000 0.000000 1.857110 
# 
# From -- ./inp_files/17087.got.cif
#   From: 2010.05.17/outbox.cif.g08.bks.cpg/sg20_9_cif.got.tgz:17087.got - 2010.06.03 22:52:26.
