data_PCOD9316855
_publ_section_title
;
Structure prediction by ZEFSAII (Michael W. Deem and Ramdas Pophale) SiO2 
 PCOD9316855
Probable space group: C 2 2 21
;
_chemical_formula_sum "Si O2"
_cell_formula_units_Z 56
_cell_length_a 8.496598
_cell_length_b 21.695506
_cell_length_c 15.133959
_cell_angle_alpha 90.000000
_cell_angle_beta 90.000000
_cell_angle_gamma 90.000000
_cell_volume 2789.763627
_symmetry_space_group_name_H-M "C 2 2 21"
_symmetry_group_IT_number 20
_symmetry_cell_setting 'orthorhombic'
loop_
_space_group_symop_operation_xyz
x,y,z
-x,-y,1/2+z
x,-y,-z
-x,y,1/2-z
1/2+x,1/2+y,z
1/2-x,1/2-y,1/2+z
1/2+x,1/2-y,-z
1/2-x,1/2+y,1/2-z
loop_
_atom_site_type_symbol
_atom_site_label
_atom_site_fract_x
_atom_site_fract_y
_atom_site_fract_z
Si Si1 0.656613 0.920848 0.691352
Si Si2 0.500000 0.866854 0.250000
Si Si3 0.355302 0.845837 0.987951
Si Si4 0.739318 0.700688 0.660000
Si Si5 0.000000 0.108374 0.750000
Si Si6 0.682084 0.313466 0.723420
Si Si7 0.693152 0.776375 0.970816
Si Si8 0.261238 0.057214 0.862696
O O1 0.500000 0.930128 0.750000
O O2 0.642145 0.874216 0.609531
O O3 0.772924 0.884070 0.756813
O O4 0.709350 0.984831 0.647326
O O5 0.583938 0.823720 0.178665
O O6 0.629081 0.910433 0.290468
O O7 0.217654 0.797393 0.016217
O O8 0.320140 0.905385 0.050841
O O9 0.519949 0.806273 0.986850
O O10 0.623709 0.653491 0.705098
O O11 0.728160 0.765440 0.711369
O O12 0.710217 0.700923 0.556339
O O13 0.914767 0.070461 0.672199
O O14 0.500000 0.306269 0.750000
O O15 0.733259 0.295312 0.623672
#
# Coordination Sequence:
#
# PCOD9316855 Si02
#       8
#     8   4   8   8   4   8   8   8
#     4  12  26  46  71  96 144 196 247 294 348 435
#     4  10  18  40  66  92 128 180 228 288 352 430
#     4  12  26  44  70 110 143 184 238 303 373 443
#     4  11  22  41  66 103 139 177 228 299 372 437
#     4  10  26  40  72 100 142 178 242 302 360 428
#     4  12  26  44  68 104 146 185 234 304 373 431
#     4  12  25  41  73 105 144 182 233 303 383 433
#     4  11  24  45  67  97 139 195 242 288 352 429
#
# _framework density 20.073384999999998
#
# number of rings (size 3 to 8) (size 9 to 14) (size 15 to 20)
#    0.000    0.571    5.714    3.000    6.000    0.000 
#    0.000    0.000    0.000    0.000    0.000    0.000 
#    0.000    0.000    0.000    0.000    0.000    0.000 
#
# Total GULP energy -156000.648692 kJ/mol
# GULP energy per Si atom -5571.451739 kJ/mol
# Density = 2.002770 g / cm^3
# Si number density = 20.073385 Si / 1000 Ang^3
#
#
#
# Elastic Constant Matrix: (Units=GPa)
#
#
# Indices 1 2 3 4 5 6 
#
# 1 84.0935 45.1660 56.1065 0.0000 0.0000 0.0000
# 2 45.1660 149.3896 77.2926 0.0000 0.0000 0.0000
# 3 56.1065 77.2926 115.8504 0.0000 0.0000 0.0000
# 4 0.0000 0.0000 0.0000 27.7961 0.0000 0.0000
# 5 0.0000 0.0000 0.0000 0.0000 24.3261 0.0000
# 6 0.0000 0.0000 0.0000 0.0000 0.0000 24.7888
#
#
#
# Elastic Compliance Matrix: (Units=1/GPa)
#
#
# Indices 1 2 3 4 5 6 
#
# 1 0.017759 -0.001404 -0.007664 0.000000 0.000000 0.000000
# 2 -0.001404 0.010334 -0.006214 0.000000 0.000000 0.000000
# 3 -0.007664 -0.006214 0.016490 0.000000 0.000000 0.000000
# 4 0.000000 0.000000 0.000000 0.035976 0.000000 0.000000
# 5 0.000000 0.000000 0.000000 0.000000 0.041108 0.000000
# 6 0.000000 0.000000 0.000000 0.000000 0.000000 0.040341
#
#
# Mechanical properties :
#
#
# Convention : Reuss Voigt Hill
#
# Bulk Modulus (GPa) = 71.33949 78.49596 74.91772
# Shear Modulus (GPa) = 25.34924 26.76677 26.05800
#
# Velocity S-wave (km/s) = 3.55748 3.65560 3.60688
# Velocity P-wave (km/s) = 7.24505 7.55032 7.39926
#
# Compressibility (1/GPa) = 0.01401748
#
# Stress axis : x y z
#
# Youngs Moduli (GPa) = 56.30967 96.77123 60.64404
#
# Poissons Ratio (x) = 0.13586 0.46478
# Poissons Ratio (y) = 0.07905 0.37687
# Poissons Ratio (z) = 0.43156 0.60138
#
# Static dielectric constant tensor:
#      x y z
#    x 1.781370 0.000000 0.000000 
#    y 0.000000 1.724370 0.000000 
#    z 0.000000 0.000000 1.730260 
# 
# From -- ./inp_files/19235.got.cif
#   From: 2010.05.17/outbox.cif.g08.bks.cpg/sg20_10_cif.got.tgz:19235.got - 2010.06.03 22:52:26.
