data_PCOD9316332
_publ_section_title
;
Structure prediction by ZEFSAII (Michael W. Deem and Ramdas Pophale) SiO2 
 PCOD9316332
Probable space group: C 2 2 21
;
_chemical_formula_sum "Si O2"
_cell_formula_units_Z 64
_cell_length_a 28.051691
_cell_length_b 9.645911
_cell_length_c 13.617845
_cell_angle_alpha 90.000000
_cell_angle_beta 90.000000
_cell_angle_gamma 90.000000
_cell_volume 3684.772535
_symmetry_space_group_name_H-M "C 2 2 21"
_symmetry_group_IT_number 20
_symmetry_cell_setting 'orthorhombic'
loop_
_space_group_symop_operation_xyz
x,y,z
-x,-y,1/2+z
x,-y,-z
-x,y,1/2-z
1/2+x,1/2+y,z
1/2-x,1/2-y,1/2+z
1/2+x,1/2-y,-z
1/2-x,1/2+y,1/2-z
loop_
_atom_site_type_symbol
_atom_site_label
_atom_site_fract_x
_atom_site_fract_y
_atom_site_fract_z
Si Si1 0.162149 0.754562 0.871094
Si Si2 0.236644 0.001596 0.117758
Si Si3 0.985843 0.461427 0.387119
Si Si4 0.830299 0.516397 0.244534
Si Si5 0.932634 0.863306 0.370015
Si Si6 0.826971 0.246397 0.597714
Si Si7 0.931460 0.606680 0.236017
Si Si8 0.551411 0.324769 0.903060
O O1 0.196156 0.886809 0.852839
O O2 0.168626 0.637546 0.789279
O O3 0.106040 0.787699 0.877322
O O4 0.176114 0.714736 0.983190
O O5 0.285358 0.030500 0.173667
O O6 0.215510 0.849570 0.136435
O O7 0.242944 0.000000 0.000000
O O8 0.985673 0.500000 0.500000
O O9 0.938007 0.520019 0.336899
O O10 0.984052 0.296696 0.368817
O O11 0.028870 0.544210 0.335925
O O12 0.827641 0.618089 0.337323
O O13 0.879617 0.569199 0.195398
O O14 0.875514 0.844696 0.387846
O O15 0.940885 0.762448 0.276367
O O16 0.952949 0.821132 0.477545
O O17 0.952233 0.019645 0.360634
#
# Coordination Sequence:
#
# PCOD9316332 Si02
#       8
#     8   8   8   8   8   8   8   8
#     4  10  18  31  52  81 107 133 176 224 269 315
#     4  10  20  34  49  75 113 142 179 218 260 325
#     4  11  21  37  56  80 112 141 185 236 276 326
#     4  11  20  32  53  77 109 143 182 214 271 323
#     4   9  17  32  56  82 110 134 176 224 288 329
#     4   9  18  31  51  80 107 138 170 223 273 318
#     4  10  22  35  53  82 110 143 184 230 274 327
#     4  10  17  31  59  82 104 144 173 229 286 326
#
# _framework density 17.368779
#
# number of rings (size 3 to 8) (size 9 to 14) (size 15 to 20)
#    0.000    2.000    3.750    1.125    0.000    0.500 
#    0.000    2.500    0.000    0.000    0.000    0.000 
#    3.750    0.000    0.000    0.000    0.000    0.000 
#
# Total GULP energy -178142.613217 kJ/mol
# GULP energy per Si atom -5566.956663 kJ/mol
# Density = 1.732925 g / cm^3
# Si number density = 17.368779 Si / 1000 Ang^3
#
#
#
# Elastic Constant Matrix: (Units=GPa)
#
#
# Indices 1 2 3 4 5 6 
#
# 1 63.6309 16.8919 11.2821 0.0000 0.0000 0.0000
# 2 16.8919 100.5272 16.8657 0.0000 0.0000 0.0000
# 3 11.2821 16.8657 30.8785 0.0000 0.0000 0.0000
# 4 0.0000 0.0000 0.0000 13.1366 0.0000 0.0000
# 5 0.0000 0.0000 0.0000 0.0000 25.2757 0.0000
# 6 0.0000 0.0000 0.0000 0.0000 0.0000 17.6279
#
#
#
# Elastic Compliance Matrix: (Units=1/GPa)
#
#
# Indices 1 2 3 4 5 6 
#
# 1 0.017168 -0.002017 -0.005171 0.000000 0.000000 0.000000
# 2 -0.002017 0.011188 -0.005374 0.000000 0.000000 0.000000
# 3 -0.005171 -0.005374 0.037210 0.000000 0.000000 0.000000
# 4 0.000000 0.000000 0.000000 0.076123 0.000000 0.000000
# 5 0.000000 0.000000 0.000000 0.000000 0.039564 0.000000
# 6 0.000000 0.000000 0.000000 0.000000 0.000000 0.056728
#
#
# Mechanical properties :
#
#
# Convention : Reuss Voigt Hill
#
# Bulk Modulus (GPa) = 24.72701 31.67956 28.20329
# Shear Modulus (GPa) = 18.07759 21.20781 19.64270
#
# Velocity S-wave (km/s) = 3.22966 3.49812 3.36656
# Velocity P-wave (km/s) = 5.30801 5.88173 5.60222
#
# Compressibility (1/GPa) = 0.04044160
#
# Stress axis : x y z
#
# Youngs Moduli (GPa) = 58.24800 89.38063 26.87485
#
# Poissons Ratio (x) = 0.18030 0.13897
# Poissons Ratio (y) = 0.11750 0.14442
# Poissons Ratio (z) = 0.30119 0.48032
#
# Static dielectric constant tensor:
#      x y z
#    x 1.606190 0.000000 0.000000 
#    y 0.000000 1.638860 0.000000 
#    z 0.000000 0.000000 1.579320 
# 
# From -- ./inp_files/22343.got.cif
#   From: 2010.05.17/outbox.cif.g08.bks.cpg/sg20_12_cif.got.tgz:22343.got - 2010.06.03 22:52:26.
