data_PCOD9316779
_publ_section_title
;
Structure prediction by ZEFSAII (Michael W. Deem and Ramdas Pophale) SiO2 
 PCOD9316779
Probable space group: C 2 2 21
;
_chemical_formula_sum "Si O2"
_cell_formula_units_Z 64
_cell_length_a 13.737104
_cell_length_b 12.441109
_cell_length_c 16.285337
_cell_angle_alpha 90.000000
_cell_angle_beta 90.000000
_cell_angle_gamma 90.000000
_cell_volume 2783.242397
_symmetry_space_group_name_H-M "C 2 2 21"
_symmetry_group_IT_number 20
_symmetry_cell_setting 'orthorhombic'
loop_
_space_group_symop_operation_xyz
x,y,z
-x,-y,1/2+z
x,-y,-z
-x,y,1/2-z
1/2+x,1/2+y,z
1/2-x,1/2-y,1/2+z
1/2+x,1/2-y,-z
1/2-x,1/2+y,1/2-z
loop_
_atom_site_type_symbol
_atom_site_label
_atom_site_fract_x
_atom_site_fract_y
_atom_site_fract_z
Si Si1 0.752493 0.559712 0.577949
Si Si2 0.231920 0.366808 0.793948
Si Si3 0.401694 0.902972 0.046178
Si Si4 0.438374 0.270330 0.833263
Si Si5 0.716725 0.515109 0.129638
Si Si6 0.538127 0.384548 0.493039
Si Si7 0.117413 0.796002 0.122273
Si Si8 0.763213 0.215641 0.463521
O O1 0.799839 0.500000 0.500000
O O2 0.759709 0.472255 0.648555
O O3 0.642530 0.588340 0.548156
O O4 0.787378 0.681632 0.592550
O O5 0.325850 0.290513 0.809172
O O6 0.242838 0.416545 0.704769
O O7 0.136244 0.293952 0.809202
O O8 0.454264 0.843788 0.121053
O O9 0.307670 0.958629 0.086478
O O10 0.349139 0.818939 0.982795
O O11 0.455526 0.000000 0.000000
O O12 0.500000 0.286471 0.750000
O O13 0.454801 0.346350 0.912604
O O14 0.645486 0.416845 0.151726
O O15 0.682951 0.609847 0.069038
O O16 0.487207 0.500000 0.500000
O O17 0.480041 0.308631 0.430257
O O18 0.194400 0.758140 0.052684
#
# Coordination Sequence:
#
# PCOD9316779 Si02
#       8
#     8   8   8   8   8   8   8   8
#     4  11  19  39  66  88 126 171 209 258 335 398
#     4  12  24  41  61  98 136 166 209 279 347 388
#     4   9  18  42  66  86 118 171 223 256 318 403
#     4  12  24  40  64  95 133 169 213 282 344 391
#     4  10  23  36  66  91 119 166 213 269 320 386
#     4  11  22  41  63  97 126 168 224 271 323 405
#     4  11  22  41  62  92 127 163 223 269 313 396
#     4  10  18  37  67  88 113 167 216 255 311 393
#
# _framework density 22.994764
#
# number of rings (size 3 to 8) (size 9 to 14) (size 15 to 20)
#    0.000    1.250    7.500    1.875    5.250    0.000 
#    0.000    1.250    0.000    0.000    0.000    0.000 
#    0.000    0.000    0.000    0.000    0.000    0.000 
#
# Total GULP energy -178434.882822 kJ/mol
# GULP energy per Si atom -5576.090088 kJ/mol
# Density = 2.294243 g / cm^3
# Si number density = 22.994764 Si / 1000 Ang^3
#
#
#
# Elastic Constant Matrix: (Units=GPa)
#
#
# Indices 1 2 3 4 5 6 
#
# 1 48.3260 16.9025 0.8805 0.0000 0.0000 0.0000
# 2 16.9025 131.7982 25.9529 0.0000 0.0000 0.0000
# 3 0.8805 25.9529 69.0646 0.0000 0.0000 0.0000
# 4 0.0000 0.0000 0.0000 47.0138 0.0000 0.0000
# 5 0.0000 0.0000 0.0000 0.0000 17.8902 0.0000
# 6 0.0000 0.0000 0.0000 0.0000 0.0000 12.1603
#
#
#
# Elastic Compliance Matrix: (Units=1/GPa)
#
#
# Indices 1 2 3 4 5 6 
#
# 1 0.021709 -0.002948 0.000831 0.000000 0.000000 0.000000
# 2 -0.002948 0.008594 -0.003192 0.000000 0.000000 0.000000
# 3 0.000831 -0.003192 0.015668 0.000000 0.000000 0.000000
# 4 0.000000 0.000000 0.000000 0.021270 0.000000 0.000000
# 5 0.000000 0.000000 0.000000 0.000000 0.055897 0.000000
# 6 0.000000 0.000000 0.000000 0.000000 0.000000 0.082234
#
#
# Mechanical properties :
#
#
# Convention : Reuss Voigt Hill
#
# Bulk Modulus (GPa) = 28.28579 37.40672 32.84625
# Shear Modulus (GPa) = 21.95163 29.10972 25.53067
#
# Velocity S-wave (km/s) = 3.09307 3.56185 3.33570
# Velocity P-wave (km/s) = 5.00837 5.76355 5.39918
#
# Compressibility (1/GPa) = 0.03535344
#
# Stress axis : x y z
#
# Youngs Moduli (GPa) = 46.06463 116.36170 63.82426
#
# Poissons Ratio (x) = 0.34299 -0.05303
# Poissons Ratio (y) = 0.13578 0.20371
# Poissons Ratio (z) = -0.03828 0.37140
#
# Static dielectric constant tensor:
#      x y z
#    x 1.901300 0.000000 0.000000 
#    y 0.000000 2.003370 0.000000 
#    z 0.000000 0.000000 1.879820 
# 
# From -- ./inp_files/21492.got.cif
#   From: 2010.05.17/outbox.cif.g08.bks.cpg/sg20_11_cif.got.tgz:21492.got - 2010.06.03 22:52:26.
