data_PCOD9316676
_publ_section_title
;
Structure prediction by ZEFSAII (Michael W. Deem and Ramdas Pophale) SiO2 
 PCOD9316676
Probable space group: C 2 2 21
;
_chemical_formula_sum "Si O2"
_cell_formula_units_Z 44
_cell_length_a 13.586833
_cell_length_b 28.456210
_cell_length_c 5.062104
_cell_angle_alpha 90.000000
_cell_angle_beta 90.000000
_cell_angle_gamma 90.000000
_cell_volume 1957.160121
_symmetry_space_group_name_H-M "C 2 2 21"
_symmetry_group_IT_number 20
_symmetry_cell_setting 'orthorhombic'
loop_
_space_group_symop_operation_xyz
x,y,z
-x,-y,1/2+z
x,-y,-z
-x,y,1/2-z
1/2+x,1/2+y,z
1/2-x,1/2-y,1/2+z
1/2+x,1/2-y,-z
1/2-x,1/2+y,1/2-z
loop_
_atom_site_type_symbol
_atom_site_label
_atom_site_fract_x
_atom_site_fract_y
_atom_site_fract_z
Si Si1 0.780619 0.602408 0.040846
Si Si2 0.122853 0.243807 0.910279
Si Si3 0.282960 0.000000 0.000000
Si Si4 0.358127 0.601062 0.960670
Si Si5 0.000000 0.828243 0.750000
Si Si6 0.154608 0.297187 0.406284
Si Si7 0.860605 0.000000 0.000000
O O1 0.732747 0.602903 0.331670
O O2 0.844354 0.648747 0.990908
O O3 0.832396 0.551515 0.999325
O O4 0.689991 0.605427 0.828610
O O5 0.118506 0.287626 0.111957
O O6 0.232995 0.221996 0.904623
O O7 0.062090 0.203351 0.050578
O O8 0.101709 0.263726 0.619981
O O9 0.210932 0.999484 0.750269
O O10 0.412041 0.550376 0.988501
O O11 0.430617 0.640711 0.062284
#
# Coordination Sequence:
#
# PCOD9316676 Si02
#       7
#     8   8   4   8   4   8   4
#     4  10  18  35  55  78 105 141 180 219 272 318
#     4  10  23  34  54  74 104 137 189 225 261 315
#     4   8  16  28  53  78 102 130 175 228 256 308
#     4  10  21  32  54  75 106 144 181 226 260 313
#     4  12  24  38  54  82 110 144 192 230 268 308
#     4  10  20  38  53  75 100 143 181 221 271 320
#     4   8  16  34  45  72 104 140 181 214 262 300
#
# _framework density 22.481553999999999
#
# number of rings (size 3 to 8) (size 9 to 14) (size 15 to 20)
#    0.000    2.182    1.818    1.091    5.091    2.909 
#    0.000    5.455    0.000    0.000    0.000    0.000 
#    0.000    2.909    0.000    0.000    0.000    0.545 
#
# Total GULP energy -122944.204432 kJ/mol
# GULP energy per Si atom -5588.372929 kJ/mol
# Density = 2.243038 g / cm^3
# Si number density = 22.481554 Si / 1000 Ang^3
#
#
#
# Elastic Constant Matrix: (Units=GPa)
#
#
# Indices 1 2 3 4 5 6 
#
# 1 15.3728 13.2482 4.6691 0.0000 0.0000 0.0000
# 2 13.2482 149.3914 3.0435 0.0000 0.0000 0.0000
# 3 4.6691 3.0435 111.7298 0.0000 0.0000 0.0000
# 4 0.0000 0.0000 0.0000 31.0106 0.0000 0.0000
# 5 0.0000 0.0000 0.0000 0.0000 22.0518 0.0000
# 6 0.0000 0.0000 0.0000 0.0000 0.0000 -349.5074
#
#
#
# Elastic Compliance Matrix: (Units=1/GPa)
#
#
# Indices 1 2 3 4 5 6 
#
# 1 0.071303 -0.006266 -0.002809 0.000000 0.000000 0.000000
# 2 -0.006266 0.007248 0.000064 0.000000 0.000000 0.000000
# 3 -0.002809 0.000064 0.009066 0.000000 0.000000 0.000000
# 4 0.000000 0.000000 0.000000 0.032247 0.000000 0.000000
# 5 0.000000 0.000000 0.000000 0.000000 0.045348 0.000000
# 6 0.000000 0.000000 0.000000 0.000000 0.000000 -0.002861
#
#
# Mechanical properties :
#
#
# Convention : Reuss Voigt Hill
#
# Bulk Modulus (GPa) = 14.36865 35.37949 24.87407
# Shear Modulus (GPa) = 24.56151 -42.25344 -8.84596
#
# Velocity S-wave (km/s) = 3.30891 -4.33999 -1.98578
# Velocity P-wave (km/s) = 4.58298 3.05659 2.41464
#
# Compressibility (1/GPa) = 0.06959596
#
# Stress axis : x y z
#
# Youngs Moduli (GPa) = 14.02463 137.96552 110.30469
#
# Poissons Ratio (x) = 0.86449 0.30985
# Poissons Ratio (y) = 0.08788 -0.00710
# Poissons Ratio (z) = 0.03940 -0.00889
#
# Static dielectric constant tensor:
#      x y z
#    x 1.822580 0.000000 0.000000 
#    y 0.000000 1.900470 0.000000 
#    z 0.000000 0.000000 1.911190 
# 
# From -- ./inp_files/1982.got.cif
#   From: 2010.05.17/outbox.cif.g08.bks.cpg/sg20_1_cif.got.tgz:1982.got - 2010.06.03 22:52:26.
