data_PCOD9316808
_publ_section_title
;
Structure prediction by ZEFSAII (Michael W. Deem and Ramdas Pophale) SiO2 
 PCOD9316808
Probable space group: C 2 2 21
;
_chemical_formula_sum "Si O2"
_cell_formula_units_Z 48
_cell_length_a 11.294283
_cell_length_b 14.167035
_cell_length_c 13.797956
_cell_angle_alpha 90.000000
_cell_angle_beta 90.000000
_cell_angle_gamma 90.000000
_cell_volume 2207.762682
_symmetry_space_group_name_H-M "C 2 2 21"
_symmetry_group_IT_number 20
_symmetry_cell_setting 'orthorhombic'
loop_
_space_group_symop_operation_xyz
x,y,z
-x,-y,1/2+z
x,-y,-z
-x,y,1/2-z
1/2+x,1/2+y,z
1/2-x,1/2-y,1/2+z
1/2+x,1/2-y,-z
1/2-x,1/2+y,1/2-z
loop_
_atom_site_type_symbol
_atom_site_label
_atom_site_fract_x
_atom_site_fract_y
_atom_site_fract_z
Si Si1 0.500000 0.073601 0.250000
Si Si2 0.353433 0.500000 0.500000
Si Si3 0.160914 0.293381 0.633518
Si Si4 0.837931 0.649997 0.924516
Si Si5 0.096199 0.557452 0.903520
Si Si6 0.884855 0.922359 0.694488
Si Si7 0.282412 0.622061 0.773124
O O1 0.437435 0.130472 0.164795
O O2 0.410041 0.008283 0.308171
O O3 0.261838 0.423823 0.458633
O O4 0.425304 0.457287 0.588127
O O5 0.159677 0.280670 0.517078
O O6 0.281549 0.345618 0.672712
O O7 0.125532 0.201026 0.693832
O O8 0.792202 0.667571 0.815952
O O9 0.968320 0.605175 0.915848
O O10 0.199973 0.625012 0.869418
O O11 0.123474 0.500000 0.000000
O O12 0.000000 0.885307 0.750000
O O13 0.835110 0.018944 0.746369
#
# Coordination Sequence:
#
# PCOD9316808 Si02
#       7
#     4   4   8   8   8   8   8
#     4  12  20  40  68  94 122 174 220 282 320 388
#     4   8  16  36  64  84 108 170 218 242 312 400
#     4  11  24  41  65  96 129 175 224 267 332 398
#     4  10  18  38  65  90 125 169 219 266 327 390
#     4  12  20  37  70  99 126 167 223 279 333 379
#     4  10  21  42  62  88 127 172 208 262 324 392
#     4  11  24  40  63  96 134 167 219 272 331 390
#
# _framework density 21.741467
#
# number of rings (size 3 to 8) (size 9 to 14) (size 15 to 20)
#    0.000    1.333    5.833    1.000    1.167    2.667 
#    1.500    1.667    0.000    0.000    0.000    0.000 
#    0.000    0.000    0.000    0.000    0.000    0.000 
#
# Total GULP energy -133697.105914 kJ/mol
# GULP energy per Si atom -5570.712746 kJ/mol
# Density = 2.169198 g / cm^3
# Si number density = 21.741467 Si / 1000 Ang^3
#
#
#
# Elastic Constant Matrix: (Units=GPa)
#
#
# Indices 1 2 3 4 5 6 
#
# 1 48.0095 -14.1683 5.3781 0.0000 0.0000 0.0000
# 2 -14.1683 40.5886 6.8075 0.0000 0.0000 0.0000
# 3 5.3781 6.8075 100.9943 0.0000 0.0000 0.0000
# 4 0.0000 0.0000 0.0000 17.5796 0.0000 0.0000
# 5 0.0000 0.0000 0.0000 0.0000 39.2157 0.0000
# 6 0.0000 0.0000 0.0000 0.0000 0.0000 1.2296
#
#
#
# Elastic Compliance Matrix: (Units=1/GPa)
#
#
# Indices 1 2 3 4 5 6 
#
# 1 0.023551 0.008528 -0.001829 0.000000 0.000000 0.000000
# 2 0.008528 0.028007 -0.002342 0.000000 0.000000 0.000000
# 3 -0.001829 -0.002342 0.010157 0.000000 0.000000 0.000000
# 4 0.000000 0.000000 0.000000 0.056884 0.000000 0.000000
# 5 0.000000 0.000000 0.000000 0.000000 0.025500 0.000000
# 6 0.000000 0.000000 0.000000 0.000000 0.000000 0.813306
#
#
# Mechanical properties :
#
#
# Convention : Reuss Voigt Hill
#
# Bulk Modulus (GPa) = 14.19888 20.62522 17.41205
# Shear Modulus (GPa) = 5.14315 24.37665 14.75990
#
# Velocity S-wave (km/s) = 1.53972 3.35207 2.60836
# Velocity P-wave (km/s) = 3.11543 4.94864 4.13491
#
# Compressibility (1/GPa) = 0.07042811
#
# Stress axis : x y z
#
# Youngs Moduli (GPa) = 42.46153 35.70539 98.45623
#
# Poissons Ratio (x) = -0.30448 0.18007
# Poissons Ratio (y) = -0.36210 0.23058
# Poissons Ratio (z) = 0.07766 0.08362
#
# Static dielectric constant tensor:
#      x y z
#    x 1.753920 0.000000 0.000000 
#    y 0.000000 1.802120 0.000000 
#    z 0.000000 0.000000 1.850130 
# 
# From -- ./inp_files/20007.got.cif
#   From: 2010.05.17/outbox.cif.g08.bks.cpg/sg20_11_cif.got.tgz:20007.got - 2010.06.03 22:52:26.
