data_PCOD9316197
_publ_section_title
;
Structure prediction by ZEFSAII (Michael W. Deem and Ramdas Pophale) SiO2 
 PCOD9316197
Probable space group: C 2 2 21
;
_chemical_formula_sum "Si O2"
_cell_formula_units_Z 48
_cell_length_a 17.840177
_cell_length_b 26.072072
_cell_length_c 5.338491
_cell_angle_alpha 90.000000
_cell_angle_beta 90.000000
_cell_angle_gamma 90.000000
_cell_volume 2483.094343
_symmetry_space_group_name_H-M "C 2 2 21"
_symmetry_group_IT_number 20
_symmetry_cell_setting 'orthorhombic'
loop_
_space_group_symop_operation_xyz
x,y,z
-x,-y,1/2+z
x,-y,-z
-x,y,1/2-z
1/2+x,1/2+y,z
1/2-x,1/2-y,1/2+z
1/2+x,1/2-y,-z
1/2-x,1/2+y,1/2-z
loop_
_atom_site_type_symbol
_atom_site_label
_atom_site_fract_x
_atom_site_fract_y
_atom_site_fract_z
Si Si1 0.916728 0.421489 0.750249
Si Si2 0.584765 0.149329 0.750246
Si Si3 0.294726 0.390580 0.250091
Si Si4 0.614082 0.480653 0.250000
Si Si5 0.764808 0.282608 0.250021
Si Si6 0.741284 0.054866 0.249910
O O1 0.910341 0.385764 0.501417
O O2 0.845941 0.459743 0.750040
O O3 0.000000 0.445033 0.750000
O O4 0.910336 0.385861 0.999392
O O5 0.500000 0.171835 0.750000
O O6 0.652680 0.190294 0.750069
O O7 0.373345 0.420283 0.250019
O O8 0.292654 0.330204 0.249988
O O9 0.255927 0.411179 0.503311
O O10 0.255883 0.411212 0.997003
O O11 0.578266 0.500000 0.500000
O O12 0.696764 0.509860 0.250012
O O13 0.578266 0.500000 0.000000
O O14 0.749993 0.249997 0.500006
#
# Coordination Sequence:
#
# PCOD9316197 Si02
#       6
#     8   8   8   8   8   8
#     4  10  17  27  46  65  86 118 155 194 228 263
#     4  10  20  34  48  65  91 125 157 193 237 283
#     4  10  18  30  43  60  90 114 146 191 232 276
#     4   8  16  25  42  60  77 115 148 177 221 284
#     4  12  22  32  49  71  92 117 157 200 240 273
#     4  10  15  28  45  61  84 111 153 183 224 271
#
# _framework density 19.330718000000001
#
# number of rings (size 3 to 8) (size 9 to 14) (size 15 to 20)
#    0.000    2.000    3.333    2.000    0.000    0.000 
#    0.000    0.000    0.000   10.000    0.000    0.000 
#    0.000    0.000    0.000    0.000    0.000  150.000 
#
# Total GULP energy -133749.381656 kJ/mol
# GULP energy per Si atom -5572.890902 kJ/mol
# Density = 1.928672 g / cm^3
# Si number density = 19.330718 Si / 1000 Ang^3
#
#
#
# Elastic Constant Matrix: (Units=GPa)
#
#
# Indices 1 2 3 4 5 6 
#
# 1 115.0194 19.1787 12.2150 0.0000 0.0000 0.0000
# 2 19.1787 96.0191 39.3277 0.0000 0.0000 0.0000
# 3 12.2150 39.3277 189.0321 0.0000 0.0000 0.0000
# 4 0.0000 0.0000 0.0000 -12.9643 0.0000 0.0000
# 5 0.0000 0.0000 0.0000 0.0000 -2.9090 0.0000
# 6 0.0000 0.0000 0.0000 0.0000 0.0000 -3.6563
#
#
#
# Elastic Compliance Matrix: (Units=1/GPa)
#
#
# Indices 1 2 3 4 5 6 
#
# 1 0.009003 -0.001705 -0.000227 0.000000 0.000000 0.000000
# 2 -0.001705 0.011708 -0.002326 0.000000 0.000000 0.000000
# 3 -0.000227 -0.002326 0.005789 0.000000 0.000000 0.000000
# 4 0.000000 0.000000 0.000000 -0.077135 0.000000 0.000000
# 5 0.000000 0.000000 0.000000 0.000000 -0.343758 0.000000
# 6 0.000000 0.000000 0.000000 0.000000 0.000000 -0.273498
#
#
# Mechanical properties :
#
#
# Convention : Reuss Voigt Hill
#
# Bulk Modulus (GPa) = 55.60675 60.16815 57.88745
# Shear Modulus (GPa) = -7.65249 18.05069 5.19910
#
# Velocity S-wave (km/s) = -1.99181 3.05910 1.64176
# Velocity P-wave (km/s) = 4.85167 6.60838 5.79696
#
# Compressibility (1/GPa) = 0.01798343
#
# Stress axis : x y z
#
# Youngs Moduli (GPa) = 111.07881 85.41384 172.75325
#
# Poissons Ratio (x) = 0.14565 0.03921
# Poissons Ratio (y) = 0.18941 0.40175
# Poissons Ratio (z) = 0.02521 0.19864
#
# Static dielectric constant tensor:
#      x y z
#    x 1.724540 0.000000 0.000000 
#    y 0.000000 1.651900 0.000000 
#    z 0.000000 0.000000 1.715450 
# 
# From -- ./inp_files/2724.got.cif
#   From: 2010.05.17/outbox.cif.g08.bks.cpg/sg20_2_cif.got.tgz:2724.got - 2010.06.03 22:52:26.
