data_PCOD9316365
_publ_section_title
;
Structure prediction by ZEFSAII (Michael W. Deem and Ramdas Pophale) SiO2 
 PCOD9316365
Probable space group: C 2 2 21
;
_chemical_formula_sum "Si O2"
_cell_formula_units_Z 64
_cell_length_a 15.770921
_cell_length_b 7.411537
_cell_length_c 23.842355
_cell_angle_alpha 90.000000
_cell_angle_beta 90.000000
_cell_angle_gamma 90.000000
_cell_volume 2786.855734
_symmetry_space_group_name_H-M "C 2 2 21"
_symmetry_group_IT_number 20
_symmetry_cell_setting 'orthorhombic'
loop_
_space_group_symop_operation_xyz
x,y,z
-x,-y,1/2+z
x,-y,-z
-x,y,1/2-z
1/2+x,1/2+y,z
1/2-x,1/2-y,1/2+z
1/2+x,1/2-y,-z
1/2-x,1/2+y,1/2-z
loop_
_atom_site_type_symbol
_atom_site_label
_atom_site_fract_x
_atom_site_fract_y
_atom_site_fract_z
Si Si1 0.414733 0.353080 0.131186
Si Si2 0.103297 0.125247 0.869903
Si Si3 0.414821 0.792150 0.110344
Si Si4 0.768062 0.684177 0.808411
Si Si5 0.403190 0.789062 0.401305
Si Si6 0.743088 0.892291 0.182992
Si Si7 0.365542 0.292755 0.008705
Si Si8 0.669597 0.715500 0.987098
O O1 0.510702 0.310350 0.149491
O O2 0.410557 0.573221 0.121700
O O3 0.336404 0.310102 0.172031
O O4 0.394893 0.256109 0.071807
O O5 0.176460 0.103171 0.823736
O O6 0.140278 0.238257 0.922840
O O7 0.088835 0.926001 0.893824
O O8 0.340492 0.874742 0.148012
O O9 0.508795 0.863124 0.122605
O O10 0.400641 0.816833 0.044009
O O11 0.791409 0.657309 0.744007
O O12 0.754108 0.894872 0.817338
O O13 0.321147 0.844376 0.366453
O O14 0.389636 0.812627 0.467489
O O15 0.393184 0.500000 0.000000
O O16 0.264491 0.280667 0.000161
O O17 0.669812 0.500000 0.000000
#
# Coordination Sequence:
#
# PCOD9316365 Si02
#       8
#     8   8   8   8   8   8   8   8
#     4   9  19  35  59  84 110 147 188 225 271 334
#     4  10  20  37  59  85 114 147 185 228 276 333
#     4   9  19  35  59  84 110 147 188 225 271 334
#     4  11  23  40  59  82 110 148 192 238 284 330
#     4  10  20  37  59  85 114 147 185 228 276 333
#     4  11  23  40  59  82 110 148 192 238 284 330
#     4  10  17  33  59  84 112 148 187 223 267 338
#     4  10  19  31  55  88 118 142 173 225 285 326
#
# _framework density 22.964949000000001
#
# number of rings (size 3 to 8) (size 9 to 14) (size 15 to 20)
#    0.000    2.000    2.500    1.500    0.000    4.000 
#    0.000    8.750    0.000    1.500    0.000    0.000 
#    0.000    0.000    0.000    0.000    0.000    0.000 
#
# Total GULP energy -178795.924029 kJ/mol
# GULP energy per Si atom -5587.372626 kJ/mol
# Density = 2.291268 g / cm^3
# Si number density = 22.964949 Si / 1000 Ang^3
#
#
#
# Elastic Constant Matrix: (Units=GPa)
#
#
# Indices 1 2 3 4 5 6 
#
# 1 109.6717 -3.2052 3.3923 0.0000 0.0000 0.0000
# 2 -3.2052 38.9623 -2.5203 0.0000 0.0000 0.0000
# 3 3.3923 -2.5203 65.1975 0.0000 0.0000 0.0000
# 4 0.0000 0.0000 0.0000 23.5547 0.0000 0.0000
# 5 0.0000 0.0000 0.0000 0.0000 8.2964 0.0000
# 6 0.0000 0.0000 0.0000 0.0000 0.0000 28.8118
#
#
#
# Elastic Compliance Matrix: (Units=1/GPa)
#
#
# Indices 1 2 3 4 5 6 
#
# 1 0.009153 0.000724 -0.000448 0.000000 0.000000 0.000000
# 2 0.000724 0.025787 0.000959 0.000000 0.000000 0.000000
# 3 -0.000448 0.000959 0.015398 0.000000 0.000000 0.000000
# 4 0.000000 0.000000 0.000000 0.042454 0.000000 0.000000
# 5 0.000000 0.000000 0.000000 0.000000 0.120535 0.000000
# 6 0.000000 0.000000 0.000000 0.000000 0.000000 0.034708
#
#
# Mechanical properties :
#
#
# Convention : Reuss Voigt Hill
#
# Bulk Modulus (GPa) = 18.93623 23.24055 21.08839
# Shear Modulus (GPa) = 18.99920 26.54356 22.77138
#
# Velocity S-wave (km/s) = 2.87943 3.40344 3.15234
# Velocity P-wave (km/s) = 4.39527 5.05831 4.73840
#
# Compressibility (1/GPa) = 0.05280883
#
# Stress axis : x y z
#
# Youngs Moduli (GPa) = 109.25204 38.77856 64.94170
#
# Poissons Ratio (x) = -0.02807 0.02911
# Poissons Ratio (y) = -0.07910 -0.06229
# Poissons Ratio (z) = 0.04897 -0.03720
#
# Static dielectric constant tensor:
#      x y z
#    x 1.920460 0.000000 0.000000 
#    y 0.000000 1.922730 0.000000 
#    z 0.000000 0.000000 1.431530 
# 
# From -- ./inp_files/29370.got.cif
#   From: 2010.05.17/outbox.cif.g08.bks.cpg/sg20_15_cif.got.tgz:29370.got - 2010.06.03 22:52:26.
