data_PCOD9316420
_publ_section_title
;
Structure prediction by ZEFSAII (Michael W. Deem and Ramdas Pophale) SiO2 
 PCOD9316420
Probable space group: C 2 2 21
;
_chemical_formula_sum "Si O2"
_cell_formula_units_Z 52
_cell_length_a 11.010236
_cell_length_b 32.553436
_cell_length_c 5.844084
_cell_angle_alpha 90.000000
_cell_angle_beta 90.000000
_cell_angle_gamma 90.000000
_cell_volume 2094.642507
_symmetry_space_group_name_H-M "C 2 2 21"
_symmetry_group_IT_number 20
_symmetry_cell_setting 'orthorhombic'
loop_
_space_group_symop_operation_xyz
x,y,z
-x,-y,1/2+z
x,-y,-z
-x,y,1/2-z
1/2+x,1/2+y,z
1/2-x,1/2-y,1/2+z
1/2+x,1/2-y,-z
1/2-x,1/2+y,1/2-z
loop_
_atom_site_type_symbol
_atom_site_label
_atom_site_fract_x
_atom_site_fract_y
_atom_site_fract_z
Si Si1 0.171698 0.776323 0.622611
Si Si2 0.259398 0.542841 0.527280
Si Si3 0.846146 0.629353 0.875082
Si Si4 0.882163 0.101076 0.154943
Si Si5 0.828552 0.799217 0.378469
Si Si6 0.853305 0.344665 0.620152
Si Si7 0.000000 0.949042 0.250000
O O1 0.117956 0.789579 0.374812
O O2 0.203481 0.728166 0.622030
O O3 0.307563 0.797761 0.625066
O O4 0.117707 0.787664 0.872115
O O5 0.188714 0.500000 0.500000
O O6 0.180104 0.580344 0.630096
O O7 0.320389 0.565575 0.309855
O O8 0.377663 0.528760 0.673174
O O9 0.715974 0.653659 0.884328
O O10 0.900962 0.642892 0.630622
O O11 0.899447 0.642330 0.125907
O O12 0.775540 0.131654 0.108194
O O13 0.000000 0.124086 0.250000
O O14 0.944565 0.079065 0.944666
#
# Coordination Sequence:
#
# PCOD9316420 Si02
#       7
#     8   8   8   8   8   8   4
#     4   8  13  20  34  50  62  74  87 106 132 176
#     4  10  20  27  35  44  56  76 101 132 162 187
#     4   9  16  27  36  46  61  75  91 118 148 184
#     4   9  18  28  35  45  56  78  99 128 158 187
#     4   8  13  21  34  49  62  74  87 104 137 176
#     4   9  15  26  36  47  62  75  93 115 145 178
#     4  10  18  28  36  42  56  70 102 130 164 184
#
# _framework density 24.825237999999999
#
# number of rings (size 3 to 8) (size 9 to 14) (size 15 to 20)
#    0.000    3.077    1.538    0.000    3.231    0.000 
#    0.000    0.000    0.000    0.000    0.000    0.000 
#    0.000    0.000    0.000    0.000    0.000    0.000 
#
# Total GULP energy -144739.716530 kJ/mol
# GULP energy per Si atom -5566.912174 kJ/mol
# Density = 2.476873 g / cm^3
# Si number density = 24.825238 Si / 1000 Ang^3
#
#
#
# Elastic Constant Matrix: (Units=GPa)
#
#
# Indices 1 2 3 4 5 6 
#
# 1 35.1290 -4.0943 72.2829 0.0000 0.0000 0.0000
# 2 -4.0943 119.8428 17.6632 0.0000 0.0000 0.0000
# 3 72.2829 17.6632 223.1656 0.0000 0.0000 0.0000
# 4 0.0000 0.0000 0.0000 38.6018 0.0000 0.0000
# 5 0.0000 0.0000 0.0000 0.0000 52.6666 0.0000
# 6 0.0000 0.0000 0.0000 0.0000 0.0000 -9.0651
#
#
#
# Elastic Compliance Matrix: (Units=1/GPa)
#
#
# Indices 1 2 3 4 5 6 
#
# 1 0.091715 0.007600 -0.030308 0.000000 0.000000 0.000000
# 2 0.007600 0.009073 -0.003180 0.000000 0.000000 0.000000
# 3 -0.030308 -0.003180 0.014549 0.000000 0.000000 0.000000
# 4 0.000000 0.000000 0.000000 0.025906 0.000000 0.000000
# 5 0.000000 0.000000 0.000000 0.000000 0.018987 0.000000
# 6 0.000000 0.000000 0.000000 0.000000 0.000000 -0.110313
#
#
# Mechanical properties :
#
#
# Convention : Reuss Voigt Hill
#
# Bulk Modulus (GPa) = 15.73265 61.09344 38.41304
# Shear Modulus (GPa) = 40.69067 35.92636 38.30852
#
# Velocity S-wave (km/s) = 4.05295 3.80830 3.93253
# Velocity P-wave (km/s) = 5.31536 6.63327 6.01055
#
# Compressibility (1/GPa) = 0.06356208
#
# Stress axis : x y z
#
# Youngs Moduli (GPa) = 10.90336 110.22228 68.73189
#
# Poissons Ratio (x) = -0.83772 2.08311
# Poissons Ratio (y) = -0.08287 0.21855
# Poissons Ratio (z) = 0.33046 0.35048
#
# Static dielectric constant tensor:
#      x y z
#    x 1.976890 0.000000 0.000000 
#    y 0.000000 1.983400 0.000000 
#    z 0.000000 0.000000 2.141710 
# 
# From -- ./inp_files/3426.got.cif
#   From: 2010.05.17/outbox.cif.g08.bks.cpg/sg20_2_cif.got.tgz:3426.got - 2010.06.03 22:52:26.
