data_PCOD9316017
_publ_section_title
;
Structure prediction by ZEFSAII (Michael W. Deem and Ramdas Pophale) SiO2 
 PCOD9316017
Probable space group: P 21 21 21
;
_chemical_formula_sum "Si O2"
_cell_formula_units_Z 20
_cell_length_a 7.032109
_cell_length_b 6.784720
_cell_length_c 18.918622
_cell_angle_alpha 90.000000
_cell_angle_beta 90.000000
_cell_angle_gamma 90.000000
_cell_volume 902.624304
_symmetry_space_group_name_H-M "P 21 21 21"
_symmetry_group_IT_number 19
_symmetry_cell_setting 'orthorhombic'
loop_
_space_group_symop_operation_xyz
x,y,z
1/2-x,-y,1/2+z
1/2+x,1/2-y,-z
-x,1/2+y,1/2-z
loop_
_atom_site_type_symbol
_atom_site_label
_atom_site_fract_x
_atom_site_fract_y
_atom_site_fract_z
Si Si1 0.125065 0.958339 0.573547
Si Si2 0.774562 0.048795 0.262276
Si Si3 0.577296 0.732516 0.163683
Si Si4 0.294896 0.868310 0.425710
Si Si5 0.448335 0.771153 0.656105
O O1 0.281420 0.916708 0.633933
O O2 0.976101 0.776129 0.570412
O O3 0.011382 0.150873 0.597152
O O4 0.238103 0.965425 0.500068
O O5 0.590706 0.174246 0.282355
O O6 0.942326 0.171624 0.227199
O O7 0.712268 0.882101 0.205801
O O8 0.849760 0.939244 0.331795
O O9 0.670921 0.534370 0.133709
O O10 0.111792 0.742468 0.402136
#
# Coordination Sequence:
#
# PCOD9316017 Si02
#       5
#     4   4   4   4   4
#     4  12  26  48  73 104 147 188 244 300 348 421
#     4  12  24  44  72 108 146 184 242 290 360 434
#     4  12  26  46  74 108 148 188 236 300 358 426
#     4  12  26  48  73 104 147 188 244 300 348 421
#     4  12  24  44  74 100 142 194 232 292 360 416
#
# _framework density 22.157610999999999
#
# number of rings (size 3 to 8) (size 9 to 14) (size 15 to 20)
#    0.000    0.000    6.000    4.800    0.000    4.800 
#    0.000    0.000    0.000    0.000    0.000    0.000 
#    0.000    0.000    0.000    0.000    0.000    0.000 
#
# Total GULP energy -111973.100273 kJ/mol
# GULP energy per Si atom -5598.655014 kJ/mol
# Density = 2.210718 g / cm^3
# Si number density = 22.157611 Si / 1000 Ang^3
#
#
#
# Elastic Constant Matrix: (Units=GPa)
#
#
# Indices 1 2 3 4 5 6 
#
# 1 97.4592 23.0671 9.0307 0.0000 0.0000 0.0000
# 2 23.0671 57.1084 1.0471 0.0000 0.0000 0.0000
# 3 9.0307 1.0471 44.9375 0.0000 0.0000 0.0000
# 4 0.0000 0.0000 0.0000 37.5435 0.0000 0.0000
# 5 0.0000 0.0000 0.0000 0.0000 46.3046 0.0000
# 6 0.0000 0.0000 0.0000 0.0000 0.0000 27.9919
#
#
#
# Elastic Compliance Matrix: (Units=1/GPa)
#
#
# Indices 1 2 3 4 5 6 
#
# 1 0.011562 -0.004629 -0.002216 0.000000 0.000000 0.000000
# 2 -0.004629 0.019372 0.000479 0.000000 0.000000 0.000000
# 3 -0.002216 0.000479 0.022687 0.000000 0.000000 0.000000
# 4 0.000000 0.000000 0.000000 0.026636 0.000000 0.000000
# 5 0.000000 0.000000 0.000000 0.000000 0.021596 0.000000
# 6 0.000000 0.000000 0.000000 0.000000 0.000000 0.035725
#
#
# Mechanical properties :
#
#
# Convention : Reuss Voigt Hill
#
# Bulk Modulus (GPa) = 24.45670 29.53276 26.99473
# Shear Modulus (GPa) = 30.49921 33.45867 31.97894
#
# Velocity S-wave (km/s) = 3.71410 3.89013 3.80313
# Velocity P-wave (km/s) = 5.42718 5.79093 5.61200
#
# Compressibility (1/GPa) = 0.04088858
#
# Stress axis : x y z
#
# Youngs Moduli (GPa) = 86.49241 51.62178 44.07767
#
# Poissons Ratio (x) = 0.23898 0.09766
# Poissons Ratio (y) = 0.40040 -0.02111
# Poissons Ratio (z) = 0.19163 -0.02472
#
# Static dielectric constant tensor:
#      x y z
#    x 1.763050 0.000000 0.000000 
#    y 0.000000 1.765560 0.000000 
#    z 0.000000 0.000000 1.830150 
# 
# From -- ./inp_files/127.got.cif
#   From: 2010.05.17/outbox.cif.g08.bks.cpg/sg19_1_cif.got.tgz:127.got - 2010.06.03 22:46:19.
