data_PCOD9316214
_publ_section_title
;
Structure prediction by ZEFSAII (Michael W. Deem and Ramdas Pophale) SiO2 
 PCOD9316214
Probable space group: C 2 2 21
;
_chemical_formula_sum "Si O2"
_cell_formula_units_Z 56
_cell_length_a 5.151149
_cell_length_b 31.537373
_cell_length_c 15.579508
_cell_angle_alpha 90.000000
_cell_angle_beta 90.000000
_cell_angle_gamma 90.000000
_cell_volume 2530.948834
_symmetry_space_group_name_H-M "C 2 2 21"
_symmetry_group_IT_number 20
_symmetry_cell_setting 'orthorhombic'
loop_
_space_group_symop_operation_xyz
x,y,z
-x,-y,1/2+z
x,-y,-z
-x,y,1/2-z
1/2+x,1/2+y,z
1/2-x,1/2-y,1/2+z
1/2+x,1/2-y,-z
1/2-x,1/2+y,1/2-z
loop_
_atom_site_type_symbol
_atom_site_label
_atom_site_fract_x
_atom_site_fract_y
_atom_site_fract_z
Si Si1 0.150562 0.015034 0.400092
Si Si2 0.845501 0.520431 0.902890
Si Si3 0.507501 0.391499 0.558714
Si Si4 0.498062 0.885986 0.050244
Si Si5 0.078240 0.708680 0.587426
Si Si6 0.927304 0.257651 0.890806
Si Si7 0.733761 0.167390 0.199969
O O1 0.042891 0.062347 0.399926
O O2 0.189551 0.000000 0.500000
O O3 0.430936 0.007698 0.361038
O O4 0.932664 0.985224 0.361299
O O5 0.922696 0.569390 0.907188
O O6 0.810678 0.500000 0.000000
O O7 0.213833 0.383111 0.528303
O O8 0.636241 0.357794 0.621767
O O9 0.704764 0.390988 0.478804
O O10 0.476401 0.840980 0.097200
O O11 0.072743 0.722362 0.486637
O O12 0.856910 0.738932 0.628320
O O13 0.368687 0.719369 0.615088
O O14 0.061227 0.293941 0.835166
O O15 0.500000 0.142252 0.250000
O O16 0.000000 0.179209 0.250000
#
# Coordination Sequence:
#
# PCOD9316214 Si02
#       7
#     8   8   8   8   8   8   8
#     4  10  16  29  44  74 108 149 181 205 260 330
#     4  10  16  27  43  73 112 150 173 195 253 335
#     4  12  21  32  53  76 113 151 189 231 271 327
#     4  12  19  30  52  81 113 147 180 223 284 353
#     4  10  21  33  55  81 104 145 172 233 302 349
#     4  10  21  38  54  74 108 138 188 229 291 345
#     4  12  26  41  57  78 109 157 207 236 274 339
#
# _framework density 22.126089
#
# number of rings (size 3 to 8) (size 9 to 14) (size 15 to 20)
#    0.000    1.143    7.143    2.571    4.000    0.000 
#    0.000    0.000    0.000    0.000    0.000    0.000 
#    0.000   17.143    0.000    0.000    0.000    0.000 
#
# Total GULP energy -156147.228880 kJ/mol
# GULP energy per Si atom -5576.686746 kJ/mol
# Density = 2.207573 g / cm^3
# Si number density = 22.126089 Si / 1000 Ang^3
#
#
#
# Elastic Constant Matrix: (Units=GPa)
#
#
# Indices 1 2 3 4 5 6 
#
# 1 106.0538 -25.4817 4.9690 0.0000 0.0000 0.0000
# 2 -25.4817 88.0876 -3.5986 0.0000 0.0000 0.0000
# 3 4.9690 -3.5986 10.0620 0.0000 0.0000 0.0000
# 4 0.0000 0.0000 0.0000 -51.7969 0.0000 0.0000
# 5 0.0000 0.0000 0.0000 0.0000 10.7998 0.0000
# 6 0.0000 0.0000 0.0000 0.0000 0.0000 36.4983
#
#
#
# Elastic Compliance Matrix: (Units=1/GPa)
#
#
# Indices 1 2 3 4 5 6 
#
# 1 0.010296 0.002812 -0.004079 0.000000 0.000000 0.000000
# 2 0.002812 0.012289 0.003006 0.000000 0.000000 0.000000
# 3 -0.004079 0.003006 0.102474 0.000000 0.000000 0.000000
# 4 0.000000 0.000000 0.000000 -0.019306 0.000000 0.000000
# 5 0.000000 0.000000 0.000000 0.000000 0.092594 0.000000
# 6 0.000000 0.000000 0.000000 0.000000 0.000000 0.027399
#
#
# Mechanical properties :
#
#
# Convention : Reuss Voigt Hill
#
# Bulk Modulus (GPa) = 7.77990 17.33121 12.55555
# Shear Modulus (GPa) = 18.85997 14.32122 16.59059
#
# Velocity S-wave (km/s) = 2.92273 2.54688 2.74126
# Velocity P-wave (km/s) = 3.86182 4.06186 3.96310
#
# Compressibility (1/GPa) = 0.12853638
#
# Stress axis : x y z
#
# Youngs Moduli (GPa) = 97.12644 81.37678 9.75861
#
# Poissons Ratio (x) = -0.22881 0.03980
# Poissons Ratio (y) = -0.27309 -0.02934
# Poissons Ratio (z) = 0.39617 -0.24465
#
# Static dielectric constant tensor:
#      x y z
#    x 1.862910 0.000000 0.000000 
#    y 0.000000 1.828420 0.000000 
#    z 0.000000 0.000000 1.983920 
# 
# From -- ./inp_files/17973.got.cif
#   From: 2010.05.17/outbox.cif.g08.bks.cpg/sg20_9_cif.got.tgz:17973.got - 2010.06.03 22:52:26.
