data_PCOD9316438
_publ_section_title
;
Structure prediction by ZEFSAII (Michael W. Deem and Ramdas Pophale) SiO2 
 PCOD9316438
Probable space group: C 2 2 21
;
_chemical_formula_sum "Si O2"
_cell_formula_units_Z 56
_cell_length_a 17.353206
_cell_length_b 21.723091
_cell_length_c 8.840783
_cell_angle_alpha 90.000000
_cell_angle_beta 90.000000
_cell_angle_gamma 90.000000
_cell_volume 3332.668178
_symmetry_space_group_name_H-M "C 2 2 21"
_symmetry_group_IT_number 20
_symmetry_cell_setting 'orthorhombic'
loop_
_space_group_symop_operation_xyz
x,y,z
-x,-y,1/2+z
x,-y,-z
-x,y,1/2-z
1/2+x,1/2+y,z
1/2-x,1/2-y,1/2+z
1/2+x,1/2-y,-z
1/2-x,1/2+y,1/2-z
loop_
_atom_site_type_symbol
_atom_site_label
_atom_site_fract_x
_atom_site_fract_y
_atom_site_fract_z
Si Si1 0.133504 0.696574 0.110925
Si Si2 0.676704 0.821002 0.546780
Si Si3 0.981228 0.705201 0.927713
Si Si4 0.790599 0.824468 0.024138
Si Si5 0.035561 0.938551 0.087951
Si Si6 0.054431 0.844936 0.602835
Si Si7 0.327000 0.657209 0.631441
O O1 0.150497 0.672073 0.279499
O O2 0.144901 0.771473 0.111044
O O3 0.201860 0.666531 0.014168
O O4 0.050890 0.684390 0.035411
O O5 0.598481 0.830246 0.453269
O O6 0.698686 0.749034 0.532975
O O7 0.751667 0.852965 0.474134
O O8 0.965974 0.777659 0.965323
O O9 0.000000 0.702880 0.750000
O O10 0.808881 0.849598 0.190335
O O11 0.852220 0.845268 0.895605
O O12 0.105999 0.890681 0.094629
O O13 0.000000 0.954344 0.250000
O O14 0.969619 0.901050 0.001062
O O15 0.057353 0.000000 0.000000
O O16 0.000000 0.849613 0.750000
#
# Coordination Sequence:
#
# PCOD9316438 Si02
#       7
#     8   8   8   8   8   8   8
#     4  10  18  29  49  76 106 135 175 211 261 333
#     4   9  19  28  47  74 100 136 173 212 255 330
#     4  10  18  29  47  73 108 141 172 205 256 325
#     4   9  18  30  47  71  99 139 172 208 268 329
#     4  12  24  39  55  74  99 141 193 236 267 307
#     4  10  20  32  51  71 100 139 180 220 269 312
#     4  10  19  34  50  69 105 136 176 221 276 314
#
# _framework density 16.803353999999999
#
# number of rings (size 3 to 8) (size 9 to 14) (size 15 to 20)
#    0.000    2.000    2.857    1.714    2.000    3.429 
#    0.000    0.000    0.000    0.000    0.000    0.000 
#    0.000    8.000    0.000    0.000    0.000    0.143 
#
# Total GULP energy -155918.514513 kJ/mol
# GULP energy per Si atom -5568.518375 kJ/mol
# Density = 1.676511 g / cm^3
# Si number density = 16.803354 Si / 1000 Ang^3
#
#
#
# Elastic Constant Matrix: (Units=GPa)
#
#
# Indices 1 2 3 4 5 6 
#
# 1 90.4812 12.7840 18.2292 0.0000 0.0000 0.0000
# 2 12.7840 35.0952 14.9126 0.0000 0.0000 0.0000
# 3 18.2292 14.9126 44.9137 0.0000 0.0000 0.0000
# 4 0.0000 0.0000 0.0000 13.5190 0.0000 0.0000
# 5 0.0000 0.0000 0.0000 0.0000 30.6826 0.0000
# 6 0.0000 0.0000 0.0000 0.0000 0.0000 3.3867
#
#
#
# Elastic Compliance Matrix: (Units=1/GPa)
#
#
# Indices 1 2 3 4 5 6 
#
# 1 0.012258 -0.002737 -0.004066 0.000000 0.000000 0.000000
# 2 -0.002737 0.033786 -0.010107 0.000000 0.000000 0.000000
# 3 -0.004066 -0.010107 0.027271 0.000000 0.000000 0.000000
# 4 0.000000 0.000000 0.000000 0.073970 0.000000 0.000000
# 5 0.000000 0.000000 0.000000 0.000000 0.032592 0.000000
# 6 0.000000 0.000000 0.000000 0.000000 0.000000 0.295272
#
#
# Mechanical properties :
#
#
# Convention : Reuss Voigt Hill
#
# Bulk Modulus (GPa) = 25.32036 29.14906 27.23471
# Shear Modulus (GPa) = 9.57609 17.82195 13.69902
#
# Velocity S-wave (km/s) = 2.38983 3.26025 2.85836
# Velocity P-wave (km/s) = 4.76617 5.61757 5.20929
#
# Compressibility (1/GPa) = 0.03949390
#
# Stress axis : x y z
#
# Youngs Moduli (GPa) = 81.57930 29.59840 36.66891
#
# Poissons Ratio (x) = 0.08102 0.14911
# Poissons Ratio (y) = 0.22331 0.37060
# Poissons Ratio (z) = 0.33173 0.29914
#
# Static dielectric constant tensor:
#      x y z
#    x 1.617600 0.000000 0.000000 
#    y 0.000000 1.525310 0.000000 
#    z 0.000000 0.000000 1.626100 
# 
# From -- ./inp_files/8717.got.cif
#   From: 2010.05.17/outbox.cif.g08.bks.cpg/sg20_5_cif.got.tgz:8717.got - 2010.06.03 22:52:26.
