data_PCOD9316932
_publ_section_title
;
Structure prediction by ZEFSAII (Michael W. Deem and Ramdas Pophale) SiO2 
 PCOD9316932
Probable space group: C 2 2 21
;
_chemical_formula_sum "Si O2"
_cell_formula_units_Z 56
_cell_length_a 12.280456
_cell_length_b 23.952613
_cell_length_c 10.937477
_cell_angle_alpha 90.000000
_cell_angle_beta 90.000000
_cell_angle_gamma 90.000000
_cell_volume 3217.248032
_symmetry_space_group_name_H-M "C 2 2 21"
_symmetry_group_IT_number 20
_symmetry_cell_setting 'orthorhombic'
loop_
_space_group_symop_operation_xyz
x,y,z
-x,-y,1/2+z
x,-y,-z
-x,y,1/2-z
1/2+x,1/2+y,z
1/2-x,1/2-y,1/2+z
1/2+x,1/2-y,-z
1/2-x,1/2+y,1/2-z
loop_
_atom_site_type_symbol
_atom_site_label
_atom_site_fract_x
_atom_site_fract_y
_atom_site_fract_z
Si Si1 0.344622 0.801213 0.359416
Si Si2 0.785320 0.183337 0.443839
Si Si3 0.406531 0.210134 0.911725
Si Si4 0.867873 0.909188 0.735239
Si Si5 0.844918 0.839661 0.968610
Si Si6 0.943176 0.855095 0.376681
Si Si7 0.911701 0.979248 0.360590
O O1 0.302201 0.737851 0.363728
O O2 0.464884 0.799408 0.418251
O O3 0.364299 0.813988 0.217542
O O4 0.255041 0.834990 0.436313
O O5 0.660984 0.180251 0.482660
O O6 0.832204 0.131350 0.372507
O O7 0.859606 0.188760 0.565814
O O8 0.376445 0.276634 0.922322
O O9 0.820989 0.881915 0.858182
O O10 0.836250 0.971669 0.693942
O O11 0.000000 0.907261 0.750000
O O12 0.953520 0.861941 0.034313
O O13 0.000000 0.838547 0.250000
O O14 0.880375 0.914348 0.368902
O O15 0.000000 0.976180 0.250000
O O16 0.943166 0.000000 0.500000
#
# Coordination Sequence:
#
# PCOD9316932 Si02
#       7
#     8   8   8   8   8   8   8
#     4  10  20  35  51  72 106 148 192 219 269 328
#     4  11  19  31  51  73 105 144 180 216 269 325
#     4  10  20  34  52  75 105 150 187 226 266 335
#     4  11  18  33  54  74 109 146 176 219 283 342
#     4  11  20  33  53  76 109 155 183 226 280 334
#     4  11  20  31  48  78 113 134 177 230 277 326
#     4  10  19  31  50  77 111 141 180 225 283 346
#
# _framework density 17.406179999999999
#
# number of rings (size 3 to 8) (size 9 to 14) (size 15 to 20)
#    0.000    1.429    5.714    1.714    0.000    0.000 
#    0.000    0.714    0.000    0.000    0.000    0.000 
#   60.000    0.000    0.000    0.000    0.000    0.000 
#
# Total GULP energy -155872.786579 kJ/mol
# GULP energy per Si atom -5566.885235 kJ/mol
# Density = 1.736656 g / cm^3
# Si number density = 17.406180 Si / 1000 Ang^3
#
#
#
# Elastic Constant Matrix: (Units=GPa)
#
#
# Indices 1 2 3 4 5 6 
#
# 1 80.5447 6.2423 10.3083 0.0000 0.0000 0.0000
# 2 6.2423 49.5063 9.6692 0.0000 0.0000 0.0000
# 3 10.3083 9.6692 47.3954 0.0000 0.0000 0.0000
# 4 0.0000 0.0000 0.0000 20.7365 0.0000 0.0000
# 5 0.0000 0.0000 0.0000 0.0000 27.6618 0.0000
# 6 0.0000 0.0000 0.0000 0.0000 0.0000 6.6323
#
#
#
# Elastic Compliance Matrix: (Units=1/GPa)
#
#
# Indices 1 2 3 4 5 6 
#
# 1 0.012830 -0.001117 -0.002563 0.000000 0.000000 0.000000
# 2 -0.001117 0.021135 -0.004069 0.000000 0.000000 0.000000
# 3 -0.002563 -0.004069 0.022487 0.000000 0.000000 0.000000
# 4 0.000000 0.000000 0.000000 0.048224 0.000000 0.000000
# 5 0.000000 0.000000 0.000000 0.000000 0.036151 0.000000
# 6 0.000000 0.000000 0.000000 0.000000 0.000000 0.150776
#
#
# Mechanical properties :
#
#
# Convention : Reuss Voigt Hill
#
# Bulk Modulus (GPa) = 24.41742 25.54289 24.98015
# Shear Modulus (GPa) = 15.58839 21.08789 18.33814
#
# Velocity S-wave (km/s) = 2.99585 3.48446 3.24935
# Velocity P-wave (km/s) = 5.10150 5.55834 5.33481
#
# Compressibility (1/GPa) = 0.04095437
#
# Stress axis : x y z
#
# Youngs Moduli (GPa) = 77.94219 47.31485 44.47109
#
# Poissons Ratio (x) = 0.05286 0.11396
# Poissons Ratio (y) = 0.08708 0.18094
# Poissons Ratio (z) = 0.19973 0.19251
#
# Static dielectric constant tensor:
#      x y z
#    x 1.582100 0.000000 0.000000 
#    y 0.000000 1.615880 0.000000 
#    z 0.000000 0.000000 1.676850 
# 
# From -- ./inp_files/14434.got.cif
#   From: 2010.05.17/outbox.cif.g08.bks.cpg/sg20_8_cif.got.tgz:14434.got - 2010.06.03 22:52:26.
