data_PCOD9316954
_publ_section_title
;
Structure prediction by ZEFSAII (Michael W. Deem and Ramdas Pophale) SiO2 
 PCOD9316954
Probable space group: C 2 2 21
;
_chemical_formula_sum "Si O2"
_cell_formula_units_Z 48
_cell_length_a 23.186838
_cell_length_b 5.450183
_cell_length_c 19.780516
_cell_angle_alpha 90.000000
_cell_angle_beta 90.000000
_cell_angle_gamma 90.000000
_cell_volume 2499.713462
_symmetry_space_group_name_H-M "C 2 2 21"
_symmetry_group_IT_number 20
_symmetry_cell_setting 'orthorhombic'
loop_
_space_group_symop_operation_xyz
x,y,z
-x,-y,1/2+z
x,-y,-z
-x,y,1/2-z
1/2+x,1/2+y,z
1/2-x,1/2-y,1/2+z
1/2+x,1/2-y,-z
1/2-x,1/2+y,1/2-z
loop_
_atom_site_type_symbol
_atom_site_label
_atom_site_fract_x
_atom_site_fract_y
_atom_site_fract_z
Si Si1 0.995933 0.897102 0.667704
Si Si2 0.363817 0.546126 0.357257
Si Si3 0.958268 0.595502 0.183690
Si Si4 0.200396 0.755138 0.041055
Si Si5 0.265813 0.942399 0.344005
Si Si6 0.332233 0.786703 0.769441
O O1 0.029144 0.655026 0.644953
O O2 0.000000 0.903675 0.750000
O O3 0.929445 0.871249 0.647227
O O4 0.023962 0.154462 0.646150
O O5 0.355688 0.350702 0.417844
O O6 0.316245 0.757260 0.368180
O O7 0.348840 0.420213 0.285694
O O8 0.892454 0.600149 0.207762
O O9 0.000000 0.590803 0.250000
O O10 0.240167 0.666334 0.103649
O O11 0.192566 0.500000 0.000000
O O12 0.219827 0.000000 0.000000
O O13 0.205137 0.816269 0.330753
O O14 0.290318 0.033805 0.272092
#
# Coordination Sequence:
#
# PCOD9316954 Si02
#       6
#     8   8   8   8   8   8
#     4  10  19  32  52  80 119 162 184 228 288 362
#     4  11  21  37  60  87 127 161 204 252 313 377
#     4  10  19  32  49  76 126 161 187 221 273 379
#     4  11  24  43  60  85 121 164 220 261 308 366
#     4  11  22  35  60  89 129 164 194 262 312 381
#     4  11  21  33  54  93 133 162 196 237 323 383
#
# _framework density 19.202202
#
# number of rings (size 3 to 8) (size 9 to 14) (size 15 to 20)
#    0.000    1.333    6.667    2.000    2.333    0.000 
#    0.000    0.000    0.000    0.000    0.000    1.167 
#   10.000    0.000    0.000    0.000    0.000    0.000 
#
# Total GULP energy -133745.165088 kJ/mol
# GULP energy per Si atom -5572.715212 kJ/mol
# Density = 1.915850 g / cm^3
# Si number density = 19.202202 Si / 1000 Ang^3
#
#
#
# Elastic Constant Matrix: (Units=GPa)
#
#
# Indices 1 2 3 4 5 6 
#
# 1 71.7953 1.2055 19.0591 0.0000 0.0000 0.0000
# 2 1.2055 115.0090 17.8915 0.0000 0.0000 0.0000
# 3 19.0591 17.8915 35.2846 0.0000 0.0000 0.0000
# 4 0.0000 0.0000 0.0000 -10.1425 0.0000 0.0000
# 5 0.0000 0.0000 0.0000 0.0000 3.3224 0.0000
# 6 0.0000 0.0000 0.0000 0.0000 0.0000 126.0800
#
#
#
# Elastic Compliance Matrix: (Units=1/GPa)
#
#
# Indices 1 2 3 4 5 6 
#
# 1 0.016441 0.001313 -0.009546 0.000000 0.000000 0.000000
# 2 0.001313 0.009544 -0.005549 0.000000 0.000000 0.000000
# 3 -0.009546 -0.005549 0.036311 0.000000 0.000000 0.000000
# 4 0.000000 0.000000 0.000000 -0.098595 0.000000 0.000000
# 5 0.000000 0.000000 0.000000 0.000000 0.300983 0.000000
# 6 0.000000 0.000000 0.000000 0.000000 0.000000 0.007931
#
#
# Mechanical properties :
#
#
# Convention : Reuss Voigt Hill
#
# Bulk Modulus (GPa) = 28.79209 33.15569 30.97389
# Shear Modulus (GPa) = 16.03812 36.11417 26.07615
#
# Velocity S-wave (km/s) = 2.89316 4.34144 3.68907
# Velocity P-wave (km/s) = 5.11734 6.51421 5.85757
#
# Compressibility (1/GPa) = 0.03473176
#
# Stress axis : x y z
#
# Youngs Moduli (GPa) = 60.82510 104.77348 27.53997
#
# Poissons Ratio (x) = -0.13754 0.26290
# Poissons Ratio (y) = -0.07985 0.15281
# Poissons Ratio (z) = 0.58064 0.58135
#
# Static dielectric constant tensor:
#      x y z
#    x 1.671010 0.000000 0.000000 
#    y 0.000000 1.804570 0.000000 
#    z 0.000000 0.000000 1.674200 
# 
# From -- ./inp_files/22822.got.cif
#   From: 2010.05.17/outbox.cif.g08.bks.cpg/sg20_12_cif.got.tgz:22822.got - 2010.06.03 22:52:26.
