data_PCOD9316525
_publ_section_title
;
Structure prediction by ZEFSAII (Michael W. Deem and Ramdas Pophale) SiO2 
 PCOD9316525
Probable space group: C 2 2 21
;
_chemical_formula_sum "Si O2"
_cell_formula_units_Z 44
_cell_length_a 11.411922
_cell_length_b 19.924422
_cell_length_c 8.054343
_cell_angle_alpha 90.000000
_cell_angle_beta 90.000000
_cell_angle_gamma 90.000000
_cell_volume 1831.363889
_symmetry_space_group_name_H-M "C 2 2 21"
_symmetry_group_IT_number 20
_symmetry_cell_setting 'orthorhombic'
loop_
_space_group_symop_operation_xyz
x,y,z
-x,-y,1/2+z
x,-y,-z
-x,y,1/2-z
1/2+x,1/2+y,z
1/2-x,1/2-y,1/2+z
1/2+x,1/2-y,-z
1/2-x,1/2+y,1/2-z
loop_
_atom_site_type_symbol
_atom_site_label
_atom_site_fract_x
_atom_site_fract_y
_atom_site_fract_z
Si Si1 0.918359 0.000000 0.500000
Si Si2 0.253952 0.388216 0.101092
Si Si3 0.144766 0.355434 0.607338
Si Si4 0.774521 0.475181 0.726149
Si Si5 0.918291 0.709081 0.457941
Si Si6 0.604475 0.640776 0.919976
O O1 0.837521 0.990880 0.661052
O O2 0.967307 0.925175 0.478024
O O3 0.182359 0.450635 0.181980
O O4 0.357546 0.369359 0.228408
O O5 0.270134 0.426051 0.922559
O O6 0.182924 0.319970 0.074054
O O7 0.133969 0.431387 0.672033
O O8 0.129224 0.309553 0.772506
O O9 0.269992 0.354718 0.517963
O O10 0.035175 0.332299 0.500853
O O11 0.948376 0.787170 0.459701
#
# Coordination Sequence:
#
# PCOD9316525 Si02
#       6
#     4   8   8   8   8   8
#     4   8  16  30  52  76 100 136 176 214 266 314
#     4   9  17  29  48  73 101 136 173 212 260 314
#     4   9  19  33  47  71 105 137 168 210 263 319
#     4   8  15  31  48  70 105 137 170 212 259 319
#     4  10  19  32  49  73 104 138 174 214 262 319
#     4  10  18  32  52  75 103 135 173 217 265 317
#
# _framework density 24.025808999999999
#
# number of rings (size 3 to 8) (size 9 to 14) (size 15 to 20)
#    0.000    2.909    0.000    1.091    0.000    0.727 
#    0.000   40.000    0.000    0.000    0.000   61.091 
#    0.000    0.000    0.000    0.000    0.000    0.182 
#
# Total GULP energy -122596.250126 kJ/mol
# GULP energy per Si atom -5572.556824 kJ/mol
# Density = 2.397113 g / cm^3
# Si number density = 24.025809 Si / 1000 Ang^3
#
#
#
# Elastic Constant Matrix: (Units=GPa)
#
#
# Indices 1 2 3 4 5 6 
#
# 1 56.3237 26.5631 12.6930 0.0000 0.0000 0.0000
# 2 26.5631 206.8261 30.7454 0.0000 0.0000 0.0000
# 3 12.6930 30.7454 37.1423 0.0000 0.0000 0.0000
# 4 0.0000 0.0000 0.0000 28.8582 0.0000 0.0000
# 5 0.0000 0.0000 0.0000 0.0000 29.4661 0.0000
# 6 0.0000 0.0000 0.0000 0.0000 0.0000 12.6738
#
#
#
# Elastic Compliance Matrix: (Units=1/GPa)
#
#
# Indices 1 2 3 4 5 6 
#
# 1 0.019777 -0.001751 -0.005309 0.000000 0.000000 0.000000
# 2 -0.001751 0.005668 -0.004094 0.000000 0.000000 0.000000
# 3 -0.005309 -0.004094 0.032127 0.000000 0.000000 0.000000
# 4 0.000000 0.000000 0.000000 0.034652 0.000000 0.000000
# 5 0.000000 0.000000 0.000000 0.000000 0.033937 0.000000
# 6 0.000000 0.000000 0.000000 0.000000 0.000000 0.078903
#
#
# Mechanical properties :
#
#
# Convention : Reuss Voigt Hill
#
# Bulk Modulus (GPa) = 28.35752 48.92168 38.63960
# Shear Modulus (GPa) = 20.90941 29.55232 25.23087
#
# Velocity S-wave (km/s) = 2.95327 3.51097 3.24413
# Velocity P-wave (km/s) = 4.84331 6.06978 5.49090
#
# Compressibility (1/GPa) = 0.03526402
#
# Stress axis : x y z
#
# Youngs Moduli (GPa) = 50.56460 176.41691 31.12678
#
# Poissons Ratio (x) = 0.30886 0.16526
# Poissons Ratio (y) = 0.08852 0.12743
# Poissons Ratio (z) = 0.26846 0.72222
#
# Static dielectric constant tensor:
#      x y z
#    x 1.925750 0.000000 0.000000 
#    y 0.000000 1.923890 0.000000 
#    z 0.000000 0.000000 2.011470 
# 
# From -- ./inp_files/8301.got.cif
#   From: 2010.05.17/outbox.cif.g08.bks.cpg/sg20_5_cif.got.tgz:8301.got - 2010.06.03 22:52:26.
