data_PCOD9316003
_publ_section_title
;
Structure prediction by ZEFSAII (Michael W. Deem and Ramdas Pophale) SiO2 
 PCOD9316003
Probable space group: P 21 21 21
;
_chemical_formula_sum "Si O2"
_cell_formula_units_Z 28
_cell_length_a 13.790959
_cell_length_b 13.717990
_cell_length_c 5.853630
_cell_angle_alpha 90.000000
_cell_angle_beta 90.000000
_cell_angle_gamma 90.000000
_cell_volume 1107.414529
_symmetry_space_group_name_H-M "P 21 21 21"
_symmetry_group_IT_number 19
_symmetry_cell_setting 'orthorhombic'
loop_
_space_group_symop_operation_xyz
x,y,z
1/2-x,-y,1/2+z
1/2+x,1/2-y,-z
-x,1/2+y,1/2-z
loop_
_atom_site_type_symbol
_atom_site_label
_atom_site_fract_x
_atom_site_fract_y
_atom_site_fract_z
Si Si1 0.592596 0.954265 0.423491
Si Si2 0.225832 0.410727 0.333323
Si Si3 0.790441 0.533328 0.116449
Si Si4 0.500916 0.997690 0.027123
Si Si5 0.442259 0.299618 0.736579
Si Si6 0.889892 0.796410 0.483743
Si Si7 0.739221 0.271314 0.369963
O O1 0.677489 0.966976 0.233608
O O2 0.584626 0.847377 0.520322
O O3 0.632580 0.022414 0.623951
O O4 0.493273 0.979037 0.300352
O O5 0.206885 0.342284 0.120172
O O6 0.233910 0.340072 0.545022
O O7 0.747980 0.489091 0.873423
O O8 0.780609 0.648087 0.060630
O O9 0.901413 0.498701 0.108036
O O10 0.545207 0.892445 0.934255
O O11 0.547950 0.106363 0.040387
O O12 0.546115 0.252064 0.784452
O O13 0.354476 0.225559 0.686525
O O14 0.846875 0.726235 0.680310
#
# Coordination Sequence:
#
# PCOD9316003 Si02
#       7
#     4   4   4   4   4   4   4
#     4  12  23  42  73 109 153 191 250 331 415 472
#     4  12  23  42  73 109 153 191 250 331 415 472
#     4  12  32  56  80 112 164 222 272 326 412 498
#     4  12  26  49  76 112 154 206 262 340 400 488
#     4  12  26  45  74 111 152 203 266 324 407 486
#     4  12  26  45  74 111 152 203 266 324 407 486
#     4  12  26  49  76 112 154 206 262 340 400 488
#
# _framework density 25.284119
#
# number of rings (size 3 to 8) (size 9 to 14) (size 15 to 20)
#    0.000    0.000    5.714    4.286    6.000    2.286 
#    2.571    0.000    0.000    0.000    0.000    0.000 
#    0.000    0.000    0.000    0.000    0.000    0.000 
#
# Total GULP energy -156105.473753 kJ/mol
# GULP energy per Si atom -5575.195491 kJ/mol
# Density = 2.522657 g / cm^3
# Si number density = 25.284119 Si / 1000 Ang^3
#
#
#
# Elastic Constant Matrix: (Units=GPa)
#
#
# Indices 1 2 3 4 5 6 
#
# 1 61.6599 14.2570 -0.0748 0.0000 0.0000 0.0000
# 2 14.2570 92.1132 17.3349 0.0000 0.0000 0.0000
# 3 -0.0748 17.3349 53.2199 0.0000 0.0000 0.0000
# 4 0.0000 0.0000 0.0000 54.1103 0.0000 0.0000
# 5 0.0000 0.0000 0.0000 0.0000 38.5699 0.0000
# 6 0.0000 0.0000 0.0000 0.0000 0.0000 24.8808
#
#
#
# Elastic Compliance Matrix: (Units=1/GPa)
#
#
# Indices 1 2 3 4 5 6 
#
# 1 0.016863 -0.002785 0.000931 0.000000 0.000000 0.000000
# 2 -0.002785 0.012025 -0.003921 0.000000 0.000000 0.000000
# 3 0.000931 -0.003921 0.020068 0.000000 0.000000 0.000000
# 4 0.000000 0.000000 0.000000 0.018481 0.000000 0.000000
# 5 0.000000 0.000000 0.000000 0.000000 0.025927 0.000000
# 6 0.000000 0.000000 0.000000 0.000000 0.000000 0.040192
#
#
# Mechanical properties :
#
#
# Convention : Reuss Voigt Hill
#
# Bulk Modulus (GPa) = 26.73334 30.00301 28.36818
# Shear Modulus (GPa) = 31.73093 35.21060 33.47077
#
# Velocity S-wave (km/s) = 3.54641 3.73580 3.64233
# Velocity P-wave (km/s) = 5.23120 5.52272 5.37893
#
# Compressibility (1/GPa) = 0.03740647
#
# Stress axis : x y z
#
# Youngs Moduli (GPa) = 59.30102 83.15902 49.82972
#
# Poissons Ratio (x) = 0.23162 -0.04639
# Poissons Ratio (y) = 0.16517 0.19537
# Poissons Ratio (z) = -0.05520 0.32605
#
# Static dielectric constant tensor:
#      x y z
#    x 2.101400 0.000000 0.000000 
#    y 0.000000 1.969980 0.000000 
#    z 0.000000 0.000000 2.111320 
# 
# From -- ./inp_files/1497.got.cif
#   From: 2010.05.17/outbox.cif.g08.bks.cpg/sg19_1_cif.got.tgz:1497.got - 2010.06.03 22:46:19.
