data_PCOD9316520
_publ_section_title
;
Structure prediction by ZEFSAII (Michael W. Deem and Ramdas Pophale) SiO2 
 PCOD9316520
Probable space group: C 2 2 21
;
_chemical_formula_sum "Si O2"
_cell_formula_units_Z 48
_cell_length_a 27.801074
_cell_length_b 14.904883
_cell_length_c 5.438841
_cell_angle_alpha 90.000000
_cell_angle_beta 90.000000
_cell_angle_gamma 90.000000
_cell_volume 2253.702092
_symmetry_space_group_name_H-M "C 2 2 21"
_symmetry_group_IT_number 20
_symmetry_cell_setting 'orthorhombic'
loop_
_space_group_symop_operation_xyz
x,y,z
-x,-y,1/2+z
x,-y,-z
-x,y,1/2-z
1/2+x,1/2+y,z
1/2-x,1/2-y,1/2+z
1/2+x,1/2-y,-z
1/2-x,1/2+y,1/2-z
loop_
_atom_site_type_symbol
_atom_site_label
_atom_site_fract_x
_atom_site_fract_y
_atom_site_fract_z
Si Si1 0.087406 0.000000 0.500000
Si Si2 0.425554 0.697156 0.999703
Si Si3 0.849117 0.000000 0.500000
Si Si4 0.786448 0.344954 0.535281
Si Si5 0.507765 0.146240 0.999863
Si Si6 0.238202 0.866463 0.035476
Si Si7 0.611281 0.231821 0.999728
O O1 0.058430 0.093572 0.500202
O O2 0.119520 0.998897 0.749868
O O3 0.470604 0.767133 0.000117
O O4 0.393065 0.714370 0.242588
O O5 0.393644 0.713136 0.754671
O O6 0.812673 0.084374 0.509035
O O7 0.769288 0.240759 0.538831
O O8 0.762994 0.389652 0.295050
O O9 0.843371 0.333359 0.507334
O O10 0.769834 0.386693 0.793513
O O11 0.500000 0.096387 0.750000
O O12 0.500000 0.096598 0.250000
O O13 0.562040 0.177753 0.999339
#
# Coordination Sequence:
#
# PCOD9316520 Si02
#       7
#     4   8   4   8   8   8   8
#     4  12  22  32  50  69  94 138 182 203 236 300
#     4  10  19  31  46  70  97 130 169 207 241 283
#     4  12  24  38  52  73 104 138 174 213 258 302
#     4  10  19  33  52  73  94 123 167 209 251 301
#     4   8  16  29  44  64  92 125 155 194 249 284
#     4  10  21  34  50  72  96 124 162 212 256 297
#     4  10  18  32  50  67  93 127 161 203 254 293
#
# _framework density 21.298286999999998
#
# number of rings (size 3 to 8) (size 9 to 14) (size 15 to 20)
#    0.000    2.000    0.000    5.000    0.000    2.667 
#    0.000    7.500    0.000    0.000    0.000    0.000 
#    0.000    0.000    0.000  135.000    0.000    0.000 
#
# Total GULP energy -133862.659870 kJ/mol
# GULP energy per Si atom -5577.610828 kJ/mol
# Density = 2.124981 g / cm^3
# Si number density = 21.298287 Si / 1000 Ang^3
#
#
#
# Elastic Constant Matrix: (Units=GPa)
#
#
# Indices 1 2 3 4 5 6 
#
# 1 75.3385 3.1590 25.5674 0.0000 0.0000 0.0000
# 2 3.1590 65.3038 4.2858 0.0000 0.0000 0.0000
# 3 25.5674 4.2858 186.6699 0.0000 0.0000 0.0000
# 4 0.0000 0.0000 0.0000 15.8623 0.0000 0.0000
# 5 0.0000 0.0000 0.0000 0.0000 -1.5827 0.0000
# 6 0.0000 0.0000 0.0000 0.0000 0.0000 -35.6665
#
#
#
# Elastic Compliance Matrix: (Units=1/GPa)
#
#
# Indices 1 2 3 4 5 6 
#
# 1 0.013940 -0.000550 -0.001897 0.000000 0.000000 0.000000
# 2 -0.000550 0.015358 -0.000277 0.000000 0.000000 0.000000
# 3 -0.001897 -0.000277 0.005623 0.000000 0.000000 0.000000
# 4 0.000000 0.000000 0.000000 0.063043 0.000000 0.000000
# 5 0.000000 0.000000 0.000000 0.000000 -0.631847 0.000000
# 6 0.000000 0.000000 0.000000 0.000000 0.000000 -0.028038
#
#
# Mechanical properties :
#
#
# Convention : Reuss Voigt Hill
#
# Bulk Modulus (GPa) = 33.92880 43.70407 38.81644
# Shear Modulus (GPa) = -9.14664 15.34262 3.09799
#
# Velocity S-wave (km/s) = -2.07458 2.68688 1.20736
# Velocity P-wave (km/s) = 3.19787 5.49457 4.49537
#
# Compressibility (1/GPa) = 0.02947348
#
# Stress axis : x y z
#
# Youngs Moduli (GPa) = 71.73518 65.11330 177.83465
#
# Poissons Ratio (x) = 0.03580 0.33730
# Poissons Ratio (y) = 0.03945 0.04931
# Poissons Ratio (z) = 0.13606 0.01806
#
# Static dielectric constant tensor:
#      x y z
#    x 1.720140 0.000000 0.000000 
#    y 0.000000 1.796970 0.000000 
#    z 0.000000 0.000000 1.451870 
# 
# From -- ./inp_files/4270.got.cif
#   From: 2010.05.17/outbox.cif.g08.bks.cpg/sg20_3_cif.got.tgz:4270.got - 2010.06.03 22:52:26.
