data_PCOD9316616
_publ_section_title
;
Structure prediction by ZEFSAII (Michael W. Deem and Ramdas Pophale) SiO2 
 PCOD9316616
Probable space group: C 2 2 21
;
_chemical_formula_sum "Si O2"
_cell_formula_units_Z 44
_cell_length_a 14.938600
_cell_length_b 25.950480
_cell_length_c 5.248969
_cell_angle_alpha 90.000000
_cell_angle_beta 90.000000
_cell_angle_gamma 90.000000
_cell_volume 2034.835481
_symmetry_space_group_name_H-M "C 2 2 21"
_symmetry_group_IT_number 20
_symmetry_cell_setting 'orthorhombic'
loop_
_space_group_symop_operation_xyz
x,y,z
-x,-y,1/2+z
x,-y,-z
-x,y,1/2-z
1/2+x,1/2+y,z
1/2-x,1/2-y,1/2+z
1/2+x,1/2-y,-z
1/2-x,1/2+y,1/2-z
loop_
_atom_site_type_symbol
_atom_site_label
_atom_site_fract_x
_atom_site_fract_y
_atom_site_fract_z
Si Si1 0.764500 0.852805 0.428687
Si Si2 0.500000 0.329641 0.250000
Si Si3 0.440188 0.500000 0.000000
Si Si4 0.913182 0.655080 0.160284
Si Si5 0.630499 0.388821 0.570235
Si Si6 0.647705 0.745672 0.925629
Si Si7 0.500000 0.771003 0.250000
O O1 0.665184 0.871130 0.500166
O O2 0.801777 0.873999 0.162189
O O3 0.764183 0.789270 0.421633
O O4 0.830121 0.868976 0.661180
O O5 0.534116 0.365893 0.478454
O O6 0.417565 0.290034 0.258275
O O7 0.500000 0.511856 0.750000
O O8 0.382411 0.549962 0.071385
O O9 0.857803 0.694293 0.350144
O O10 0.000000 0.622267 0.250000
O O11 0.968636 0.693491 0.979516
O O12 0.589349 0.740838 0.181791
#
# Coordination Sequence:
#
# PCOD9316616 Si02
#       7
#     8   4   4   8   8   8   4
#     4  11  26  38  60  91 128 164 222 267 315 369
#     4  10  18  38  52  91 122 170 201 250 296 370
#     4  12  24  44  72 100 132 170 204 246 336 412
#     4  10  23  38  56  84 118 175 221 267 318 357
#     4  11  25  41  63  95 128 166 207 260 318 392
#     4  10  20  32  53  78 122 165 213 256 301 356
#     4  10  18  34  52  75 112 166 213 252 304 354
#
# _framework density 21.623370000000001
#
# number of rings (size 3 to 8) (size 9 to 14) (size 15 to 20)
#    0.000    1.455    3.636    2.182   12.727    0.000 
#    0.000    0.000    0.000    0.000    0.000    2.545 
#    0.000    0.000    0.000    0.000    0.000    0.000 
#
# Total GULP energy -122500.155718 kJ/mol
# GULP energy per Si atom -5568.188896 kJ/mol
# Density = 2.157415 g / cm^3
# Si number density = 21.623370 Si / 1000 Ang^3
#
#
#
# Elastic Constant Matrix: (Units=GPa)
#
#
# Indices 1 2 3 4 5 6 
#
# 1 109.0007 1.2122 8.3918 0.0000 0.0000 0.0000
# 2 1.2122 54.7988 8.4657 0.0000 0.0000 0.0000
# 3 8.3918 8.4657 84.6807 0.0000 0.0000 0.0000
# 4 0.0000 0.0000 0.0000 18.4029 0.0000 0.0000
# 5 0.0000 0.0000 0.0000 0.0000 35.0099 0.0000
# 6 0.0000 0.0000 0.0000 0.0000 0.0000 9.5548
#
#
#
# Elastic Compliance Matrix: (Units=1/GPa)
#
#
# Indices 1 2 3 4 5 6 
#
# 1 0.009245 -0.000064 -0.000910 0.000000 0.000000 0.000000
# 2 -0.000064 0.018535 -0.001847 0.000000 0.000000 0.000000
# 3 -0.000910 -0.001847 0.012084 0.000000 0.000000 0.000000
# 4 0.000000 0.000000 0.000000 0.054339 0.000000 0.000000
# 5 0.000000 0.000000 0.000000 0.000000 0.028563 0.000000
# 6 0.000000 0.000000 0.000000 0.000000 0.000000 0.104659
#
#
# Mechanical properties :
#
#
# Convention : Reuss Voigt Hill
#
# Bulk Modulus (GPa) = 29.21984 31.62439 30.42212
# Shear Modulus (GPa) = 20.45203 27.95422 24.20312
#
# Velocity S-wave (km/s) = 3.07877 3.59942 3.34923
# Velocity P-wave (km/s) = 5.11672 5.65078 5.39037
#
# Compressibility (1/GPa) = 0.03422332
#
# Stress axis : x y z
#
# Youngs Moduli (GPa) = 108.16647 53.95114 82.75517
#
# Poissons Ratio (x) = 0.00345 0.07529
# Poissons Ratio (y) = 0.00692 0.15282
# Poissons Ratio (z) = 0.09841 0.09963
#
# Static dielectric constant tensor:
#      x y z
#    x 1.946300 0.000000 0.000000 
#    y 0.000000 1.791950 0.000000 
#    z 0.000000 0.000000 2.011310 
# 
# From -- ./inp_files/1980.got.cif
#   From: 2010.05.17/outbox.cif.g08.bks.cpg/sg20_1_cif.got.tgz:1980.got - 2010.06.03 22:52:26.
