data_PCOD9316239
_publ_section_title
;
Structure prediction by ZEFSAII (Michael W. Deem and Ramdas Pophale) SiO2 
 PCOD9316239
Probable space group: C 2 2 21
;
_chemical_formula_sum "Si O2"
_cell_formula_units_Z 44
_cell_length_a 15.277863
_cell_length_b 7.970011
_cell_length_c 13.822981
_cell_angle_alpha 90.000000
_cell_angle_beta 90.000000
_cell_angle_gamma 90.000000
_cell_volume 1683.151634
_symmetry_space_group_name_H-M "C 2 2 21"
_symmetry_group_IT_number 20
_symmetry_cell_setting 'orthorhombic'
loop_
_space_group_symop_operation_xyz
x,y,z
-x,-y,1/2+z
x,-y,-z
-x,y,1/2-z
1/2+x,1/2+y,z
1/2-x,1/2-y,1/2+z
1/2+x,1/2-y,-z
1/2-x,1/2+y,1/2-z
loop_
_atom_site_type_symbol
_atom_site_label
_atom_site_fract_x
_atom_site_fract_y
_atom_site_fract_z
Si Si1 0.500000 0.636469 0.250000
Si Si2 0.385410 0.255029 0.088036
Si Si3 0.208326 0.548393 0.254323
Si Si4 0.364654 0.359633 0.884721
Si Si5 0.549710 0.894532 0.848442
Si Si6 0.642445 0.441640 0.111658
O O1 0.558571 0.736277 0.327720
O O2 0.573582 0.539761 0.183749
O O3 0.327365 0.200082 0.178643
O O4 0.408239 0.452827 0.102376
O O5 0.465484 0.123446 0.082429
O O6 0.341028 0.269295 0.983872
O O7 0.280508 0.602047 0.177761
O O8 0.125111 0.479013 0.191681
O O9 0.263498 0.451076 0.335841
O O10 0.500000 0.842395 0.750000
O O11 0.609723 0.747533 0.889136
O O12 0.642983 0.500000 0.000000
#
# Coordination Sequence:
#
# PCOD9316239 Si02
#       6
#     4   8   8   8   8   8
#     4  10  16  32  52  82 108 144 170 230 286 312
#     4  10  20  37  57  87 110 153 187 226 286 342
#     4  10  21  32  53  88 115 144 182 236 279 333
#     4  10  20  35  56  86 119 139 183 241 278 327
#     4  10  18  35  57  80 111 148 183 223 280 337
#     4  11  20  32  56  88 115 143 186 235 278 330
#
# _framework density 26.141435000000001
#
# number of rings (size 3 to 8) (size 9 to 14) (size 15 to 20)
#    0.000    1.818    2.727    4.364    2.545    0.000 
#    0.000    0.000    0.000    0.000  156.000    0.000 
#    0.000    0.000    0.000    0.000    0.000    0.000 
#
# Total GULP energy -122594.143248 kJ/mol
# GULP energy per Si atom -5572.461057 kJ/mol
# Density = 2.608194 g / cm^3
# Si number density = 26.141435 Si / 1000 Ang^3
#
#
#
# Elastic Constant Matrix: (Units=GPa)
#
#
# Indices 1 2 3 4 5 6 
#
# 1 126.0117 20.4700 56.0619 0.0000 0.0000 0.0000
# 2 20.4700 43.3144 11.5325 0.0000 0.0000 0.0000
# 3 56.0619 11.5325 154.4353 0.0000 0.0000 0.0000
# 4 0.0000 0.0000 0.0000 37.7176 0.0000 0.0000
# 5 0.0000 0.0000 0.0000 0.0000 32.8394 0.0000
# 6 0.0000 0.0000 0.0000 0.0000 0.0000 10.6215
#
#
#
# Elastic Compliance Matrix: (Units=1/GPa)
#
#
# Indices 1 2 3 4 5 6 
#
# 1 0.010059 -0.003858 -0.003363 0.000000 0.000000 0.000000
# 2 -0.003858 0.025035 -0.000469 0.000000 0.000000 0.000000
# 3 -0.003363 -0.000469 0.007731 0.000000 0.000000 0.000000
# 4 0.000000 0.000000 0.000000 0.026513 0.000000 0.000000
# 5 0.000000 0.000000 0.000000 0.000000 0.030451 0.000000
# 6 0.000000 0.000000 0.000000 0.000000 0.000000 0.094148
#
#
# Mechanical properties :
#
#
# Convention : Reuss Voigt Hill
#
# Bulk Modulus (GPa) = 36.43760 55.54335 45.99047
# Shear Modulus (GPa) = 22.88678 31.94885 27.41781
#
# Velocity S-wave (km/s) = 2.96209 3.49972 3.24207
# Velocity P-wave (km/s) = 5.06631 6.13385 5.62546
#
# Compressibility (1/GPa) = 0.02744418
#
# Stress axis : x y z
#
# Youngs Moduli (GPa) = 99.41481 39.94376 129.34653
#
# Poissons Ratio (x) = 0.15411 0.43504
# Poissons Ratio (y) = 0.38356 0.06065
# Poissons Ratio (z) = 0.33437 0.01873
#
# Static dielectric constant tensor:
#      x y z
#    x 2.106080 0.000000 0.000000 
#    y 0.000000 2.188780 0.000000 
#    z 0.000000 0.000000 2.104320 
# 
# From -- ./inp_files/20620.got.cif
#   From: 2010.05.17/outbox.cif.g08.bks.cpg/sg20_11_cif.got.tgz:20620.got - 2010.06.03 22:52:26.
