data_PCOD9316360
_publ_section_title
;
Structure prediction by ZEFSAII (Michael W. Deem and Ramdas Pophale) SiO2 
 PCOD9316360
Probable space group: C 2 2 21
;
_chemical_formula_sum "Si O2"
_cell_formula_units_Z 56
_cell_length_a 21.629104
_cell_length_b 8.356658
_cell_length_c 12.757598
_cell_angle_alpha 90.000000
_cell_angle_beta 90.000000
_cell_angle_gamma 90.000000
_cell_volume 2305.897884
_symmetry_space_group_name_H-M "C 2 2 21"
_symmetry_group_IT_number 20
_symmetry_cell_setting 'orthorhombic'
loop_
_space_group_symop_operation_xyz
x,y,z
-x,-y,1/2+z
x,-y,-z
-x,y,1/2-z
1/2+x,1/2+y,z
1/2-x,1/2-y,1/2+z
1/2+x,1/2-y,-z
1/2-x,1/2+y,1/2-z
loop_
_atom_site_type_symbol
_atom_site_label
_atom_site_fract_x
_atom_site_fract_y
_atom_site_fract_z
Si Si1 0.475373 0.253951 0.439632
Si Si2 0.610244 0.257055 0.456250
Si Si3 0.259359 0.505298 0.283069
Si Si4 0.869933 0.577271 0.841896
Si Si5 0.954108 0.410635 0.339774
Si Si6 0.338526 0.653989 0.569212
Si Si7 0.246548 0.672150 0.910108
O O1 0.543210 0.333441 0.428309
O O2 0.463521 0.193158 0.558082
O O3 0.412133 0.344848 0.418455
O O4 0.470206 0.092356 0.370593
O O5 0.605854 0.210190 0.578828
O O6 0.680376 0.320676 0.442633
O O7 0.608244 0.092695 0.388585
O O8 0.203094 0.432393 0.349738
O O9 0.314735 0.387907 0.314849
O O10 0.243881 0.486576 0.161380
O O11 0.266323 0.683742 0.326454
O O12 0.889462 0.595542 0.721466
O O13 0.000000 0.355096 0.250000
O O14 0.321129 0.500000 0.500000
O O15 0.303546 0.794418 0.502875
#
# Coordination Sequence:
#
# PCOD9316360 Si02
#       7
#     8   8   8   8   8   8   8
#     4  11  22  33  56  92 121 150 197 248 303 356
#     4  10  18  32  58  85 114 153 197 240 293 362
#     4  10  21  36  63  85 116 162 201 251 301 355
#     4  10  17  33  56  83 118 153 189 239 305 355
#     4  11  19  32  54  91 123 143 182 253 312 346
#     4  10  22  41  58  81 124 167 201 239 303 374
#     4  10  21  40  60  90 118 160 208 249 303 368
#
# _framework density 24.285551000000002
#
# number of rings (size 3 to 8) (size 9 to 14) (size 15 to 20)
#    0.000    1.714    4.286    1.714    4.000    0.000 
#    0.000    0.000    3.143    0.857    0.000    0.000 
#    0.000    0.000    0.000    0.000    0.000    0.000 
#
# Total GULP energy -156220.995561 kJ/mol
# GULP energy per Si atom -5579.321270 kJ/mol
# Density = 2.423028 g / cm^3
# Si number density = 24.285551 Si / 1000 Ang^3
#
#
#
# Elastic Constant Matrix: (Units=GPa)
#
#
# Indices 1 2 3 4 5 6 
#
# 1 132.6841 13.2836 34.0160 0.0000 0.0000 0.0000
# 2 13.2836 28.4448 10.5080 0.0000 0.0000 0.0000
# 3 34.0160 10.5080 55.4873 0.0000 0.0000 0.0000
# 4 0.0000 0.0000 0.0000 -20.2302 0.0000 0.0000
# 5 0.0000 0.0000 0.0000 0.0000 30.8684 0.0000
# 6 0.0000 0.0000 0.0000 0.0000 0.0000 15.6920
#
#
#
# Elastic Compliance Matrix: (Units=1/GPa)
#
#
# Indices 1 2 3 4 5 6 
#
# 1 0.009086 -0.002350 -0.005125 0.000000 0.000000 0.000000
# 2 -0.002350 0.038408 -0.005833 0.000000 0.000000 0.000000
# 3 -0.005125 -0.005833 0.022269 0.000000 0.000000 0.000000
# 4 0.000000 0.000000 0.000000 -0.049431 0.000000 0.000000
# 5 0.000000 0.000000 0.000000 0.000000 0.032396 0.000000
# 6 0.000000 0.000000 0.000000 0.000000 0.000000 0.063727
#
#
# Mechanical properties :
#
#
# Convention : Reuss Voigt Hill
#
# Bulk Modulus (GPa) = 23.17672 36.91461 30.04566
# Shear Modulus (GPa) = 31.75579 15.85329 23.80454
#
# Velocity S-wave (km/s) = 3.62000 2.55774 3.13420
# Velocity P-wave (km/s) = 5.19968 4.89448 5.04939
#
# Compressibility (1/GPa) = 0.04314675
#
# Stress axis : x y z
#
# Youngs Moduli (GPa) = 110.06152 26.03625 44.90630
#
# Poissons Ratio (x) = 0.06118 0.23014
# Poissons Ratio (y) = 0.25862 0.26194
# Poissons Ratio (z) = 0.56406 0.15187
#
# Static dielectric constant tensor:
#      x y z
#    x 2.162050 0.000000 0.000000 
#    y 0.000000 2.202970 0.000000 
#    z 0.000000 0.000000 1.941230 
# 
# From -- ./inp_files/16318.got.cif
#   From: 2010.05.17/outbox.cif.g08.bks.cpg/sg20_9_cif.got.tgz:16318.got - 2010.06.03 22:52:26.
