data_PCOD9316695
_publ_section_title
;
Structure prediction by ZEFSAII (Michael W. Deem and Ramdas Pophale) SiO2 
 PCOD9316695
Probable space group: C 2 2 21
;
_chemical_formula_sum "Si O2"
_cell_formula_units_Z 48
_cell_length_a 15.398801
_cell_length_b 12.926038
_cell_length_c 12.514126
_cell_angle_alpha 90.000000
_cell_angle_beta 90.000000
_cell_angle_gamma 90.000000
_cell_volume 2490.880303
_symmetry_space_group_name_H-M "C 2 2 21"
_symmetry_group_IT_number 20
_symmetry_cell_setting 'orthorhombic'
loop_
_space_group_symop_operation_xyz
x,y,z
-x,-y,1/2+z
x,-y,-z
-x,y,1/2-z
1/2+x,1/2+y,z
1/2-x,1/2-y,1/2+z
1/2+x,1/2-y,-z
1/2-x,1/2+y,1/2-z
loop_
_atom_site_type_symbol
_atom_site_label
_atom_site_fract_x
_atom_site_fract_y
_atom_site_fract_z
Si Si1 0.382440 0.463835 0.609163
Si Si2 0.306746 0.900563 0.930098
Si Si3 0.043389 0.714752 0.529153
Si Si4 0.567987 0.679200 0.846233
Si Si5 0.939157 0.500000 0.500000
Si Si6 0.500000 0.317210 0.750000
Si Si7 0.600989 0.904601 0.789422
O O1 0.430566 0.500000 0.500000
O O2 0.297255 0.400438 0.574469
O O3 0.369746 0.579457 0.655412
O O4 0.432760 0.392895 0.691210
O O5 0.340327 0.924498 0.811877
O O6 0.360900 0.805213 0.979466
O O7 0.328686 0.000000 0.000000
O O8 0.040238 0.750640 0.652235
O O9 0.988638 0.792522 0.452665
O O10 0.995592 0.603613 0.517557
O O11 0.500000 0.662963 0.750000
O O12 0.616823 0.786249 0.823419
O O13 0.887350 0.522301 0.391219
O O14 0.500000 0.911938 0.750000
#
# Coordination Sequence:
#
# PCOD9316695 Si02
#       7
#     8   8   8   8   4   4   8
#     4  11  24  44  64  93 132 175 215 271 330 385
#     4  11  22  40  62  93 132 168 207 277 335 378
#     4  11  21  38  63  99 124 168 222 271 327 391
#     4  10  18  38  70  89 122 176 222 252 324 407
#     4  10  20  34  60  92 130 164 216 270 324 392
#     4  12  26  40  70 100 122 174 234 272 312 406
#     4  10  18  35  63  92 121 176 219 258 333 402
#
# _framework density 19.270296999999999
#
# number of rings (size 3 to 8) (size 9 to 14) (size 15 to 20)
#    0.000    1.333    8.333    0.000    3.500    0.000 
#    6.000    0.000    5.500    0.000    0.000    0.000 
#    0.000    0.000    0.000    0.000    0.000    0.000 
#
# Total GULP energy -133677.754816 kJ/mol
# GULP energy per Si atom -5569.906451 kJ/mol
# Density = 1.922644 g / cm^3
# Si number density = 19.270297 Si / 1000 Ang^3
#
#
#
# Elastic Constant Matrix: (Units=GPa)
#
#
# Indices 1 2 3 4 5 6 
#
# 1 61.3759 38.9168 40.4781 0.0000 0.0000 0.0000
# 2 38.9168 87.1913 45.9975 0.0000 0.0000 0.0000
# 3 40.4781 45.9975 167.0332 0.0000 0.0000 0.0000
# 4 0.0000 0.0000 0.0000 31.9626 0.0000 0.0000
# 5 0.0000 0.0000 0.0000 0.0000 30.5445 0.0000
# 6 0.0000 0.0000 0.0000 0.0000 0.0000 13.9664
#
#
#
# Elastic Compliance Matrix: (Units=1/GPa)
#
#
# Indices 1 2 3 4 5 6 
#
# 1 0.024261 -0.009040 -0.003390 0.000000 0.000000 0.000000
# 2 -0.009040 0.016787 -0.002432 0.000000 0.000000 0.000000
# 3 -0.003390 -0.002432 0.007478 0.000000 0.000000 0.000000
# 4 0.000000 0.000000 0.000000 0.031287 0.000000 0.000000
# 5 0.000000 0.000000 0.000000 0.000000 0.032739 0.000000
# 6 0.000000 0.000000 0.000000 0.000000 0.000000 0.071601
#
#
# Mechanical properties :
#
#
# Convention : Reuss Voigt Hill
#
# Bulk Modulus (GPa) = 53.18644 62.93170 58.05907
# Shear Modulus (GPa) = 22.71244 27.97522 25.34383
#
# Velocity S-wave (km/s) = 3.43683 3.81429 3.63047
# Velocity P-wave (km/s) = 6.58857 7.21988 6.91144
#
# Compressibility (1/GPa) = 0.01880178
#
# Stress axis : x y z
#
# Youngs Moduli (GPa) = 41.21865 59.56967 133.72516
#
# Poissons Ratio (x) = 0.53853 0.45330
# Poissons Ratio (y) = 0.37263 0.32522
# Poissons Ratio (z) = 0.13972 0.14487
#
# Static dielectric constant tensor:
#      x y z
#    x 1.698990 0.000000 0.000000 
#    y 0.000000 1.703790 0.000000 
#    z 0.000000 0.000000 1.710000 
# 
# From -- ./inp_files/15758.got.cif
#   From: 2010.05.17/outbox.cif.g08.bks.cpg/sg20_8_cif.got.tgz:15758.got - 2010.06.03 22:52:26.
