data_PCOD9316608
_publ_section_title
;
Structure prediction by ZEFSAII (Michael W. Deem and Ramdas Pophale) SiO2 
 PCOD9316608
Probable space group: C 2 2 21
;
_chemical_formula_sum "Si O2"
_cell_formula_units_Z 48
_cell_length_a 14.103509
_cell_length_b 21.578831
_cell_length_c 8.290642
_cell_angle_alpha 90.000000
_cell_angle_beta 90.000000
_cell_angle_gamma 90.000000
_cell_volume 2523.151081
_symmetry_space_group_name_H-M "C 2 2 21"
_symmetry_group_IT_number 20
_symmetry_cell_setting 'orthorhombic'
loop_
_space_group_symop_operation_xyz
x,y,z
-x,-y,1/2+z
x,-y,-z
-x,y,1/2-z
1/2+x,1/2+y,z
1/2-x,1/2-y,1/2+z
1/2+x,1/2-y,-z
1/2-x,1/2+y,1/2-z
loop_
_atom_site_type_symbol
_atom_site_label
_atom_site_fract_x
_atom_site_fract_y
_atom_site_fract_z
Si Si1 0.752291 0.073004 0.975740
Si Si2 0.782139 0.665220 0.791976
Si Si3 0.742869 0.291396 0.870266
Si Si4 0.587971 0.351248 0.636102
Si Si5 0.406456 0.149227 0.332449
Si Si6 0.465896 0.775616 0.072920
O O1 0.737123 0.100532 0.794956
O O2 0.854481 0.096614 0.039473
O O3 0.666880 0.103896 0.079939
O O4 0.746210 0.000000 0.000000
O O5 0.767053 0.718043 0.656156
O O6 0.886079 0.674737 0.871442
O O7 0.722799 0.686099 0.948688
O O8 0.666687 0.322816 0.755435
O O9 0.845008 0.313210 0.800204
O O10 0.500000 0.372079 0.750000
O O11 0.565809 0.292937 0.516404
O O12 0.500000 0.119355 0.250000
O O13 0.454251 0.195116 0.462269
O O14 0.500000 0.756795 0.250000
#
# Coordination Sequence:
#
# PCOD9316608 Si02
#       6
#     8   8   8   8   8   8
#     4  11  25  45  60  85 132 175 209 255 308 386
#     4  11  20  37  57  92 125 166 199 259 324 369
#     4  10  21  34  63  95 133 152 205 274 325 378
#     4   9  21  40  64  90 118 162 209 267 321 360
#     4  11  21  37  60  98 130 162 212 253 321 381
#     4  10  18  33  62  95 124 156 198 266 322 372
#
# _framework density 19.023831000000001
#
# number of rings (size 3 to 8) (size 9 to 14) (size 15 to 20)
#    0.000    1.667    3.333    3.000    4.667    0.000 
#    3.000    5.833    0.000    0.000    0.000    0.000 
#    0.000    0.000    0.000    0.000    0.000    0.000 
#
# Total GULP energy -133670.206144 kJ/mol
# GULP energy per Si atom -5569.591923 kJ/mol
# Density = 1.898053 g / cm^3
# Si number density = 19.023831 Si / 1000 Ang^3
#
#
#
# Elastic Constant Matrix: (Units=GPa)
#
#
# Indices 1 2 3 4 5 6 
#
# 1 113.7348 44.7264 21.1560 0.0000 0.0000 0.0000
# 2 44.7264 137.9770 61.4230 0.0000 0.0000 0.0000
# 3 21.1560 61.4230 89.4011 0.0000 0.0000 0.0000
# 4 0.0000 0.0000 0.0000 15.3715 0.0000 0.0000
# 5 0.0000 0.0000 0.0000 0.0000 35.1495 0.0000
# 6 0.0000 0.0000 0.0000 0.0000 0.0000 24.2080
#
#
#
# Elastic Compliance Matrix: (Units=1/GPa)
#
#
# Indices 1 2 3 4 5 6 
#
# 1 0.010079 -0.003177 -0.000202 0.000000 0.000000 0.000000
# 2 -0.003177 0.011443 -0.007110 0.000000 0.000000 0.000000
# 3 -0.000202 -0.007110 0.016118 0.000000 0.000000 0.000000
# 4 0.000000 0.000000 0.000000 0.065055 0.000000 0.000000
# 5 0.000000 0.000000 0.000000 0.000000 0.028450 0.000000
# 6 0.000000 0.000000 0.000000 0.000000 0.000000 0.041309
#
#
# Mechanical properties :
#
#
# Convention : Reuss Voigt Hill
#
# Bulk Modulus (GPa) = 60.01818 66.19150 63.10484
# Shear Modulus (GPa) = 25.12733 29.19965 27.16349
#
# Velocity S-wave (km/s) = 3.63827 3.92203 3.78281
# Velocity P-wave (km/s) = 7.01903 7.44172 7.23347
#
# Compressibility (1/GPa) = 0.01666162
#
# Stress axis : x y z
#
# Youngs Moduli (GPa) = 99.21142 87.39294 62.04183
#
# Poissons Ratio (x) = 0.27767 0.01255
# Poissons Ratio (y) = 0.31523 0.44110
# Poissons Ratio (z) = 0.02006 0.62134
#
# Static dielectric constant tensor:
#      x y z
#    x 1.805460 0.000000 0.000000 
#    y 0.000000 1.641040 0.000000 
#    z 0.000000 0.000000 1.728810 
# 
# From -- ./inp_files/8585.got.cif
#   From: 2010.05.17/outbox.cif.g08.bks.cpg/sg20_5_cif.got.tgz:8585.got - 2010.06.03 22:52:26.
