data_PCOD9316158
_publ_section_title
;
Structure prediction by ZEFSAII (Michael W. Deem and Ramdas Pophale) SiO2 
 PCOD9316158
Probable space group: P 21 21 21
;
_chemical_formula_sum "Si O2"
_cell_formula_units_Z 32
_cell_length_a 9.000000
_cell_length_b 12.000000
_cell_length_c 15.000000
_cell_angle_alpha 90.000000
_cell_angle_beta 90.000000
_cell_angle_gamma 90.000000
_cell_volume 1620.000000
_symmetry_space_group_name_H-M "P 21 21 21"
_symmetry_group_IT_number 19
_symmetry_cell_setting 'orthorhombic'
loop_
_space_group_symop_operation_xyz
x,y,z
1/2-x,-y,1/2+z
1/2+x,1/2-y,-z
-x,1/2+y,1/2-z
loop_
_atom_site_type_symbol
_atom_site_label
_atom_site_fract_x
_atom_site_fract_y
_atom_site_fract_z
Si Si1 0.105531 0.677154 0.965224
Si Si2 0.659347 0.975010 0.530087
Si Si3 0.822898 0.077045 0.816248
Si Si4 0.895772 0.654473 0.794601
Si Si5 0.350824 0.809192 0.727007
Si Si6 0.685470 0.498486 0.915895
Si Si7 0.317848 0.877414 0.930047
Si Si8 0.702161 0.854943 0.714135
O O1 0.223191 0.576174 0.960960
O O2 0.204644 0.787143 0.972239
O O3 0.005805 0.687745 0.876012
O O4 0.986449 0.655530 0.043512
O O5 0.665694 0.936077 0.425201
O O6 0.707326 0.887619 0.608374
O O7 0.490358 0.011680 0.558554
O O8 0.724924 0.186891 0.787092
O O9 0.989441 0.092559 0.773751
O O10 0.746039 0.966954 0.771160
O O11 0.766507 0.582789 0.845195
O O12 0.816114 0.758206 0.745371
O O13 0.302189 0.865766 0.822456
O O14 0.531854 0.813408 0.730186
O O15 0.305978 0.883117 0.640325
O O16 0.774499 0.513342 0.010424
#
# Coordination Sequence:
#
# PCOD9316158 Si02
#       8
#     4   4   4   4   4   4   4   4
#     4  11  23  42  70 106 140 186 249 308 359 437
#     4  11  25  48  71 105 153 193 250 306 375 447
#     4  12  27  47  79 110 151 199 247 313 379 446
#     4  11  26  44  75 105 148 194 249 309 371 447
#     4  11  26  48  72 105 151 197 242 315 371 450
#     4  10  27  44  71 108 143 195 244 306 369 445
#     4  11  23  40  70 104 137 188 244 304 363 435
#     4  11  27  47  72 107 147 200 251 303 379 441
#
# _framework density 19.753086
#
# number of rings (size 3 to 8) (size 9 to 14) (size 15 to 20)
#    0.000    1.000    2.500    1.500   17.500    2.000 
#    0.000    0.000    0.000    0.000    0.000    0.000 
#    0.000    0.000    0.000    0.000    0.000    0.000 
#
# Total GULP energy -178695.786613 kJ/mol
# GULP energy per Si atom -5584.243332 kJ/mol
# Density = 1.970813 g / cm^3
# Si number density = 19.753086 Si / 1000 Ang^3
#
#
#
# Elastic Constant Matrix: (Units=GPa)
#
#
# Indices 1 2 3 4 5 6 
#
# 1 130.2086 54.1657 41.3322 0.0000 0.0000 0.0000
# 2 54.1657 84.0185 31.9164 0.0000 0.0000 0.0000
# 3 41.3322 31.9164 154.9511 0.0000 0.0000 0.0000
# 4 0.0000 0.0000 0.0000 33.5221 0.0000 0.0000
# 5 0.0000 0.0000 0.0000 0.0000 44.6173 0.0000
# 6 0.0000 0.0000 0.0000 0.0000 0.0000 44.3433
#
#
#
# Elastic Compliance Matrix: (Units=1/GPa)
#
#
# Indices 1 2 3 4 5 6 
#
# 1 0.010837 -0.006389 -0.001575 0.000000 0.000000 0.000000
# 2 -0.006389 0.016678 -0.001731 0.000000 0.000000 0.000000
# 3 -0.001575 -0.001731 0.007230 0.000000 0.000000 0.000000
# 4 0.000000 0.000000 0.000000 0.029831 0.000000 0.000000
# 5 0.000000 0.000000 0.000000 0.000000 0.022413 0.000000
# 6 0.000000 0.000000 0.000000 0.000000 0.000000 0.022551
#
#
# Mechanical properties :
#
#
# Convention : Reuss Voigt Hill
#
# Bulk Modulus (GPa) = 65.11781 69.33409 67.22595
# Shear Modulus (GPa) = 37.29955 40.61414 38.95684
#
# Velocity S-wave (km/s) = 4.35016 4.53933 4.44575
# Velocity P-wave (km/s) = 7.63343 7.91522 7.77560
#
# Compressibility (1/GPa) = 0.01535678
#
# Stress axis : x y z
#
# Youngs Moduli (GPa) = 92.27235 59.95774 138.30571
#
# Poissons Ratio (x) = 0.38304 0.21782
# Poissons Ratio (y) = 0.58948 0.23945
# Poissons Ratio (z) = 0.14532 0.10380
#
# Static dielectric constant tensor:
#      x y z
#    x 1.691270 0.000000 0.000000 
#    y 0.000000 1.714470 0.000000 
#    z 0.000000 0.000000 1.718710 
# 
# From -- ./inp_files/5892.got.cif
#   From: 2010.05.17/outbox.ucp.g08.bks.cvg/sg19_3_cif.got.tgz:5892.got - 2010.06.11 13:13:52.
