data_PCOD9316850
_publ_section_title
;
Structure prediction by ZEFSAII (Michael W. Deem and Ramdas Pophale) SiO2 
 PCOD9316850
Probable space group: C 2 2 21
;
_chemical_formula_sum "Si O2"
_cell_formula_units_Z 48
_cell_length_a 27.532845
_cell_length_b 5.897852
_cell_length_c 14.157746
_cell_angle_alpha 90.000000
_cell_angle_beta 90.000000
_cell_angle_gamma 90.000000
_cell_volume 2299.000557
_symmetry_space_group_name_H-M "C 2 2 21"
_symmetry_group_IT_number 20
_symmetry_cell_setting 'orthorhombic'
loop_
_space_group_symop_operation_xyz
x,y,z
-x,-y,1/2+z
x,-y,-z
-x,y,1/2-z
1/2+x,1/2+y,z
1/2-x,1/2-y,1/2+z
1/2+x,1/2-y,-z
1/2-x,1/2+y,1/2-z
loop_
_atom_site_type_symbol
_atom_site_label
_atom_site_fract_x
_atom_site_fract_y
_atom_site_fract_z
Si Si1 0.553706 0.120857 0.398406
Si Si2 0.553696 0.879153 0.898405
Si Si3 0.148577 0.646935 0.644111
Si Si4 0.351435 0.146939 0.644114
Si Si5 0.105576 0.000000 0.500000
Si Si6 0.776164 0.500000 0.500000
Si Si7 0.605567 0.500000 0.000000
Si Si8 0.723852 0.000000 0.500000
O O1 0.500006 0.113613 0.355703
O O2 0.571251 0.370694 0.425665
O O3 0.550461 0.000000 0.500000
O O4 0.598488 0.995149 0.350112
O O5 0.598473 0.004881 0.850103
O O6 0.571244 0.629321 0.925666
O O7 0.550451 0.000000 0.000000
O O8 0.161066 0.724935 0.750001
O O9 0.190313 0.500335 0.594208
O O10 0.137880 0.839083 0.565771
O O11 0.309703 0.000316 0.594207
O O12 0.362129 0.339087 0.565774
O O13 0.750007 0.250001 0.499997
#
# Coordination Sequence:
#
# PCOD9316850 Si02
#       8
#     8   8   8   8   4   4   4   4
#     4   9  18  35  63  96 135 181 225 279 348 424
#     4   9  18  35  63  96 135 181 225 279 348 424
#     4  11  24  43  68 100 140 182 232 294 359 427
#     4  11  24  43  68 100 140 182 232 294 359 427
#     4  10  18  40  63 100 140 183 230 287 343 420
#     4  12  27  50  74 100 137 179 238 303 358 422
#     4  10  18  40  63 100 140 183 230 287 343 420
#     4  12  27  50  74 100 137 179 238 303 358 422
#
# _framework density 20.878637999999999
#
# number of rings (size 3 to 8) (size 9 to 14) (size 15 to 20)
#    0.000    1.667    5.000    1.500    0.000    4.667 
#    0.000    0.000    0.000    0.000    0.000    0.000 
#    0.000    0.000    0.000    0.000    0.000    0.000 
#
# Total GULP energy -133670.854961 kJ/mol
# GULP energy per Si atom -5569.618957 kJ/mol
# Density = 2.083112 g / cm^3
# Si number density = 20.878638 Si / 1000 Ang^3
#
#
#
# Elastic Constant Matrix: (Units=GPa)
#
#
# Indices 1 2 3 4 5 6 
#
# 1 125.9291 58.9635 57.0651 0.0000 0.0000 0.0000
# 2 58.9635 105.4056 31.9596 0.0000 0.0000 0.0000
# 3 57.0651 31.9596 137.7467 0.0000 0.0000 0.0000
# 4 0.0000 0.0000 0.0000 6.1432 0.0000 0.0000
# 5 0.0000 0.0000 0.0000 0.0000 -24.5273 0.0000
# 6 0.0000 0.0000 0.0000 0.0000 0.0000 306.6521
#
#
#
# Elastic Compliance Matrix: (Units=1/GPa)
#
#
# Indices 1 2 3 4 5 6 
#
# 1 0.012353 -0.005764 -0.003780 0.000000 0.000000 0.000000
# 2 -0.005764 0.012895 -0.000604 0.000000 0.000000 0.000000
# 3 -0.003780 -0.000604 0.008966 0.000000 0.000000 0.000000
# 4 0.000000 0.000000 0.000000 0.162781 0.000000 0.000000
# 5 0.000000 0.000000 0.000000 0.000000 -0.040771 0.000000
# 6 0.000000 0.000000 0.000000 0.000000 0.000000 0.003261
#
#
# Mechanical properties :
#
#
# Convention : Reuss Voigt Hill
#
# Bulk Modulus (GPa) = 71.85319 73.89531 72.87425
# Shear Modulus (GPa) = 27.11215 72.39315 49.75265
#
# Velocity S-wave (km/s) = 3.60746 5.89479 4.88684
# Velocity P-wave (km/s) = 7.20008 9.04439 8.17442
#
# Compressibility (1/GPa) = 0.01391727
#
# Stress axis : x y z
#
# Youngs Moduli (GPa) = 80.95336 77.55186 111.53447
#
# Poissons Ratio (x) = 0.44700 0.42161
# Poissons Ratio (y) = 0.46661 0.06736
# Poissons Ratio (z) = 0.30601 0.04683
#
# Static dielectric constant tensor:
#      x y z
#    x 1.803430 0.000000 0.000000 
#    y 0.000000 -1.199410 0.000000 
#    z 0.000000 0.000000 1.714030 
# 
# From -- ./inp_files/22198.got.cif
#   From: 2010.05.17/outbox.cif.g08.bks.cpg/sg20_12_cif.got.tgz:22198.got - 2010.06.03 22:52:26.
