data_PCOD9316996
_publ_section_title
;
Structure prediction by ZEFSAII (Michael W. Deem and Ramdas Pophale) SiO2 
 PCOD9316996
Probable space group: C 2 2 21
;
_chemical_formula_sum "Si O2"
_cell_formula_units_Z 56
_cell_length_a 20.922331
_cell_length_b 14.665675
_cell_length_c 9.713656
_cell_angle_alpha 90.000000
_cell_angle_beta 90.000000
_cell_angle_gamma 90.000000
_cell_volume 2980.539243
_symmetry_space_group_name_H-M "C 2 2 21"
_symmetry_group_IT_number 20
_symmetry_cell_setting 'orthorhombic'
loop_
_space_group_symop_operation_xyz
x,y,z
-x,-y,1/2+z
x,-y,-z
-x,y,1/2-z
1/2+x,1/2+y,z
1/2-x,1/2-y,1/2+z
1/2+x,1/2-y,-z
1/2-x,1/2+y,1/2-z
loop_
_atom_site_type_symbol
_atom_site_label
_atom_site_fract_x
_atom_site_fract_y
_atom_site_fract_z
Si Si1 0.155581 0.335234 0.774208
Si Si2 0.148380 0.333717 0.299163
Si Si3 0.322350 0.287394 0.035173
Si Si4 0.064641 0.492260 0.664921
Si Si5 0.779250 0.067263 0.621250
Si Si6 0.328261 0.264348 0.527987
Si Si7 0.776596 0.053975 0.127420
O O1 0.160439 0.240967 0.689011
O O2 0.110746 0.407867 0.701658
O O3 0.225118 0.382964 0.792759
O O4 0.135854 0.305127 0.926433
O O5 0.138368 0.282177 0.441704
O O6 0.099759 0.416022 0.282614
O O7 0.219034 0.378382 0.314539
O O8 0.148443 0.257950 0.180075
O O9 0.246843 0.263320 0.026126
O O10 0.325872 0.384515 0.960072
O O11 0.055738 0.500000 0.500000
O O12 0.000000 0.480744 0.750000
O O13 0.826465 0.135364 0.539060
O O14 0.754791 0.000000 0.500000
O O15 0.804396 0.010526 0.752887
O O16 0.742916 0.000000 0.000000
#
# Coordination Sequence:
#
# PCOD9316996 Si02
#       7
#     8   8   8   8   8   8   8
#     4  11  21  36  52  75 115 152 191 236 285 328
#     4  11  20  36  53  75 113 154 192 231 285 329
#     4  10  19  33  50  77 110 153 193 221 280 345
#     4  12  27  42  61  80 108 155 206 247 282 331
#     4  11  19  32  52  80 117 153 192 225 277 344
#     4  10  21  30  52  80 110 153 186 227 277 356
#     4  11  20  30  53  82 116 154 192 226 277 351
#
# _framework density 18.788546
#
# number of rings (size 3 to 8) (size 9 to 14) (size 15 to 20)
#    0.000    1.143    2.857    8.143    2.000    0.000 
#    0.000    0.000    0.000    0.000    0.000    0.000 
#    0.000   17.143    0.000    0.000    0.000    0.000 
#
# Total GULP energy -156059.026772 kJ/mol
# GULP energy per Si atom -5573.536670 kJ/mol
# Density = 1.874578 g / cm^3
# Si number density = 18.788546 Si / 1000 Ang^3
#
#
#
# Elastic Constant Matrix: (Units=GPa)
#
#
# Indices 1 2 3 4 5 6 
#
# 1 32.3869 16.5625 20.2688 0.0000 0.0000 0.0000
# 2 16.5625 72.1004 34.8471 0.0000 0.0000 0.0000
# 3 20.2688 34.8471 122.9109 0.0000 0.0000 0.0000
# 4 0.0000 0.0000 0.0000 50.9509 0.0000 0.0000
# 5 0.0000 0.0000 0.0000 0.0000 17.1035 0.0000
# 6 0.0000 0.0000 0.0000 0.0000 0.0000 9.4668
#
#
#
# Elastic Compliance Matrix: (Units=1/GPa)
#
#
# Indices 1 2 3 4 5 6 
#
# 1 0.036813 -0.006399 -0.004256 0.000000 0.000000 0.000000
# 2 -0.006399 0.017184 -0.003817 0.000000 0.000000 0.000000
# 3 -0.004256 -0.003817 0.009920 0.000000 0.000000 0.000000
# 4 0.000000 0.000000 0.000000 0.019627 0.000000 0.000000
# 5 0.000000 0.000000 0.000000 0.000000 0.058467 0.000000
# 6 0.000000 0.000000 0.000000 0.000000 0.000000 0.105633
#
#
# Mechanical properties :
#
#
# Convention : Reuss Voigt Hill
#
# Bulk Modulus (GPa) = 28.59398 41.19501 34.89449
# Shear Modulus (GPa) = 17.34628 25.88556 21.61592
#
# Velocity S-wave (km/s) = 3.04178 3.71581 3.39556
# Velocity P-wave (km/s) = 5.25247 6.35475 5.82972
#
# Compressibility (1/GPa) = 0.03497240
#
# Stress axis : x y z
#
# Youngs Moduli (GPa) = 27.16427 58.19288 100.80664
#
# Poissons Ratio (x) = 0.37239 0.42908
# Poissons Ratio (y) = 0.17383 0.38475
# Poissons Ratio (z) = 0.11562 0.22210
#
# Static dielectric constant tensor:
#      x y z
#    x 1.599720 0.000000 0.000000 
#    y 0.000000 1.762470 0.000000 
#    z 0.000000 0.000000 1.683030 
# 
# From -- ./inp_files/10227.got.cif
#   From: 2010.05.17/outbox.cif.g08.bks.cpg/sg20_6_cif.got.tgz:10227.got - 2010.06.03 22:52:26.
