data_PCOD9316821
_publ_section_title
;
Structure prediction by ZEFSAII (Michael W. Deem and Ramdas Pophale) SiO2 
 PCOD9316821
Probable space group: C 2 2 21
;
_chemical_formula_sum "Si O2"
_cell_formula_units_Z 60
_cell_length_a 16.508033
_cell_length_b 14.865579
_cell_length_c 12.204670
_cell_angle_alpha 90.000000
_cell_angle_beta 90.000000
_cell_angle_gamma 90.000000
_cell_volume 2995.043943
_symmetry_space_group_name_H-M "C 2 2 21"
_symmetry_group_IT_number 20
_symmetry_cell_setting 'orthorhombic'
loop_
_space_group_symop_operation_xyz
x,y,z
-x,-y,1/2+z
x,-y,-z
-x,y,1/2-z
1/2+x,1/2+y,z
1/2-x,1/2-y,1/2+z
1/2+x,1/2-y,-z
1/2-x,1/2+y,1/2-z
loop_
_atom_site_type_symbol
_atom_site_label
_atom_site_fract_x
_atom_site_fract_y
_atom_site_fract_z
Si Si1 0.318710 0.671094 0.666120
Si Si2 0.450341 0.768390 0.141855
Si Si3 0.176693 0.370338 0.737986
Si Si4 0.500000 0.130788 0.250000
Si Si5 0.169727 0.102312 0.368296
Si Si6 0.326606 0.892305 0.014580
Si Si7 0.647559 0.594767 0.610149
Si Si8 0.512759 0.709921 0.922162
O O1 0.319113 0.776965 0.694792
O O2 0.252343 0.637310 0.581874
O O3 0.305374 0.623793 0.782165
O O4 0.408690 0.657185 0.618913
O O5 0.500000 0.793018 0.250000
O O6 0.384695 0.688043 0.163692
O O7 0.401019 0.848226 0.081619
O O8 0.512342 0.730713 0.050560
O O9 0.087904 0.415851 0.752607
O O10 0.255493 0.417193 0.787757
O O11 0.181936 0.353762 0.608367
O O12 0.497571 0.197868 0.354042
O O13 0.195128 0.112843 0.496474
O O14 0.121680 0.008743 0.375409
O O15 0.333567 0.000000 0.000000
O O16 0.567512 0.654136 0.602444
#
# Coordination Sequence:
#
# PCOD9316821 Si02
#       8
#     8   8   8   4   8   8   8   8
#     4  11  22  37  68  93 125 172 214 263 323 404
#     4  11  24  44  61  95 130 169 215 270 329 387
#     4  11  21  41  67  90 127 174 219 267 327 388
#     4  10  18  38  68  88 114 170 222 262 310 400
#     4  10  22  38  65  93 133 171 201 271 325 395
#     4  12  26  45  63  94 133 168 220 280 328 379
#     4  10  19  39  60  97 134 165 210 262 328 389
#     4  10  19  38  64  96 126 168 213 260 326 397
#
# _framework density 20.033093999999998
#
# number of rings (size 3 to 8) (size 9 to 14) (size 15 to 20)
#    0.000    1.333    5.333    1.600    1.867    1.067 
#    8.400    0.000    2.933    0.000    0.000    0.000 
#    0.000    0.000    0.000    0.000    0.000    0.000 
#
# Total GULP energy -167303.504369 kJ/mol
# GULP energy per Si atom -5576.783479 kJ/mol
# Density = 1.998750 g / cm^3
# Si number density = 20.033094 Si / 1000 Ang^3
#
#
#
# Elastic Constant Matrix: (Units=GPa)
#
#
# Indices 1 2 3 4 5 6 
#
# 1 63.7130 3.0032 62.8389 0.0000 0.0000 0.0000
# 2 3.0032 49.4367 -0.7386 0.0000 0.0000 0.0000
# 3 62.8389 -0.7386 129.1710 0.0000 0.0000 0.0000
# 4 0.0000 0.0000 0.0000 15.6017 0.0000 0.0000
# 5 0.0000 0.0000 0.0000 0.0000 39.7694 0.0000
# 6 0.0000 0.0000 0.0000 0.0000 0.0000 2.7693
#
#
#
# Elastic Compliance Matrix: (Units=1/GPa)
#
#
# Indices 1 2 3 4 5 6 
#
# 1 0.030382 -0.002067 -0.014792 0.000000 0.000000 0.000000
# 2 -0.002067 0.020370 0.001122 0.000000 0.000000 0.000000
# 3 -0.014792 0.001122 0.014944 0.000000 0.000000 0.000000
# 4 0.000000 0.000000 0.000000 0.064096 0.000000 0.000000
# 5 0.000000 0.000000 0.000000 0.000000 0.025145 0.000000
# 6 0.000000 0.000000 0.000000 0.000000 0.000000 0.361105
#
#
# Mechanical properties :
#
#
# Convention : Reuss Voigt Hill
#
# Bulk Modulus (GPa) = 29.22045 41.39199 35.30622
# Shear Modulus (GPa) = 8.94578 23.44254 16.19416
#
# Velocity S-wave (km/s) = 2.11547 3.42452 2.84627
# Velocity P-wave (km/s) = 4.53703 6.02852 5.33516
#
# Compressibility (1/GPa) = 0.03422260
#
# Stress axis : x y z
#
# Youngs Moduli (GPa) = 32.91448 49.09134 66.91638
#
# Poissons Ratio (x) = 0.10145 0.98982
# Poissons Ratio (y) = 0.06802 -0.07507
# Poissons Ratio (z) = 0.48687 -0.05507
#
# Static dielectric constant tensor:
#      x y z
#    x 1.721540 0.000000 0.000000 
#    y 0.000000 1.756670 0.000000 
#    z 0.000000 0.000000 1.748860 
# 
# From -- ./inp_files/15869.got.cif
#   From: 2010.05.17/outbox.cif.g08.bks.cpg/sg20_8_cif.got.tgz:15869.got - 2010.06.03 22:52:26.
