data_PCOD9316083
_publ_section_title
;
Structure prediction by ZEFSAII (Michael W. Deem and Ramdas Pophale) SiO2 
 PCOD9316083
Probable space group: P 21 21 21
;
_chemical_formula_sum "Si O2"
_cell_formula_units_Z 20
_cell_length_a 21.836217
_cell_length_b 4.768649
_cell_length_c 6.870554
_cell_angle_alpha 90.000000
_cell_angle_beta 90.000000
_cell_angle_gamma 90.000000
_cell_volume 715.425665
_symmetry_space_group_name_H-M "P 21 21 21"
_symmetry_group_IT_number 19
_symmetry_cell_setting 'orthorhombic'
loop_
_space_group_symop_operation_xyz
x,y,z
1/2-x,-y,1/2+z
1/2+x,1/2-y,-z
-x,1/2+y,1/2-z
loop_
_atom_site_type_symbol
_atom_site_label
_atom_site_fract_x
_atom_site_fract_y
_atom_site_fract_z
Si Si1 0.706569 0.126188 0.310182
Si Si2 0.959846 0.344154 0.790985
Si Si3 0.332882 0.680511 0.745800
Si Si4 0.659226 0.604253 0.081222
Si Si5 0.042851 0.625032 0.288619
O O1 0.677210 0.185822 0.521032
O O2 0.662031 0.478488 0.863588
O O3 0.773192 0.986856 0.330688
O O4 0.668208 0.910160 0.177269
O O5 0.906228 0.482099 0.668341
O O6 0.014306 0.565552 0.807576
O O7 0.938615 0.256267 0.004591
O O8 0.209482 0.083940 0.805931
O O9 0.396174 0.514895 0.702624
O O10 0.993415 0.375876 0.316434
#
# Coordination Sequence:
#
# PCOD9316083 Si02
#       5
#     4   4   4   4   4
#     4  12  29  53  88 127 173 235 292 375 453 540
#     4  12  26  52  82 120 176 233 300 367 450 541
#     4  12  29  58  90 128 183 231 304 374 458 544
#     4  12  29  53  86 124 175 232 296 372 450 536
#     4  12  29  52  86 125 173 237 298 370 459 545
#
# _framework density 27.955386000000001
#
# number of rings (size 3 to 8) (size 9 to 14) (size 15 to 20)
#    0.000    0.000    4.000    3.600    5.600    6.400 
#    0.000    0.000    0.000    0.000    0.000    0.000 
#    0.000    0.000    0.000    0.000    0.000    0.000 
#
# Total GULP energy -112308.903546 kJ/mol
# GULP energy per Si atom -5615.445177 kJ/mol
# Density = 2.789176 g / cm^3
# Si number density = 27.955386 Si / 1000 Ang^3
#
#
#
# Elastic Constant Matrix: (Units=GPa)
#
#
# Indices 1 2 3 4 5 6 
#
# 1 150.9164 32.5990 49.7886 0.0000 0.0000 0.0000
# 2 32.5990 160.6972 60.3675 0.0000 0.0000 0.0000
# 3 49.7886 60.3675 199.3713 0.0000 0.0000 0.0000
# 4 0.0000 0.0000 0.0000 52.6213 0.0000 0.0000
# 5 0.0000 0.0000 0.0000 0.0000 58.1808 0.0000
# 6 0.0000 0.0000 0.0000 0.0000 0.0000 55.4576
#
#
#
# Elastic Compliance Matrix: (Units=1/GPa)
#
#
# Indices 1 2 3 4 5 6 
#
# 1 0.007335 -0.000903 -0.001559 0.000000 0.000000 0.000000
# 2 -0.000903 0.007133 -0.001934 0.000000 0.000000 0.000000
# 3 -0.001559 -0.001934 0.005991 0.000000 0.000000 0.000000
# 4 0.000000 0.000000 0.000000 0.019004 0.000000 0.000000
# 5 0.000000 0.000000 0.000000 0.000000 0.017188 0.000000
# 6 0.000000 0.000000 0.000000 0.000000 0.000000 0.018032
#
#
# Mechanical properties :
#
#
# Convention : Reuss Voigt Hill
#
# Bulk Modulus (GPa) = 85.70587 88.49943 87.10265
# Shear Modulus (GPa) = 57.23317 57.80061 57.51689
#
# Velocity S-wave (km/s) = 4.52962 4.55202 4.54084
# Velocity P-wave (km/s) = 7.62111 7.70415 7.66274
#
# Compressibility (1/GPa) = 0.01166781
#
# Stress axis : x y z
#
# Youngs Moduli (GPa) = 136.32665 140.20119 166.92645
#
# Poissons Ratio (x) = 0.12654 0.26016
# Poissons Ratio (y) = 0.12304 0.32288
# Poissons Ratio (z) = 0.21247 0.27119
#
# Static dielectric constant tensor:
#      x y z
#    x 2.161010 0.000000 0.000000 
#    y 0.000000 2.149480 0.000000 
#    z 0.000000 0.000000 2.241670 
# 
# From -- ./inp_files/4084.got.cif
#   From: 2010.05.17/outbox.cif.g08.bks.cpg/sg19_3_cif.got.tgz:4084.got - 2010.06.03 22:46:19.
