data_PCOD9316117
_publ_section_title
;
Structure prediction by ZEFSAII (Michael W. Deem and Ramdas Pophale) SiO2 
 PCOD9316117
Probable space group: P 21 21 21
;
_chemical_formula_sum "Si O2"
_cell_formula_units_Z 32
_cell_length_a 20.753577
_cell_length_b 9.524472
_cell_length_c 6.993824
_cell_angle_alpha 90.000000
_cell_angle_beta 90.000000
_cell_angle_gamma 90.000000
_cell_volume 1382.447251
_symmetry_space_group_name_H-M "P 21 21 21"
_symmetry_group_IT_number 19
_symmetry_cell_setting 'orthorhombic'
loop_
_space_group_symop_operation_xyz
x,y,z
1/2-x,-y,1/2+z
1/2+x,1/2-y,-z
-x,1/2+y,1/2-z
loop_
_atom_site_type_symbol
_atom_site_label
_atom_site_fract_x
_atom_site_fract_y
_atom_site_fract_z
Si Si1 0.919691 0.160618 0.432997
Si Si2 0.803088 0.341029 0.332236
Si Si3 0.158784 0.840189 0.610444
Si Si4 0.457989 0.660116 0.019743
Si Si5 0.658783 0.340191 0.389557
Si Si6 0.457989 0.339885 0.019743
Si Si7 0.080308 0.339381 0.067003
Si Si8 0.196911 0.158970 0.167764
O O1 0.852521 0.244387 0.446913
O O2 0.937379 0.156376 0.205217
O O3 0.978973 0.243418 0.526351
O O4 0.914320 0.999999 0.496536
O O5 0.830446 0.349212 0.118617
O O6 0.729126 0.293419 0.317625
O O7 0.800913 0.499999 0.411435
O O8 0.101019 0.731312 0.632127
O O9 0.229127 0.793419 0.682378
O O10 0.143737 0.999999 0.675232
O O11 0.398982 0.731314 0.132127
O O12 0.471124 0.500000 0.077106
O O13 0.437379 0.656377 0.794783
O O14 0.669552 0.349215 0.618618
O O15 0.521026 0.243418 0.026351
O O16 0.147478 0.255611 0.053086
#
# Coordination Sequence:
#
# PCOD9316117 Si02
#       8
#     4   4   4   4   4   4   4   4
#     4   9  16  26  42  64  88 113 143 180 218 254
#     4   9  17  29  45  65  89 116 144 175 213 256
#     4   9  17  29  45  65  89 116 144 175 213 256
#     4   9  16  26  42  64  88 113 143 180 218 254
#     4   9  17  29  45  65  89 116 144 175 213 256
#     4   9  16  26  42  64  88 113 143 180 218 254
#     4   9  16  26  42  64  88 113 143 180 218 254
#     4   9  17  29  45  65  89 116 144 175 213 256
#
# _framework density 23.147355999999998
#
# number of rings (size 3 to 8) (size 9 to 14) (size 15 to 20)
#    0.000    3.000    0.000    1.500    0.000    7.000 
#    0.000    0.000    0.000    1.500    0.000    0.000 
#    0.000    0.000    0.000    0.000    0.000    0.000 
#
# Total GULP energy -178987.624229 kJ/mol
# GULP energy per Si atom -5593.363257 kJ/mol
# Density = 2.309467 g / cm^3
# Si number density = 23.147356 Si / 1000 Ang^3
#
#
#
# Elastic Constant Matrix: (Units=GPa)
#
#
# Indices 1 2 3 4 5 6 
#
# 1 185.6946 130.7831 15.6505 0.0000 0.0000 0.0000
# 2 130.7831 167.0724 5.0649 0.0000 0.0000 0.0000
# 3 15.6505 5.0649 65.9501 0.0000 0.0000 0.0000
# 4 0.0000 0.0000 0.0000 5.4321 0.0000 0.0000
# 5 0.0000 0.0000 0.0000 0.0000 37.9123 0.0000
# 6 0.0000 0.0000 0.0000 0.0000 0.0000 41.5162
#
#
#
# Elastic Compliance Matrix: (Units=1/GPa)
#
#
# Indices 1 2 3 4 5 6 
#
# 1 0.012309 -0.009569 -0.002186 0.000000 0.000000 0.000000
# 2 -0.009569 0.013438 0.001239 0.000000 0.000000 0.000000
# 3 -0.002186 0.001239 0.015587 0.000000 0.000000 0.000000
# 4 0.000000 0.000000 0.000000 0.184092 0.000000 0.000000
# 5 0.000000 0.000000 0.000000 0.000000 0.026377 0.000000
# 6 0.000000 0.000000 0.000000 0.000000 0.000000 0.024087
#
#
# Mechanical properties :
#
#
# Convention : Reuss Voigt Hill
#
# Bulk Modulus (GPa) = 49.25821 80.19044 64.72432
# Shear Modulus (GPa) = 16.46423 34.78668 25.62545
#
# Velocity S-wave (km/s) = 2.66987 3.88085 3.33086
# Velocity P-wave (km/s) = 5.55255 7.40270 6.54335
#
# Compressibility (1/GPa) = 0.02030118
#
# Stress axis : x y z
#
# Youngs Moduli (GPa) = 81.24300 74.41374 64.15758
#
# Poissons Ratio (x) = 0.71206 0.14025
# Poissons Ratio (y) = 0.77741 -0.07947
# Poissons Ratio (z) = 0.17760 -0.09218
#
# Static dielectric constant tensor:
#      x y z
#    x 1.810230 0.000000 0.000000 
#    y 0.000000 1.801180 0.000000 
#    z 0.000000 0.000000 1.976810 
# 
# From -- ./inp_files/3699.got.cif
#   From: 2010.05.17/outbox.cif.g08.bks.cpg/sg19_2_cif.got.tgz:3699.got - 2010.06.03 22:46:19.
