data_PCOD9316581
_publ_section_title
;
Structure prediction by ZEFSAII (Michael W. Deem and Ramdas Pophale) SiO2 
 PCOD9316581
Probable space group: C 2 2 21
;
_chemical_formula_sum "Si O2"
_cell_formula_units_Z 56
_cell_length_a 27.540495
_cell_length_b 6.703420
_cell_length_c 13.004642
_cell_angle_alpha 90.000000
_cell_angle_beta 90.000000
_cell_angle_gamma 90.000000
_cell_volume 2400.858550
_symmetry_space_group_name_H-M "C 2 2 21"
_symmetry_group_IT_number 20
_symmetry_cell_setting 'orthorhombic'
loop_
_space_group_symop_operation_xyz
x,y,z
-x,-y,1/2+z
x,-y,-z
-x,y,1/2-z
1/2+x,1/2+y,z
1/2-x,1/2-y,1/2+z
1/2+x,1/2-y,-z
1/2-x,1/2+y,1/2-z
loop_
_atom_site_type_symbol
_atom_site_label
_atom_site_fract_x
_atom_site_fract_y
_atom_site_fract_z
Si Si1 0.056269 0.251742 0.128421
Si Si2 0.868642 0.500000 0.500000
Si Si3 0.020939 0.270115 0.529256
Si Si4 0.195459 0.258376 0.657393
Si Si5 0.866812 0.775109 0.978108
Si Si6 0.138637 0.104372 0.252475
Si Si7 0.000000 0.408323 0.750000
Si Si8 0.794963 0.435939 0.335437
O O1 0.086533 0.098099 0.197463
O O2 0.040153 0.434449 0.204287
O O3 0.094927 0.335207 0.045124
O O4 0.011300 0.169714 0.061436
O O5 0.830934 0.558032 0.410165
O O6 0.010781 0.500000 0.500000
O O7 0.077306 0.235552 0.510364
O O8 0.011987 0.271088 0.651480
O O9 0.165666 0.339342 0.560675
O O10 0.211766 0.434640 0.732879
O O11 0.242320 0.128660 0.625028
O O12 0.159541 0.109873 0.718880
O O13 0.865118 0.761740 0.855954
O O14 0.849678 0.000000 0.000000
O O15 0.176403 0.230007 0.184852
#
# Coordination Sequence:
#
# PCOD9316581 Si02
#       8
#     8   4   8   8   8   8   4   8
#     4  10  19  38  61  93 131 171 213 265 325 392
#     4  10  22  38  62  92 128 172 210 274 322 380
#     4  10  20  35  62  93 125 169 222 260 325 393
#     4  11  24  42  65  97 128 169 224 273 336 396
#     4  10  24  40  60  93 129 166 214 277 330 384
#     4  10  22  42  65  90 131 169 214 274 325 390
#     4  10  18  32  62  96 126 164 222 262 314 396
#     4  11  24  41  65  89 130 171 215 269 336 389
#
# _framework density 23.324988999999999
#
# number of rings (size 3 to 8) (size 9 to 14) (size 15 to 20)
#    0.000    1.714    3.571    1.714    9.000    0.000 
#    0.000    7.143    0.000    0.000    0.000    0.000 
#    0.000    0.000    0.000    0.000    0.000    0.000 
#
# Total GULP energy -156267.844420 kJ/mol
# GULP energy per Si atom -5580.994444 kJ/mol
# Density = 2.327190 g / cm^3
# Si number density = 23.324989 Si / 1000 Ang^3
#
#
#
# Elastic Constant Matrix: (Units=GPa)
#
#
# Indices 1 2 3 4 5 6 
#
# 1 169.3482 8.3628 73.9554 0.0000 0.0000 0.0000
# 2 8.3628 48.2769 11.2565 0.0000 0.0000 0.0000
# 3 73.9554 11.2565 121.3668 0.0000 0.0000 0.0000
# 4 0.0000 0.0000 0.0000 30.6604 0.0000 0.0000
# 5 0.0000 0.0000 0.0000 0.0000 49.2934 0.0000
# 6 0.0000 0.0000 0.0000 0.0000 0.0000 25.1357
#
#
#
# Elastic Compliance Matrix: (Units=1/GPa)
#
#
# Indices 1 2 3 4 5 6 
#
# 1 0.008049 -0.000256 -0.004881 0.000000 0.000000 0.000000
# 2 -0.000256 0.021180 -0.001808 0.000000 0.000000 0.000000
# 3 -0.004881 -0.001808 0.011382 0.000000 0.000000 0.000000
# 4 0.000000 0.000000 0.000000 0.032615 0.000000 0.000000
# 5 0.000000 0.000000 0.000000 0.000000 0.020287 0.000000
# 6 0.000000 0.000000 0.000000 0.000000 0.000000 0.039784
#
#
# Mechanical properties :
#
#
# Convention : Reuss Voigt Hill
#
# Bulk Modulus (GPa) = 37.42587 58.46014 47.94301
# Shear Modulus (GPa) = 32.03192 37.37904 34.70548
#
# Velocity S-wave (km/s) = 3.70981 4.00751 3.86153
# Velocity P-wave (km/s) = 5.86775 6.82138 6.36246
#
# Compressibility (1/GPa) = 0.02671949
#
# Stress axis : x y z
#
# Youngs Moduli (GPa) = 124.23518 47.21468 87.86184
#
# Poissons Ratio (x) = 0.01210 0.42886
# Poissons Ratio (y) = 0.03183 0.15887
# Poissons Ratio (z) = 0.60640 0.08538
#
# Static dielectric constant tensor:
#      x y z
#    x 1.879340 0.000000 0.000000 
#    y 0.000000 1.953940 0.000000 
#    z 0.000000 0.000000 1.934410 
# 
# From -- ./inp_files/17086.got.cif
#   From: 2010.05.17/outbox.cif.g08.bks.cpg/sg20_9_cif.got.tgz:17086.got - 2010.06.03 22:52:26.
