data_PCOD9316735
_publ_section_title
;
Structure prediction by ZEFSAII (Michael W. Deem and Ramdas Pophale) SiO2 
 PCOD9316735
Probable space group: C 2 2 21
;
_chemical_formula_sum "Si O2"
_cell_formula_units_Z 48
_cell_length_a 17.129040
_cell_length_b 7.980004
_cell_length_c 18.326901
_cell_angle_alpha 90.000000
_cell_angle_beta 90.000000
_cell_angle_gamma 90.000000
_cell_volume 2505.100574
_symmetry_space_group_name_H-M "C 2 2 21"
_symmetry_group_IT_number 20
_symmetry_cell_setting 'orthorhombic'
loop_
_space_group_symop_operation_xyz
x,y,z
-x,-y,1/2+z
x,-y,-z
-x,y,1/2-z
1/2+x,1/2+y,z
1/2-x,1/2-y,1/2+z
1/2+x,1/2-y,-z
1/2-x,1/2+y,1/2-z
loop_
_atom_site_type_symbol
_atom_site_label
_atom_site_fract_x
_atom_site_fract_y
_atom_site_fract_z
Si Si1 0.898973 0.752975 0.953775
Si Si2 0.442042 0.323744 0.360338
Si Si3 0.339222 0.360335 0.808515
Si Si4 0.500000 0.606118 0.250000
Si Si5 0.534769 0.500000 0.000000
Si Si6 0.902114 0.382094 0.892856
Si Si7 0.180924 0.756493 0.258500
O O1 0.841295 0.836752 0.895554
O O2 0.915245 0.570277 0.919989
O O3 0.975969 0.867311 0.961717
O O4 0.870770 0.720703 0.036547
O O5 0.473127 0.482117 0.314338
O O6 0.418152 0.398648 0.438770
O O7 0.515561 0.202073 0.371705
O O8 0.375411 0.240147 0.311689
O O9 0.423306 0.299208 0.777726
O O10 0.268399 0.270530 0.768333
O O11 0.332364 0.556647 0.789417
O O12 0.845527 0.366072 0.823629
#
# Coordination Sequence:
#
# PCOD9316735 Si02
#       7
#     8   8   8   4   4   8   8
#     4  10  20  34  61  84 116 158 206 240 304 372
#     4  10  18  37  60  87 118 157 198 248 300 355
#     4  11  21  39  57  86 118 158 197 247 298 358
#     4  10  18  38  60  82 114 156 206 228 298 364
#     4  10  18  36  62  86 116 164 204 244 296 372
#     4  10  19  36  59  88 116 156 200 253 302 366
#     4  11  22  38  59  88 126 153 202 256 306 354
#
# _framework density 19.160909
#
# number of rings (size 3 to 8) (size 9 to 14) (size 15 to 20)
#    0.000    1.667    5.000    2.000    0.000    0.000 
#    6.000    5.000    0.000    4.000    0.000    0.000 
#    0.000    0.000    0.000    0.000    0.000    0.000 
#
# Total GULP energy -133899.234556 kJ/mol
# GULP energy per Si atom -5579.134773 kJ/mol
# Density = 1.911730 g / cm^3
# Si number density = 19.160909 Si / 1000 Ang^3
#
#
#
# Elastic Constant Matrix: (Units=GPa)
#
#
# Indices 1 2 3 4 5 6 
#
# 1 102.9337 16.4187 57.6454 0.0000 0.0000 0.0000
# 2 16.4187 47.7360 39.0771 0.0000 0.0000 0.0000
# 3 57.6454 39.0771 130.6391 0.0000 0.0000 0.0000
# 4 0.0000 0.0000 0.0000 34.3860 0.0000 0.0000
# 5 0.0000 0.0000 0.0000 0.0000 24.6265 0.0000
# 6 0.0000 0.0000 0.0000 0.0000 0.0000 22.1761
#
#
#
# Elastic Compliance Matrix: (Units=1/GPa)
#
#
# Indices 1 2 3 4 5 6 
#
# 1 0.012907 0.000295 -0.005784 0.000000 0.000000 0.000000
# 2 0.000295 0.027748 -0.008430 0.000000 0.000000 0.000000
# 3 -0.005784 -0.008430 0.012728 0.000000 0.000000 0.000000
# 4 0.000000 0.000000 0.000000 0.029082 0.000000 0.000000
# 5 0.000000 0.000000 0.000000 0.000000 0.040607 0.000000
# 6 0.000000 0.000000 0.000000 0.000000 0.000000 0.045094
#
#
# Mechanical properties :
#
#
# Convention : Reuss Voigt Hill
#
# Bulk Modulus (GPa) = 39.14507 56.39903 47.77205
# Shear Modulus (GPa) = 24.44771 27.44888 25.94829
#
# Velocity S-wave (km/s) = 3.57587 3.78900 3.68398
# Velocity P-wave (km/s) = 6.12561 6.97427 6.56367
#
# Compressibility (1/GPa) = 0.02554600
#
# Stress axis : x y z
#
# Youngs Moduli (GPa) = 77.47846 36.03835 78.56445
#
# Poissons Ratio (x) = -0.01064 0.45438
# Poissons Ratio (y) = -0.02287 0.66233
# Poissons Ratio (z) = 0.44810 0.30382
#
# Static dielectric constant tensor:
#      x y z
#    x 1.645910 0.000000 0.000000 
#    y 0.000000 1.687540 0.000000 
#    z 0.000000 0.000000 1.713080 
# 
# From -- ./inp_files/23645.got.cif
#   From: 2010.05.17/outbox.cif.g08.bks.cpg/sg20_12_cif.got.tgz:23645.got - 2010.06.03 22:52:26.
