data_PCOD9316603
_publ_section_title
;
Structure prediction by ZEFSAII (Michael W. Deem and Ramdas Pophale) SiO2 
 PCOD9316603
Probable space group: C 2 2 21
;
_chemical_formula_sum "Si O2"
_cell_formula_units_Z 64
_cell_length_a 24.953261
_cell_length_b 8.897537
_cell_length_c 15.741488
_cell_angle_alpha 90.000000
_cell_angle_beta 90.000000
_cell_angle_gamma 90.000000
_cell_volume 3494.965511
_symmetry_space_group_name_H-M "C 2 2 21"
_symmetry_group_IT_number 20
_symmetry_cell_setting 'orthorhombic'
loop_
_space_group_symop_operation_xyz
x,y,z
-x,-y,1/2+z
x,-y,-z
-x,y,1/2-z
1/2+x,1/2+y,z
1/2-x,1/2-y,1/2+z
1/2+x,1/2-y,-z
1/2-x,1/2+y,1/2-z
loop_
_atom_site_type_symbol
_atom_site_label
_atom_site_fract_x
_atom_site_fract_y
_atom_site_fract_z
Si Si1 0.842120 0.483806 0.792775
Si Si2 0.176942 0.264021 0.862484
Si Si3 0.105366 0.664533 0.984060
Si Si4 0.757984 0.010276 0.398683
Si Si5 0.916312 0.054008 0.707770
Si Si6 0.952972 0.319867 0.818261
Si Si7 0.011798 0.133709 0.943728
Si Si8 0.847605 0.776529 0.689583
O O1 0.822421 0.385387 0.711826
O O2 0.802187 0.452084 0.870565
O O3 0.903261 0.434278 0.813044
O O4 0.836047 0.654340 0.761156
O O5 0.130007 0.147856 0.838853
O O6 0.228289 0.158679 0.867814
O O7 0.156436 0.327496 0.952268
O O8 0.125335 0.689406 0.889186
O O9 0.081144 0.500000 0.000000
O O10 0.062413 0.793424 0.006757
O O11 0.798137 0.128173 0.351386
O O12 0.766921 0.000000 0.500000
O O13 0.930917 0.158646 0.786089
O O14 0.964743 0.054748 0.641212
O O15 0.891172 0.893933 0.725107
O O16 0.000000 0.362255 0.750000
O O17 0.977542 0.275234 0.909260
O O18 0.987045 0.000000 0.000000
#
# Coordination Sequence:
#
# PCOD9316603 Si02
#       8
#     8   8   8   8   8   8   8   8
#     4  11  22  38  58  83 121 156 196 236 301 359
#     4   9  18  33  55  80 109 145 182 233 287 347
#     4  11  19  31  56  91 118 137 184 256 303 325
#     4  11  22  37  57  83 117 158 192 238 295 359
#     4   8  17  32  54  80 107 138 183 234 282 334
#     4   9  20  39  57  78 114 155 188 241 296 345
#     4  10  18  33  59  84 109 147 195 236 294 348
#     4  11  20  34  61  90 112 147 197 246 290 350
#
# _framework density 18.312054
#
# number of rings (size 3 to 8) (size 9 to 14) (size 15 to 20)
#    0.000    2.000    3.750    1.500    0.000    0.000 
#    0.000    5.000    0.000    0.750    0.000    0.000 
#    0.000    0.000    0.000    0.000    0.000    0.000 
#
# Total GULP energy -178198.089417 kJ/mol
# GULP energy per Si atom -5568.690294 kJ/mol
# Density = 1.827038 g / cm^3
# Si number density = 18.312054 Si / 1000 Ang^3
#
#
#
# Elastic Constant Matrix: (Units=GPa)
#
#
# Indices 1 2 3 4 5 6 
#
# 1 87.6785 23.6302 18.7109 0.0000 0.0000 0.0000
# 2 23.6302 80.7338 8.5244 0.0000 0.0000 0.0000
# 3 18.7109 8.5244 32.0168 0.0000 0.0000 0.0000
# 4 0.0000 0.0000 0.0000 20.6606 0.0000 0.0000
# 5 0.0000 0.0000 0.0000 0.0000 16.2347 0.0000
# 6 0.0000 0.0000 0.0000 0.0000 0.0000 19.5513
#
#
#
# Elastic Compliance Matrix: (Units=1/GPa)
#
#
# Indices 1 2 3 4 5 6 
#
# 1 0.013829 -0.003287 -0.007207 0.000000 0.000000 0.000000
# 2 -0.003287 0.013526 -0.001680 0.000000 0.000000 0.000000
# 3 -0.007207 -0.001680 0.035893 0.000000 0.000000 0.000000
# 4 0.000000 0.000000 0.000000 0.048401 0.000000 0.000000
# 5 0.000000 0.000000 0.000000 0.000000 0.061597 0.000000
# 6 0.000000 0.000000 0.000000 0.000000 0.000000 0.051147
#
#
# Mechanical properties :
#
#
# Convention : Reuss Voigt Hill
#
# Bulk Modulus (GPa) = 25.70707 33.57332 29.64019
# Shear Modulus (GPa) = 19.10533 21.26024 20.18278
#
# Velocity S-wave (km/s) = 3.23355 3.41104 3.32348
# Velocity P-wave (km/s) = 5.29244 5.82129 5.56315
#
# Compressibility (1/GPa) = 0.03889980
#
# Stress axis : x y z
#
# Youngs Moduli (GPa) = 72.31160 73.93268 27.86086
#
# Poissons Ratio (x) = 0.24300 0.20079
# Poissons Ratio (y) = 0.23767 0.04682
# Poissons Ratio (z) = 0.52113 0.12424
#
# Static dielectric constant tensor:
#      x y z
#    x 1.679650 0.000000 0.000000 
#    y 0.000000 1.638450 0.000000 
#    z 0.000000 0.000000 1.662510 
# 
# From -- ./inp_files/22046.got.cif
#   From: 2010.05.17/outbox.cif.g08.bks.cpg/sg20_12_cif.got.tgz:22046.got - 2010.06.03 22:52:26.
