data_PCOD9316223
_publ_section_title
;
Structure prediction by ZEFSAII (Michael W. Deem and Ramdas Pophale) SiO2 
 PCOD9316223
Probable space group: C 2 2 21
;
_chemical_formula_sum "Si O2"
_cell_formula_units_Z 52
_cell_length_a 15.704322
_cell_length_b 8.192336
_cell_length_c 16.989207
_cell_angle_alpha 90.000000
_cell_angle_beta 90.000000
_cell_angle_gamma 90.000000
_cell_volume 2185.747828
_symmetry_space_group_name_H-M "C 2 2 21"
_symmetry_group_IT_number 20
_symmetry_cell_setting 'orthorhombic'
loop_
_space_group_symop_operation_xyz
x,y,z
-x,-y,1/2+z
x,-y,-z
-x,y,1/2-z
1/2+x,1/2+y,z
1/2-x,1/2-y,1/2+z
1/2+x,1/2-y,-z
1/2-x,1/2+y,1/2-z
loop_
_atom_site_type_symbol
_atom_site_label
_atom_site_fract_x
_atom_site_fract_y
_atom_site_fract_z
Si Si1 0.000000 0.208668 0.250000
Si Si2 0.243072 0.587926 0.859266
Si Si3 0.446055 0.693681 0.667429
Si Si4 0.118745 0.641124 0.558946
Si Si5 0.082829 0.014452 0.392779
Si Si6 0.066059 0.567186 0.883611
Si Si7 0.746468 0.706466 0.811175
O O1 0.939059 0.106798 0.191100
O O2 0.945597 0.324131 0.305820
O O3 0.338933 0.610496 0.887793
O O4 0.160638 0.610023 0.914474
O O5 0.234018 0.690494 0.780278
O O6 0.242107 0.396533 0.834968
O O7 0.500000 0.694646 0.750000
O O8 0.495803 0.586804 0.602366
O O9 0.440312 0.878687 0.638852
O O10 0.348951 0.634940 0.677747
O O11 0.149961 0.500000 0.500000
O O12 0.111787 0.839261 0.549680
O O13 0.181085 0.624789 0.634753
O O14 0.018722 0.605361 0.569465
#
# Coordination Sequence:
#
# PCOD9316223 Si02
#       7
#     4   8   8   8   8   8   8
#     4  10  16  30  48  80 108 150 172 214 280 326
#     4  10  18  31  51  87 110 137 173 227 296 328
#     4  11  19  33  54  93 121 134 163 231 307 346
#     4  10  23  42  55  72 106 161 204 223 258 335
#     4  10  19  33  56  79 118 140 177 231 280 341
#     4  10  20  31  54  78 111 142 183 226 272 327
#     4  10  21  32  58  83 117 143 178 232 284 345
#
# _framework density 23.790482999999998
#
# number of rings (size 3 to 8) (size 9 to 14) (size 15 to 20)
#    0.000    1.846    3.077    2.769    2.154    1.231 
#    0.000    5.385    0.000    0.000    0.000    0.000 
#    0.000    0.000    0.000    0.000    0.000    0.000 
#
# Total GULP energy -144996.096999 kJ/mol
# GULP energy per Si atom -5576.772961 kJ/mol
# Density = 2.373633 g / cm^3
# Si number density = 23.790483 Si / 1000 Ang^3
#
#
#
# Elastic Constant Matrix: (Units=GPa)
#
#
# Indices 1 2 3 4 5 6 
#
# 1 151.4288 -2.5149 6.9818 0.0000 0.0000 0.0000
# 2 -2.5149 34.0116 -14.1331 0.0000 0.0000 0.0000
# 3 6.9818 -14.1331 39.0175 0.0000 0.0000 0.0000
# 4 0.0000 0.0000 0.0000 18.2889 0.0000 0.0000
# 5 0.0000 0.0000 0.0000 0.0000 12.5431 0.0000
# 6 0.0000 0.0000 0.0000 0.0000 0.0000 11.7023
#
#
#
# Elastic Compliance Matrix: (Units=1/GPa)
#
#
# Indices 1 2 3 4 5 6 
#
# 1 0.006659 -0.000003 -0.001193 0.000000 0.000000 0.000000
# 2 -0.000003 0.034611 0.012538 0.000000 0.000000 0.000000
# 3 -0.001193 0.012538 0.030384 0.000000 0.000000 0.000000
# 4 0.000000 0.000000 0.000000 0.054678 0.000000 0.000000
# 5 0.000000 0.000000 0.000000 0.000000 0.079725 0.000000
# 6 0.000000 0.000000 0.000000 0.000000 0.000000 0.085453
#
#
# Mechanical properties :
#
#
# Convention : Reuss Voigt Hill
#
# Bulk Modulus (GPa) = 10.60020 22.79172 16.69596
# Shear Modulus (GPa) = 16.65149 24.11513 20.38331
#
# Velocity S-wave (km/s) = 2.64847 3.18723 2.93026
# Velocity P-wave (km/s) = 3.71724 4.81099 4.29904
#
# Compressibility (1/GPa) = 0.09433781
#
# Stress axis : x y z
#
# Youngs Moduli (GPa) = 150.17950 28.89224 32.91171
#
# Poissons Ratio (x) = 0.00009 0.03925
# Poissons Ratio (y) = 0.00049 -0.41263
# Poissons Ratio (z) = 0.17912 -0.36224
#
# Static dielectric constant tensor:
#      x y z
#    x 1.995250 0.000000 0.000000 
#    y 0.000000 1.954180 0.000000 
#    z 0.000000 0.000000 1.987560 
# 
# From -- ./inp_files/27521.got.cif
#   From: 2010.05.17/outbox.cif.g08.bks.cpg/sg20_14_cif.got.tgz:27521.got - 2010.06.03 22:52:26.
