data_PCOD9316661
_publ_section_title
;
Structure prediction by ZEFSAII (Michael W. Deem and Ramdas Pophale) SiO2 
 PCOD9316661
Probable space group: C 2 2 21
;
_chemical_formula_sum "Si O2"
_cell_formula_units_Z 64
_cell_length_a 24.985700
_cell_length_b 12.265507
_cell_length_c 11.402360
_cell_angle_alpha 90.000000
_cell_angle_beta 90.000000
_cell_angle_gamma 90.000000
_cell_volume 3494.393223
_symmetry_space_group_name_H-M "C 2 2 21"
_symmetry_group_IT_number 20
_symmetry_cell_setting 'orthorhombic'
loop_
_space_group_symop_operation_xyz
x,y,z
-x,-y,1/2+z
x,-y,-z
-x,y,1/2-z
1/2+x,1/2+y,z
1/2-x,1/2-y,1/2+z
1/2+x,1/2-y,-z
1/2-x,1/2+y,1/2-z
loop_
_atom_site_type_symbol
_atom_site_label
_atom_site_fract_x
_atom_site_fract_y
_atom_site_fract_z
Si Si1 0.153286 0.033572 0.134907
Si Si2 0.335353 0.309890 0.223638
Si Si3 0.720391 0.747266 0.144845
Si Si4 0.113696 0.373576 0.143065
Si Si5 0.747559 0.611975 0.428255
Si Si6 0.938538 0.174872 0.245871
Si Si7 0.865270 0.611013 0.364565
Si Si8 0.868661 0.874345 0.966073
O O1 0.200757 0.123220 0.139057
O O2 0.100096 0.092705 0.183129
O O3 0.163590 0.926850 0.213370
O O4 0.146331 0.000000 0.000000
O O5 0.273482 0.270554 0.219101
O O6 0.370793 0.222064 0.293282
O O7 0.355995 0.318748 0.090356
O O8 0.670444 0.822023 0.183964
O O9 0.735283 0.790466 0.014763
O O10 0.069743 0.292707 0.194273
O O11 0.107563 0.499610 0.177834
O O12 0.118383 0.371806 0.000693
O O13 0.739769 0.500000 0.500000
O O14 0.801251 0.586725 0.357565
O O15 0.686749 0.634516 0.390207
O O16 0.915282 0.173576 0.113776
O O17 0.000000 0.141900 0.250000
O O18 0.880003 0.000000 0.000000
#
# Coordination Sequence:
#
# PCOD9316661 Si02
#       8
#     8   8   8   8   8   8   8   8
#     4  11  23  41  58  92 127 154 214 262 298 362
#     4  11  22  33  61  88 130 163 191 242 300 373
#     4   9  19  31  52  88 122 167 188 231 291 361
#     4   9  19  37  59  86 118 154 206 245 285 369
#     4   9  15  29  53  84 120 164 196 222 282 369
#     4  11  24  42  67  84 110 162 209 264 320 355
#     4  10  18  34  62  90 121 158 198 229 303 367
#     4  10  21  38  54  84 125 159 201 241 301 367
#
# _framework density 18.315052999999999
#
# number of rings (size 3 to 8) (size 9 to 14) (size 15 to 20)
#    0.000    2.000    3.750    2.250    5.250    0.500 
#    0.000    0.625    5.500    0.000    0.000    0.000 
#    0.000    0.000    0.000    0.000    0.000    0.000 
#
# Total GULP energy -178412.713290 kJ/mol
# GULP energy per Si atom -5575.397290 kJ/mol
# Density = 1.827337 g / cm^3
# Si number density = 18.315053 Si / 1000 Ang^3
#
#
#
# Elastic Constant Matrix: (Units=GPa)
#
#
# Indices 1 2 3 4 5 6 
#
# 1 82.3039 30.4091 26.8922 0.0000 0.0000 0.0000
# 2 30.4091 137.4247 45.9104 0.0000 0.0000 0.0000
# 3 26.8922 45.9104 79.9824 0.0000 0.0000 0.0000
# 4 0.0000 0.0000 0.0000 24.1634 0.0000 0.0000
# 5 0.0000 0.0000 0.0000 0.0000 10.8911 0.0000
# 6 0.0000 0.0000 0.0000 0.0000 0.0000 12.7761
#
#
#
# Elastic Compliance Matrix: (Units=1/GPa)
#
#
# Indices 1 2 3 4 5 6 
#
# 1 0.014036 -0.001892 -0.003633 0.000000 0.000000 0.000000
# 2 -0.001892 0.009258 -0.004678 0.000000 0.000000 0.000000
# 3 -0.003633 -0.004678 0.016410 0.000000 0.000000 0.000000
# 4 0.000000 0.000000 0.000000 0.041385 0.000000 0.000000
# 5 0.000000 0.000000 0.000000 0.000000 0.091818 0.000000
# 6 0.000000 0.000000 0.000000 0.000000 0.000000 0.078271
#
#
# Mechanical properties :
#
#
# Convention : Reuss Voigt Hill
#
# Bulk Modulus (GPa) = 51.82116 56.23716 54.02916
# Shear Modulus (GPa) = 17.98444 22.66607 20.32526
#
# Velocity S-wave (km/s) = 3.13701 3.52172 3.33492
# Velocity P-wave (km/s) = 6.44025 6.87814 6.66279
#
# Compressibility (1/GPa) = 0.01929714
#
# Stress axis : x y z
#
# Youngs Moduli (GPa) = 71.24371 108.01182 60.93991
#
# Poissons Ratio (x) = 0.20437 0.22141
# Poissons Ratio (y) = 0.13480 0.28508
# Poissons Ratio (z) = 0.25885 0.50529
#
# Static dielectric constant tensor:
#      x y z
#    x 1.620210 0.000000 0.000000 
#    y 0.000000 1.649930 0.000000 
#    z 0.000000 0.000000 1.698100 
# 
# From -- ./inp_files/16802.got.cif
#   From: 2010.05.17/outbox.cif.g08.bks.cpg/sg20_9_cif.got.tgz:16802.got - 2010.06.03 22:52:26.
