data_PCOD9316485
_publ_section_title
;
Structure prediction by ZEFSAII (Michael W. Deem and Ramdas Pophale) SiO2 
 PCOD9316485
Probable space group: C 2 2 21
;
_chemical_formula_sum "Si O2"
_cell_formula_units_Z 52
_cell_length_a 9.559043
_cell_length_b 16.732876
_cell_length_c 17.734743
_cell_angle_alpha 90.000000
_cell_angle_beta 90.000000
_cell_angle_gamma 90.000000
_cell_volume 2836.677130
_symmetry_space_group_name_H-M "C 2 2 21"
_symmetry_group_IT_number 20
_symmetry_cell_setting 'orthorhombic'
loop_
_space_group_symop_operation_xyz
x,y,z
-x,-y,1/2+z
x,-y,-z
-x,y,1/2-z
1/2+x,1/2+y,z
1/2-x,1/2-y,1/2+z
1/2+x,1/2-y,-z
1/2-x,1/2+y,1/2-z
loop_
_atom_site_type_symbol
_atom_site_label
_atom_site_fract_x
_atom_site_fract_y
_atom_site_fract_z
Si Si1 0.044687 0.000000 0.500000
Si Si2 0.595553 0.113383 0.323847
Si Si3 0.021945 0.786910 0.340640
Si Si4 0.151460 0.974240 0.781247
Si Si5 0.524602 0.041347 0.577399
Si Si6 0.168019 0.098949 0.919134
Si Si7 0.771207 0.066951 0.866725
O O1 0.933002 0.927059 0.488491
O O2 0.147944 0.989039 0.428248
O O3 0.500000 0.112565 0.250000
O O4 0.564437 0.197499 0.362968
O O5 0.756814 0.102302 0.301487
O O6 0.560997 0.033451 0.369175
O O7 0.139971 0.852063 0.360033
O O8 0.000000 0.789918 0.250000
O O9 0.884518 0.818252 0.383960
O O10 0.000000 0.954015 0.750000
O O11 0.138635 0.032829 0.853253
O O12 0.226418 0.023089 0.713983
O O13 0.483442 0.000000 0.500000
O O14 0.667038 0.091637 0.565499
O O15 0.387663 0.083788 0.609456
#
# Coordination Sequence:
#
# PCOD9316485 Si02
#       7
#     4   8   8   8   8   8   8
#     4  10  18  30  56  86 108 144 186 228 276 342
#     4  10  22  36  58  83 116 148 185 243 292 336
#     4  10  19  38  57  82 113 149 186 234 294 344
#     4  11  18  34  58  87 106 146 200 233 273 341
#     4  11  22  36  57  86 115 148 196 243 283 339
#     4  10  19  34  58  83 109 151 193 230 275 354
#     4  11  19  34  59  86 110 148 191 238 284 340
#
# _framework density 18.331306999999999
#
# number of rings (size 3 to 8) (size 9 to 14) (size 15 to 20)
#    0.000    1.538    7.692    0.000    0.000    0.000 
#    0.000    4.615    0.000    0.000    0.000    0.000 
#    0.000    0.000    0.000    0.000    0.000    0.000 
#
# Total GULP energy -144888.912140 kJ/mol
# GULP energy per Si atom -5572.650467 kJ/mol
# Density = 1.828958 g / cm^3
# Si number density = 18.331307 Si / 1000 Ang^3
#
#
#
# Elastic Constant Matrix: (Units=GPa)
#
#
# Indices 1 2 3 4 5 6 
#
# 1 116.0931 21.4133 -5.4827 0.0000 0.0000 0.0000
# 2 21.4133 55.7942 -8.5981 0.0000 0.0000 0.0000
# 3 -5.4827 -8.5981 25.6349 0.0000 0.0000 0.0000
# 4 0.0000 0.0000 0.0000 -53.6583 0.0000 0.0000
# 5 0.0000 0.0000 0.0000 0.0000 27.0923 0.0000
# 6 0.0000 0.0000 0.0000 0.0000 0.0000 25.3557
#
#
#
# Elastic Compliance Matrix: (Units=1/GPa)
#
#
# Indices 1 2 3 4 5 6 
#
# 1 0.009287 -0.003436 0.000834 0.000000 0.000000 0.000000
# 2 -0.003436 0.020171 0.006031 0.000000 0.000000 0.000000
# 3 0.000834 0.006031 0.041210 0.000000 0.000000 0.000000
# 4 0.000000 0.000000 0.000000 -0.018636 0.000000 0.000000
# 5 0.000000 0.000000 0.000000 0.000000 0.036911 0.000000
# 6 0.000000 0.000000 0.000000 0.000000 0.000000 0.039439
#
#
# Mechanical properties :
#
#
# Convention : Reuss Voigt Hill
#
# Bulk Modulus (GPa) = 12.89890 23.57633 18.23762
# Shear Modulus (GPa) = 33.92916 12.43725 23.18320
#
# Velocity S-wave (km/s) = 4.30686 2.60757 3.56009
# Velocity P-wave (km/s) = 5.63772 4.68562 5.18358
#
# Compressibility (1/GPa) = 0.07752597
#
# Stress axis : x y z
#
# Youngs Moduli (GPa) = 107.67887 49.57620 24.26570
#
# Poissons Ratio (x) = 0.17033 -0.02024
# Poissons Ratio (y) = 0.36995 -0.14634
# Poissons Ratio (z) = -0.08979 -0.29898
#
# Static dielectric constant tensor:
#      x y z
#    x 1.670880 0.000000 0.000000 
#    y 0.000000 1.610390 0.000000 
#    z 0.000000 0.000000 1.661570 
# 
# From -- ./inp_files/23700.got.cif
#   From: 2010.05.17/outbox.cif.g08.bks.cpg/sg20_12_cif.got.tgz:23700.got - 2010.06.03 22:52:26.
