data_PCOD9316445
_publ_section_title
;
Structure prediction by ZEFSAII (Michael W. Deem and Ramdas Pophale) SiO2 
 PCOD9316445
Probable space group: C 2 2 21
;
_chemical_formula_sum "Si O2"
_cell_formula_units_Z 44
_cell_length_a 26.738317
_cell_length_b 5.955360
_cell_length_c 11.012628
_cell_angle_alpha 90.000000
_cell_angle_beta 90.000000
_cell_angle_gamma 90.000000
_cell_volume 1753.610175
_symmetry_space_group_name_H-M "C 2 2 21"
_symmetry_group_IT_number 20
_symmetry_cell_setting 'orthorhombic'
loop_
_space_group_symop_operation_xyz
x,y,z
-x,-y,1/2+z
x,-y,-z
-x,y,1/2-z
1/2+x,1/2+y,z
1/2-x,1/2-y,1/2+z
1/2+x,1/2-y,-z
1/2-x,1/2+y,1/2-z
loop_
_atom_site_type_symbol
_atom_site_label
_atom_site_fract_x
_atom_site_fract_y
_atom_site_fract_z
Si Si1 0.561632 0.343395 0.389683
Si Si2 0.345275 0.951560 0.875490
Si Si3 0.500000 0.996791 0.250000
Si Si4 0.228628 0.631106 0.152848
Si Si5 0.593367 0.710635 0.214755
Si Si6 0.199883 0.134391 0.133156
O O1 0.545203 0.500000 0.500000
O O2 0.615759 0.238871 0.414804
O O3 0.524120 0.147974 0.354777
O O4 0.570749 0.484533 0.267874
O O5 0.310690 0.878054 0.765517
O O6 0.379476 0.150139 0.822427
O O7 0.316401 0.000000 0.000000
O O8 0.544520 0.856717 0.186543
O O9 0.222961 0.379418 0.096845
O O10 0.281831 0.636151 0.222686
O O11 0.214813 0.876667 0.097052
O O12 0.639670 0.664044 0.125040
#
# Coordination Sequence:
#
# PCOD9316445 Si02
#       6
#     8   8   4   8   8   8
#     4  11  20  35  57  80 118 153 192 251 315 361
#     4  10  18  29  49  81 115 144 182 239 306 356
#     4  10  24  34  52  86 118 152 206 258 302 366
#     4   9  17  29  47  78 111 142 180 220 285 353
#     4  10  19  34  50  77 116 147 193 247 292 360
#     4   9  17  30  50  73 111 146 181 227 279 347
#
# _framework density 25.091096
#
# number of rings (size 3 to 8) (size 9 to 14) (size 15 to 20)
#    0.000    2.182    3.636    0.545    0.000    0.000 
#    0.000    0.000    0.000    0.000    0.000    7.636 
#   16.364    0.000    0.000    0.000    0.000    0.000 
#
# Total GULP energy -122791.532771 kJ/mol
# GULP energy per Si atom -5581.433308 kJ/mol
# Density = 2.503399 g / cm^3
# Si number density = 25.091096 Si / 1000 Ang^3
#
#
#
# Elastic Constant Matrix: (Units=GPa)
#
#
# Indices 1 2 3 4 5 6 
#
# 1 154.5411 66.5989 1.4992 0.0000 0.0000 0.0000
# 2 66.5989 203.9771 59.1966 0.0000 0.0000 0.0000
# 3 1.4992 59.1966 25.9326 0.0000 0.0000 0.0000
# 4 0.0000 0.0000 0.0000 48.4028 0.0000 0.0000
# 5 0.0000 0.0000 0.0000 0.0000 -15.4763 0.0000
# 6 0.0000 0.0000 0.0000 0.0000 0.0000 39.4096
#
#
#
# Elastic Compliance Matrix: (Units=1/GPa)
#
#
# Indices 1 2 3 4 5 6 
#
# 1 0.010365 -0.009511 0.021111 0.000000 0.000000 0.000000
# 2 -0.009511 0.023252 -0.052527 0.000000 0.000000 0.000000
# 3 0.021111 -0.052527 0.157245 0.000000 0.000000 0.000000
# 4 0.000000 0.000000 0.000000 0.020660 0.000000 0.000000
# 5 0.000000 0.000000 0.000000 0.000000 -0.064615 0.000000
# 6 0.000000 0.000000 0.000000 0.000000 0.000000 0.025375
#
#
# Mechanical properties :
#
#
# Convention : Reuss Voigt Hill
#
# Bulk Modulus (GPa) = 9.17369 71.00448 40.08909
# Shear Modulus (GPa) = 17.21348 31.61095 24.41221
#
# Velocity S-wave (km/s) = 2.62208 3.55328 3.12259
# Velocity P-wave (km/s) = 3.58206 6.72269 5.38636
#
# Compressibility (1/GPa) = 0.10900736
#
# Stress axis : x y z
#
# Youngs Moduli (GPa) = 96.48254 43.00751 6.35951
#
# Poissons Ratio (x) = 0.40903 -0.13426
# Poissons Ratio (y) = 0.91762 0.33405
# Poissons Ratio (z) = -2.03683 2.25906
#
# Static dielectric constant tensor:
#      x y z
#    x 2.014120 0.000000 0.000000 
#    y 0.000000 2.039750 0.000000 
#    z 0.000000 0.000000 2.056090 
# 
# From -- ./inp_files/17712.got.cif
#   From: 2010.05.17/outbox.cif.g08.bks.cpg/sg20_9_cif.got.tgz:17712.got - 2010.06.03 22:52:26.
