data_PCOD9316369
_publ_section_title
;
Structure prediction by ZEFSAII (Michael W. Deem and Ramdas Pophale) SiO2 
 PCOD9316369
Probable space group: C 2 2 21
;
_chemical_formula_sum "Si O2"
_cell_formula_units_Z 60
_cell_length_a 32.681941
_cell_length_b 10.427933
_cell_length_c 8.766197
_cell_angle_alpha 90.000000
_cell_angle_beta 90.000000
_cell_angle_gamma 90.000000
_cell_volume 2987.564567
_symmetry_space_group_name_H-M "C 2 2 21"
_symmetry_group_IT_number 20
_symmetry_cell_setting 'orthorhombic'
loop_
_space_group_symop_operation_xyz
x,y,z
-x,-y,1/2+z
x,-y,-z
-x,y,1/2-z
1/2+x,1/2+y,z
1/2-x,1/2-y,1/2+z
1/2+x,1/2-y,-z
1/2-x,1/2+y,1/2-z
loop_
_atom_site_type_symbol
_atom_site_label
_atom_site_fract_x
_atom_site_fract_y
_atom_site_fract_z
Si Si1 0.383006 0.715654 0.418784
Si Si2 0.542078 0.435521 0.833777
Si Si3 0.236307 0.000000 0.000000
Si Si4 0.374143 0.884187 0.904515
Si Si5 0.392349 0.366981 0.231649
Si Si6 0.829110 0.448468 0.346066
Si Si7 0.679326 0.541190 0.278297
Si Si8 0.703909 0.210181 0.586176
O O1 0.428538 0.686550 0.360178
O O2 0.381376 0.665658 0.592185
O O3 0.366599 0.858315 0.400483
O O4 0.352228 0.631675 0.316330
O O5 0.500000 0.408439 0.750000
O O6 0.569834 0.535961 0.737501
O O7 0.535233 0.500000 0.000000
O O8 0.263254 0.129996 0.010861
O O9 0.209221 0.014909 0.849336
O O10 0.401569 0.766985 0.849854
O O11 0.348669 0.943681 0.762934
O O12 0.340010 0.824942 0.015544
O O13 0.393986 0.000000 0.000000
O O14 0.351742 0.432965 0.160984
O O15 0.809425 0.500000 0.500000
O O16 0.797732 0.363074 0.248960
O O17 0.704599 0.637871 0.386792
#
# Coordination Sequence:
#
# PCOD9316369 Si02
#       8
#     8   8   4   8   8   8   8   8
#     4   9  17  34  61  88 109 146 197 238 272 353
#     4   9  19  37  57  90 122 146 187 237 294 344
#     4  12  20  40  56  80 122 158 190 252 308 338
#     4  10  20  37  56  84 123 147 195 252 282 342
#     4  10  18  36  64  84 114 156 193 235 288 350
#     4  10  17  33  61  84 105 153 205 230 288 343
#     4  10  21  37  58  83 111 152 203 238 293 356
#     4  10  23  39  51  83 123 146 195 261 296 343
#
# _framework density 20.083248000000001
#
# number of rings (size 3 to 8) (size 9 to 14) (size 15 to 20)
#    0.000    2.133    4.667    0.800    0.000    1.600 
#   14.400    0.000    0.000    0.800    0.000    0.000 
#    0.000    0.000    0.000    0.000    0.000    0.000 
#
# Total GULP energy -167382.079096 kJ/mol
# GULP energy per Si atom -5579.402637 kJ/mol
# Density = 2.003754 g / cm^3
# Si number density = 20.083248 Si / 1000 Ang^3
#
#
#
# Elastic Constant Matrix: (Units=GPa)
#
#
# Indices 1 2 3 4 5 6 
#
# 1 73.1528 14.3167 5.8869 0.0000 0.0000 0.0000
# 2 14.3167 82.3240 15.3101 0.0000 0.0000 0.0000
# 3 5.8869 15.3101 50.9512 0.0000 0.0000 0.0000
# 4 0.0000 0.0000 0.0000 35.1385 0.0000 0.0000
# 5 0.0000 0.0000 0.0000 0.0000 19.2074 0.0000
# 6 0.0000 0.0000 0.0000 0.0000 0.0000 11.0481
#
#
#
# Elastic Compliance Matrix: (Units=1/GPa)
#
#
# Indices 1 2 3 4 5 6 
#
# 1 0.014195 -0.002292 -0.000951 0.000000 0.000000 0.000000
# 2 -0.002292 0.013236 -0.003712 0.000000 0.000000 0.000000
# 3 -0.000951 -0.003712 0.020852 0.000000 0.000000 0.000000
# 4 0.000000 0.000000 0.000000 0.028459 0.000000 0.000000
# 5 0.000000 0.000000 0.000000 0.000000 0.052063 0.000000
# 6 0.000000 0.000000 0.000000 0.000000 0.000000 0.090514
#
#
# Mechanical properties :
#
#
# Convention : Reuss Voigt Hill
#
# Bulk Modulus (GPa) = 29.09345 30.82839 29.96092
# Shear Modulus (GPa) = 20.43422 24.47307 22.45364
#
# Velocity S-wave (km/s) = 3.19325 3.49461 3.34732
# Velocity P-wave (km/s) = 5.30223 5.62731 5.46719
#
# Compressibility (1/GPa) = 0.03437200
#
# Stress axis : x y z
#
# Youngs Moduli (GPa) = 70.44692 75.55103 47.95680
#
# Poissons Ratio (x) = 0.17314 0.04563
# Poissons Ratio (y) = 0.16144 0.17804
# Poissons Ratio (z) = 0.06703 0.28048
#
# Static dielectric constant tensor:
#      x y z
#    x 1.664680 0.000000 0.000000 
#    y 0.000000 1.765490 0.000000 
#    z 0.000000 0.000000 1.793210 
# 
# From -- ./inp_files/11581.got.cif
#   From: 2010.05.17/outbox.cif.g08.bks.cpg/sg20_6_cif.got.tgz:11581.got - 2010.06.03 22:52:26.
