data_PCOD9316374
_publ_section_title
;
Structure prediction by ZEFSAII (Michael W. Deem and Ramdas Pophale) SiO2 
 PCOD9316374
Probable space group: C 2 2 21
;
_chemical_formula_sum "Si O2"
_cell_formula_units_Z 48
_cell_length_a 7.298776
_cell_length_b 14.613126
_cell_length_c 18.512963
_cell_angle_alpha 90.000000
_cell_angle_beta 90.000000
_cell_angle_gamma 90.000000
_cell_volume 1974.554373
_symmetry_space_group_name_H-M "C 2 2 21"
_symmetry_group_IT_number 20
_symmetry_cell_setting 'orthorhombic'
loop_
_space_group_symop_operation_xyz
x,y,z
-x,-y,1/2+z
x,-y,-z
-x,y,1/2-z
1/2+x,1/2+y,z
1/2-x,1/2-y,1/2+z
1/2+x,1/2-y,-z
1/2-x,1/2+y,1/2-z
loop_
_atom_site_type_symbol
_atom_site_label
_atom_site_fract_x
_atom_site_fract_y
_atom_site_fract_z
Si Si1 0.491657 0.093430 0.962602
Si Si2 0.194995 0.869036 0.851118
Si Si3 0.556024 0.395860 0.999350
Si Si4 0.048107 0.275651 0.919679
Si Si5 0.624517 0.951666 0.309266
Si Si6 0.787572 0.760035 0.274487
O O1 0.497519 0.080948 0.877090
O O2 0.272804 0.102649 0.978476
O O3 0.592357 0.174932 0.004583
O O4 0.552620 0.000000 0.000000
O O5 0.052558 0.861101 0.916694
O O6 0.388071 0.835843 0.885018
O O7 0.182424 0.807723 0.779700
O O8 0.222582 0.976244 0.834162
O O9 0.489260 0.500000 0.000000
O O10 0.479414 0.325121 0.057801
O O11 0.202452 0.268754 0.858649
O O12 0.500000 0.001645 0.250000
O O13 0.707694 0.861665 0.273308
O O14 0.000000 0.762899 0.250000
#
# Coordination Sequence:
#
# PCOD9316374 Si02
#       6
#     8   8   8   8   8   8
#     4  10  19  35  57  89 110 154 204 249 304 361
#     4  10  21  37  58  88 118 161 201 248 306 362
#     4  10  17  34  58  80 110 156 199 248 300 365
#     4  10  18  33  61  81 115 153 202 242 296 366
#     4  12  22  38  62  89 123 157 206 252 304 369
#     4  10  22  39  59  87 120 163 196 247 313 367
#
# _framework density 24.309283000000001
#
# number of rings (size 3 to 8) (size 9 to 14) (size 15 to 20)
#    0.000    1.667    6.667    1.500    2.333    0.000 
#    0.000    0.833    7.333    4.000    0.000    0.000 
#    0.000    0.000    0.000    0.000    0.000    0.000 
#
# Total GULP energy -134167.866528 kJ/mol
# GULP energy per Si atom -5590.327772 kJ/mol
# Density = 2.425395 g / cm^3
# Si number density = 24.309283 Si / 1000 Ang^3
#
#
#
# Elastic Constant Matrix: (Units=GPa)
#
#
# Indices 1 2 3 4 5 6 
#
# 1 49.9796 -9.5839 20.5000 0.0000 0.0000 0.0000
# 2 -9.5839 122.8835 59.3829 0.0000 0.0000 0.0000
# 3 20.5000 59.3829 157.8279 0.0000 0.0000 0.0000
# 4 0.0000 0.0000 0.0000 54.0261 0.0000 0.0000
# 5 0.0000 0.0000 0.0000 0.0000 13.8568 0.0000
# 6 0.0000 0.0000 0.0000 0.0000 0.0000 3.3942
#
#
#
# Elastic Compliance Matrix: (Units=1/GPa)
#
#
# Indices 1 2 3 4 5 6 
#
# 1 0.022552 0.003880 -0.004389 0.000000 0.000000 0.000000
# 2 0.003880 0.010614 -0.004497 0.000000 0.000000 0.000000
# 3 -0.004389 -0.004497 0.008598 0.000000 0.000000 0.000000
# 4 0.000000 0.000000 0.000000 0.018510 0.000000 0.000000
# 5 0.000000 0.000000 0.000000 0.000000 0.072167 0.000000
# 6 0.000000 0.000000 0.000000 0.000000 0.000000 0.294624
#
#
# Mechanical properties :
#
#
# Convention : Reuss Voigt Hill
#
# Bulk Modulus (GPa) = 31.49479 52.36544 41.93011
# Shear Modulus (GPa) = 11.16915 31.61487 21.39201
#
# Velocity S-wave (km/s) = 2.14583 3.61019 2.96969
# Velocity P-wave (km/s) = 4.37304 6.24228 5.38932
#
# Compressibility (1/GPa) = 0.03175128
#
# Stress axis : x y z
#
# Youngs Moduli (GPa) = 44.34109 94.21753 116.30260
#
# Poissons Ratio (x) = -0.36556 0.51047
# Poissons Ratio (y) = -0.17204 0.52306
# Poissons Ratio (z) = 0.19462 0.42373
#
# Static dielectric constant tensor:
#      x y z
#    x 1.949670 0.000000 0.000000 
#    y 0.000000 1.915560 0.000000 
#    z 0.000000 0.000000 1.978860 
# 
# From -- ./inp_files/23419.got.cif
#   From: 2010.05.17/outbox.cif.g08.bks.cpg/sg20_12_cif.got.tgz:23419.got - 2010.06.03 22:52:26.
