data_PCOD9316803
_publ_section_title
;
Structure prediction by ZEFSAII (Michael W. Deem and Ramdas Pophale) SiO2 
 PCOD9316803
Probable space group: C 2 2 21
;
_chemical_formula_sum "Si O2"
_cell_formula_units_Z 64
_cell_length_a 17.776108
_cell_length_b 9.147465
_cell_length_c 20.155728
_cell_angle_alpha 90.000000
_cell_angle_beta 90.000000
_cell_angle_gamma 90.000000
_cell_volume 3277.448873
_symmetry_space_group_name_H-M "C 2 2 21"
_symmetry_group_IT_number 20
_symmetry_cell_setting 'orthorhombic'
loop_
_space_group_symop_operation_xyz
x,y,z
-x,-y,1/2+z
x,-y,-z
-x,y,1/2-z
1/2+x,1/2+y,z
1/2-x,1/2-y,1/2+z
1/2+x,1/2-y,-z
1/2-x,1/2+y,1/2-z
loop_
_atom_site_type_symbol
_atom_site_label
_atom_site_fract_x
_atom_site_fract_y
_atom_site_fract_z
Si Si1 0.310534 0.840301 0.172888
Si Si2 0.913408 0.836692 0.434143
Si Si3 0.714030 0.193896 0.895104
Si Si4 0.554807 0.346346 0.917261
Si Si5 0.118662 0.430039 0.840041
Si Si6 0.266160 0.861686 0.772056
Si Si7 0.241274 0.655781 0.526431
Si Si8 0.519258 0.851774 0.318600
O O1 0.296726 0.704730 0.222389
O O2 0.296241 0.801441 0.096173
O O3 0.394935 0.899448 0.180343
O O4 0.257801 0.974388 0.198330
O O5 0.951500 0.809964 0.505035
O O6 0.908471 0.698767 0.387368
O O7 0.827415 0.874501 0.452666
O O8 0.949749 0.981866 0.404939
O O9 0.637650 0.291521 0.895234
O O10 0.765325 0.253766 0.835272
O O11 0.680331 0.033815 0.877883
O O12 0.753197 0.227229 0.966111
O O13 0.493447 0.257317 0.878329
O O14 0.160777 0.367713 0.775434
O O15 0.044902 0.524655 0.823410
O O16 0.209996 0.500000 0.500000
O O17 0.500000 0.772197 0.250000
#
# Coordination Sequence:
#
# PCOD9316803 Si02
#       8
#     8   8   8   8   8   8   8   8
#     4  12  24  41  66  91 132 167 228 271 338 381
#     4  10  18  38  64  95 118 161 218 264 310 397
#     4  10  20  35  58  93 123 163 211 267 330 385
#     4   9  19  37  65  86 124 169 212 258 321 395
#     4  11  23  39  65  94 128 165 217 271 329 395
#     4  12  21  39  63  92 121 169 210 276 323 389
#     4  11  19  34  61  91 123 158 209 273 315 379
#     4  11  23  43  59  91 131 173 211 272 324 398
#
# _framework density 19.527383
#
# number of rings (size 3 to 8) (size 9 to 14) (size 15 to 20)
#    0.000    1.250    7.500    0.750    0.000    4.500 
#    2.250    1.875    5.500    0.000    0.000    0.000 
#    0.000    0.000    0.000    0.000    0.000    0.000 
#
# Total GULP energy -178415.638100 kJ/mol
# GULP energy per Si atom -5575.488691 kJ/mol
# Density = 1.948294 g / cm^3
# Si number density = 19.527383 Si / 1000 Ang^3
#
#
#
# Elastic Constant Matrix: (Units=GPa)
#
#
# Indices 1 2 3 4 5 6 
#
# 1 42.1533 27.3835 30.6972 0.0000 0.0000 0.0000
# 2 27.3835 81.7098 59.9437 0.0000 0.0000 0.0000
# 3 30.6972 59.9437 113.5494 0.0000 0.0000 0.0000
# 4 0.0000 0.0000 0.0000 27.5292 0.0000 0.0000
# 5 0.0000 0.0000 0.0000 0.0000 27.4786 0.0000
# 6 0.0000 0.0000 0.0000 0.0000 0.0000 3.4391
#
#
#
# Elastic Compliance Matrix: (Units=1/GPa)
#
#
# Indices 1 2 3 4 5 6 
#
# 1 0.031889 -0.007120 -0.004862 0.000000 0.000000 0.000000
# 2 -0.007120 0.021564 -0.009459 0.000000 0.000000 0.000000
# 3 -0.004862 -0.009459 0.015115 0.000000 0.000000 0.000000
# 4 0.000000 0.000000 0.000000 0.036325 0.000000 0.000000
# 5 0.000000 0.000000 0.000000 0.000000 0.036392 0.000000
# 6 0.000000 0.000000 0.000000 0.000000 0.000000 0.290774
#
#
# Mechanical properties :
#
#
# Convention : Reuss Voigt Hill
#
# Bulk Modulus (GPa) = 38.93290 52.60681 45.76986
# Shear Modulus (GPa) = 10.34122 19.64860 14.99491
#
# Velocity S-wave (km/s) = 2.30375 3.17552 2.77409
# Velocity P-wave (km/s) = 5.20165 6.35954 5.80952
#
# Compressibility (1/GPa) = 0.02568522
#
# Stress axis : x y z
#
# Youngs Moduli (GPa) = 31.35879 46.37415 66.16111
#
# Poissons Ratio (x) = 0.33018 0.32169
# Poissons Ratio (y) = 0.22327 0.62581
# Poissons Ratio (z) = 0.15247 0.43865
#
# Static dielectric constant tensor:
#      x y z
#    x 1.673970 0.000000 0.000000 
#    y 0.000000 1.699470 0.000000 
#    z 0.000000 0.000000 1.766830 
# 
# From -- ./inp_files/27780.got.cif
#   From: 2010.05.17/outbox.cif.g08.bks.cpg/sg20_14_cif.got.tgz:27780.got - 2010.06.03 22:52:26.
