data_PCOD9316425
_publ_section_title
;
Structure prediction by ZEFSAII (Michael W. Deem and Ramdas Pophale) SiO2 
 PCOD9316425
Probable space group: C 2 2 21
;
_chemical_formula_sum "Si O2"
_cell_formula_units_Z 32
_cell_length_a 20.844201
_cell_length_b 12.375108
_cell_length_c 5.145612
_cell_angle_alpha 90.000000
_cell_angle_beta 90.000000
_cell_angle_gamma 90.000000
_cell_volume 1327.306697
_symmetry_space_group_name_H-M "C 2 2 21"
_symmetry_group_IT_number 20
_symmetry_cell_setting 'orthorhombic'
loop_
_space_group_symop_operation_xyz
x,y,z
-x,-y,1/2+z
x,-y,-z
-x,y,1/2-z
1/2+x,1/2+y,z
1/2-x,1/2-y,1/2+z
1/2+x,1/2-y,-z
1/2-x,1/2+y,1/2-z
loop_
_atom_site_type_symbol
_atom_site_label
_atom_site_fract_x
_atom_site_fract_y
_atom_site_fract_z
Si Si1 0.820223 0.822032 0.014616
Si Si2 0.041654 0.666156 0.994542
Si Si3 0.570432 0.588851 0.185550
Si Si4 0.319552 0.175597 0.514682
O O1 0.883079 0.886471 0.927533
O O2 0.750447 0.876323 0.975976
O O3 0.820273 0.723677 0.805757
O O4 0.822106 0.772452 0.301333
O O5 0.112667 0.617677 0.021109
O O6 0.000000 0.653545 0.250000
O O7 0.055035 0.794598 0.944376
O O8 0.000000 0.626980 0.750000
O O9 0.500000 0.544964 0.250000
O O10 0.602364 0.500000 0.000000
#
# Coordination Sequence:
#
# PCOD9316425 Si02
#       4
#     8   8   8   8
#     4   9  18  29  45  61  82 118 157 193 228 259
#     4  10  18  28  43  63  86 115 149 186 228 269
#     4  10  19  29  42  62  91 126 160 187 214 260
#     4   9  16  30  45  62  83 111 154 198 232 264
#
# _framework density 24.108974
#
# number of rings (size 3 to 8) (size 9 to 14) (size 15 to 20)
#    0.000    2.500    0.000    5.250    0.000    2.000 
#    0.000    0.000    0.000    0.000    0.000    0.000 
#    0.000    0.000    0.000   60.750    0.000  184.000 
#
# Total GULP energy -89330.512363 kJ/mol
# GULP energy per Si atom -5583.157023 kJ/mol
# Density = 2.405410 g / cm^3
# Si number density = 24.108974 Si / 1000 Ang^3
#
#
#
# Elastic Constant Matrix: (Units=GPa)
#
#
# Indices 1 2 3 4 5 6 
#
# 1 243.6047 1.6648 35.7622 0.0000 0.0000 0.0000
# 2 1.6648 75.6529 0.9780 0.0000 0.0000 0.0000
# 3 35.7622 0.9780 85.8652 0.0000 0.0000 0.0000
# 4 0.0000 0.0000 0.0000 -3.7139 0.0000 0.0000
# 5 0.0000 0.0000 0.0000 0.0000 43.1745 0.0000
# 6 0.0000 0.0000 0.0000 0.0000 0.0000 -30.4152
#
#
#
# Elastic Compliance Matrix: (Units=1/GPa)
#
#
# Indices 1 2 3 4 5 6 
#
# 1 0.004373 -0.000073 -0.001820 0.000000 0.000000 0.000000
# 2 -0.000073 0.013221 -0.000120 0.000000 0.000000 0.000000
# 3 -0.001820 -0.000120 0.012406 0.000000 0.000000 0.000000
# 4 0.000000 0.000000 0.000000 -0.269261 0.000000 0.000000
# 5 0.000000 0.000000 0.000000 0.000000 0.023162 0.000000
# 6 0.000000 0.000000 0.000000 0.000000 0.000000 -0.032878
#
#
# Mechanical properties :
#
#
# Convention : Reuss Voigt Hill
#
# Bulk Modulus (GPa) = 38.50138 53.54808 46.02473
# Shear Modulus (GPa) = -21.16013 26.25694 2.54840
#
# Velocity S-wave (km/s) = -2.96579 3.30372 1.02924
# Velocity P-wave (km/s) = 2.06797 6.06728 4.53257
#
# Compressibility (1/GPa) = 0.02597310
#
# Stress axis : x y z
#
# Youngs Moduli (GPa) = 228.68907 75.63481 80.60807
#
# Poissons Ratio (x) = 0.00550 0.14674
# Poissons Ratio (y) = 0.01662 0.00970
# Poissons Ratio (z) = 0.41630 0.00910
#
# Static dielectric constant tensor:
#      x y z
#    x 1.987080 0.000000 0.000000 
#    y 0.000000 1.910350 0.000000 
#    z 0.000000 0.000000 1.904290 
# 
# From -- ./inp_files/1131.got.cif
#   From: 2010.05.17/outbox.cif.g08.bks.cpg/sg20_1_cif.got.tgz:1131.got - 2010.06.03 22:52:26.
