data_PCOD9316880
_publ_section_title
;
Structure prediction by ZEFSAII (Michael W. Deem and Ramdas Pophale) SiO2 
 PCOD9316880
Probable space group: C 2 2 21
;
_chemical_formula_sum "Si O2"
_cell_formula_units_Z 40
_cell_length_a 19.498768
_cell_length_b 8.863302
_cell_length_c 11.603566
_cell_angle_alpha 90.000000
_cell_angle_beta 90.000000
_cell_angle_gamma 90.000000
_cell_volume 2005.368534
_symmetry_space_group_name_H-M "C 2 2 21"
_symmetry_group_IT_number 20
_symmetry_cell_setting 'orthorhombic'
loop_
_space_group_symop_operation_xyz
x,y,z
-x,-y,1/2+z
x,-y,-z
-x,y,1/2-z
1/2+x,1/2+y,z
1/2-x,1/2-y,1/2+z
1/2+x,1/2-y,-z
1/2-x,1/2+y,1/2-z
loop_
_atom_site_type_symbol
_atom_site_label
_atom_site_fract_x
_atom_site_fract_y
_atom_site_fract_z
Si Si1 0.910358 0.000000 0.000000
Si Si2 0.794699 0.750976 0.030770
Si Si3 0.352342 0.864101 0.422176
Si Si4 0.985759 0.213727 0.382470
Si Si5 0.045601 0.500000 0.500000
Si Si6 0.833891 0.484983 0.166407
O O1 0.964045 0.073406 0.090781
O O2 0.857063 0.870263 0.041930
O O3 0.720270 0.823059 0.022283
O O4 0.791166 0.635221 0.138656
O O5 0.809056 0.649820 0.917497
O O6 0.403896 0.721758 0.405345
O O7 0.338488 0.931798 0.295726
O O8 0.382022 0.000000 0.500000
O O9 0.000000 0.255941 0.250000
O O10 0.009590 0.345668 0.468003
O O11 0.092673 0.472257 0.612153
#
# Coordination Sequence:
#
# PCOD9316880 Si02
#       6
#     4   8   8   8   4   8
#     4  12  22  43  67  96 136 180 232 274 348 397
#     4  10  23  43  69  95 127 188 230 277 342 412
#     4  12  25  38  68 106 136 168 236 290 335 407
#     4  12  24  43  67  99 139 181 225 290 338 409
#     4  10  18  43  69  84 120 184 224 256 350 407
#     4  10  22  45  70  87 131 184 227 278 349 413
#
# _framework density 19.946458
#
# number of rings (size 3 to 8) (size 9 to 14) (size 15 to 20)
#    0.000    1.200    8.000    0.000    2.800    3.200 
#    3.600    1.000    0.000    0.000    0.000    0.000 
#    0.000    0.000    0.000    0.000    0.000    0.000 
#
# Total GULP energy -111385.718926 kJ/mol
# GULP energy per Si atom -5569.285946 kJ/mol
# Density = 1.990106 g / cm^3
# Si number density = 19.946458 Si / 1000 Ang^3
#
#
#
# Elastic Constant Matrix: (Units=GPa)
#
#
# Indices 1 2 3 4 5 6 
#
# 1 112.3673 45.2300 26.4827 0.0000 0.0000 0.0000
# 2 45.2300 93.0841 29.3263 0.0000 0.0000 0.0000
# 3 26.4827 29.3263 98.5581 0.0000 0.0000 0.0000
# 4 0.0000 0.0000 0.0000 16.4417 0.0000 0.0000
# 5 0.0000 0.0000 0.0000 0.0000 9.8961 0.0000
# 6 0.0000 0.0000 0.0000 0.0000 0.0000 11.1717
#
#
#
# Elastic Compliance Matrix: (Units=1/GPa)
#
#
# Indices 1 2 3 4 5 6 
#
# 1 0.011272 -0.004991 -0.001544 0.000000 0.000000 0.000000
# 2 -0.004991 0.014064 -0.002844 0.000000 0.000000 0.000000
# 3 -0.001544 -0.002844 0.011407 0.000000 0.000000 0.000000
# 4 0.000000 0.000000 0.000000 0.060821 0.000000 0.000000
# 5 0.000000 0.000000 0.000000 0.000000 0.101050 0.000000
# 6 0.000000 0.000000 0.000000 0.000000 0.000000 0.089512
#
#
# Mechanical properties :
#
#
# Convention : Reuss Voigt Hill
#
# Bulk Modulus (GPa) = 55.59675 56.23196 55.91435
# Shear Modulus (GPa) = 15.98064 21.03326 18.50695
#
# Velocity S-wave (km/s) = 2.83358 3.25081 3.04934
# Velocity P-wave (km/s) = 6.21603 6.50715 6.36326
#
# Compressibility (1/GPa) = 0.01798666
#
# Stress axis : x y z
#
# Youngs Moduli (GPa) = 88.71450 71.10380 87.66324
#
# Poissons Ratio (x) = 0.35486 0.13533
# Poissons Ratio (y) = 0.44276 0.24929
# Poissons Ratio (z) = 0.13696 0.20220
#
# Static dielectric constant tensor:
#      x y z
#    x 1.774080 0.000000 0.000000 
#    y 0.000000 1.758910 0.000000 
#    z 0.000000 0.000000 1.668810 
# 
# From -- ./inp_files/16191.got.cif
#   From: 2010.05.17/outbox.cif.g08.bks.cpg/sg20_9_cif.got.tgz:16191.got - 2010.06.03 22:52:26.
