data_PCOD9316491
_publ_section_title
;
Structure prediction by ZEFSAII (Michael W. Deem and Ramdas Pophale) SiO2 
 PCOD9316491
Probable space group: C 2 2 21
;
_chemical_formula_sum "Si O2"
_cell_formula_units_Z 64
_cell_length_a 19.384907
_cell_length_b 15.750684
_cell_length_c 7.735684
_cell_angle_alpha 90.000000
_cell_angle_beta 90.000000
_cell_angle_gamma 90.000000
_cell_volume 2361.901930
_symmetry_space_group_name_H-M "C 2 2 21"
_symmetry_group_IT_number 20
_symmetry_cell_setting 'orthorhombic'
loop_
_space_group_symop_operation_xyz
x,y,z
-x,-y,1/2+z
x,-y,-z
-x,y,1/2-z
1/2+x,1/2+y,z
1/2-x,1/2-y,1/2+z
1/2+x,1/2-y,-z
1/2-x,1/2+y,1/2-z
loop_
_atom_site_type_symbol
_atom_site_label
_atom_site_fract_x
_atom_site_fract_y
_atom_site_fract_z
Si Si1 0.302853 0.189847 0.228521
Si Si2 0.550939 0.613334 0.918064
Si Si3 0.821623 0.103394 0.772259
Si Si4 0.320935 0.885715 0.386188
Si Si5 0.847844 0.800786 0.621176
Si Si6 0.076824 0.123755 0.425998
Si Si7 0.951782 0.310913 0.920514
Si Si8 0.436007 0.042932 0.830823
O O1 0.307744 0.293688 0.246675
O O2 0.302312 0.144035 0.417255
O O3 0.233433 0.172841 0.115956
O O4 0.374100 0.165708 0.139852
O O5 0.500000 0.616347 0.750000
O O6 0.624193 0.570433 0.869522
O O7 0.497922 0.581328 0.062309
O O8 0.589916 0.700820 0.979158
O O9 0.745695 0.070331 0.801470
O O10 0.866925 0.090360 0.941850
O O11 0.341124 0.793975 0.304942
O O12 0.384059 0.942277 0.325618
O O13 0.883062 0.865680 0.751104
O O14 0.056662 0.217909 0.495069
O O15 0.000000 0.309487 0.750000
O O16 0.969729 0.374230 0.076562
O O17 0.500000 0.992194 0.750000
O O18 0.403387 0.000000 0.000000
#
# Coordination Sequence:
#
# PCOD9316491 Si02
#       8
#     8   8   8   8   8   8   8   8
#     4  10  20  33  53  83 113 148 186 246 293 351
#     4  10  20  30  46  73 124 164 185 225 268 338
#     4   9  18  31  48  79 117 150 188 231 285 347
#     4  11  21  35  57  78 107 150 197 249 312 361
#     4  11  20  30  51  81 120 152 200 233 281 358
#     4  10  18  31  47  81 118 158 191 221 269 350
#     4  11  22  37  58  79 105 148 203 247 302 358
#     4  12  28  45  62  80 103 144 200 274 324 352
#
# _framework density 27.096805
#
# number of rings (size 3 to 8) (size 9 to 14) (size 15 to 20)
#    0.000    1.500    3.750    3.375    3.500    0.000 
#    0.000    0.000    0.000    0.000    0.000    0.000 
#    0.000    0.000   12.750    0.000    0.250    0.375 
#
# Total GULP energy -178465.937862 kJ/mol
# GULP energy per Si atom -5577.060558 kJ/mol
# Density = 2.703513 g / cm^3
# Si number density = 27.096805 Si / 1000 Ang^3
#
#
#
# Elastic Constant Matrix: (Units=GPa)
#
#
# Indices 1 2 3 4 5 6 
#
# 1 273.4386 15.6640 68.2875 0.0000 0.0000 0.0000
# 2 15.6640 83.8834 20.2729 0.0000 0.0000 0.0000
# 3 68.2875 20.2729 114.3853 0.0000 0.0000 0.0000
# 4 0.0000 0.0000 0.0000 23.3288 0.0000 0.0000
# 5 0.0000 0.0000 0.0000 0.0000 51.4318 0.0000
# 6 0.0000 0.0000 0.0000 0.0000 0.0000 -12.6994
#
#
#
# Elastic Compliance Matrix: (Units=1/GPa)
#
#
# Indices 1 2 3 4 5 6 
#
# 1 0.004301 -0.000191 -0.002534 0.000000 0.000000 0.000000
# 2 -0.000191 0.012463 -0.002095 0.000000 0.000000 0.000000
# 3 -0.002534 -0.002095 0.010626 0.000000 0.000000 0.000000
# 4 0.000000 0.000000 0.000000 0.042866 0.000000 0.000000
# 5 0.000000 0.000000 0.000000 0.000000 0.019443 0.000000
# 6 0.000000 0.000000 0.000000 0.000000 0.000000 -0.078744
#
#
# Mechanical properties :
#
#
# Convention : Reuss Voigt Hill
#
# Bulk Modulus (GPa) = 56.33382 75.57290 65.95336
# Shear Modulus (GPa) = 188.59833 36.91109 112.75471
#
# Velocity S-wave (km/s) = 8.35181 3.69479 6.45772
# Velocity P-wave (km/s) = 10.66952 6.79356 8.94403
#
# Compressibility (1/GPa) = 0.01775133
#
# Stress axis : x y z
#
# Youngs Moduli (GPa) = 232.51336 80.23588 94.10579
#
# Poissons Ratio (x) = 0.01531 0.23844
# Poissons Ratio (y) = 0.04435 0.19715
# Poissons Ratio (z) = 0.58913 0.16810
#
# Static dielectric constant tensor:
#      x y z
#    x 2.070620 0.000000 0.000000 
#    y 0.000000 2.200490 0.000000 
#    z 0.000000 0.000000 2.328000 
# 
# From -- ./inp_files/9641.got.cif
#   From: 2010.05.17/outbox.cif.g08.bks.cpg/sg20_5_cif.got.tgz:9641.got - 2010.06.03 22:52:26.
