data_PCOD9316889
_publ_section_title
;
Structure prediction by ZEFSAII (Michael W. Deem and Ramdas Pophale) SiO2 
 PCOD9316889
Probable space group: C 2 2 21
;
_chemical_formula_sum "Si O2"
_cell_formula_units_Z 44
_cell_length_a 13.910774
_cell_length_b 15.669976
_cell_length_c 9.421022
_cell_angle_alpha 90.000000
_cell_angle_beta 90.000000
_cell_angle_gamma 90.000000
_cell_volume 2053.608457
_symmetry_space_group_name_H-M "C 2 2 21"
_symmetry_group_IT_number 20
_symmetry_cell_setting 'orthorhombic'
loop_
_space_group_symop_operation_xyz
x,y,z
-x,-y,1/2+z
x,-y,-z
-x,y,1/2-z
1/2+x,1/2+y,z
1/2-x,1/2-y,1/2+z
1/2+x,1/2-y,-z
1/2-x,1/2+y,1/2-z
loop_
_atom_site_type_symbol
_atom_site_label
_atom_site_fract_x
_atom_site_fract_y
_atom_site_fract_z
Si Si1 0.697953 0.830927 0.835685
Si Si2 0.000000 0.612604 0.250000
Si Si3 0.500000 0.347390 0.750000
Si Si4 0.272335 0.579543 0.590863
Si Si5 0.917811 0.500000 0.000000
Si Si6 0.331637 0.737280 0.396062
Si Si7 0.166198 0.979986 0.663221
O O1 0.592066 0.828413 0.773789
O O2 0.769031 0.768632 0.747813
O O3 0.738634 0.924850 0.803638
O O4 0.689706 0.817641 0.004493
O O5 0.979266 0.553213 0.113068
O O6 0.558724 0.285523 0.856280
O O7 0.580658 0.413056 0.693822
O O8 0.313869 0.500000 0.500000
O O9 0.157441 0.562662 0.583460
O O10 0.297782 0.662240 0.502291
O O11 0.323243 0.564200 0.741014
O O12 0.161515 0.000000 0.500000
#
# Coordination Sequence:
#
# PCOD9316889 Si02
#       7
#     8   4   4   8   4   8   8
#     4  11  25  44  64  91 135 170 211 265 317 388
#     4  12  22  42  66  96 128 158 220 258 320 376
#     4  10  22  44  62  94 136 158 218 266 318 382
#     4  10  18  45  66  86 125 176 200 268 323 357
#     4  10  20  40  66  90 124 160 204 272 306 366
#     4  11  24  45  67  91 133 174 210 264 326 381
#     4  11  24  40  67  99 124 167 222 263 316 386
#
# _framework density 21.425699000000002
#
# number of rings (size 3 to 8) (size 9 to 14) (size 15 to 20)
#    0.545    0.727    7.273    0.000    6.364    2.909 
#    0.000    0.000    0.000    0.000    0.000    0.000 
#    0.000    0.000    0.000    0.000    0.000    0.000 
#
# Total GULP energy -122681.909842 kJ/mol
# GULP energy per Si atom -5576.450447 kJ/mol
# Density = 2.137693 g / cm^3
# Si number density = 21.425699 Si / 1000 Ang^3
#
#
#
# Elastic Constant Matrix: (Units=GPa)
#
#
# Indices 1 2 3 4 5 6 
#
# 1 101.0654 5.5971 18.8817 0.0000 0.0000 0.0000
# 2 5.5971 17.9399 2.9013 0.0000 0.0000 0.0000
# 3 18.8817 2.9013 113.3716 0.0000 0.0000 0.0000
# 4 0.0000 0.0000 0.0000 25.4469 0.0000 0.0000
# 5 0.0000 0.0000 0.0000 0.0000 8.2365 0.0000
# 6 0.0000 0.0000 0.0000 0.0000 0.0000 10.9270
#
#
#
# Elastic Compliance Matrix: (Units=1/GPa)
#
#
# Indices 1 2 3 4 5 6 
#
# 1 0.010367 -0.002968 -0.001651 0.000000 0.000000 0.000000
# 2 -0.002968 0.056823 -0.000960 0.000000 0.000000 0.000000
# 3 -0.001651 -0.000960 0.009120 0.000000 0.000000 0.000000
# 4 0.000000 0.000000 0.000000 0.039298 0.000000 0.000000
# 5 0.000000 0.000000 0.000000 0.000000 0.121411 0.000000
# 6 0.000000 0.000000 0.000000 0.000000 0.000000 0.091516
#
#
# Mechanical properties :
#
#
# Convention : Reuss Voigt Hill
#
# Bulk Modulus (GPa) = 15.34829 31.90414 23.62622
# Shear Modulus (GPa) = 13.83473 22.58852 18.21162
#
# Velocity S-wave (km/s) = 2.54383 3.25048 2.91862
# Velocity P-wave (km/s) = 3.97582 5.38613 4.73379
#
# Compressibility (1/GPa) = 0.06515382
#
# Stress axis : x y z
#
# Youngs Moduli (GPa) = 96.45692 17.59855 109.64865
#
# Poissons Ratio (x) = 0.05222 0.18100
# Poissons Ratio (y) = 0.28624 0.10526
# Poissons Ratio (z) = 0.15922 0.01689
#
# Static dielectric constant tensor:
#      x y z
#    x 1.772970 0.000000 0.000000 
#    y 0.000000 1.810660 0.000000 
#    z 0.000000 0.000000 1.804400 
# 
# From -- ./inp_files/8356.got.cif
#   From: 2010.05.17/outbox.cif.g08.bks.cpg/sg20_5_cif.got.tgz:8356.got - 2010.06.03 22:52:26.
