data_PCOD9316261
_publ_section_title
;
Structure prediction by ZEFSAII (Michael W. Deem and Ramdas Pophale) SiO2 
 PCOD9316261
Probable space group: C 2 2 21
;
_chemical_formula_sum "Si O2"
_cell_formula_units_Z 56
_cell_length_a 22.709813
_cell_length_b 7.912158
_cell_length_c 15.281984
_cell_angle_alpha 90.000000
_cell_angle_beta 90.000000
_cell_angle_gamma 90.000000
_cell_volume 2745.922337
_symmetry_space_group_name_H-M "C 2 2 21"
_symmetry_group_IT_number 20
_symmetry_cell_setting 'orthorhombic'
loop_
_space_group_symop_operation_xyz
x,y,z
-x,-y,1/2+z
x,-y,-z
-x,y,1/2-z
1/2+x,1/2+y,z
1/2-x,1/2-y,1/2+z
1/2+x,1/2-y,-z
1/2-x,1/2+y,1/2-z
loop_
_atom_site_type_symbol
_atom_site_label
_atom_site_fract_x
_atom_site_fract_y
_atom_site_fract_z
Si Si1 0.606606 0.804299 0.009034
Si Si2 0.879133 0.097347 0.314822
Si Si3 0.450608 0.082702 0.881790
Si Si4 0.011633 0.753295 0.435228
Si Si5 0.790276 0.130817 0.578481
Si Si6 0.836721 0.255544 0.133298
Si Si7 0.500000 0.361998 0.750000
Si Si8 0.101745 0.000000 0.500000
O O1 0.609609 0.735407 0.107946
O O2 0.556000 0.703663 0.955409
O O3 0.669594 0.774580 0.965331
O O4 0.590433 0.000000 0.000000
O O5 0.849829 0.176354 0.228221
O O6 0.944841 0.035961 0.288351
O O7 0.833743 0.963459 0.354272
O O8 0.379945 0.082216 0.875345
O O9 0.472948 0.229767 0.818695
O O10 0.478510 0.898605 0.866924
O O11 0.467802 0.160855 0.975146
O O12 0.057077 0.907477 0.431667
O O13 0.730725 0.197215 0.620345
O O14 0.776178 0.000000 0.500000
O O15 0.858607 0.127396 0.056873
#
# Coordination Sequence:
#
# PCOD9316261 Si02
#       8
#     8   8   8   8   8   8   4   4
#     4  11  21  38  65  91 123 166 207 256 317 388
#     4  10  22  41  62  91 124 166 204 266 319 370
#     4   9  18  33  61  85 120 154 195 252 308 370
#     4  10  18  35  58  89 119 152 204 249 305 367
#     4  10  25  41  62  88 124 168 211 255 312 378
#     4  10  23  43  61  88 125 166 216 258 319 365
#     4  10  16  34  66  92 122 156 196 248 326 370
#     4  10  24  36  64  92 116 166 208 264 304 374
#
# _framework density 20.393875999999999
#
# number of rings (size 3 to 8) (size 9 to 14) (size 15 to 20)
#    0.000    2.000    2.857    0.000    8.000    1.143 
#    2.571    4.286    0.000    0.857    0.000    0.000 
#    0.000    0.000    0.000    0.000    0.000    0.000 
#
# Total GULP energy -156193.999093 kJ/mol
# GULP energy per Si atom -5578.357110 kJ/mol
# Density = 2.034746 g / cm^3
# Si number density = 20.393876 Si / 1000 Ang^3
#
#
#
# Elastic Constant Matrix: (Units=GPa)
#
#
# Indices 1 2 3 4 5 6 
#
# 1 186.0246 36.1827 51.2773 0.0000 0.0000 0.0000
# 2 36.1827 56.7744 18.8216 0.0000 0.0000 0.0000
# 3 51.2773 18.8216 80.3810 0.0000 0.0000 0.0000
# 4 0.0000 0.0000 0.0000 13.7114 0.0000 0.0000
# 5 0.0000 0.0000 0.0000 0.0000 28.6170 0.0000
# 6 0.0000 0.0000 0.0000 0.0000 0.0000 18.7412
#
#
#
# Elastic Compliance Matrix: (Units=1/GPa)
#
#
# Indices 1 2 3 4 5 6 
#
# 1 0.007035 -0.003248 -0.003727 0.000000 0.000000 0.000000
# 2 -0.003248 0.020595 -0.002751 0.000000 0.000000 0.000000
# 3 -0.003727 -0.002751 0.015463 0.000000 0.000000 0.000000
# 4 0.000000 0.000000 0.000000 0.072932 0.000000 0.000000
# 5 0.000000 0.000000 0.000000 0.000000 0.034944 0.000000
# 6 0.000000 0.000000 0.000000 0.000000 0.000000 0.053358
#
#
# Mechanical properties :
#
#
# Convention : Reuss Voigt Hill
#
# Bulk Modulus (GPa) = 42.29874 59.52701 50.91287
# Shear Modulus (GPa) = 21.58347 26.67380 24.12863
#
# Velocity S-wave (km/s) = 3.25673 3.62046 3.44340
# Velocity P-wave (km/s) = 5.90996 6.83586 6.38970
#
# Compressibility (1/GPa) = 0.02364137
#
# Stress axis : x y z
#
# Youngs Moduli (GPa) = 142.15235 48.55490 64.67253
#
# Poissons Ratio (x) = 0.15769 0.24105
# Poissons Ratio (y) = 0.46166 0.17790
# Poissons Ratio (z) = 0.52983 0.13356
#
# Static dielectric constant tensor:
#      x y z
#    x 1.743040 0.000000 0.000000 
#    y 0.000000 1.776630 0.000000 
#    z 0.000000 0.000000 1.795560 
# 
# From -- ./inp_files/21822.got.cif
#   From: 2010.05.17/outbox.cif.g08.bks.cpg/sg20_11_cif.got.tgz:21822.got - 2010.06.03 22:52:26.
