data_PCOD9316556
_publ_section_title
;
Structure prediction by ZEFSAII (Michael W. Deem and Ramdas Pophale) SiO2 
 PCOD9316556
Probable space group: C 2 2 21
;
_chemical_formula_sum "Si O2"
_cell_formula_units_Z 48
_cell_length_a 7.756881
_cell_length_b 15.325257
_cell_length_c 16.745659
_cell_angle_alpha 90.000000
_cell_angle_beta 90.000000
_cell_angle_gamma 90.000000
_cell_volume 1990.660222
_symmetry_space_group_name_H-M "C 2 2 21"
_symmetry_group_IT_number 20
_symmetry_cell_setting 'orthorhombic'
loop_
_space_group_symop_operation_xyz
x,y,z
-x,-y,1/2+z
x,-y,-z
-x,y,1/2-z
1/2+x,1/2+y,z
1/2-x,1/2-y,1/2+z
1/2+x,1/2-y,-z
1/2-x,1/2+y,1/2-z
loop_
_atom_site_type_symbol
_atom_site_label
_atom_site_fract_x
_atom_site_fract_y
_atom_site_fract_z
Si Si1 0.521495 0.097963 0.988867
Si Si2 0.924209 0.745513 0.092294
Si Si3 0.669410 0.140538 0.835077
Si Si4 0.002740 0.013962 0.655445
Si Si5 0.257947 0.322192 0.344371
Si Si6 0.394038 0.655395 0.059434
O O1 0.409011 0.154499 0.048498
O O2 0.713920 0.118394 0.022008
O O3 0.511921 0.114370 0.893175
O O4 0.477307 0.000000 0.000000
O O5 0.740286 0.772063 0.124479
O O6 0.060187 0.765974 0.161033
O O7 0.988819 0.806558 0.018479
O O8 0.673539 0.158319 0.741670
O O9 0.816810 0.067637 0.853013
O O10 0.016875 0.925010 0.604643
O O11 0.000000 0.992560 0.750000
O O12 0.847271 0.081720 0.634693
O O13 0.156928 0.241213 0.389207
#
# Coordination Sequence:
#
# PCOD9316556 Si02
#       6
#     8   8   8   8   8   8
#     4  10  18  32  56  77 103 146 188 223 278 353
#     4   9  19  31  54  80 107 146 185 228 290 341
#     4   9  17  33  54  77 109 146 177 233 285 332
#     4   9  17  31  54  82 107 143 185 228 288 341
#     4   9  19  33  54  82 114 141 186 238 283 343
#     4  10  19  33  55  81 106 143 189 232 282 346
#
# _framework density 24.112603
#
# number of rings (size 3 to 8) (size 9 to 14) (size 15 to 20)
#    0.000    2.667    1.667    1.500    0.000    1.333 
#    0.000    0.000   18.333    2.000    0.000    0.000 
#    0.000    0.000    0.000    0.000    0.000    0.000 
#
# Total GULP energy -133692.239029 kJ/mol
# GULP energy per Si atom -5570.509960 kJ/mol
# Density = 2.405772 g / cm^3
# Si number density = 24.112603 Si / 1000 Ang^3
#
#
#
# Elastic Constant Matrix: (Units=GPa)
#
#
# Indices 1 2 3 4 5 6 
#
# 1 42.4882 33.3166 9.8735 0.0000 0.0000 0.0000
# 2 33.3166 176.7595 93.4951 0.0000 0.0000 0.0000
# 3 9.8735 93.4951 147.5002 0.0000 0.0000 0.0000
# 4 0.0000 0.0000 0.0000 28.4210 0.0000 0.0000
# 5 0.0000 0.0000 0.0000 0.0000 36.2537 0.0000
# 6 0.0000 0.0000 0.0000 0.0000 0.0000 29.4163
#
#
#
# Elastic Compliance Matrix: (Units=1/GPa)
#
#
# Indices 1 2 3 4 5 6 
#
# 1 0.028093 -0.006470 0.002220 0.000000 0.000000 0.000000
# 2 -0.006470 0.010001 -0.005906 0.000000 0.000000 0.000000
# 3 0.002220 -0.005906 0.010375 0.000000 0.000000 0.000000
# 4 0.000000 0.000000 0.000000 0.035185 0.000000 0.000000
# 5 0.000000 0.000000 0.000000 0.000000 0.027583 0.000000
# 6 0.000000 0.000000 0.000000 0.000000 0.000000 0.033995
#
#
# Mechanical properties :
#
#
# Convention : Reuss Voigt Hill
#
# Bulk Modulus (GPa) = 35.51412 71.12424 53.31918
# Shear Modulus (GPa) = 28.58313 34.15571 31.36942
#
# Velocity S-wave (km/s) = 3.44670 3.76774 3.61079
# Velocity P-wave (km/s) = 5.53174 6.96337 6.28843
#
# Compressibility (1/GPa) = 0.02815782
#
# Stress axis : x y z
#
# Youngs Moduli (GPa) = 35.59610 99.99242 96.38866
#
# Poissons Ratio (x) = 0.64690 -0.21401
# Poissons Ratio (y) = 0.23029 0.56928
# Poissons Ratio (z) = -0.07903 0.59056
#
# Static dielectric constant tensor:
#      x y z
#    x 2.060550 0.000000 0.000000 
#    y 0.000000 1.930060 0.000000 
#    z 0.000000 0.000000 1.958960 
# 
# From -- ./inp_files/19912.got.cif
#   From: 2010.05.17/outbox.cif.g08.bks.cpg/sg20_10_cif.got.tgz:19912.got - 2010.06.03 22:52:26.
