data_PCOD9316275
_publ_section_title
;
Structure prediction by ZEFSAII (Michael W. Deem and Ramdas Pophale) SiO2 
 PCOD9316275
Probable space group: C 2 2 21
;
_chemical_formula_sum "Si O2"
_cell_formula_units_Z 60
_cell_length_a 17.058032
_cell_length_b 9.988693
_cell_length_c 13.148036
_cell_angle_alpha 90.000000
_cell_angle_beta 90.000000
_cell_angle_gamma 90.000000
_cell_volume 2240.260259
_symmetry_space_group_name_H-M "C 2 2 21"
_symmetry_group_IT_number 20
_symmetry_cell_setting 'orthorhombic'
loop_
_space_group_symop_operation_xyz
x,y,z
-x,-y,1/2+z
x,-y,-z
-x,y,1/2-z
1/2+x,1/2+y,z
1/2-x,1/2-y,1/2+z
1/2+x,1/2-y,-z
1/2-x,1/2+y,1/2-z
loop_
_atom_site_type_symbol
_atom_site_label
_atom_site_fract_x
_atom_site_fract_y
_atom_site_fract_z
Si Si1 0.433627 0.146476 0.814486
Si Si2 0.783719 0.982335 0.889260
Si Si3 0.712467 0.819036 0.403664
Si Si4 0.964702 0.760867 0.512240
Si Si5 0.366242 0.000000 0.500000
Si Si6 0.204134 0.705647 0.356564
Si Si7 0.878566 0.110048 0.320396
Si Si8 0.114032 0.183122 0.812118
O O1 0.500000 0.065844 0.750000
O O2 0.348738 0.085517 0.844209
O O3 0.460344 0.214914 0.921943
O O4 0.417602 0.264512 0.734510
O O5 0.808260 0.831617 0.863998
O O6 0.780197 0.132617 0.847472
O O7 0.824168 0.000000 0.000000
O O8 0.691717 0.958784 0.910779
O O9 0.695966 0.824460 0.523804
O O10 0.804315 0.835750 0.377697
O O11 0.913559 0.628008 0.528420
O O12 0.921078 0.880834 0.570395
O O13 0.956283 0.784834 0.391201
O O14 0.285123 0.630099 0.331008
O O15 0.133073 0.707545 0.275127
O O16 0.898238 0.968093 0.269190
#
# Coordination Sequence:
#
# PCOD9316275 Si02
#       8
#     8   8   8   8   4   8   8   8
#     4  10  24  43  64  90 136 185 224 261 354 436
#     4   8  15  32  60  91 117 156 212 282 327 386
#     4  11  20  40  64  98 133 171 225 291 341 397
#     4  11  22  42  65  96 138 182 225 282 344 431
#     4  10  16  36  72  92 122 174 230 274 342 404
#     4  11  21  35  62  99 127 165 222 291 345 397
#     4  11  21  41  64 100 135 174 227 288 354 412
#     4  12  23  36  68 102 131 173 241 292 339 412
#
# _framework density 26.782603999999999
#
# number of rings (size 3 to 8) (size 9 to 14) (size 15 to 20)
#    0.400    1.067    5.333    1.200    0.000    0.000 
#    0.000   16.667    0.000    1.600    0.000    0.000 
#    0.000    0.000    0.000    0.000    0.000    0.000 
#
# Total GULP energy -167197.893796 kJ/mol
# GULP energy per Si atom -5573.263127 kJ/mol
# Density = 2.672165 g / cm^3
# Si number density = 26.782604 Si / 1000 Ang^3
#
#
#
# Elastic Constant Matrix: (Units=GPa)
#
#
# Indices 1 2 3 4 5 6 
#
# 1 69.6042 -10.4773 5.5857 0.0000 0.0000 0.0000
# 2 -10.4773 61.5235 -14.8927 0.0000 0.0000 0.0000
# 3 5.5857 -14.8927 102.6785 0.0000 0.0000 0.0000
# 4 0.0000 0.0000 0.0000 36.0365 0.0000 0.0000
# 5 0.0000 0.0000 0.0000 0.0000 43.3850 0.0000
# 6 0.0000 0.0000 0.0000 0.0000 0.0000 20.7812
#
#
#
# Elastic Compliance Matrix: (Units=1/GPa)
#
#
# Indices 1 2 3 4 5 6 
#
# 1 0.014765 0.002404 -0.000454 0.000000 0.000000 0.000000
# 2 0.002404 0.017237 0.002369 0.000000 0.000000 0.000000
# 3 -0.000454 0.002369 0.010108 0.000000 0.000000 0.000000
# 4 0.000000 0.000000 0.000000 0.027750 0.000000 0.000000
# 5 0.000000 0.000000 0.000000 0.000000 0.023049 0.000000
# 6 0.000000 0.000000 0.000000 0.000000 0.000000 0.048120
#
#
# Mechanical properties :
#
#
# Convention : Reuss Voigt Hill
#
# Bulk Modulus (GPa) = 19.70507 21.58197 20.64352
# Shear Modulus (GPa) = 33.48807 36.94658 35.21733
#
# Velocity S-wave (km/s) = 3.53989 3.71819 3.63013
# Velocity P-wave (km/s) = 4.90725 5.14868 5.02942
#
# Compressibility (1/GPa) = 0.05074835
#
# Stress axis : x y z
#
# Youngs Moduli (GPa) = 67.72611 58.01493 98.93636
#
# Poissons Ratio (x) = -0.13950 0.04497
# Poissons Ratio (y) = -0.16285 -0.23441
# Poissons Ratio (z) = 0.03078 -0.13745
#
# Static dielectric constant tensor:
#      x y z
#    x 2.195800 0.000000 0.000000 
#    y 0.000000 2.041110 0.000000 
#    z 0.000000 0.000000 2.324400 
# 
# From -- ./inp_files/21445.got.cif
#   From: 2010.05.17/outbox.cif.g08.bks.cpg/sg20_11_cif.got.tgz:21445.got - 2010.06.03 22:52:26.
