data_PCOD9316145
_publ_section_title
;
Structure prediction by ZEFSAII (Michael W. Deem and Ramdas Pophale) SiO2 
 PCOD9316145
Probable space group: P 21 21 21
;
_chemical_formula_sum "Si O2"
_cell_formula_units_Z 32
_cell_length_a 15.000000
_cell_length_b 12.000000
_cell_length_c 9.000000
_cell_angle_alpha 90.000000
_cell_angle_beta 90.000000
_cell_angle_gamma 90.000000
_cell_volume 1620.000000
_symmetry_space_group_name_H-M "P 21 21 21"
_symmetry_group_IT_number 19
_symmetry_cell_setting 'orthorhombic'
loop_
_space_group_symop_operation_xyz
x,y,z
1/2-x,-y,1/2+z
1/2+x,1/2-y,-z
-x,1/2+y,1/2-z
loop_
_atom_site_type_symbol
_atom_site_label
_atom_site_fract_x
_atom_site_fract_y
_atom_site_fract_z
Si Si1 0.938112 0.080771 0.418045
Si Si2 0.984612 0.952526 0.883553
Si Si3 0.767529 0.165083 0.618437
Si Si4 0.794956 0.275335 0.944964
Si Si5 0.618922 0.352608 0.106851
Si Si6 0.345723 0.441908 0.894494
Si Si7 0.001473 0.863110 0.553217
Si Si8 0.900227 0.719889 0.952104
O O1 0.858484 0.132985 0.524652
O O2 0.904694 0.092490 0.248298
O O3 0.034507 0.135008 0.459627
O O4 0.956849 0.948295 0.437466
O O5 0.983400 0.930331 0.707263
O O6 0.965471 0.828179 0.942379
O O7 0.072413 0.026520 0.913972
O O8 0.905797 0.021445 0.963782
O O9 0.786532 0.230925 0.773548
O O10 0.692552 0.238252 0.528225
O O11 0.718587 0.045646 0.646563
O O12 0.892278 0.335953 0.960095
O O13 0.710556 0.344203 0.011628
O O14 0.793567 0.165799 0.049139
O O15 0.551594 0.254038 0.053263
O O16 0.623569 0.327140 0.286260
#
# Coordination Sequence:
#
# PCOD9316145 Si02
#       8
#     4   4   4   4   4   4   4   4
#     4  12  24  44  69  97 139 179 225 291 345 411
#     4  10  21  42  67  91 132 176 221 278 332 408
#     4  11  23  43  68 102 137 179 236 282 340 406
#     4  12  25  41  68 104 136 177 227 285 350 415
#     4  11  21  43  69  93 135 175 224 282 342 412
#     4  11  23  40  69 102 129 175 236 281 333 413
#     4  11  23  44  68  97 132 180 222 277 359 402
#     4  10  24  43  66 100 132 183 231 282 345 403
#
# _framework density 19.753086
#
# number of rings (size 3 to 8) (size 9 to 14) (size 15 to 20)
#    0.000    1.000    2.500    5.250    1.750    4.000 
#    4.500    1.250    0.000    0.000    0.000    0.000 
#    0.000    0.000    0.000    0.000    0.000    0.000 
#
# Total GULP energy -178644.078791 kJ/mol
# GULP energy per Si atom -5582.627462 kJ/mol
# Density = 1.970813 g / cm^3
# Si number density = 19.753086 Si / 1000 Ang^3
#
#
#
# Elastic Constant Matrix: (Units=GPa)
#
#
# Indices 1 2 3 4 5 6 
#
# 1 119.1591 7.5839 33.4331 0.0000 0.0000 0.0000
# 2 7.5839 41.1508 17.1737 0.0000 0.0000 0.0000
# 3 33.4331 17.1737 66.7353 0.0000 0.0000 0.0000
# 4 0.0000 0.0000 0.0000 23.6205 0.0000 0.0000
# 5 0.0000 0.0000 0.0000 0.0000 39.8078 0.0000
# 6 0.0000 0.0000 0.0000 0.0000 0.0000 53.5346
#
#
#
# Elastic Compliance Matrix: (Units=1/GPa)
#
#
# Indices 1 2 3 4 5 6 
#
# 1 0.009767 0.000271 -0.004963 0.000000 0.000000 0.000000
# 2 0.000271 0.027232 -0.007144 0.000000 0.000000 0.000000
# 3 -0.004963 -0.007144 0.019309 0.000000 0.000000 0.000000
# 4 0.000000 0.000000 0.000000 0.042336 0.000000 0.000000
# 5 0.000000 0.000000 0.000000 0.000000 0.025121 0.000000
# 6 0.000000 0.000000 0.000000 0.000000 0.000000 0.018680
#
#
# Mechanical properties :
#
#
# Convention : Reuss Voigt Hill
#
# Bulk Modulus (GPa) = 30.63948 38.15850 34.39899
# Shear Modulus (GPa) = 28.24921 34.64953 31.44937
#
# Velocity S-wave (km/s) = 3.78579 4.19278 3.99447
# Velocity P-wave (km/s) = 5.88681 6.54209 6.22308
#
# Compressibility (1/GPa) = 0.03263763
#
# Stress axis : x y z
#
# Youngs Moduli (GPa) = 102.38148 36.72109 51.78834
#
# Poissons Ratio (x) = -0.00996 0.25703
# Poissons Ratio (y) = -0.02776 0.36997
# Poissons Ratio (z) = 0.50812 0.26233
#
# Static dielectric constant tensor:
#      x y z
#    x 1.691990 0.000000 0.000000 
#    y 0.000000 1.718340 0.000000 
#    z 0.000000 0.000000 1.713130 
# 
# From -- ./inp_files/3991.got.cif
#   From: 2010.05.17/outbox.ucp.g08.bks.cvg/sg19_2_cif.got.tgz:3991.got - 2010.06.11 13:13:52.
