data_PCOD9316838
_publ_section_title
;
Structure prediction by ZEFSAII (Michael W. Deem and Ramdas Pophale) SiO2 
 PCOD9316838
Probable space group: C 2 2 21
;
_chemical_formula_sum "Si O2"
_cell_formula_units_Z 48
_cell_length_a 15.397775
_cell_length_b 8.781872
_cell_length_c 15.149661
_cell_angle_alpha 90.000000
_cell_angle_beta 90.000000
_cell_angle_gamma 90.000000
_cell_volume 2048.556690
_symmetry_space_group_name_H-M "C 2 2 21"
_symmetry_group_IT_number 20
_symmetry_cell_setting 'orthorhombic'
loop_
_space_group_symop_operation_xyz
x,y,z
-x,-y,1/2+z
x,-y,-z
-x,y,1/2-z
1/2+x,1/2+y,z
1/2-x,1/2-y,1/2+z
1/2+x,1/2-y,-z
1/2-x,1/2+y,1/2-z
loop_
_atom_site_type_symbol
_atom_site_label
_atom_site_fract_x
_atom_site_fract_y
_atom_site_fract_z
Si Si1 0.130849 0.697500 0.700720
Si Si2 0.245971 0.077898 0.376184
Si Si3 0.353444 0.909021 0.907008
Si Si4 0.465466 0.666151 0.370243
Si Si5 0.809117 0.712212 0.561038
Si Si6 0.066851 0.088395 0.593682
O O1 0.223175 0.781530 0.686972
O O2 0.136762 0.521075 0.676363
O O3 0.087001 0.764541 0.787984
O O4 0.059270 0.754125 0.627901
O O5 0.264202 0.158098 0.470268
O O6 0.315459 0.941235 0.378655
O O7 0.157938 0.977433 0.369634
O O8 0.257494 0.835956 0.902120
O O9 0.421133 0.768465 0.907494
O O10 0.359267 0.000000 0.000000
O O11 0.402894 0.712019 0.450339
O O12 0.485252 0.487942 0.357605
O O13 0.060065 0.000000 0.500000
#
# Coordination Sequence:
#
# PCOD9316838 Si02
#       6
#     8   8   8   8   8   8
#     4  10  21  41  60  86 131 177 203 267 335 395
#     4   9  17  38  63  83 119 169 211 250 329 392
#     4  11  19  36  68  92 123 173 232 263 329 401
#     4  10  23  39  59  91 134 165 213 270 329 385
#     4  10  19  36  59  94 116 161 219 266 308 397
#     4  10  18  39  64  90 120 175 215 264 328 397
#
# _framework density 23.431131000000001
#
# number of rings (size 3 to 8) (size 9 to 14) (size 15 to 20)
#    0.000    2.000    5.000    1.000    0.000    2.000 
#    9.000   10.000    0.000    0.000    0.000    0.000 
#    0.000    0.000    0.000    0.000    0.000    0.000 
#
# Total GULP energy -133693.916398 kJ/mol
# GULP energy per Si atom -5570.579850 kJ/mol
# Density = 2.337780 g / cm^3
# Si number density = 23.431131 Si / 1000 Ang^3
#
#
#
# Elastic Constant Matrix: (Units=GPa)
#
#
# Indices 1 2 3 4 5 6 
#
# 1 67.3258 38.8590 -6.0760 0.0000 0.0000 0.0000
# 2 38.8590 168.3961 23.8788 0.0000 0.0000 0.0000
# 3 -6.0760 23.8788 49.6757 0.0000 0.0000 0.0000
# 4 0.0000 0.0000 0.0000 27.0200 0.0000 0.0000
# 5 0.0000 0.0000 0.0000 0.0000 17.5475 0.0000
# 6 0.0000 0.0000 0.0000 0.0000 0.0000 41.5306
#
#
#
# Elastic Compliance Matrix: (Units=1/GPa)
#
#
# Indices 1 2 3 4 5 6 
#
# 1 0.018031 -0.004801 0.004513 0.000000 0.000000 0.000000
# 2 -0.004801 0.007651 -0.004265 0.000000 0.000000 0.000000
# 3 0.004513 -0.004265 0.022733 0.000000 0.000000 0.000000
# 4 0.000000 0.000000 0.000000 0.037010 0.000000 0.000000
# 5 0.000000 0.000000 0.000000 0.000000 0.056988 0.000000
# 6 0.000000 0.000000 0.000000 0.000000 0.000000 0.024079
#
#
# Mechanical properties :
#
#
# Convention : Reuss Voigt Hill
#
# Bulk Modulus (GPa) = 25.43889 44.30237 34.87063
# Shear Modulus (GPa) = 26.49707 32.46869 29.48288
#
# Velocity S-wave (km/s) = 3.36646 3.72655 3.55107
# Velocity P-wave (km/s) = 5.09815 6.12084 5.63276
#
# Compressibility (1/GPa) = 0.03930988
#
# Stress axis : x y z
#
# Youngs Moduli (GPa) = 55.45867 130.70140 43.98938
#
# Poissons Ratio (x) = 0.62749 -0.19854
# Poissons Ratio (y) = 0.26625 0.18762
# Poissons Ratio (z) = -0.25030 0.55744
#
# Static dielectric constant tensor:
#      x y z
#    x 1.907210 0.000000 0.000000 
#    y 0.000000 1.960520 0.000000 
#    z 0.000000 0.000000 2.101500 
# 
# From -- ./inp_files/27716.got.cif
#   From: 2010.05.17/outbox.cif.g08.bks.cpg/sg20_14_cif.got.tgz:27716.got - 2010.06.03 22:52:26.
