data_PCOD9316452
_publ_section_title
;
Structure prediction by ZEFSAII (Michael W. Deem and Ramdas Pophale) SiO2 
 PCOD9316452
Probable space group: C 2 2 21
;
_chemical_formula_sum "Si O2"
_cell_formula_units_Z 48
_cell_length_a 16.362322
_cell_length_b 13.967975
_cell_length_c 9.785526
_cell_angle_alpha 90.000000
_cell_angle_beta 90.000000
_cell_angle_gamma 90.000000
_cell_volume 2236.467334
_symmetry_space_group_name_H-M "C 2 2 21"
_symmetry_group_IT_number 20
_symmetry_cell_setting 'orthorhombic'
loop_
_space_group_symop_operation_xyz
x,y,z
-x,-y,1/2+z
x,-y,-z
-x,y,1/2-z
1/2+x,1/2+y,z
1/2-x,1/2-y,1/2+z
1/2+x,1/2-y,-z
1/2-x,1/2+y,1/2-z
loop_
_atom_site_type_symbol
_atom_site_label
_atom_site_fract_x
_atom_site_fract_y
_atom_site_fract_z
Si Si1 0.941991 0.703609 0.478810
Si Si2 0.315309 0.615404 0.993019
Si Si3 0.688852 0.889346 0.785628
Si Si4 0.001851 0.902571 0.415260
Si Si5 0.173302 0.620120 0.795566
Si Si6 0.120874 0.385674 0.503850
O O1 0.887473 0.660228 0.358358
O O2 0.899762 0.665489 0.616677
O O3 0.941934 0.817679 0.460126
O O4 0.033627 0.663108 0.472320
O O5 0.270593 0.642011 0.134687
O O6 0.313846 0.500000 0.000000
O O7 0.408790 0.636108 0.961371
O O8 0.257226 0.648957 0.869753
O O9 0.683472 0.867636 0.626597
O O10 0.674390 0.003785 0.804554
O O11 0.000000 0.917084 0.250000
O O12 0.986360 0.000000 0.500000
O O13 0.160220 0.644885 0.638742
O O14 0.106159 0.500000 0.500000
#
# Coordination Sequence:
#
# PCOD9316452 Si02
#       6
#     8   8   8   8   8   8
#     4  11  20  34  57  86 121 158 196 241 299 360
#     4   8  17  38  61  81 113 156 197 244 300 354
#     4   9  17  33  61  91 123 158 187 230 298 365
#     4  11  25  45  65  84 112 157 214 266 310 359
#     4   9  18  33  59  93 125 154 187 233 295 362
#     4  10  18  29  53  95 131 153 185 232 291 364
#
# _framework density 21.462420000000002
#
# number of rings (size 3 to 8) (size 9 to 14) (size 15 to 20)
#    0.000    2.333    0.000    4.500    0.000    4.000 
#    0.000   10.833    0.000   12.000    0.000    9.333 
#    0.000    0.000    0.000    0.000    0.000    0.000 
#
# Total GULP energy -134080.067680 kJ/mol
# GULP energy per Si atom -5586.669487 kJ/mol
# Density = 2.141357 g / cm^3
# Si number density = 21.462420 Si / 1000 Ang^3
#
#
#
# Elastic Constant Matrix: (Units=GPa)
#
#
# Indices 1 2 3 4 5 6 
#
# 1 50.0987 38.1502 33.1466 0.0000 0.0000 0.0000
# 2 38.1502 121.4567 45.0733 0.0000 0.0000 0.0000
# 3 33.1466 45.0733 167.9255 0.0000 0.0000 0.0000
# 4 0.0000 0.0000 0.0000 -15.8784 0.0000 0.0000
# 5 0.0000 0.0000 0.0000 0.0000 -6.8238 0.0000
# 6 0.0000 0.0000 0.0000 0.0000 0.0000 18.9731
#
#
#
# Elastic Compliance Matrix: (Units=1/GPa)
#
#
# Indices 1 2 3 4 5 6 
#
# 1 0.027987 -0.007487 -0.003515 0.000000 0.000000 0.000000
# 2 -0.007487 0.011147 -0.001514 0.000000 0.000000 0.000000
# 3 -0.003515 -0.001514 0.007055 0.000000 0.000000 0.000000
# 4 0.000000 0.000000 0.000000 -0.062979 0.000000 0.000000
# 5 0.000000 0.000000 0.000000 0.000000 -0.146547 0.000000
# 6 0.000000 0.000000 0.000000 0.000000 0.000000 0.052706
#
#
# Mechanical properties :
#
#
# Convention : Reuss Voigt Hill
#
# Bulk Modulus (GPa) = 47.26335 63.58012 55.42173
# Shear Modulus (GPa) = -63.65701 14.12824 -24.76438
#
# Velocity S-wave (km/s) = -5.45199 2.56848 -3.40052
# Velocity P-wave (km/s) = 4.19082 6.20357 3.23430
#
# Compressibility (1/GPa) = 0.02115804
#
# Stress axis : x y z
#
# Youngs Moduli (GPa) = 35.73077 89.71129 141.73844
#
# Poissons Ratio (x) = 0.67162 0.49819
# Poissons Ratio (y) = 0.26750 0.21462
# Poissons Ratio (z) = 0.12559 0.13584
#
# Static dielectric constant tensor:
#      x y z
#    x 1.754270 0.000000 0.000000 
#    y 0.000000 1.792340 0.000000 
#    z 0.000000 0.000000 1.784080 
# 
# From -- ./inp_files/9343.got.cif
#   From: 2010.05.17/outbox.cif.g08.bks.cpg/sg20_5_cif.got.tgz:9343.got - 2010.06.03 22:52:26.
