data_PCOD9316939
_publ_section_title
;
Structure prediction by ZEFSAII (Michael W. Deem and Ramdas Pophale) SiO2 
 PCOD9316939
Probable space group: C 2 2 21
;
_chemical_formula_sum "Si O2"
_cell_formula_units_Z 48
_cell_length_a 6.449158
_cell_length_b 12.895681
_cell_length_c 24.657221
_cell_angle_alpha 90.000000
_cell_angle_beta 90.000000
_cell_angle_gamma 90.000000
_cell_volume 2050.649451
_symmetry_space_group_name_H-M "C 2 2 21"
_symmetry_group_IT_number 20
_symmetry_cell_setting 'orthorhombic'
loop_
_space_group_symop_operation_xyz
x,y,z
-x,-y,1/2+z
x,-y,-z
-x,y,1/2-z
1/2+x,1/2+y,z
1/2-x,1/2-y,1/2+z
1/2+x,1/2-y,-z
1/2-x,1/2+y,1/2-z
loop_
_atom_site_type_symbol
_atom_site_label
_atom_site_fract_x
_atom_site_fract_y
_atom_site_fract_z
Si Si1 0.225676 0.064632 0.091248
Si Si2 0.871994 0.102004 0.295398
Si Si3 0.614079 0.815899 0.304993
Si Si4 0.553021 0.225763 0.579665
Si Si5 0.962453 0.000000 0.000000
Si Si6 0.391871 0.149525 0.465111
Si Si7 0.500000 0.238598 0.250000
O O1 0.186359 0.036045 0.152852
O O2 0.457368 0.078605 0.070332
O O3 0.114701 0.179305 0.085341
O O4 0.107534 0.987452 0.051560
O O5 0.663053 0.162919 0.279691
O O6 0.000000 0.040836 0.250000
O O7 0.034731 0.195212 0.307243
O O8 0.500000 0.860182 0.250000
O O9 0.546210 0.846270 0.366293
O O10 0.856058 0.805989 0.290183
O O11 0.509272 0.181509 0.519775
O O12 0.789726 0.266536 0.574744
O O13 0.810630 0.093222 0.012138
#
# Coordination Sequence:
#
# PCOD9316939 Si02
#       7
#     8   8   8   8   4   8   4
#     4  10  19  35  51  78 112 141 177 221 267 325
#     4   8  15  26  46  72 104 131 168 220 265 310
#     4   8  15  26  42  71 107 134 164 212 265 312
#     4  10  19  31  53  82 107 135 181 221 265 318
#     4  10  24  36  52  76 112 146 180 208 272 328
#     4  11  20  35  54  82 108 144 174 225 268 316
#     4   8  12  24  40  70 102 138 158 206 278 306
#
# _framework density 23.407218
#
# number of rings (size 3 to 8) (size 9 to 14) (size 15 to 20)
#    0.000    3.000    1.667    1.500    0.000    1.333 
#    0.000    0.000    0.000    0.000    8.667    0.000 
#    0.000    0.000    0.000    0.000    0.000    0.000 
#
# Total GULP energy -133755.257117 kJ/mol
# GULP energy per Si atom -5573.135713 kJ/mol
# Density = 2.335394 g / cm^3
# Si number density = 23.407218 Si / 1000 Ang^3
#
#
#
# Elastic Constant Matrix: (Units=GPa)
#
#
# Indices 1 2 3 4 5 6 
#
# 1 109.0983 3.9273 13.4639 0.0000 0.0000 0.0000
# 2 3.9273 34.7140 -1.6814 0.0000 0.0000 0.0000
# 3 13.4639 -1.6814 116.8113 0.0000 0.0000 0.0000
# 4 0.0000 0.0000 0.0000 19.8186 0.0000 0.0000
# 5 0.0000 0.0000 0.0000 0.0000 17.2057 0.0000
# 6 0.0000 0.0000 0.0000 0.0000 0.0000 27.1855
#
#
#
# Elastic Compliance Matrix: (Units=1/GPa)
#
#
# Indices 1 2 3 4 5 6 
#
# 1 0.009341 -0.001110 -0.001093 0.000000 0.000000 0.000000
# 2 -0.001110 0.028959 0.000545 0.000000 0.000000 0.000000
# 3 -0.001093 0.000545 0.008695 0.000000 0.000000 0.000000
# 4 0.000000 0.000000 0.000000 0.050458 0.000000 0.000000
# 5 0.000000 0.000000 0.000000 0.000000 0.058120 0.000000
# 6 0.000000 0.000000 0.000000 0.000000 0.000000 0.036784
#
#
# Mechanical properties :
#
#
# Convention : Reuss Voigt Hill
#
# Bulk Modulus (GPa) = 22.89428 32.44926 27.67177
# Shear Modulus (GPa) = 23.78333 29.16955 26.47644
#
# Velocity S-wave (km/s) = 3.19104 3.53395 3.36687
# Velocity P-wave (km/s) = 4.83519 5.52673 5.19249
#
# Compressibility (1/GPa) = 0.04367903
#
# Stress axis : x y z
#
# Youngs Moduli (GPa) = 107.05688 34.53190 115.01405
#
# Poissons Ratio (x) = 0.03832 0.12567
# Poissons Ratio (y) = 0.11880 -0.06265
# Poissons Ratio (z) = 0.11697 -0.01881
#
# Static dielectric constant tensor:
#      x y z
#    x 1.854040 0.000000 0.000000 
#    y 0.000000 2.048320 0.000000 
#    z 0.000000 0.000000 2.025170 
# 
# From -- ./inp_files/28362.got.cif
#   From: 2010.05.17/outbox.cif.g08.bks.cpg/sg20_15_cif.got.tgz:28362.got - 2010.06.03 22:52:26.
