data_PCOD9316993
_publ_section_title
;
Structure prediction by ZEFSAII (Michael W. Deem and Ramdas Pophale) SiO2 
 PCOD9316993
Probable space group: C 2 2 21
;
_chemical_formula_sum "Si O2"
_cell_formula_units_Z 56
_cell_length_a 20.320472
_cell_length_b 16.940109
_cell_length_c 8.713477
_cell_angle_alpha 90.000000
_cell_angle_beta 90.000000
_cell_angle_gamma 90.000000
_cell_volume 2999.448994
_symmetry_space_group_name_H-M "C 2 2 21"
_symmetry_group_IT_number 20
_symmetry_cell_setting 'orthorhombic'
loop_
_space_group_symop_operation_xyz
x,y,z
-x,-y,1/2+z
x,-y,-z
-x,y,1/2-z
1/2+x,1/2+y,z
1/2-x,1/2-y,1/2+z
1/2+x,1/2-y,-z
1/2-x,1/2+y,1/2-z
loop_
_atom_site_type_symbol
_atom_site_label
_atom_site_fract_x
_atom_site_fract_y
_atom_site_fract_z
Si Si1 0.436180 0.464073 0.170740
Si Si2 0.251735 0.052617 0.366341
Si Si3 0.220117 0.719597 0.024828
Si Si4 0.623581 0.386520 0.811674
Si Si5 0.843595 0.270000 0.191233
Si Si6 0.188172 0.558816 0.641448
Si Si7 0.835544 0.866803 0.346427
O O1 0.500000 0.425809 0.250000
O O2 0.423004 0.542458 0.269211
O O3 0.375638 0.403918 0.205855
O O4 0.442069 0.500000 0.000000
O O5 0.285132 0.128616 0.438329
O O6 0.195784 0.084987 0.250768
O O7 0.219767 0.000000 0.500000
O O8 0.306028 0.998479 0.286384
O O9 0.295681 0.743713 0.053473
O O10 0.178921 0.773674 0.142781
O O11 0.197348 0.733375 0.851688
O O12 0.607618 0.303327 0.726454
O O13 0.626602 0.381781 0.994430
O O14 0.856864 0.362879 0.160844
O O15 0.174637 0.500000 0.500000
O O16 0.263556 0.592820 0.634936
#
# Coordination Sequence:
#
# PCOD9316993 Si02
#       7
#     8   8   8   8   8   8   8
#     4  12  24  37  54  73  91 123 164 205 246 298
#     4  11  18  28  46  68  99 133 174 199 229 284
#     4   9  19  29  42  66  93 132 164 202 235 284
#     4  10  19  33  48  68  95 132 162 205 245 284
#     4   9  19  29  43  65  96 129 168 197 239 284
#     4  11  18  29  45  68 100 138 167 198 237 282
#     4  10  19  34  48  65  99 129 165 201 250 286
#
# _framework density 18.670095
#
# number of rings (size 3 to 8) (size 9 to 14) (size 15 to 20)
#    0.000    1.714    4.286    1.714    2.000    1.143 
#    0.000    0.000    0.000    0.000    0.000    0.000 
#    0.000    1.143    1.143    0.000    0.000    0.000 
#
# Total GULP energy -155951.626364 kJ/mol
# GULP energy per Si atom -5569.700942 kJ/mol
# Density = 1.862760 g / cm^3
# Si number density = 18.670095 Si / 1000 Ang^3
#
#
#
# Elastic Constant Matrix: (Units=GPa)
#
#
# Indices 1 2 3 4 5 6 
#
# 1 18.6547 5.5580 3.1216 0.0000 0.0000 0.0000
# 2 5.5580 127.7656 16.2223 0.0000 0.0000 0.0000
# 3 3.1216 16.2223 62.8460 0.0000 0.0000 0.0000
# 4 0.0000 0.0000 0.0000 30.3183 0.0000 0.0000
# 5 0.0000 0.0000 0.0000 0.0000 13.9226 0.0000
# 6 0.0000 0.0000 0.0000 0.0000 0.0000 11.6764
#
#
#
# Elastic Compliance Matrix: (Units=1/GPa)
#
#
# Indices 1 2 3 4 5 6 
#
# 1 0.054594 -0.002099 -0.002170 0.000000 0.000000 0.000000
# 2 -0.002099 0.008173 -0.002005 0.000000 0.000000 0.000000
# 3 -0.002170 -0.002005 0.016537 0.000000 0.000000 0.000000
# 4 0.000000 0.000000 0.000000 0.032983 0.000000 0.000000
# 5 0.000000 0.000000 0.000000 0.000000 0.071826 0.000000
# 6 0.000000 0.000000 0.000000 0.000000 0.000000 0.085643
#
#
# Mechanical properties :
#
#
# Convention : Reuss Voigt Hill
#
# Bulk Modulus (GPa) = 14.98008 28.78557 21.88283
# Shear Modulus (GPa) = 16.41728 23.47442 19.94585
#
# Velocity S-wave (km/s) = 2.96858 3.54973 3.27208
# Velocity P-wave (km/s) = 4.44870 5.67911 5.10114
#
# Compressibility (1/GPa) = 0.06675531
#
# Stress axis : x y z
#
# Youngs Moduli (GPa) = 18.31690 122.35740 60.46929
#
# Poissons Ratio (x) = 0.25688 0.13121
# Poissons Ratio (y) = 0.03846 0.12126
# Poissons Ratio (z) = 0.03974 0.24537
#
# Static dielectric constant tensor:
#      x y z
#    x 1.704570 0.000000 0.000000 
#    y 0.000000 1.725890 0.000000 
#    z 0.000000 0.000000 1.704990 
# 
# From -- ./inp_files/9689.got.cif
#   From: 2010.05.17/outbox.cif.g08.bks.cpg/sg20_5_cif.got.tgz:9689.got - 2010.06.03 22:52:26.
