data_PCOD9316023
_publ_section_title
;
Structure prediction by ZEFSAII (Michael W. Deem and Ramdas Pophale) SiO2 
 PCOD9316023
Probable space group: P 21 21 21
;
_chemical_formula_sum "Si O2"
_cell_formula_units_Z 20
_cell_length_a 7.020550
_cell_length_b 11.656267
_cell_length_c 9.165622
_cell_angle_alpha 90.000000
_cell_angle_beta 90.000000
_cell_angle_gamma 90.000000
_cell_volume 750.054060
_symmetry_space_group_name_H-M "P 21 21 21"
_symmetry_group_IT_number 19
_symmetry_cell_setting 'orthorhombic'
loop_
_space_group_symop_operation_xyz
x,y,z
1/2-x,-y,1/2+z
1/2+x,1/2-y,-z
-x,1/2+y,1/2-z
loop_
_atom_site_type_symbol
_atom_site_label
_atom_site_fract_x
_atom_site_fract_y
_atom_site_fract_z
Si Si1 0.738122 0.436505 0.063915
Si Si2 0.550004 0.334222 0.510208
Si Si3 0.753850 0.829512 0.783287
Si Si4 0.886041 0.779506 0.450694
Si Si5 0.621693 0.919737 0.252824
O O1 0.614031 0.360389 0.949164
O O2 0.599461 0.437844 0.203215
O O3 0.792901 0.567147 0.030648
O O4 0.933724 0.362960 0.077337
O O5 0.614090 0.234770 0.400916
O O6 0.457646 0.294384 0.661949
O O7 0.380116 0.393832 0.417530
O O8 0.824291 0.803147 0.619802
O O9 0.769130 0.965456 0.791319
O O10 0.717347 0.819715 0.345229
#
# Coordination Sequence:
#
# PCOD9316023 Si02
#       5
#     4   4   4   4   4
#     4  12  24  46  74 107 143 195 248 300 364 444
#     4  12  27  47  75 112 149 194 249 311 369 436
#     4  12  25  51  70 111 154 188 250 310 368 445
#     4  12  25  48  75 104 147 198 245 302 375 442
#     4  12  25  48  76 106 149 193 250 301 376 445
#
# _framework density 26.664745
#
# number of rings (size 3 to 8) (size 9 to 14) (size 15 to 20)
#    0.000    0.000    8.000    1.200    0.000    3.200 
#   10.800    0.000    0.000    0.000    0.000    0.000 
#    0.000    0.000    0.000    0.000    0.000    0.000 
#
# Total GULP energy -111966.142564 kJ/mol
# GULP energy per Si atom -5598.307128 kJ/mol
# Density = 2.660405 g / cm^3
# Si number density = 26.664745 Si / 1000 Ang^3
#
#
#
# Elastic Constant Matrix: (Units=GPa)
#
#
# Indices 1 2 3 4 5 6 
#
# 1 100.9692 -8.8253 38.8461 0.0000 0.0000 0.0000
# 2 -8.8253 70.3218 1.5794 0.0000 0.0000 0.0000
# 3 38.8461 1.5794 109.3811 0.0000 0.0000 0.0000
# 4 0.0000 0.0000 0.0000 36.2074 0.0000 0.0000
# 5 0.0000 0.0000 0.0000 0.0000 49.2142 0.0000
# 6 0.0000 0.0000 0.0000 0.0000 0.0000 58.5175
#
#
#
# Elastic Compliance Matrix: (Units=1/GPa)
#
#
# Indices 1 2 3 4 5 6 
#
# 1 0.011639 0.001554 -0.004156 0.000000 0.000000 0.000000
# 2 0.001554 0.014432 -0.000760 0.000000 0.000000 0.000000
# 3 -0.004156 -0.000760 0.010629 0.000000 0.000000 0.000000
# 4 0.000000 0.000000 0.000000 0.027619 0.000000 0.000000
# 5 0.000000 0.000000 0.000000 0.000000 0.020319 0.000000
# 6 0.000000 0.000000 0.000000 0.000000 0.000000 0.017089
#
#
# Mechanical properties :
#
#
# Convention : Reuss Voigt Hill
#
# Bulk Modulus (GPa) = 33.35992 38.20806 35.78399
# Shear Modulus (GPa) = 42.21414 45.39261 43.80338
#
# Velocity S-wave (km/s) = 3.98319 4.13043 4.05748
# Velocity P-wave (km/s) = 5.80452 6.09158 5.94978
#
# Compressibility (1/GPa) = 0.02997609
#
# Stress axis : x y z
#
# Youngs Moduli (GPa) = 85.92000 69.28832 94.07991
#
# Poissons Ratio (x) = -0.10767 0.39098
# Poissons Ratio (y) = -0.13352 0.07153
# Poissons Ratio (z) = 0.35707 0.05268
#
# Static dielectric constant tensor:
#      x y z
#    x 2.130080 0.000000 0.000000 
#    y 0.000000 2.106570 0.000000 
#    z 0.000000 0.000000 2.065520 
# 
# From -- ./inp_files/2650.got.cif
#   From: 2010.05.17/outbox.cif.g08.bks.cpg/sg19_2_cif.got.tgz:2650.got - 2010.06.03 22:46:19.
