data_PCOD9316934
_publ_section_title
;
Structure prediction by ZEFSAII (Michael W. Deem and Ramdas Pophale) SiO2 
 PCOD9316934
Probable space group: C 2 2 21
;
_chemical_formula_sum "Si O2"
_cell_formula_units_Z 48
_cell_length_a 14.141579
_cell_length_b 14.330514
_cell_length_c 9.850137
_cell_angle_alpha 90.000000
_cell_angle_beta 90.000000
_cell_angle_gamma 90.000000
_cell_volume 1996.190308
_symmetry_space_group_name_H-M "C 2 2 21"
_symmetry_group_IT_number 20
_symmetry_cell_setting 'orthorhombic'
loop_
_space_group_symop_operation_xyz
x,y,z
-x,-y,1/2+z
x,-y,-z
-x,y,1/2-z
1/2+x,1/2+y,z
1/2-x,1/2-y,1/2+z
1/2+x,1/2-y,-z
1/2-x,1/2+y,1/2-z
loop_
_atom_site_type_symbol
_atom_site_label
_atom_site_fract_x
_atom_site_fract_y
_atom_site_fract_z
Si Si1 0.336930 0.149668 0.347724
Si Si2 0.641164 0.280033 0.380096
Si Si3 0.298485 0.979418 0.157403
Si Si4 0.108124 0.821235 0.650466
Si Si5 0.652842 0.190378 0.856662
Si Si6 0.601449 0.527076 0.715607
O O1 0.385211 0.232883 0.261692
O O2 0.223758 0.169154 0.356379
O O3 0.373959 0.142473 0.501649
O O4 0.343747 0.058060 0.254892
O O5 0.583527 0.262230 0.516101
O O6 0.751019 0.253010 0.394121
O O7 0.646643 0.392444 0.375237
O O8 0.328157 0.882162 0.231888
O O9 0.183587 0.987220 0.172931
O O10 0.323111 0.000000 0.000000
O O11 0.088708 0.770176 0.792105
O O12 0.076771 0.928053 0.650272
O O13 0.500000 0.569196 0.750000
#
# Coordination Sequence:
#
# PCOD9316934 Si02
#       6
#     8   8   8   8   8   8
#     4   9  17  30  48  70  96 125 160 206 257 300
#     4   9  17  30  47  67  94 129 168 208 248 290
#     4  10  19  31  51  77 102 130 166 207 250 298
#     4   9  17  30  47  67  94 129 168 208 248 290
#     4   9  17  30  48  70  96 125 160 206 257 300
#     4  10  21  33  47  71 105 142 175 205 241 292
#
# _framework density 24.045805000000001
#
# number of rings (size 3 to 8) (size 9 to 14) (size 15 to 20)
#    0.000    2.667    0.000    2.000    0.000   13.333 
#    0.000    0.000    0.000    0.000    0.000    1.167 
#    0.000    0.000    0.000    0.000    0.000    1.333 
#
# Total GULP energy -133645.469898 kJ/mol
# GULP energy per Si atom -5568.561246 kJ/mol
# Density = 2.399108 g / cm^3
# Si number density = 24.045805 Si / 1000 Ang^3
#
#
#
# Elastic Constant Matrix: (Units=GPa)
#
#
# Indices 1 2 3 4 5 6 
#
# 1 41.2324 5.1506 1.5431 0.0000 0.0000 0.0000
# 2 5.1506 58.1079 23.2186 0.0000 0.0000 0.0000
# 3 1.5431 23.2186 155.7768 0.0000 0.0000 0.0000
# 4 0.0000 0.0000 0.0000 29.5504 0.0000 0.0000
# 5 0.0000 0.0000 0.0000 0.0000 15.2967 0.0000
# 6 0.0000 0.0000 0.0000 0.0000 0.0000 -11.4624
#
#
#
# Elastic Compliance Matrix: (Units=1/GPa)
#
#
# Indices 1 2 3 4 5 6 
#
# 1 0.024525 -0.002208 0.000086 0.000000 0.000000 0.000000
# 2 -0.002208 0.018498 -0.002735 0.000000 0.000000 0.000000
# 3 0.000086 -0.002735 0.006826 0.000000 0.000000 0.000000
# 4 0.000000 0.000000 0.000000 0.033841 0.000000 0.000000
# 5 0.000000 0.000000 0.000000 0.000000 0.065374 0.000000
# 6 0.000000 0.000000 0.000000 0.000000 0.000000 -0.087242
#
#
# Mechanical properties :
#
#
# Convention : Reuss Voigt Hill
#
# Bulk Modulus (GPa) = 24.91598 34.99354 29.95476
# Shear Modulus (GPa) = 58.88246 21.69059 40.28653
#
# Velocity S-wave (km/s) = 4.95387 3.00668 4.09762
# Velocity P-wave (km/s) = 6.56547 5.16120 5.90523
#
# Compressibility (1/GPa) = 0.04013489
#
# Stress axis : x y z
#
# Youngs Moduli (GPa) = 40.77407 54.05972 146.49266
#
# Poissons Ratio (x) = 0.11938 -0.01263
# Poissons Ratio (y) = 0.09004 0.40070
# Poissons Ratio (z) = -0.00352 0.14787
#
# Static dielectric constant tensor:
#      x y z
#    x 1.974550 0.000000 0.000000 
#    y 0.000000 1.930860 0.000000 
#    z 0.000000 0.000000 2.023400 
# 
# From -- ./inp_files/9334.got.cif
#   From: 2010.05.17/outbox.cif.g08.bks.cpg/sg20_5_cif.got.tgz:9334.got - 2010.06.03 22:52:26.
