data_PCOD9316313
_publ_section_title
;
Structure prediction by ZEFSAII (Michael W. Deem and Ramdas Pophale) SiO2 
 PCOD9316313
Probable space group: C 2 2 21
;
_chemical_formula_sum "Si O2"
_cell_formula_units_Z 44
_cell_length_a 22.997681
_cell_length_b 18.996707
_cell_length_c 5.587817
_cell_angle_alpha 90.000000
_cell_angle_beta 90.000000
_cell_angle_gamma 90.000000
_cell_volume 2441.206651
_symmetry_space_group_name_H-M "C 2 2 21"
_symmetry_group_IT_number 20
_symmetry_cell_setting 'orthorhombic'
loop_
_space_group_symop_operation_xyz
x,y,z
-x,-y,1/2+z
x,-y,-z
-x,y,1/2-z
1/2+x,1/2+y,z
1/2-x,1/2-y,1/2+z
1/2+x,1/2-y,-z
1/2-x,1/2+y,1/2-z
loop_
_atom_site_type_symbol
_atom_site_label
_atom_site_fract_x
_atom_site_fract_y
_atom_site_fract_z
Si Si1 0.620993 0.750714 0.319456
Si Si2 0.442787 0.073496 0.394303
Si Si3 0.286904 0.122893 0.801465
Si Si4 0.324961 0.722256 0.685399
Si Si5 0.183508 0.387726 0.794054
Si Si6 0.000000 0.685580 0.750000
O O1 0.657414 0.824055 0.310155
O O2 0.641329 0.712973 0.563255
O O3 0.552913 0.767442 0.344134
O O4 0.638283 0.716071 0.062448
O O5 0.500000 0.052193 0.250000
O O6 0.386196 0.105259 0.270076
O O7 0.467934 0.133516 0.566091
O O8 0.421156 0.000000 0.500000
O O9 0.229490 0.170454 0.809808
O O10 0.294545 0.084150 0.549178
O O11 0.289535 0.082431 0.052214
O O12 0.302657 0.803635 0.692325
#
# Coordination Sequence:
#
# PCOD9316313 Si02
#       6
#     8   8   8   8   8   4
#     4  10  19  28  45  64  88 113 141 188 240 277
#     4  12  24  35  48  61  87 130 175 215 247 275
#     4  10  17  31  49  67  84 104 139 196 251 286
#     4  10  17  30  48  67  85 105 140 192 247 288
#     4  10  19  31  45  66  84 106 146 195 249 272
#     4  12  22  36  44  64  92 126 166 206 248 276
#
# _framework density 18.023872999999998
#
# number of rings (size 3 to 8) (size 9 to 14) (size 15 to 20)
#    0.000    1.455    4.545    7.636    0.000    0.000 
#    0.000    0.000    0.000    0.000    0.000    0.000 
#    0.000    0.000    0.000    0.000    0.000    0.000 
#
# Total GULP energy -122616.836033 kJ/mol
# GULP energy per Si atom -5573.492547 kJ/mol
# Density = 1.798285 g / cm^3
# Si number density = 18.023873 Si / 1000 Ang^3
#
#
#
# Elastic Constant Matrix: (Units=GPa)
#
#
# Indices 1 2 3 4 5 6 
#
# 1 113.5296 38.4461 53.4299 0.0000 0.0000 0.0000
# 2 38.4461 31.5260 23.1445 0.0000 0.0000 0.0000
# 3 53.4299 23.1445 163.5875 0.0000 0.0000 0.0000
# 4 0.0000 0.0000 0.0000 2.4165 0.0000 0.0000
# 5 0.0000 0.0000 0.0000 0.0000 20.0844 0.0000
# 6 0.0000 0.0000 0.0000 0.0000 0.0000 11.5739
#
#
#
# Elastic Compliance Matrix: (Units=1/GPa)
#
#
# Indices 1 2 3 4 5 6 
#
# 1 0.016049 -0.017546 -0.002759 0.000000 0.000000 0.000000
# 2 -0.017546 0.054578 -0.001991 0.000000 0.000000 0.000000
# 3 -0.002759 -0.001991 0.007296 0.000000 0.000000 0.000000
# 4 0.000000 0.000000 0.000000 0.413821 0.000000 0.000000
# 5 0.000000 0.000000 0.000000 0.000000 0.049790 0.000000
# 6 0.000000 0.000000 0.000000 0.000000 0.000000 0.086401
#
#
# Mechanical properties :
#
#
# Convention : Reuss Voigt Hill
#
# Bulk Modulus (GPa) = 30.00228 59.85380 44.92804
# Shear Modulus (GPa) = 7.31382 19.72315 13.51849
#
# Velocity S-wave (km/s) = 2.01660 3.31158 2.74164
# Velocity P-wave (km/s) = 4.70151 6.92114 5.91635
#
# Compressibility (1/GPa) = 0.03333080
#
# Stress axis : x y z
#
# Youngs Moduli (GPa) = 62.31084 18.32225 137.06362
#
# Poissons Ratio (x) = 0.32147 0.37820
# Poissons Ratio (y) = 1.09328 0.27292
# Poissons Ratio (z) = 0.17194 0.03648
#
# Static dielectric constant tensor:
#      x y z
#    x 1.608680 0.000000 0.000000 
#    y 0.000000 1.597950 0.000000 
#    z 0.000000 0.000000 1.789170 
# 
# From -- ./inp_files/2674.got.cif
#   From: 2010.05.17/outbox.cif.g08.bks.cpg/sg20_2_cif.got.tgz:2674.got - 2010.06.03 22:52:26.
