data_PCOD9316076
_publ_section_title
;
Structure prediction by ZEFSAII (Michael W. Deem and Ramdas Pophale) SiO2 
 PCOD9316076
Probable space group: P 21 21 21
;
_chemical_formula_sum "Si O2"
_cell_formula_units_Z 16
_cell_length_a 4.915013
_cell_length_b 26.146791
_cell_length_c 5.056053
_cell_angle_alpha 90.000000
_cell_angle_beta 90.000000
_cell_angle_gamma 90.000000
_cell_volume 649.762561
_symmetry_space_group_name_H-M "P 21 21 21"
_symmetry_group_IT_number 19
_symmetry_cell_setting 'orthorhombic'
loop_
_space_group_symop_operation_xyz
x,y,z
1/2-x,-y,1/2+z
1/2+x,1/2-y,-z
-x,1/2+y,1/2-z
loop_
_atom_site_type_symbol
_atom_site_label
_atom_site_fract_x
_atom_site_fract_y
_atom_site_fract_z
Si Si1 0.679510 0.651357 0.558834
Si Si2 0.768453 0.716974 0.056628
Si Si3 0.555154 0.492630 0.583979
Si Si4 0.175694 0.584068 0.433767
O O1 0.772792 0.694373 0.350009
O O2 0.400750 0.627976 0.447593
O O3 0.904254 0.606972 0.558249
O O4 0.660058 0.675137 0.848526
O O5 0.564158 0.764609 0.034442
O O6 0.179661 0.464681 0.068254
O O7 0.744459 0.496276 0.329146
O O8 0.415262 0.438231 0.649017
#
# Coordination Sequence:
#
# PCOD9316076 Si02
#       4
#     4   4   4   4
#     4  12  28  45  79 108 146 192 253 311 364 464
#     4  12  26  50  76 106 146 188 242 314 394 446
#     4  12  28  50  76 108 162 212 252 310 372 440
#     4  12  28  49  73 114 152 200 257 301 372 434
#
# _framework density 24.624379999999999
#
# number of rings (size 3 to 8) (size 9 to 14) (size 15 to 20)
#    0.000    0.000    2.500    6.000    3.500    4.000 
#    0.000    0.000    0.000    0.000    0.000    0.000 
#    0.000    0.000    0.000    0.000    0.000    0.000 
#
# Total GULP energy -89769.634113 kJ/mol
# GULP energy per Si atom -5610.602132 kJ/mol
# Density = 2.456833 g / cm^3
# Si number density = 24.624380 Si / 1000 Ang^3
#
#
#
# Elastic Constant Matrix: (Units=GPa)
#
#
# Indices 1 2 3 4 5 6 
#
# 1 115.6369 -6.0861 13.5163 0.0000 0.0000 0.0000
# 2 -6.0861 28.1520 -10.3120 0.0000 0.0000 0.0000
# 3 13.5163 -10.3120 100.1695 0.0000 0.0000 0.0000
# 4 0.0000 0.0000 0.0000 44.2837 0.0000 0.0000
# 5 0.0000 0.0000 0.0000 0.0000 33.6428 0.0000
# 6 0.0000 0.0000 0.0000 0.0000 0.0000 64.3064
#
#
#
# Elastic Compliance Matrix: (Units=1/GPa)
#
#
# Indices 1 2 3 4 5 6 
#
# 1 0.008850 0.001534 -0.001036 0.000000 0.000000 0.000000
# 2 0.001534 0.037179 0.003620 0.000000 0.000000 0.000000
# 3 -0.001036 0.003620 0.010496 0.000000 0.000000 0.000000
# 4 0.000000 0.000000 0.000000 0.022582 0.000000 0.000000
# 5 0.000000 0.000000 0.000000 0.000000 0.029724 0.000000
# 6 0.000000 0.000000 0.000000 0.000000 0.000000 0.015551
#
#
# Mechanical properties :
#
#
# Convention : Reuss Voigt Hill
#
# Bulk Modulus (GPa) = 15.44161 26.46609 20.95385
# Shear Modulus (GPa) = 36.30248 44.90260 40.60254
#
# Velocity S-wave (km/s) = 3.84376 4.27488 4.06504
# Velocity P-wave (km/s) = 5.09743 5.92768 5.52816
#
# Compressibility (1/GPa) = 0.06476009
#
# Stress axis : x y z
#
# Youngs Moduli (GPa) = 112.99949 26.89677 95.27783
#
# Poissons Ratio (x) = -0.04125 0.09873
# Poissons Ratio (y) = -0.17329 -0.34495
# Poissons Ratio (z) = 0.11709 -0.09738
#
# Static dielectric constant tensor:
#      x y z
#    x 1.901900 0.000000 0.000000 
#    y 0.000000 1.983250 0.000000 
#    z 0.000000 0.000000 1.916770 
# 
# From -- ./inp_files/133.got.cif
#   From: 2010.05.17/outbox.cif.g08.bks.cpg/sg19_1_cif.got.tgz:133.got - 2010.06.03 22:46:19.
