data_PCOD9316642
_publ_section_title
;
Structure prediction by ZEFSAII (Michael W. Deem and Ramdas Pophale) SiO2 
 PCOD9316642
Probable space group: C 2 2 21
;
_chemical_formula_sum "Si O2"
_cell_formula_units_Z 40
_cell_length_a 10.924711
_cell_length_b 12.153308
_cell_length_c 11.936554
_cell_angle_alpha 90.000000
_cell_angle_beta 90.000000
_cell_angle_gamma 90.000000
_cell_volume 1584.832718
_symmetry_space_group_name_H-M "C 2 2 21"
_symmetry_group_IT_number 20
_symmetry_cell_setting 'orthorhombic'
loop_
_space_group_symop_operation_xyz
x,y,z
-x,-y,1/2+z
x,-y,-z
-x,y,1/2-z
1/2+x,1/2+y,z
1/2-x,1/2-y,1/2+z
1/2+x,1/2-y,-z
1/2-x,1/2+y,1/2-z
loop_
_atom_site_type_symbol
_atom_site_label
_atom_site_fract_x
_atom_site_fract_y
_atom_site_fract_z
Si Si1 0.858042 0.714393 0.917103
Si Si2 0.241363 0.500000 0.500000
Si Si3 0.368642 0.484068 0.265192
Si Si4 0.000000 0.765049 0.250000
Si Si5 0.376305 0.936997 0.299777
Si Si6 0.592240 0.804083 0.981365
O O1 0.858740 0.666501 0.789389
O O2 0.731901 0.770189 0.954062
O O3 0.846602 0.604076 0.993097
O O4 0.987002 0.769332 0.952243
O O5 0.328873 0.491395 0.393462
O O6 0.500000 0.540418 0.250000
O O7 0.394134 0.357200 0.227626
O O8 0.242857 0.514549 0.204697
O O9 0.965183 0.697233 0.358221
O O10 0.500000 0.986202 0.250000
O O11 0.394673 0.897817 0.425440
#
# Coordination Sequence:
#
# PCOD9316642 Si02
#       6
#     8   4   8   4   8   8
#     4  10  21  36  62  88 121 162 207 252 314 375
#     4  10  18  38  62  86 114 174 196 252 316 382
#     4   9  18  35  60  83 118 162 210 248 313 370
#     4  10  18  34  58  90 112 160 198 258 304 362
#     4   9  18  33  55  87 114 160 200 247 307 370
#     4  11  20  34  64  87 124 158 211 262 313 367
#
# _framework density 25.239256999999998
#
# number of rings (size 3 to 8) (size 9 to 14) (size 15 to 20)
#    0.600    1.600    4.000    1.200    0.000    0.000 
#    0.000    3.000   22.000    6.000    0.000    0.000 
#    0.000    0.000    0.000    0.000    0.000    0.000 
#
# Total GULP energy -111336.898172 kJ/mol
# GULP energy per Si atom -5566.844909 kJ/mol
# Density = 2.518181 g / cm^3
# Si number density = 25.239257 Si / 1000 Ang^3
#
#
#
# Elastic Constant Matrix: (Units=GPa)
#
#
# Indices 1 2 3 4 5 6 
#
# 1 201.7937 24.1148 58.8204 0.0000 0.0000 0.0000
# 2 24.1148 56.1006 52.0338 0.0000 0.0000 0.0000
# 3 58.8204 52.0338 108.9376 0.0000 0.0000 0.0000
# 4 0.0000 0.0000 0.0000 10.1618 0.0000 0.0000
# 5 0.0000 0.0000 0.0000 0.0000 54.7603 0.0000
# 6 0.0000 0.0000 0.0000 0.0000 0.0000 -3.2929
#
#
#
# Elastic Compliance Matrix: (Units=1/GPa)
#
#
# Indices 1 2 3 4 5 6 
#
# 1 0.005899 0.000751 -0.003544 0.000000 0.000000 0.000000
# 2 0.000751 0.032099 -0.015738 0.000000 0.000000 0.000000
# 3 -0.003544 -0.015738 0.018610 0.000000 0.000000 0.000000
# 4 0.000000 0.000000 0.000000 0.098408 0.000000 0.000000
# 5 0.000000 0.000000 0.000000 0.000000 0.018261 0.000000
# 6 0.000000 0.000000 0.000000 0.000000 0.000000 -0.303686
#
#
# Mechanical properties :
#
#
# Convention : Reuss Voigt Hill
#
# Bulk Modulus (GPa) = 51.15749 70.75222 60.95485
# Shear Modulus (GPa) = -57.58192 27.78337 -14.89927
#
# Velocity S-wave (km/s) = -4.78163 3.32143 -2.43229
# Velocity P-wave (km/s) = 3.18940 6.54237 4.03921
#
# Compressibility (1/GPa) = 0.01954748
#
# Stress axis : x y z
#
# Youngs Moduli (GPa) = 169.52673 31.15364 53.73396
#
# Poissons Ratio (x) = -0.02341 0.19043
# Poissons Ratio (y) = -0.12739 0.84565
# Poissons Ratio (z) = 0.60079 0.49029
#
# Static dielectric constant tensor:
#      x y z
#    x 2.906130 0.000000 0.000000 
#    y 0.000000 2.007770 0.000000 
#    z 0.000000 0.000000 1.933610 
# 
# From -- ./inp_files/13940.got.cif
#   From: 2010.05.17/outbox.cif.g08.bks.cpg/sg20_7_cif.got.tgz:13940.got - 2010.06.03 22:52:26.
