data_PCOD9316166
_publ_section_title
;
Structure prediction by ZEFSAII (Michael W. Deem and Ramdas Pophale) SiO2 
 PCOD9316166
Probable space group: P 21 21 21
;
_chemical_formula_sum "Si O2"
_cell_formula_units_Z 28
_cell_length_a 12.000000
_cell_length_b 9.000000
_cell_length_c 12.000000
_cell_angle_alpha 90.000000
_cell_angle_beta 90.000000
_cell_angle_gamma 90.000000
_cell_volume 1296.000000
_symmetry_space_group_name_H-M "P 21 21 21"
_symmetry_group_IT_number 19
_symmetry_cell_setting 'orthorhombic'
loop_
_space_group_symop_operation_xyz
x,y,z
1/2-x,-y,1/2+z
1/2+x,1/2-y,-z
-x,1/2+y,1/2-z
loop_
_atom_site_type_symbol
_atom_site_label
_atom_site_fract_x
_atom_site_fract_y
_atom_site_fract_z
Si Si1 0.285049 0.651817 0.914371
Si Si2 0.578451 0.424381 0.602285
Si Si3 0.465276 0.321989 0.377467
Si Si4 0.231830 0.800382 0.401457
Si Si5 0.455540 0.968421 0.334581
Si Si6 0.704634 0.940707 0.408980
Si Si7 0.126155 0.555677 0.259761
O O1 0.317503 0.815542 0.880531
O O2 0.160789 0.616103 0.874364
O O3 0.381163 0.540919 0.871633
O O4 0.285216 0.609656 0.043810
O O5 0.511899 0.354093 0.499434
O O6 0.630819 0.584608 0.578639
O O7 0.492087 0.421921 0.703675
O O8 0.541377 0.414157 0.292921
O O9 0.457671 0.146732 0.349367
O O10 0.347759 0.888943 0.387724
O O11 0.240844 0.681401 0.500815
O O12 0.193538 0.703441 0.293831
O O13 0.576672 0.912668 0.377561
O O14 0.796935 0.946699 0.313684
#
# Coordination Sequence:
#
# PCOD9316166 Si02
#       7
#     4   4   4   4   4   4   4
#     4  11  23  45  63 101 135 184 225 274 353 403
#     4  12  25  46  69 104 138 179 230 288 346 410
#     4  12  26  42  74  96 140 181 229 285 342 418
#     4  11  28  44  70 106 138 182 234 285 345 413
#     4  12  26  47  67 105 137 178 237 285 342 413
#     4  11  24  43  71  97 137 183 224 281 346 409
#     4  11  24  45  70  97 141 183 225 280 346 416
#
# _framework density 21.604938000000001
#
# number of rings (size 3 to 8) (size 9 to 14) (size 15 to 20)
#    0.000    0.571    5.714    1.714    6.000    0.000 
#    0.000    0.000    0.000    0.000    0.000    0.000 
#    0.000    0.000    0.000    0.000    0.000    0.000 
#
# Total GULP energy -156247.452868 kJ/mol
# GULP energy per Si atom -5580.266174 kJ/mol
# Density = 2.155576 g / cm^3
# Si number density = 21.604938 Si / 1000 Ang^3
#
#
#
# Elastic Constant Matrix: (Units=GPa)
#
#
# Indices 1 2 3 4 5 6 
#
# 1 65.1467 -0.2211 0.2995 0.0000 0.0000 0.0000
# 2 -0.2211 93.9420 12.5089 0.0000 0.0000 0.0000
# 3 0.2995 12.5089 43.9114 0.0000 0.0000 0.0000
# 4 0.0000 0.0000 0.0000 25.8438 0.0000 0.0000
# 5 0.0000 0.0000 0.0000 0.0000 21.0054 0.0000
# 6 0.0000 0.0000 0.0000 0.0000 0.0000 14.2000
#
#
#
# Elastic Compliance Matrix: (Units=1/GPa)
#
#
# Indices 1 2 3 4 5 6 
#
# 1 0.015351 0.000052 -0.000120 0.000000 0.000000 0.000000
# 2 0.000052 0.011065 -0.003152 0.000000 0.000000 0.000000
# 3 -0.000120 -0.003152 0.023672 0.000000 0.000000 0.000000
# 4 0.000000 0.000000 0.000000 0.038694 0.000000 0.000000
# 5 0.000000 0.000000 0.000000 0.000000 0.047607 0.000000
# 6 0.000000 0.000000 0.000000 0.000000 0.000000 0.070422
#
#
# Mechanical properties :
#
#
# Convention : Reuss Voigt Hill
#
# Bulk Modulus (GPa) = 22.91069 25.35276 24.13172
# Shear Modulus (GPa) = 21.94912 24.90403 23.42658
#
# Velocity S-wave (km/s) = 3.19082 3.39883 3.29647
# Velocity P-wave (km/s) = 4.91961 5.21180 5.06781
#
# Compressibility (1/GPa) = 0.04364775
#
# Stress axis : x y z
#
# Youngs Moduli (GPa) = 65.14361 90.37719 42.24406
#
# Poissons Ratio (x) = -0.00470 0.00505
# Poissons Ratio (y) = -0.00339 0.13317
# Poissons Ratio (z) = 0.00779 0.28490
#
# Static dielectric constant tensor:
#      x y z
#    x 1.758030 0.000000 0.000000 
#    y 0.000000 1.784670 0.000000 
#    z 0.000000 0.000000 2.064700 
# 
# From -- ./inp_files/3423.got.cif
#   From: 2010.05.17/outbox.ucp.g08.bks.cvg/sg19_2_cif.got.tgz:3423.got - 2010.06.11 13:13:52.
