data_PCOD9316292
_publ_section_title
;
Structure prediction by ZEFSAII (Michael W. Deem and Ramdas Pophale) SiO2 
 PCOD9316292
Probable space group: C 2 2 21
;
_chemical_formula_sum "Si O2"
_cell_formula_units_Z 56
_cell_length_a 24.675539
_cell_length_b 27.161128
_cell_length_c 5.468477
_cell_angle_alpha 90.000000
_cell_angle_beta 90.000000
_cell_angle_gamma 90.000000
_cell_volume 3665.057901
_symmetry_space_group_name_H-M "C 2 2 21"
_symmetry_group_IT_number 20
_symmetry_cell_setting 'orthorhombic'
loop_
_space_group_symop_operation_xyz
x,y,z
-x,-y,1/2+z
x,-y,-z
-x,y,1/2-z
1/2+x,1/2+y,z
1/2-x,1/2-y,1/2+z
1/2+x,1/2-y,-z
1/2-x,1/2+y,1/2-z
loop_
_atom_site_type_symbol
_atom_site_label
_atom_site_fract_x
_atom_site_fract_y
_atom_site_fract_z
Si Si1 0.636754 0.302879 0.989559
Si Si2 0.333327 0.694159 0.987125
Si Si3 0.566184 0.972641 0.247333
Si Si4 0.704323 0.797739 0.020513
Si Si5 0.535036 0.766725 0.998442
Si Si6 0.149107 0.690867 0.475821
Si Si7 0.064513 0.639445 0.761201
O O1 0.648651 0.331228 0.237801
O O2 0.681755 0.258446 0.982323
O O3 0.578673 0.276773 0.003009
O O4 0.645495 0.329789 0.734589
O O5 0.268859 0.701211 0.990579
O O6 0.358837 0.749762 0.977993
O O7 0.500000 0.972971 0.250000
O O8 0.585339 0.916091 0.221145
O O9 0.582716 0.000000 0.500000
O O10 0.583190 0.000000 0.000000
O O11 0.680043 0.821326 0.773499
O O12 0.683690 0.819753 0.277446
O O13 0.500000 0.767187 0.750000
O O14 0.500000 0.762516 0.250000
O O15 0.569078 0.817823 0.033363
O O16 0.092806 0.663509 0.525248
O O17 0.000000 0.633718 0.750000
#
# Coordination Sequence:
#
# PCOD9316292 Si02
#       7
#     8   8   8   8   8   8   8
#     4  10  17  28  39  52  72  95 121 143 172 221
#     4  10  17  28  41  54  73  98 119 144 174 216
#     4   9  19  34  46  57  71  91 120 151 189 239
#     4  10  18  27  40  55  75  96 118 144 176 216
#     4  11  22  30  40  58  80  97 119 154 194 230
#     4  10  18  28  39  58  75  91 119 148 180 227
#     4  10  21  31  46  60  76  98 121 157 198 237
#
# _framework density 15.27943
#
# number of rings (size 3 to 8) (size 9 to 14) (size 15 to 20)
#    0.000    2.000    2.857    5.143    6.000    5.143 
#    0.000    0.000    0.000    0.000    0.000    0.000 
#    0.000    0.000    0.000    0.000    0.000    0.000 
#
# Total GULP energy -155924.850248 kJ/mol
# GULP energy per Si atom -5568.744652 kJ/mol
# Density = 1.524465 g / cm^3
# Si number density = 15.279430 Si / 1000 Ang^3
#
#
#
# Elastic Constant Matrix: (Units=GPa)
#
#
# Indices 1 2 3 4 5 6 
#
# 1 53.2146 10.9281 35.7618 0.0000 0.0000 0.0000
# 2 10.9281 9.6402 5.1518 0.0000 0.0000 0.0000
# 3 35.7618 5.1518 156.5634 0.0000 0.0000 0.0000
# 4 0.0000 0.0000 0.0000 6.9477 0.0000 0.0000
# 5 0.0000 0.0000 0.0000 0.0000 27.5808 0.0000
# 6 0.0000 0.0000 0.0000 0.0000 0.0000 -1.8030
#
#
#
# Elastic Compliance Matrix: (Units=1/GPa)
#
#
# Indices 1 2 3 4 5 6 
#
# 1 0.028567 -0.029413 -0.005557 0.000000 0.000000 0.000000
# 2 -0.029413 0.135874 0.002247 0.000000 0.000000 0.000000
# 3 -0.005557 0.002247 0.007583 0.000000 0.000000 0.000000
# 4 0.000000 0.000000 0.000000 0.143933 0.000000 0.000000
# 5 0.000000 0.000000 0.000000 0.000000 0.036257 0.000000
# 6 0.000000 0.000000 0.000000 0.000000 0.000000 -0.554619
#
#
# Mechanical properties :
#
#
# Convention : Reuss Voigt Hill
#
# Bulk Modulus (GPa) = 9.38288 35.90018 22.64153
# Shear Modulus (GPa) = -49.29313 17.71686 -15.78814
#
# Velocity S-wave (km/s) = -5.68605 3.40887 -3.21798
# Velocity P-wave (km/s) = 6.07898 6.24825 1.02143
#
# Compressibility (1/GPa) = 0.10657714
#
# Stress axis : x y z
#
# Youngs Moduli (GPa) = 35.00575 7.35977 131.88068
#
# Poissons Ratio (x) = 0.21647 0.73290
# Poissons Ratio (y) = 1.02963 -0.29640
# Poissons Ratio (z) = 0.19454 -0.01654
#
# Static dielectric constant tensor:
#      x y z
#    x 1.551570 0.000000 0.000000 
#    y 0.000000 1.472420 0.000000 
#    z 0.000000 0.000000 1.632540 
# 
# From -- ./inp_files/3861.got.cif
#   From: 2010.05.17/outbox.cif.g08.bks.cpg/sg20_2_cif.got.tgz:3861.got - 2010.06.03 22:52:26.
