data_PCOD9316696
_publ_section_title
;
Structure prediction by ZEFSAII (Michael W. Deem and Ramdas Pophale) SiO2 
 PCOD9316696
Probable space group: C 2 2 21
;
_chemical_formula_sum "Si O2"
_cell_formula_units_Z 52
_cell_length_a 14.982374
_cell_length_b 9.088352
_cell_length_c 16.670203
_cell_angle_alpha 90.000000
_cell_angle_beta 90.000000
_cell_angle_gamma 90.000000
_cell_volume 2269.899670
_symmetry_space_group_name_H-M "C 2 2 21"
_symmetry_group_IT_number 20
_symmetry_cell_setting 'orthorhombic'
loop_
_space_group_symop_operation_xyz
x,y,z
-x,-y,1/2+z
x,-y,-z
-x,y,1/2-z
1/2+x,1/2+y,z
1/2-x,1/2-y,1/2+z
1/2+x,1/2-y,-z
1/2-x,1/2+y,1/2-z
loop_
_atom_site_type_symbol
_atom_site_label
_atom_site_fract_x
_atom_site_fract_y
_atom_site_fract_z
Si Si1 0.212207 0.492330 0.598103
Si Si2 0.464318 0.145311 0.839567
Si Si3 0.854126 0.781242 0.048760
Si Si4 0.876532 0.953690 0.837198
Si Si5 0.531901 0.869918 0.908699
Si Si6 0.725793 0.784565 0.896986
Si Si7 0.500000 0.328496 0.250000
O O1 0.204107 0.500000 0.500000
O O2 0.206862 0.318060 0.609459
O O3 0.286716 0.610460 0.620831
O O4 0.128612 0.560613 0.645147
O O5 0.500000 0.128205 0.750000
O O6 0.444485 0.317503 0.850879
O O7 0.526356 0.045226 0.895579
O O8 0.948266 0.693682 0.040761
O O9 0.872935 0.936508 0.087804
O O10 0.798997 0.207359 0.032300
O O11 0.777345 0.880135 0.828871
O O12 0.917952 0.061241 0.769971
O O13 0.633042 0.839285 0.931022
O O14 0.518551 0.779504 0.824869
#
# Coordination Sequence:
#
# PCOD9316696 Si02
#       7
#     8   8   8   8   8   8   4
#     4   8  17  35  60  87 126 168 213 273 329 388
#     4  10  18  35  63  93 124 173 223 268 332 405
#     4   9  19  39  65  89 132 173 212 279 332 396
#     4  10  20  37  59  89 130 169 215 275 326 398
#     4  10  21  39  66  93 126 178 222 274 338 409
#     4  10  20  39  60  95 129 168 227 270 332 404
#     4  10  20  40  58  88 126 172 220 266 336 398
#
# _framework density 22.908501000000001
#
# number of rings (size 3 to 8) (size 9 to 14) (size 15 to 20)
#    0.000    2.462    1.538    0.462    0.000    0.000 
#    5.538   27.692    0.000    0.000    0.000    0.000 
#    0.000    0.000    0.000    0.000    0.000    0.000 
#
# Total GULP energy -144798.243663 kJ/mol
# GULP energy per Si atom -5569.163218 kJ/mol
# Density = 2.285636 g / cm^3
# Si number density = 22.908501 Si / 1000 Ang^3
#
#
#
# Elastic Constant Matrix: (Units=GPa)
#
#
# Indices 1 2 3 4 5 6 
#
# 1 96.2744 23.7529 27.6789 0.0000 0.0000 0.0000
# 2 23.7529 156.8544 21.3249 0.0000 0.0000 0.0000
# 3 27.6789 21.3249 55.2677 0.0000 0.0000 0.0000
# 4 0.0000 0.0000 0.0000 33.2626 0.0000 0.0000
# 5 0.0000 0.0000 0.0000 0.0000 20.9788 0.0000
# 6 0.0000 0.0000 0.0000 0.0000 0.0000 15.5791
#
#
#
# Elastic Compliance Matrix: (Units=1/GPa)
#
#
# Indices 1 2 3 4 5 6 
#
# 1 0.012306 -0.001082 -0.005745 0.000000 0.000000 0.000000
# 2 -0.001082 0.006823 -0.002091 0.000000 0.000000 0.000000
# 3 -0.005745 -0.002091 0.021778 0.000000 0.000000 0.000000
# 4 0.000000 0.000000 0.000000 0.030064 0.000000 0.000000
# 5 0.000000 0.000000 0.000000 0.000000 0.047667 0.000000
# 6 0.000000 0.000000 0.000000 0.000000 0.000000 0.064189
#
#
# Mechanical properties :
#
#
# Convention : Reuss Voigt Hill
#
# Bulk Modulus (GPa) = 43.34593 50.43443 46.89018
# Shear Modulus (GPa) = 23.99768 29.67343 26.83556
#
# Velocity S-wave (km/s) = 3.24009 3.60294 3.42632
# Velocity P-wave (km/s) = 5.74108 6.27468 6.01380
#
# Compressibility (1/GPa) = 0.02307022
#
# Stress axis : x y z
#
# Youngs Moduli (GPa) = 81.26248 146.55244 45.91830
#
# Poissons Ratio (x) = 0.15863 0.26381
# Poissons Ratio (y) = 0.08796 0.09600
# Poissons Ratio (z) = 0.46688 0.30640
#
# Static dielectric constant tensor:
#      x y z
#    x 1.876850 0.000000 0.000000 
#    y 0.000000 1.966150 0.000000 
#    z 0.000000 0.000000 1.933120 
# 
# From -- ./inp_files/30455.got.cif
#   From: 2010.05.17/outbox.cif.g08.bks.cpg/sg20_16_cif.got.tgz:30455.got - 2010.06.03 22:52:26.
