data_PCOD9316727
_publ_section_title
;
Structure prediction by ZEFSAII (Michael W. Deem and Ramdas Pophale) SiO2 
 PCOD9316727
Probable space group: C 2 2 21
;
_chemical_formula_sum "Si O2"
_cell_formula_units_Z 32
_cell_length_a 35.750476
_cell_length_b 5.258188
_cell_length_c 7.880567
_cell_angle_alpha 90.000000
_cell_angle_beta 90.000000
_cell_angle_gamma 90.000000
_cell_volume 1481.410451
_symmetry_space_group_name_H-M "C 2 2 21"
_symmetry_group_IT_number 20
_symmetry_cell_setting 'orthorhombic'
loop_
_space_group_symop_operation_xyz
x,y,z
-x,-y,1/2+z
x,-y,-z
-x,y,1/2-z
1/2+x,1/2+y,z
1/2-x,1/2-y,1/2+z
1/2+x,1/2-y,-z
1/2-x,1/2+y,1/2-z
loop_
_atom_site_type_symbol
_atom_site_label
_atom_site_fract_x
_atom_site_fract_y
_atom_site_fract_z
Si Si1 0.030707 0.500000 0.500000
Si Si2 0.654125 0.249855 0.384678
Si Si3 0.228906 0.415915 0.805453
Si Si4 0.500000 0.377300 0.750000
Si Si5 0.424735 0.358722 0.184407
O O1 0.005788 0.283794 0.420571
O O2 0.058127 0.417285 0.649202
O O3 0.662425 0.500000 0.500000
O O4 0.689939 0.170990 0.276673
O O5 0.618317 0.326471 0.267889
O O6 0.644435 0.000000 0.500000
O O7 0.244601 0.667090 0.710063
O O8 0.225066 0.500000 0.000000
O O9 0.539956 0.514033 0.774213
O O10 0.422364 0.500000 0.000000
#
# Coordination Sequence:
#
# PCOD9316727 Si02
#       5
#     4   8   8   4   8
#     4  10  18  36  60  86 120 166 218 264 330 384
#     4  11  22  41  71 102 130 176 227 278 333 399
#     4  12  25  44  72 105 139 178 221 273 334 405
#     4  10  20  34  62  90 122 168 218 274 322 394
#     4   9  19  35  60  92 121 166 221 269 328 390
#
# _framework density 21.601033999999999
#
# number of rings (size 3 to 8) (size 9 to 14) (size 15 to 20)
#    0.000    1.500    1.250    5.250    0.000    0.000 
#    0.000    0.000   22.000    0.000    3.250    0.000 
#    0.000    0.000    0.000    0.000    0.000    0.000 
#
# Total GULP energy -89197.987032 kJ/mol
# GULP energy per Si atom -5574.874190 kJ/mol
# Density = 2.155187 g / cm^3
# Si number density = 21.601034 Si / 1000 Ang^3
#
#
#
# Elastic Constant Matrix: (Units=GPa)
#
#
# Indices 1 2 3 4 5 6 
#
# 1 229.5961 79.9749 71.4191 0.0000 0.0000 0.0000
# 2 79.9749 136.2003 38.8519 0.0000 0.0000 0.0000
# 3 71.4191 38.8519 61.4835 0.0000 0.0000 0.0000
# 4 0.0000 0.0000 0.0000 39.0501 0.0000 0.0000
# 5 0.0000 0.0000 0.0000 0.0000 29.7577 0.0000
# 6 0.0000 0.0000 0.0000 0.0000 0.0000 29.2364
#
#
#
# Elastic Compliance Matrix: (Units=1/GPa)
#
#
# Indices 1 2 3 4 5 6 
#
# 1 0.007366 -0.002299 -0.007104 0.000000 0.000000 0.000000
# 2 -0.002299 0.009674 -0.003443 0.000000 0.000000 0.000000
# 3 -0.007104 -0.003443 0.026692 0.000000 0.000000 0.000000
# 4 0.000000 0.000000 0.000000 0.025608 0.000000 0.000000
# 5 0.000000 0.000000 0.000000 0.000000 0.033605 0.000000
# 6 0.000000 0.000000 0.000000 0.000000 0.000000 0.034204
#
#
# Mechanical properties :
#
#
# Convention : Reuss Voigt Hill
#
# Bulk Modulus (GPa) = 55.42895 89.75241 72.59068
# Shear Modulus (GPa) = 29.61168 35.41111 32.51139
#
# Velocity S-wave (km/s) = 3.70651 4.05325 3.88375
# Velocity P-wave (km/s) = 6.63579 7.97153 7.33413
#
# Compressibility (1/GPa) = 0.01804111
#
# Stress axis : x y z
#
# Youngs Moduli (GPa) = 135.76130 103.36944 37.46504
#
# Poissons Ratio (x) = 0.23763 0.26613
# Poissons Ratio (y) = 0.31209 0.12899
# Poissons Ratio (z) = 0.96439 0.35588
#
# Static dielectric constant tensor:
#      x y z
#    x 1.817920 0.000000 0.000000 
#    y 0.000000 1.911460 0.000000 
#    z 0.000000 0.000000 1.773430 
# 
# From -- ./inp_files/11275.got.cif
#   From: 2010.05.17/outbox.cif.g08.bks.cpg/sg20_6_cif.got.tgz:11275.got - 2010.06.03 22:52:26.
