data_PCOD9316985
_publ_section_title
;
Structure prediction by ZEFSAII (Michael W. Deem and Ramdas Pophale) SiO2 
 PCOD9316985
Probable space group: C 2 2 21
;
_chemical_formula_sum "Si O2"
_cell_formula_units_Z 56
_cell_length_a 16.413419
_cell_length_b 34.065629
_cell_length_c 5.100671
_cell_angle_alpha 90.000000
_cell_angle_beta 90.000000
_cell_angle_gamma 90.000000
_cell_volume 2851.955734
_symmetry_space_group_name_H-M "C 2 2 21"
_symmetry_group_IT_number 20
_symmetry_cell_setting 'orthorhombic'
loop_
_space_group_symop_operation_xyz
x,y,z
-x,-y,1/2+z
x,-y,-z
-x,y,1/2-z
1/2+x,1/2+y,z
1/2-x,1/2-y,1/2+z
1/2+x,1/2-y,-z
1/2-x,1/2+y,1/2-z
loop_
_atom_site_type_symbol
_atom_site_label
_atom_site_fract_x
_atom_site_fract_y
_atom_site_fract_z
Si Si1 0.413227 0.378322 0.608347
Si Si2 0.271934 0.774661 0.397661
Si Si3 0.825870 0.146613 0.887407
Si Si4 0.229843 0.434602 0.116885
Si Si5 0.444045 0.186386 0.492880
Si Si6 0.679887 0.540277 0.106362
Si Si7 0.944509 0.405685 0.507290
O O1 0.500000 0.377430 0.750000
O O2 0.398774 0.360223 0.321050
O O3 0.382131 0.423277 0.587923
O O4 0.355466 0.355508 0.813335
O O5 0.231839 0.753355 0.646593
O O6 0.220946 0.813600 0.331087
O O7 0.363073 0.788264 0.470975
O O8 0.765921 0.109432 0.858921
O O9 0.246525 0.452871 0.400228
O O10 0.136809 0.430649 0.032402
O O11 0.282680 0.457039 0.896539
O O12 0.500000 0.188306 0.750000
O O13 0.421378 0.140368 0.448827
O O14 0.500000 0.199109 0.250000
O O15 0.641395 0.500000 0.000000
O O16 0.000000 0.407201 0.250000
O O17 0.000000 0.418313 0.750000
#
# Coordination Sequence:
#
# PCOD9316985 Si02
#       7
#     8   8   8   8   8   8   8
#     4  10  21  39  63  87 118 154 200 249 296 354
#     4  12  24  40  61  88 122 161 201 244 302 368
#     4  10  21  39  59  85 114 152 201 243 294 353
#     4  10  19  36  59  82 116 151 194 247 283 353
#     4  10  21  38  59  84 117 146 191 254 301 336
#     4  10  21  36  59  87 118 156 196 241 299 348
#     4  10  19  32  57  87 110 142 191 246 292 330
#
# _framework density 19.635649999999998
#
# number of rings (size 3 to 8) (size 9 to 14) (size 15 to 20)
#    0.000    1.714    1.429    3.429    0.000    0.000 
#    0.000   11.429    0.000    8.571    0.000    0.000 
#    0.000    0.000    0.000    0.000    0.000    0.000 
#
# Total GULP energy -156350.078406 kJ/mol
# GULP energy per Si atom -5583.931372 kJ/mol
# Density = 1.959096 g / cm^3
# Si number density = 19.635650 Si / 1000 Ang^3
#
#
#
# Elastic Constant Matrix: (Units=GPa)
#
#
# Indices 1 2 3 4 5 6 
#
# 1 65.7595 21.9902 9.7095 0.0000 0.0000 0.0000
# 2 21.9902 70.9224 21.9522 0.0000 0.0000 0.0000
# 3 9.7095 21.9522 102.8181 0.0000 0.0000 0.0000
# 4 0.0000 0.0000 0.0000 3956.6129 0.0000 0.0000
# 5 0.0000 0.0000 0.0000 0.0000 32.8963 0.0000
# 6 0.0000 0.0000 0.0000 0.0000 0.0000 20.6125
#
#
#
# Elastic Compliance Matrix: (Units=1/GPa)
#
#
# Indices 1 2 3 4 5 6 
#
# 1 0.016991 -0.005109 -0.000514 0.000000 0.000000 0.000000
# 2 -0.005109 0.016634 -0.003069 0.000000 0.000000 0.000000
# 3 -0.000514 -0.003069 0.010430 0.000000 0.000000 0.000000
# 4 0.000000 0.000000 0.000000 0.000253 0.000000 0.000000
# 5 0.000000 0.000000 0.000000 0.000000 0.030399 0.000000
# 6 0.000000 0.000000 0.000000 0.000000 0.000000 0.048514
#
#
# Mechanical properties :
#
#
# Convention : Reuss Voigt Hill
#
# Bulk Modulus (GPa) = 37.49379 38.53375 38.01377
# Shear Modulus (GPa) = 33.44593 814.41421 423.93007
#
# Velocity S-wave (km/s) = 4.13162 20.38783 14.70941
# Velocity P-wave (km/s) = 6.47275 23.95590 17.54682
#
# Compressibility (1/GPa) = 0.02667108
#
# Stress axis : x y z
#
# Youngs Moduli (GPa) = 58.85342 60.11764 95.88033
#
# Poissons Ratio (x) = 0.30716 0.04925
# Poissons Ratio (y) = 0.30070 0.29425
# Poissons Ratio (z) = 0.03023 0.18450
#
# Static dielectric constant tensor:
#      x y z
#    x -1.081320 0.000000 0.000000 
#    y 0.000000 1.702840 0.000000 
#    z 0.000000 0.000000 1.652600 
# 
# From -- ./inp_files/2227.got.cif
#   From: 2010.05.17/outbox.cif.g08.bks.cpg/sg20_2_cif.got.tgz:2227.got - 2010.06.03 22:52:26.
