data_PCOD9316512
_publ_section_title
;
Structure prediction by ZEFSAII (Michael W. Deem and Ramdas Pophale) SiO2 
 PCOD9316512
Probable space group: C 2 2 21
;
_chemical_formula_sum "Si O2"
_cell_formula_units_Z 56
_cell_length_a 7.339280
_cell_length_b 23.794507
_cell_length_c 14.298060
_cell_angle_alpha 90.000000
_cell_angle_beta 90.000000
_cell_angle_gamma 90.000000
_cell_volume 2496.935264
_symmetry_space_group_name_H-M "C 2 2 21"
_symmetry_group_IT_number 20
_symmetry_cell_setting 'orthorhombic'
loop_
_space_group_symop_operation_xyz
x,y,z
-x,-y,1/2+z
x,-y,-z
-x,y,1/2-z
1/2+x,1/2+y,z
1/2-x,1/2-y,1/2+z
1/2+x,1/2-y,-z
1/2-x,1/2+y,1/2-z
loop_
_atom_site_type_symbol
_atom_site_label
_atom_site_fract_x
_atom_site_fract_y
_atom_site_fract_z
Si Si1 0.378169 0.268949 0.475008
Si Si2 0.777948 0.880147 0.554796
Si Si3 0.136874 0.822852 0.323108
Si Si4 0.932135 0.356371 0.448901
Si Si5 0.832919 0.941476 0.947262
Si Si6 0.801599 0.772782 0.796007
Si Si7 0.280574 0.603118 0.239607
O O1 0.327765 0.313407 0.556109
O O2 0.531370 0.303395 0.416698
O O3 0.425197 0.206857 0.509794
O O4 0.223611 0.256260 0.396587
O O5 0.633069 0.881299 0.469900
O O6 0.700460 0.899400 0.655908
O O7 0.962045 0.916117 0.543986
O O8 0.328333 0.851934 0.349294
O O9 0.185538 0.765391 0.272118
O O10 0.000000 0.853465 0.250000
O O11 0.736671 0.443908 0.660416
O O12 0.798704 0.397000 0.504938
O O13 0.825206 0.000000 0.000000
O O14 0.729125 0.836112 0.801412
O O15 0.000000 0.772895 0.750000
O O16 0.500000 0.606063 0.250000
#
# Coordination Sequence:
#
# PCOD9316512 Si02
#       7
#     8   8   8   8   8   8   8
#     4  11  20  35  60 101 148 182 226 290 365 438
#     4  11  24  39  70 103 136 181 239 301 361 434
#     4  10  22  36  56  98 152 196 221 281 361 438
#     4  12  22  39  67 102 139 187 238 289 367 430
#     4  11  25  46  67  94 137 186 242 301 360 429
#     4  10  18  31  56  93 146 184 226 274 352 443
#     4   9  19  38  62  97 131 177 230 298 358 412
#
# _framework density 22.427493999999999
#
# number of rings (size 3 to 8) (size 9 to 14) (size 15 to 20)
#    0.000    1.429    2.857    3.429    0.000    1.143 
#    0.000    2.143    0.000    0.000    0.000    0.000 
#    0.000    0.000    0.000    0.000    0.000    0.000 
#
# Total GULP energy -156245.001880 kJ/mol
# GULP energy per Si atom -5580.178639 kJ/mol
# Density = 2.237645 g / cm^3
# Si number density = 22.427494 Si / 1000 Ang^3
#
#
#
# Elastic Constant Matrix: (Units=GPa)
#
#
# Indices 1 2 3 4 5 6 
#
# 1 90.1265 7.9419 10.1138 0.0000 0.0000 0.0000
# 2 7.9419 66.6093 28.4256 0.0000 0.0000 0.0000
# 3 10.1138 28.4256 71.9550 0.0000 0.0000 0.0000
# 4 0.0000 0.0000 0.0000 36.1599 0.0000 0.0000
# 5 0.0000 0.0000 0.0000 0.0000 37.8251 0.0000
# 6 0.0000 0.0000 0.0000 0.0000 0.0000 9.9724
#
#
#
# Elastic Compliance Matrix: (Units=1/GPa)
#
#
# Indices 1 2 3 4 5 6 
#
# 1 0.011309 -0.000806 -0.001271 0.000000 0.000000 0.000000
# 2 -0.000806 0.018115 -0.007043 0.000000 0.000000 0.000000
# 3 -0.001271 -0.007043 0.016858 0.000000 0.000000 0.000000
# 4 0.000000 0.000000 0.000000 0.027655 0.000000 0.000000
# 5 0.000000 0.000000 0.000000 0.000000 0.026437 0.000000
# 6 0.000000 0.000000 0.000000 0.000000 0.000000 0.100277
#
#
# Mechanical properties :
#
#
# Convention : Reuss Voigt Hill
#
# Bulk Modulus (GPa) = 35.66038 35.73927 35.69983
# Shear Modulus (GPa) = 21.90686 28.93878 25.42282
#
# Velocity S-wave (km/s) = 3.12875 3.59601 3.37048
# Velocity P-wave (km/s) = 5.38395 5.76296 5.57668
#
# Compressibility (1/GPa) = 0.02804233
#
# Stress axis : x y z
#
# Youngs Moduli (GPa) = 88.42369 55.20429 59.31728
#
# Poissons Ratio (x) = 0.04449 0.07541
# Poissons Ratio (y) = 0.07126 0.41776
# Poissons Ratio (z) = 0.11241 0.38879
#
# Static dielectric constant tensor:
#      x y z
#    x 1.978760 0.000000 0.000000 
#    y 0.000000 1.749830 0.000000 
#    z 0.000000 0.000000 1.976330 
# 
# From -- ./inp_files/19225.got.cif
#   From: 2010.05.17/outbox.cif.g08.bks.cpg/sg20_10_cif.got.tgz:19225.got - 2010.06.03 22:52:26.
