data_PCOD9316103
_publ_section_title
;
Structure prediction by ZEFSAII (Michael W. Deem and Ramdas Pophale) SiO2 
 PCOD9316103
Probable space group: P 21 21 21
;
_chemical_formula_sum "Si O2"
_cell_formula_units_Z 12
_cell_length_a 9.678250
_cell_length_b 4.934379
_cell_length_c 9.791845
_cell_angle_alpha 90.000000
_cell_angle_beta 90.000000
_cell_angle_gamma 90.000000
_cell_volume 467.620853
_symmetry_space_group_name_H-M "P 21 21 21"
_symmetry_group_IT_number 19
_symmetry_cell_setting 'orthorhombic'
loop_
_space_group_symop_operation_xyz
x,y,z
1/2-x,-y,1/2+z
1/2+x,1/2-y,-z
-x,1/2+y,1/2-z
loop_
_atom_site_type_symbol
_atom_site_label
_atom_site_fract_x
_atom_site_fract_y
_atom_site_fract_z
Si Si1 0.256567 0.617387 0.472645
Si Si2 0.087367 0.592721 0.220830
Si Si3 0.007846 0.079772 0.843562
O O1 0.200675 0.496142 0.331083
O O2 0.352529 0.438560 0.570639
O O3 0.351981 0.867507 0.427124
O O4 0.119617 0.669475 0.561206
O O5 0.957432 0.395533 0.242933
O O6 0.011432 0.278655 0.712602
#
# Coordination Sequence:
#
# PCOD9316103 Si02
#       3
#     4   4   4
#     4  12  28  50  80 110 152 198 248 310 372 442
#     4  12  30  48  76 114 152 196 250 306 374 442
#     4  12  30  48  76 114 152 196 250 306 374 442
#
# _framework density 25.661816000000002
#
# number of rings (size 3 to 8) (size 9 to 14) (size 15 to 20)
#    0.000    0.000    6.667    0.000    9.333    5.333 
#    0.000    0.000    0.000    0.000    0.000    0.000 
#    0.000    0.000    0.000    0.000    0.000    0.000 
#
# Total GULP energy -67304.627716 kJ/mol
# GULP energy per Si atom -5608.718976 kJ/mol
# Density = 2.560341 g / cm^3
# Si number density = 25.661816 Si / 1000 Ang^3
#
#
#
# Elastic Constant Matrix: (Units=GPa)
#
#
# Indices 1 2 3 4 5 6 
#
# 1 75.9610 8.8979 12.1576 0.0000 0.0000 0.0000
# 2 8.8979 74.9074 22.5535 0.0000 0.0000 0.0000
# 3 12.1576 22.5535 135.5499 0.0000 0.0000 0.0000
# 4 0.0000 0.0000 0.0000 28.6580 0.0000 0.0000
# 5 0.0000 0.0000 0.0000 0.0000 80.2902 0.0000
# 6 0.0000 0.0000 0.0000 0.0000 0.0000 19.3830
#
#
#
# Elastic Compliance Matrix: (Units=1/GPa)
#
#
# Indices 1 2 3 4 5 6 
#
# 1 0.013476 -0.001302 -0.000992 0.000000 0.000000 0.000000
# 2 -0.001302 0.014180 -0.002243 0.000000 0.000000 0.000000
# 3 -0.000992 -0.002243 0.007839 0.000000 0.000000 0.000000
# 4 0.000000 0.000000 0.000000 0.034894 0.000000 0.000000
# 5 0.000000 0.000000 0.000000 0.000000 0.012455 0.000000
# 6 0.000000 0.000000 0.000000 0.000000 0.000000 0.051592
#
#
# Mechanical properties :
#
#
# Convention : Reuss Voigt Hill
#
# Bulk Modulus (GPa) = 37.84740 41.51514 39.68127
# Shear Modulus (GPa) = 32.82647 41.85354 37.34000
#
# Velocity S-wave (km/s) = 3.58046 4.04290 3.81869
# Velocity P-wave (km/s) = 5.64566 6.16493 5.91100
#
# Compressibility (1/GPa) = 0.02642189
#
# Stress axis : x y z
#
# Youngs Moduli (GPa) = 74.20632 70.52351 127.55996
#
# Poissons Ratio (x) = 0.09183 0.12654
# Poissons Ratio (y) = 0.09662 0.28605
# Poissons Ratio (z) = 0.07361 0.15815
#
# Static dielectric constant tensor:
#      x y z
#    x 2.033540 0.000000 0.000000 
#    y 0.000000 1.906730 0.000000 
#    z 0.000000 0.000000 1.991360 
# 
# From -- ./inp_files/245.got.cif
#   From: 2010.05.17/outbox.cif.g08.bks.cpg/sg19_1_cif.got.tgz:245.got - 2010.06.03 22:46:19.
