data_PCOD9316524
_publ_section_title
;
Structure prediction by ZEFSAII (Michael W. Deem and Ramdas Pophale) SiO2 
 PCOD9316524
Probable space group: C 2 2 21
;
_chemical_formula_sum "Si O2"
_cell_formula_units_Z 36
_cell_length_a 9.441065
_cell_length_b 12.643908
_cell_length_c 12.512480
_cell_angle_alpha 90.000000
_cell_angle_beta 90.000000
_cell_angle_gamma 90.000000
_cell_volume 1493.639228
_symmetry_space_group_name_H-M "C 2 2 21"
_symmetry_group_IT_number 20
_symmetry_cell_setting 'orthorhombic'
loop_
_space_group_symop_operation_xyz
x,y,z
-x,-y,1/2+z
x,-y,-z
-x,y,1/2-z
1/2+x,1/2+y,z
1/2-x,1/2-y,1/2+z
1/2+x,1/2-y,-z
1/2-x,1/2+y,1/2-z
loop_
_atom_site_type_symbol
_atom_site_label
_atom_site_fract_x
_atom_site_fract_y
_atom_site_fract_z
Si Si1 0.501153 0.676678 0.623142
Si Si2 0.222026 0.334981 0.899080
Si Si3 0.008418 0.063060 0.121304
Si Si4 0.968381 0.500000 0.500000
Si Si5 0.827007 0.613271 0.148515
O O1 0.500000 0.666425 0.750000
O O2 0.345176 0.719876 0.595345
O O3 0.524008 0.557376 0.585232
O O4 0.609140 0.774787 0.606881
O O5 0.389114 0.350553 0.907586
O O6 0.180097 0.379192 0.778829
O O7 0.140041 0.402138 0.989551
O O8 0.000000 0.059658 0.250000
O O9 0.170599 0.094091 0.104355
O O10 0.071677 0.478724 0.600943
#
# Coordination Sequence:
#
# PCOD9316524 Si02
#       5
#     8   8   8   4   8
#     4   8  15  31  52  73 101 133 164 205 253 297
#     4   9  18  33  52  75 103 133 169 210 250 299
#     4   9  17  32  54  75  99 134 170 208 253 295
#     4  10  18  32  52  74 104 138 166 206 256 296
#     4   9  18  33  52  75 103 133 169 210 250 299
#
# _framework density 24.102207
#
# number of rings (size 3 to 8) (size 9 to 14) (size 15 to 20)
#    0.000    3.111    0.000    2.000    0.000    0.889 
#    0.000   13.333    0.000   24.000    0.000    0.000 
#    0.000    0.000    0.000    0.000    0.000    0.000 
#
# Total GULP energy -100446.178747 kJ/mol
# GULP energy per Si atom -5580.343264 kJ/mol
# Density = 2.404735 g / cm^3
# Si number density = 24.102207 Si / 1000 Ang^3
#
#
#
# Elastic Constant Matrix: (Units=GPa)
#
#
# Indices 1 2 3 4 5 6 
#
# 1 176.0136 43.5194 15.1388 0.0000 0.0000 0.0000
# 2 43.5194 106.0658 47.1613 0.0000 0.0000 0.0000
# 3 15.1388 47.1613 93.1056 0.0000 0.0000 0.0000
# 4 0.0000 0.0000 0.0000 44.4447 0.0000 0.0000
# 5 0.0000 0.0000 0.0000 0.0000 39.6716 0.0000
# 6 0.0000 0.0000 0.0000 0.0000 0.0000 0.4882
#
#
#
# Elastic Compliance Matrix: (Units=1/GPa)
#
#
# Indices 1 2 3 4 5 6 
#
# 1 0.006333 -0.002763 0.000370 0.000000 0.000000 0.000000
# 2 -0.002763 0.013374 -0.006325 0.000000 0.000000 0.000000
# 3 0.000370 -0.006325 0.013884 0.000000 0.000000 0.000000
# 4 0.000000 0.000000 0.000000 0.022500 0.000000 0.000000
# 5 0.000000 0.000000 0.000000 0.000000 0.025207 0.000000
# 6 0.000000 0.000000 0.000000 0.000000 0.000000 2.048433
#
#
# Mechanical properties :
#
#
# Convention : Reuss Voigt Hill
#
# Bulk Modulus (GPa) = 61.90167 65.20264 63.55216
# Shear Modulus (GPa) = 2.32282 34.87861 18.60072
#
# Velocity S-wave (km/s) = 0.98277 3.80822 2.78104
# Velocity P-wave (km/s) = 5.19870 6.81528 6.06113
#
# Compressibility (1/GPa) = 0.01615465
#
# Stress axis : x y z
#
# Youngs Moduli (GPa) = 157.91148 74.77116 72.02359
#
# Poissons Ratio (x) = 0.20657 -0.02663
# Poissons Ratio (y) = 0.43627 0.45557
# Poissons Ratio (z) = -0.05839 0.47295
#
# Static dielectric constant tensor:
#      x y z
#    x 1.923280 0.000000 0.000000 
#    y 0.000000 1.879740 0.000000 
#    z 0.000000 0.000000 2.072550 
# 
# From -- ./inp_files/18451.got.cif
#   From: 2010.05.17/outbox.cif.g08.bks.cpg/sg20_10_cif.got.tgz:18451.got - 2010.06.03 22:52:26.
