data_PCOD9316945
_publ_section_title
;
Structure prediction by ZEFSAII (Michael W. Deem and Ramdas Pophale) SiO2 
 PCOD9316945
Probable space group: C 2 2 21
;
_chemical_formula_sum "Si O2"
_cell_formula_units_Z 64
_cell_length_a 21.254062
_cell_length_b 5.559575
_cell_length_c 29.299833
_cell_angle_alpha 90.000000
_cell_angle_beta 90.000000
_cell_angle_gamma 90.000000
_cell_volume 3462.172333
_symmetry_space_group_name_H-M "C 2 2 21"
_symmetry_group_IT_number 20
_symmetry_cell_setting 'orthorhombic'
loop_
_space_group_symop_operation_xyz
x,y,z
-x,-y,1/2+z
x,-y,-z
-x,y,1/2-z
1/2+x,1/2+y,z
1/2-x,1/2-y,1/2+z
1/2+x,1/2-y,-z
1/2-x,1/2+y,1/2-z
loop_
_atom_site_type_symbol
_atom_site_label
_atom_site_fract_x
_atom_site_fract_y
_atom_site_fract_z
Si Si1 0.422881 0.993292 0.399735
Si Si2 0.555151 0.493776 0.054335
Si Si3 0.562758 0.514455 0.381498
Si Si4 0.969177 0.008659 0.294590
Si Si5 0.235021 0.193420 0.275216
Si Si6 0.932357 0.489426 0.862970
Si Si7 0.897475 0.605764 0.763878
Si Si8 0.644650 0.804874 0.818665
O O1 0.415528 0.240285 0.428570
O O2 0.494656 0.005233 0.379713
O O3 0.375525 0.009429 0.357365
O O4 0.415490 0.742935 0.426483
O O5 0.485383 0.498699 0.076463
O O6 0.553684 0.500000 0.000000
O O7 0.521071 0.529385 0.334300
O O8 0.597451 0.261302 0.378389
O O9 0.597736 0.767661 0.382694
O O10 0.941747 0.244309 0.269858
O O11 0.000000 0.876955 0.250000
O O12 0.908302 0.900737 0.320264
O O13 0.254009 0.418467 0.241746
O O14 0.160436 0.228085 0.280799
O O15 0.281216 0.243813 0.318011
O O16 0.929776 0.502415 0.808524
O O17 0.868029 0.402624 0.732206
#
# Coordination Sequence:
#
# PCOD9316945 Si02
#       8
#     8   8   8   8   8   8   8   8
#     4  10  21  32  51  74 102 130 164 211 261 304
#     4  10  19  34  51  73 103 134 161 199 263 329
#     4  10  20  32  45  74  99 130 160 204 251 297
#     4  12  20  29  50  72 101 140 169 212 250 291
#     4  10  22  37  47  65  94 143 180 213 240 282
#     4  10  19  32  45  70 100 124 166 207 240 287
#     4  11  22  31  49  68 100 141 185 206 243 289
#     4  11  22  33  48  67 106 137 178 214 251 296
#
# _framework density 18.485503999999999
#
# number of rings (size 3 to 8) (size 9 to 14) (size 15 to 20)
#    0.000    1.500    5.000    2.625    0.000    0.000 
#    0.000    0.000    0.000    0.000    0.000    0.000 
#    0.000   16.000    0.000    1.125    0.000    0.000 
#
# Total GULP energy -178206.338086 kJ/mol
# GULP energy per Si atom -5568.948065 kJ/mol
# Density = 1.844343 g / cm^3
# Si number density = 18.485504 Si / 1000 Ang^3
#
#
#
# Elastic Constant Matrix: (Units=GPa)
#
#
# Indices 1 2 3 4 5 6 
#
# 1 33.7845 9.3526 19.9143 0.0000 0.0000 0.0000
# 2 9.3526 135.9011 25.0214 0.0000 0.0000 0.0000
# 3 19.9143 25.0214 85.7052 0.0000 0.0000 0.0000
# 4 0.0000 0.0000 0.0000 24.9361 0.0000 0.0000
# 5 0.0000 0.0000 0.0000 0.0000 10.2391 0.0000
# 6 0.0000 0.0000 0.0000 0.0000 0.0000 12.2839
#
#
#
# Elastic Compliance Matrix: (Units=1/GPa)
#
#
# Indices 1 2 3 4 5 6 
#
# 1 0.034412 -0.000947 -0.007719 0.000000 0.000000 0.000000
# 2 -0.000947 0.007802 -0.002058 0.000000 0.000000 0.000000
# 3 -0.007719 -0.002058 0.014062 0.000000 0.000000 0.000000
# 4 0.000000 0.000000 0.000000 0.040103 0.000000 0.000000
# 5 0.000000 0.000000 0.000000 0.000000 0.097665 0.000000
# 6 0.000000 0.000000 0.000000 0.000000 0.000000 0.081407
#
#
# Mechanical properties :
#
#
# Convention : Reuss Voigt Hill
#
# Bulk Modulus (GPa) = 28.71249 40.44084 34.57666
# Shear Modulus (GPa) = 16.20700 22.89865 19.55283
#
# Velocity S-wave (km/s) = 2.96419 3.52339 3.25582
# Velocity P-wave (km/s) = 5.22316 6.20297 5.73403
#
# Compressibility (1/GPa) = 0.03482805
#
# Stress axis : x y z
#
# Youngs Moduli (GPa) = 29.05988 128.16673 71.11194
#
# Poissons Ratio (x) = 0.12137 0.54894
# Poissons Ratio (y) = 0.02752 0.14634
# Poissons Ratio (z) = 0.22432 0.26375
#
# Static dielectric constant tensor:
#      x y z
#    x 1.705750 0.000000 0.000000 
#    y 0.000000 1.788480 0.000000 
#    z 0.000000 0.000000 1.624550 
# 
# From -- ./inp_files/29995.got.cif
#   From: 2010.05.17/outbox.cif.g08.bks.cpg/sg20_15_cif.got.tgz:29995.got - 2010.06.03 22:52:26.
