data_PCOD9316790
_publ_section_title
;
Structure prediction by ZEFSAII (Michael W. Deem and Ramdas Pophale) SiO2 
 PCOD9316790
Probable space group: C 2 2 21
;
_chemical_formula_sum "Si O2"
_cell_formula_units_Z 64
_cell_length_a 31.921889
_cell_length_b 11.260149
_cell_length_c 8.031483
_cell_angle_alpha 90.000000
_cell_angle_beta 90.000000
_cell_angle_gamma 90.000000
_cell_volume 2886.878226
_symmetry_space_group_name_H-M "C 2 2 21"
_symmetry_group_IT_number 20
_symmetry_cell_setting 'orthorhombic'
loop_
_space_group_symop_operation_xyz
x,y,z
-x,-y,1/2+z
x,-y,-z
-x,y,1/2-z
1/2+x,1/2+y,z
1/2-x,1/2-y,1/2+z
1/2+x,1/2-y,-z
1/2-x,1/2+y,1/2-z
loop_
_atom_site_type_symbol
_atom_site_label
_atom_site_fract_x
_atom_site_fract_y
_atom_site_fract_z
Si Si1 0.371564 0.580267 0.666130
Si Si2 0.378186 0.638658 0.119806
Si Si3 0.198044 0.723983 0.721800
Si Si4 0.434632 0.800946 0.332122
Si Si5 0.861440 0.479554 0.324302
Si Si6 0.409147 0.792231 0.804726
Si Si7 0.986773 0.636876 0.999409
Si Si8 0.717239 0.636083 0.941626
O O1 0.373784 0.500000 0.500000
O O2 0.380326 0.499275 0.828402
O O3 0.401553 0.694373 0.662108
O O4 0.323994 0.627771 0.673039
O O5 0.329673 0.676117 0.131279
O O6 0.406045 0.692964 0.272163
O O7 0.395361 0.715320 0.965571
O O8 0.168573 0.606929 0.720711
O O9 0.242283 0.690770 0.644573
O O10 0.204811 0.779762 0.904210
O O11 0.471949 0.786033 0.464125
O O12 0.458057 0.845666 0.164194
O O13 0.401962 0.902949 0.377605
O O14 0.838462 0.500000 0.500000
O O15 0.878998 0.595369 0.230371
O O16 0.456220 0.834563 0.846116
O O17 0.000129 0.500000 0.000000
O O18 0.725733 0.500000 0.000000
#
# Coordination Sequence:
#
# PCOD9316790 Si02
#       8
#     8   8   8   8   8   8   8   8
#     4  11  23  47  68  92 138 191 236 283 346 416
#     4  10  22  43  69  98 134 184 234 278 343 416
#     4  11  25  43  66  99 138 174 230 288 347 415
#     4   9  20  35  66  95 140 176 205 278 345 404
#     4  11  23  40  64 103 142 178 222 279 357 419
#     4  11  24  39  72 105 134 181 236 283 341 424
#     4  10  18  38  60 105 140 166 219 277 344 411
#     4  11  25  45  66  99 137 186 231 287 358 413
#
# _framework density 22.169274000000001
#
# number of rings (size 3 to 8) (size 9 to 14) (size 15 to 20)
#    0.000    1.500    3.750    1.500    5.250    1.000 
#    0.000    0.000    0.000    6.000    0.000    0.000 
#    0.000    0.000    0.000    0.000    0.000    0.000 
#
# Total GULP energy -178664.446731 kJ/mol
# GULP energy per Si atom -5583.263960 kJ/mol
# Density = 2.211882 g / cm^3
# Si number density = 22.169274 Si / 1000 Ang^3
#
#
#
# Elastic Constant Matrix: (Units=GPa)
#
#
# Indices 1 2 3 4 5 6 
#
# 1 91.9398 37.0333 14.4660 0.0000 0.0000 0.0000
# 2 37.0333 115.7439 8.5309 0.0000 0.0000 0.0000
# 3 14.4660 8.5309 52.5572 0.0000 0.0000 0.0000
# 4 0.0000 0.0000 0.0000 31.7879 0.0000 0.0000
# 5 0.0000 0.0000 0.0000 0.0000 26.6531 0.0000
# 6 0.0000 0.0000 0.0000 0.0000 0.0000 15.3046
#
#
#
# Elastic Compliance Matrix: (Units=1/GPa)
#
#
# Indices 1 2 3 4 5 6 
#
# 1 0.012914 -0.003917 -0.002919 0.000000 0.000000 0.000000
# 2 -0.003917 0.009932 -0.000534 0.000000 0.000000 0.000000
# 3 -0.002919 -0.000534 0.019917 0.000000 0.000000 0.000000
# 4 0.000000 0.000000 0.000000 0.031459 0.000000 0.000000
# 5 0.000000 0.000000 0.000000 0.000000 0.037519 0.000000
# 6 0.000000 0.000000 0.000000 0.000000 0.000000 0.065340
#
#
# Mechanical properties :
#
#
# Convention : Reuss Voigt Hill
#
# Bulk Modulus (GPa) = 35.68385 42.25570 38.96977
# Shear Modulus (GPa) = 24.85580 28.09650 26.47615
#
# Velocity S-wave (km/s) = 3.35204 3.56386 3.45957
# Velocity P-wave (km/s) = 5.57787 6.00306 5.79436
#
# Compressibility (1/GPa) = 0.02802388
#
# Stress axis : x y z
#
# Youngs Moduli (GPa) = 77.43810 100.68148 50.20858
#
# Poissons Ratio (x) = 0.39434 0.14654
# Poissons Ratio (y) = 0.30330 0.02682
# Poissons Ratio (z) = 0.22601 0.05378
#
# Static dielectric constant tensor:
#      x y z
#    x 1.768130 0.000000 0.000000 
#    y 0.000000 1.819710 0.000000 
#    z 0.000000 0.000000 1.984570 
# 
# From -- ./inp_files/11636.got.cif
#   From: 2010.05.17/outbox.cif.g08.bks.cpg/sg20_6_cif.got.tgz:11636.got - 2010.06.03 22:52:26.
